REMARK SMILES O=C(CS(=O)(=O)N1CCC1)NCCCCCCNC(=O)c1ccc(-c2c3nc(c(-c4c(F)cc(S(=O)(=O)[O-])cc4F)c4ccc([nH]4)c(-c4c(F)cc(S(=O)(=O)[O-])cc4F)c4nc(c(-c5c(F)cc(S(=O)(=O)[O-])cc5F)c5ccc2[nH]5)C=C4)C=C3)cc1
REMARK SMILES IDX 15 1 14 2 13 3 12 4 11 5 1 6 2 7 3 9 4 10 5 11 6 12 7 13
REMARK SMILES IDX 8 14 10 15 9 16 16 17 17 18 18 19 19 20 20 22 21 23 22 24
REMARK SMILES IDX 86 25 23 26 85 27 24 28 25 29 26 30 79 31 27 32 84 33 78 34
REMARK SMILES IDX 80 35 28 36 83 37 77 38 76 39 29 41 63 42 42 43 62 44 43 45
REMARK SMILES IDX 46 46 61 47 81 48 44 49 45 50 60 52 82 53 47 54 30 55 31 56
REMARK SMILES IDX 40 57 32 58 33 59 39 60 41 61 34 62 35 63 36 64 37 65 38 66
REMARK SMILES IDX 64 67 65 68 74 69 66 70 67 71 73 72 75 73 68 74 69 75 70 76
REMARK SMILES IDX 71 77 72 78 48 79 49 80 58 81 50 82 51 83 57 84 59 85 52 86
REMARK SMILES IDX 53 87 54 88 55 89 56 90
REMARK H PARENT 11 8 18 21 80 40 46 51
REMARK Flexibility Score: inf
ROOT
ATOM      1  C   UNL     1       4.567   0.330   4.192  1.00  0.00     0.002 C 
ENDROOT
BRANCH   1   2
ATOM      2  C   UNL     1       4.119  -0.971   3.518  1.00  0.00     0.002 C 
BRANCH   2   3
ATOM      3  C   UNL     1       2.620  -1.074   3.206  1.00  0.00     0.021 C 
BRANCH   3   4
ATOM      4  C   UNL     1       2.075   0.033   2.307  1.00  0.00     0.116 C 
BRANCH   4   5
ATOM      5  N   UNL     1       2.751   0.062   1.024  1.00  0.00    -0.355 N 
ATOM      6  O   UNL     1       0.870  -0.148  -0.262  1.00  0.00    -0.274 OA
ATOM      7  C   UNL     1       2.089  -0.004  -0.179  1.00  0.00     0.236 C 
ATOM      8  H   UNL     1       3.733   0.132   1.015  1.00  0.00     0.163 HD
BRANCH   7   9
ATOM      9  C   UNL     1       2.946   0.009  -1.406  1.00  0.00     0.253 C 
BRANCH   9  10
ATOM     10  S   UNL     1       3.996   1.431  -1.473  1.00  0.00     0.223 S 
ATOM     11  O   UNL     1       4.827   1.442  -0.284  1.00  0.00    -0.212 OA
ATOM     12  O   UNL     1       4.607   1.468  -2.788  1.00  0.00    -0.212 OA
BRANCH  10  13
ATOM     13  N   UNL     1       2.934   2.733  -1.379  1.00  0.00    -0.201 NA
ATOM     14  C   UNL     1       2.220   3.202  -0.147  1.00  0.00     0.103 C 
ATOM     15  C   UNL     1       3.352   4.150  -1.623  1.00  0.00     0.103 C 
ATOM     16  C   UNL     1       2.210   4.630  -0.713  1.00  0.00     0.033 C 
ENDBRANCH  10  13
ENDBRANCH   9  10
ENDBRANCH   7   9
ENDBRANCH   4   5
ENDBRANCH   3   4
ENDBRANCH   2   3
ENDBRANCH   1   2
BRANCH   1  17
ATOM     17  C   UNL     1       3.875   0.655   5.518  1.00  0.00     0.021 C 
BRANCH  17  18
ATOM     18  C   UNL     1       3.999  -0.416   6.598  1.00  0.00     0.116 C 
BRANCH  18  19
ATOM     19  N   UNL     1       5.376  -0.646   7.005  1.00  0.00    -0.352 N 
ATOM     20  C   UNL     1       5.913  -0.714   8.269  1.00  0.00     0.251 C 
ATOM     21  H   UNL     1       6.018  -0.772   6.269  1.00  0.00     0.163 HD
ATOM     22  O   UNL     1       7.131  -0.768   8.413  1.00  0.00    -0.269 OA
BRANCH  20  23
ATOM     23  C   UNL     1       5.027  -0.692   9.456  1.00  0.00     0.039 A 
ATOM     24  C   UNL     1       5.369   0.124  10.537  1.00  0.00     0.014 A 
ATOM     25  C   UNL     1       3.870  -1.474   9.508  1.00  0.00     0.014 A 
ATOM     26  C   UNL     1       4.516   0.207  11.642  1.00  0.00     0.010 A 
ATOM     27  C   UNL     1       2.989  -1.340  10.579  1.00  0.00     0.010 A 
ATOM     28  C   UNL     1       3.302  -0.497  11.658  1.00  0.00    -0.014 A 
BRANCH  28  29
ATOM     29  C   UNL     1       2.343  -0.360  12.786  1.00  0.00     0.031 A 
ATOM     30  C   UNL     1       2.020  -1.544  13.656  1.00  0.00     0.074 A 
ATOM     31  C   UNL     1       1.714   0.816  12.986  1.00  0.00     0.049 A 
ATOM     32  N   UNL     1       1.164  -1.636  14.642  1.00  0.00    -0.248 NA
ATOM     33  C   UNL     1       2.734  -2.796  13.362  1.00  0.00     0.031 C 
ATOM     34  C   UNL     1       1.909   2.027  12.186  1.00  0.00     0.029 A 
ATOM     35  N   UNL     1       0.776   1.183  13.918  1.00  0.00    -0.354 N 
ATOM     36  C   UNL     1       1.224  -2.956  15.075  1.00  0.00     0.074 A 
ATOM     37  C   UNL     1       2.164  -3.639  14.212  1.00  0.00     0.031 C 
ATOM     38  C   UNL     1       1.135   3.008  12.677  1.00  0.00     0.029 A 
ATOM     39  C   UNL     1       0.362   2.489  13.801  1.00  0.00     0.049 A 
ATOM     40  H   UNL     1       0.432   0.569  14.607  1.00  0.00     0.167 HD
ATOM     41  C   UNL     1       0.571  -3.540  16.108  1.00  0.00     0.037 A 
ATOM     42  C   UNL     1      -0.542   3.189  14.514  1.00  0.00     0.037 A 
ATOM     43  C   UNL     1      -0.344  -2.850  16.979  1.00  0.00     0.049 A 
ATOM     44  C   UNL     1      -1.260   2.516  15.653  1.00  0.00     0.074 A 
ATOM     45  C   UNL     1      -1.007  -3.337  18.093  1.00  0.00     0.029 A 
ATOM     46  N   UNL     1      -0.731  -1.525  16.834  1.00  0.00    -0.354 N 
ATOM     47  N   UNL     1      -1.143   1.284  16.089  1.00  0.00    -0.248 NA
ATOM     48  C   UNL     1      -2.231   3.329  16.399  1.00  0.00     0.031 C 
ATOM     49  C   UNL     1      -1.826  -2.319  18.595  1.00  0.00     0.029 A 
ATOM     50  C   UNL     1      -1.639  -1.184  17.823  1.00  0.00     0.049 A 
ATOM     51  H   UNL     1      -0.407  -0.917  16.130  1.00  0.00     0.167 HD
ATOM     52  C   UNL     1      -2.002   1.184  17.178  1.00  0.00     0.074 A 
ATOM     53  C   UNL     1      -2.626   2.481  17.338  1.00  0.00     0.031 C 
ATOM     54  C   UNL     1      -2.248   0.114  17.975  1.00  0.00     0.037 A 
BRANCH  41  55
ATOM     55  C   UNL     1       0.826  -5.004  16.350  1.00  0.00     0.058 A 
ATOM     56  C   UNL     1       2.059  -5.468  16.836  1.00  0.00     0.135 A 
ATOM     57  C   UNL     1      -0.180  -5.953  16.107  1.00  0.00     0.135 A 
ATOM     58  F   UNL     1       3.060  -4.606  17.074  1.00  0.00    -0.206 F 
ATOM     59  C   UNL     1       2.300  -6.824  17.033  1.00  0.00     0.059 A 
ATOM     60  C   UNL     1       0.029  -7.312  16.325  1.00  0.00     0.059 A 
ATOM     61  F   UNL     1      -1.379  -5.565  15.645  1.00  0.00    -0.206 F 
ATOM     62  C   UNL     1       1.280  -7.739  16.768  1.00  0.00     0.060 A 
BRANCH  62  63
ATOM     63  S   UNL     1       1.614  -9.497  17.010  1.00  0.00     0.124 S 
ATOM     64  O   UNL     1       2.452  -9.794  15.852  1.00  0.00    -0.237 OA
ATOM     65  O   UNL     1       2.291  -9.514  18.302  1.00  0.00    -0.237 OA
ATOM     66  O   UNL     1       0.285 -10.100  16.994  1.00  0.00    -0.744 OA
ENDBRANCH  62  63
ENDBRANCH  41  55
BRANCH  42  67
ATOM     67  C   UNL     1      -0.795   4.618  14.194  1.00  0.00     0.058 A 
ATOM     68  C   UNL     1      -0.356   5.635  15.055  1.00  0.00     0.135 A 
ATOM     69  C   UNL     1      -1.465   4.999  13.021  1.00  0.00     0.135 A 
ATOM     70  F   UNL     1       0.283   5.319  16.192  1.00  0.00    -0.206 F 
ATOM     71  C   UNL     1      -0.581   6.978  14.773  1.00  0.00     0.059 A 
ATOM     72  C   UNL     1      -1.681   6.337  12.705  1.00  0.00     0.059 A 
ATOM     73  F   UNL     1      -1.892   4.066  12.156  1.00  0.00    -0.206 F 
ATOM     74  C   UNL     1      -1.243   7.319  13.593  1.00  0.00     0.060 A 
BRANCH  74  75
ATOM     75  S   UNL     1      -1.484   9.068  13.210  1.00  0.00     0.124 S 
ATOM     76  O   UNL     1      -2.542   9.430  14.145  1.00  0.00    -0.237 OA
ATOM     77  O   UNL     1      -0.165   9.628  13.489  1.00  0.00    -0.237 OA
ATOM     78  O   UNL     1      -1.863   9.053  11.800  1.00  0.00    -0.744 OA
ENDBRANCH  74  75
ENDBRANCH  42  67
BRANCH  54  79
ATOM     79  C   UNL     1      -3.208   0.309  19.116  1.00  0.00     0.058 A 
ATOM     80  C   UNL     1      -4.591   0.421  18.907  1.00  0.00     0.135 A 
ATOM     81  C   UNL     1      -2.739   0.336  20.440  1.00  0.00     0.135 A 
ATOM     82  F   UNL     1      -5.089   0.409  17.661  1.00  0.00    -0.206 F 
ATOM     83  C   UNL     1      -5.475   0.574  19.970  1.00  0.00     0.059 A 
ATOM     84  C   UNL     1      -3.608   0.462  21.519  1.00  0.00     0.059 A 
ATOM     85  F   UNL     1      -1.426   0.223  20.695  1.00  0.00    -0.206 F 
ATOM     86  C   UNL     1      -4.974   0.593  21.273  1.00  0.00     0.060 A 
BRANCH  86  87
ATOM     87  S   UNL     1      -6.135   0.757  22.647  1.00  0.00     0.124 S 
ATOM     88  O   UNL     1      -6.482   2.172  22.570  1.00  0.00    -0.237 OA
ATOM     89  O   UNL     1      -7.193  -0.177  22.276  1.00  0.00    -0.237 OA
ATOM     90  O   UNL     1      -5.343   0.367  23.809  1.00  0.00    -0.744 OA
ENDBRANCH  86  87
ENDBRANCH  54  79
ENDBRANCH  28  29
ENDBRANCH  20  23
ENDBRANCH  18  19
ENDBRANCH  17  18
ENDBRANCH   1  17
TORSDOF 18
