REMARK SMILES CC(C)C[C@H]([NH2+]C[C@@](C)(O)C#Cc1ccccc1)C(=O)NCCCCCCNC(=O)c1ccc(-c2c3nc(c(-c4c(F)cc(S(=O)(=O)[O-])cc4F)c4ccc([nH]4)c(-c4c(F)cc(S(=O)(=O)[O-])cc4F)c4nc(c(-c5c(F)cc(S(=O)(=O)[O-])cc5F)c5ccc2[nH]5)C=C4)C=C3)cc1
REMARK SMILES IDX 23 1 22 2 21 3 19 4 20 5 5 7 4 8 2 9 1 10 3 11 6 12 7 15
REMARK SMILES IDX 8 16 9 17 10 18 11 20 12 21 13 22 14 23 18 24 15 25 17 26
REMARK SMILES IDX 16 27 24 28 25 29 26 30 27 31 28 32 29 33 30 35 31 36 32 37
REMARK SMILES IDX 96 38 33 39 95 40 34 41 35 42 36 43 89 44 37 45 94 46 88 47
REMARK SMILES IDX 90 48 38 49 93 50 87 51 86 52 39 54 73 55 52 56 72 57 53 58
REMARK SMILES IDX 56 59 71 60 91 61 54 62 55 63 70 65 92 66 57 67 40 68 41 69
REMARK SMILES IDX 50 70 42 71 43 72 49 73 51 74 44 75 45 76 46 77 47 78 48 79
REMARK SMILES IDX 74 80 75 81 84 82 76 83 77 84 83 85 85 86 78 87 79 88 80 89
REMARK SMILES IDX 81 90 82 91 58 92 59 93 68 94 60 95 61 96 67 97 69 98 62 99
REMARK SMILES IDX 63 100 64 101 65 102 66 103
REMARK H PARENT 21 6 6 13 6 14 10 19 28 34 90 53 56 64
REMARK Flexibility Score: inf
ROOT
ATOM      1  C   UNL     1      -4.045  -2.328   3.255  1.00  0.00     0.021 C 
ENDROOT
BRANCH   1   2
ATOM      2  C   UNL     1      -3.313  -2.836   2.019  1.00  0.00     0.116 C 
BRANCH   2   3
ATOM      3  N   UNL     1      -3.730  -2.193   0.789  1.00  0.00    -0.351 N 
ATOM      4  C   UNL     1      -2.991  -1.857  -0.312  1.00  0.00     0.278 C 
ATOM      5  O   UNL     1      -3.605  -1.516  -1.329  1.00  0.00    -0.268 OA
ATOM      6  H   UNL     1      -4.687  -1.964   0.737  1.00  0.00     0.163 HD
BRANCH   4   7
ATOM      7  C   UNL     1      -1.439  -1.880  -0.303  1.00  0.00     0.272 C 
BRANCH   7   8
ATOM      8  C   UNL     1      -0.855  -3.229  -0.787  1.00  0.00     0.078 C 
BRANCH   8   9
ATOM      9  C   UNL     1      -0.758  -4.370   0.251  1.00  0.00    -0.011 C 
ATOM     10  C   UNL     1      -1.896  -5.379   0.098  1.00  0.00     0.007 C 
ATOM     11  C   UNL     1       0.583  -5.107   0.133  1.00  0.00     0.007 C 
ENDBRANCH   8   9
ENDBRANCH   7   8
BRANCH   7  12
ATOM     12  N   UNL     1      -0.955  -1.341   0.972  1.00  0.00    -0.333 N 
ATOM     13  H   UNL     1      -1.375  -1.894   1.719  1.00  0.00     0.347 HD
ATOM     14  H   UNL     1      -1.224  -0.357   0.964  1.00  0.00     0.347 HD
BRANCH  12  15
ATOM     15  C   UNL     1       0.484  -1.337   1.184  1.00  0.00     0.310 C 
BRANCH  15  16
ATOM     16  C   UNL     1       0.850  -0.878   2.621  1.00  0.00     0.171 C 
ATOM     17  C   UNL     1       0.064  -1.588   3.724  1.00  0.00     0.063 C 
BRANCH  16  18
ATOM     18  O   UNL     1       2.244  -1.133   2.828  1.00  0.00    -0.372 OA
ATOM     19  H   UNL     1       2.410  -2.087   2.769  1.00  0.00     0.212 HD
ENDBRANCH  16  18
BRANCH  16  20
ATOM     20  C   UNL     1       0.653   0.625   2.725  1.00  0.00    -0.057 C 
ATOM     21  C   UNL     1       0.483   1.915   2.814  1.00  0.00    -0.064 C 
BRANCH  21  22
ATOM     22  C   UNL     1       0.336   3.332   2.928  1.00  0.00     0.025 A 
ATOM     23  C   UNL     1       0.784   4.166   1.901  1.00  0.00     0.017 A 
ATOM     24  C   UNL     1      -0.236   3.886   4.075  1.00  0.00     0.017 A 
ATOM     25  C   UNL     1       0.660   5.551   2.022  1.00  0.00     0.001 A 
ATOM     26  C   UNL     1      -0.360   5.271   4.194  1.00  0.00     0.001 A 
ATOM     27  C   UNL     1       0.088   6.103   3.168  1.00  0.00     0.000 A 
ENDBRANCH  21  22
ENDBRANCH  16  20
ENDBRANCH  15  16
ENDBRANCH  12  15
ENDBRANCH   7  12
ENDBRANCH   4   7
ENDBRANCH   2   3
ENDBRANCH   1   2
BRANCH   1  28
ATOM     28  C   UNL     1      -5.523  -2.716   3.331  1.00  0.00     0.002 C 
BRANCH  28  29
ATOM     29  C   UNL     1      -5.842  -4.195   3.085  1.00  0.00     0.002 C 
BRANCH  29  30
ATOM     30  C   UNL     1      -5.036  -5.210   3.900  1.00  0.00     0.021 C 
BRANCH  30  31
ATOM     31  C   UNL     1      -5.059  -5.013   5.409  1.00  0.00     0.116 C 
BRANCH  31  32
ATOM     32  N   UNL     1      -6.394  -5.103   5.973  1.00  0.00    -0.352 N 
ATOM     33  C   UNL     1      -6.842  -5.831   7.051  1.00  0.00     0.251 C 
ATOM     34  H   UNL     1      -7.080  -4.564   5.516  1.00  0.00     0.163 HD
ATOM     35  O   UNL     1      -8.038  -5.874   7.303  1.00  0.00    -0.269 OA
BRANCH  33  36
ATOM     36  C   UNL     1      -5.877  -6.591   7.881  1.00  0.00     0.039 A 
ATOM     37  C   UNL     1      -4.661  -6.028   8.273  1.00  0.00     0.014 A 
ATOM     38  C   UNL     1      -6.197  -7.896   8.267  1.00  0.00     0.014 A 
ATOM     39  C   UNL     1      -3.706  -6.817   8.906  1.00  0.00     0.010 A 
ATOM     40  C   UNL     1      -5.268  -8.661   8.980  1.00  0.00     0.010 A 
ATOM     41  C   UNL     1      -3.996  -8.143   9.267  1.00  0.00    -0.014 A 
BRANCH  41  42
ATOM     42  C   UNL     1      -2.957  -8.957   9.952  1.00  0.00     0.031 A 
ATOM     43  C   UNL     1      -2.366 -10.174   9.290  1.00  0.00     0.074 A 
ATOM     44  C   UNL     1      -2.501  -8.556  11.156  1.00  0.00     0.049 A 
ATOM     45  N   UNL     1      -1.419 -10.967   9.723  1.00  0.00    -0.248 NA
ATOM     46  C   UNL     1      -2.907 -10.553   7.975  1.00  0.00     0.031 C 
ATOM     47  C   UNL     1      -2.995  -7.393  11.896  1.00  0.00     0.029 A 
ATOM     48  N   UNL     1      -1.504  -9.058  11.954  1.00  0.00    -0.354 N 
ATOM     49  C   UNL     1      -1.258 -11.943   8.745  1.00  0.00     0.074 A 
ATOM     50  C   UNL     1      -2.229 -11.662   7.710  1.00  0.00     0.031 C 
ATOM     51  C   UNL     1      -2.260  -7.233  13.007  1.00  0.00     0.029 A 
ATOM     52  C   UNL     1      -1.284  -8.315  13.090  1.00  0.00     0.049 A 
ATOM     53  H   UNL     1      -0.996  -9.871  11.735  1.00  0.00     0.167 HD
ATOM     54  C   UNL     1      -0.373 -12.968   8.708  1.00  0.00     0.037 A 
ATOM     55  C   UNL     1      -0.400  -8.485  14.092  1.00  0.00     0.037 A 
ATOM     56  C   UNL     1       0.603 -13.232   9.734  1.00  0.00     0.049 A 
ATOM     57  C   UNL     1       0.547  -9.649  14.044  1.00  0.00     0.074 A 
ATOM     58  C   UNL     1       1.554 -14.237   9.777  1.00  0.00     0.029 A 
ATOM     59  N   UNL     1       0.756 -12.488  10.895  1.00  0.00    -0.354 N 
ATOM     60  N   UNL     1       0.687 -10.555  13.107  1.00  0.00    -0.248 NA
ATOM     61  C   UNL     1       1.446  -9.823  15.193  1.00  0.00     0.031 C 
ATOM     62  C   UNL     1       2.256 -14.124  10.982  1.00  0.00     0.029 A 
ATOM     63  C   UNL     1       1.773 -13.023  11.669  1.00  0.00     0.049 A 
ATOM     64  H   UNL     1       0.221 -11.697  11.134  1.00  0.00     0.167 HD
ATOM     65  C   UNL     1       1.698 -11.401  13.546  1.00  0.00     0.074 A 
ATOM     66  C   UNL     1       2.145 -10.890  14.826  1.00  0.00     0.031 C 
ATOM     67  C   UNL     1       2.206 -12.503  12.943  1.00  0.00     0.037 A 
BRANCH  54  68
ATOM     68  C   UNL     1      -0.416 -13.890   7.520  1.00  0.00     0.058 A 
ATOM     69  C   UNL     1       0.053 -13.487   6.260  1.00  0.00     0.135 A 
ATOM     70  C   UNL     1      -0.880 -15.209   7.654  1.00  0.00     0.135 A 
ATOM     71  F   UNL     1       0.494 -12.233   6.072  1.00  0.00    -0.206 F 
ATOM     72  C   UNL     1       0.045 -14.352   5.170  1.00  0.00     0.059 A 
ATOM     73  C   UNL     1      -0.875 -16.099   6.584  1.00  0.00     0.059 A 
ATOM     74  F   UNL     1      -1.339 -15.646   8.838  1.00  0.00    -0.206 F 
ATOM     75  C   UNL     1      -0.421 -15.657   5.342  1.00  0.00     0.060 A 
BRANCH  75  76
ATOM     76  S   UNL     1      -0.417 -16.766   3.917  1.00  0.00     0.124 S 
ATOM     77  O   UNL     1      -1.495 -16.204   3.109  1.00  0.00    -0.237 OA
ATOM     78  O   UNL     1       0.930 -16.586   3.387  1.00  0.00    -0.237 OA
ATOM     79  O   UNL     1      -0.689 -18.075   4.503  1.00  0.00    -0.744 OA
ENDBRANCH  75  76
ENDBRANCH  54  68
BRANCH  55  80
ATOM     80  C   UNL     1      -0.371  -7.512  15.215  1.00  0.00     0.058 A 
ATOM     81  C   UNL     1       0.691  -6.607  15.356  1.00  0.00     0.135 A 
ATOM     82  C   UNL     1      -1.427  -7.431  16.136  1.00  0.00     0.135 A 
ATOM     83  F   UNL     1       1.726  -6.649  14.504  1.00  0.00    -0.206 F 
ATOM     84  C   UNL     1       0.703  -5.653  16.368  1.00  0.00     0.059 A 
ATOM     85  C   UNL     1      -1.450  -6.471  17.141  1.00  0.00     0.059 A 
ATOM     86  F   UNL     1      -2.473  -8.267  16.034  1.00  0.00    -0.206 F 
ATOM     87  C   UNL     1      -0.377  -5.587  17.251  1.00  0.00     0.060 A 
BRANCH  87  88
ATOM     88  S   UNL     1      -0.387  -4.294  18.511  1.00  0.00     0.124 S 
ATOM     89  O   UNL     1       0.633  -4.777  19.435  1.00  0.00    -0.237 OA
ATOM     90  O   UNL     1      -0.036  -3.108  17.735  1.00  0.00    -0.237 OA
ATOM     91  O   UNL     1      -1.758  -4.323  19.011  1.00  0.00    -0.744 OA
ENDBRANCH  87  88
ENDBRANCH  55  80
BRANCH  67  92
ATOM     92  C   UNL     1       3.313 -13.233  13.648  1.00  0.00     0.058 A 
ATOM     93  C   UNL     1       3.057 -14.053  14.758  1.00  0.00     0.135 A 
ATOM     94  C   UNL     1       4.628 -13.178  13.160  1.00  0.00     0.135 A 
ATOM     95  F   UNL     1       1.818 -14.132  15.268  1.00  0.00    -0.206 F 
ATOM     96  C   UNL     1       4.069 -14.790  15.363  1.00  0.00     0.059 A 
ATOM     97  C   UNL     1       5.652 -13.924  13.736  1.00  0.00     0.059 A 
ATOM     98  F   UNL     1       4.923 -12.413  12.096  1.00  0.00    -0.206 F 
ATOM     99  C   UNL     1       5.362 -14.725  14.840  1.00  0.00     0.060 A 
BRANCH  99 100
ATOM    100  S   UNL     1       6.652 -15.735  15.599  1.00  0.00     0.124 S 
ATOM    101  O   UNL     1       6.874 -15.033  16.858  1.00  0.00    -0.237 OA
ATOM    102  O   UNL     1       6.003 -17.038  15.705  1.00  0.00    -0.237 OA
ATOM    103  O   UNL     1       7.749 -15.664  14.639  1.00  0.00    -0.744 OA
ENDBRANCH  99 100
ENDBRANCH  67  92
ENDBRANCH  41  42
ENDBRANCH  33  36
ENDBRANCH  31  32
ENDBRANCH  30  31
ENDBRANCH  29  30
ENDBRANCH  28  29
ENDBRANCH   1  28
TORSDOF 24
