REMARK SMILES CCOc1ccc(C(=O)NCC(=O)NCCCCCCNC(=O)c2ccc(-c3c4nc(c(-c5c(F)cc(S(=O)(=O)[O-])cc5F)c5ccc([nH]5)c(-c5c(F)cc(S(=O)(=O)[O-])cc5F)c5nc(c(-c6c(F)cc(S(=O)(=O)[O-])cc6F)c6ccc3[nH]6)C=C5)C=C4)cc2)c2ccccc12
REMARK SMILES IDX 17 1 16 2 15 3 14 4 12 5 13 6 11 8 10 9 8 10 9 11 7 13 4 14
REMARK SMILES IDX 5 15 95 16 6 17 90 18 94 19 91 20 93 21 92 22 3 23 2 24 1 25
REMARK SMILES IDX 18 26 19 27 20 28 21 29 22 30 23 32 24 33 25 34 89 35 26 36
REMARK SMILES IDX 88 37 27 38 28 39 29 40 82 41 30 42 87 43 81 44 83 45 31 46
REMARK SMILES IDX 86 47 80 48 79 49 32 51 66 52 45 53 65 54 46 55 49 56 64 57
REMARK SMILES IDX 84 58 47 59 48 60 63 62 85 63 50 64 33 65 34 66 43 67 35 68
REMARK SMILES IDX 36 69 42 70 44 71 37 72 38 73 39 74 40 75 41 76 67 77 68 78
REMARK SMILES IDX 77 79 69 80 70 81 76 82 78 83 71 84 72 85 73 86 74 87 75 88
REMARK SMILES IDX 51 89 52 90 61 91 53 92 54 93 60 94 62 95 55 96 56 97 57 98
REMARK SMILES IDX 58 99 59 100
REMARK H PARENT 14 7 10 12 21 31 83 50 49 61
REMARK Flexibility Score: inf
ROOT
ATOM      1  C   UNL     1       7.409   4.189   4.921  1.00  0.00     0.002 C 
ENDROOT
BRANCH   1   2
ATOM      2  C   UNL     1       7.256   2.711   4.555  1.00  0.00     0.021 C 
BRANCH   2   3
ATOM      3  C   UNL     1       6.399   2.468   3.321  1.00  0.00     0.116 C 
BRANCH   3   4
ATOM      4  N   UNL     1       7.055   2.855   2.091  1.00  0.00    -0.355 N 
ATOM      5  C   UNL     1       7.556   2.127   1.061  1.00  0.00     0.239 C 
ATOM      6  O   UNL     1       7.941   2.767   0.073  1.00  0.00    -0.273 OA
ATOM      7  H   UNL     1       7.157   3.828   1.980  1.00  0.00     0.163 HD
BRANCH   5   8
ATOM      8  C   UNL     1       7.537   0.587   0.991  1.00  0.00     0.216 C 
BRANCH   8   9
ATOM      9  N   UNL     1       7.562  -0.222   2.198  1.00  0.00    -0.343 N 
ATOM     10  C   UNL     1       6.668  -0.959   2.936  1.00  0.00     0.252 C 
ATOM     11  O   UNL     1       7.222  -1.687   3.760  1.00  0.00    -0.269 OA
ATOM     12  H   UNL     1       8.463  -0.248   2.594  1.00  0.00     0.164 HD
BRANCH  10  13
ATOM     13  C   UNL     1       5.153  -0.894   2.832  1.00  0.00     0.047 A 
ATOM     14  C   UNL     1       2.344  -0.723   2.557  1.00  0.00     0.127 A 
ATOM     15  C   UNL     1       3.173   0.037   1.752  1.00  0.00     0.048 A 
ATOM     16  C   UNL     1       2.877  -1.498   3.603  1.00  0.00     0.025 A 
ATOM     17  C   UNL     1       4.550  -0.068   1.874  1.00  0.00     0.018 A 
ATOM     18  C   UNL     1       4.296  -1.586   3.769  1.00  0.00    -0.002 A 
ATOM     19  C   UNL     1       2.013  -2.155   4.508  1.00  0.00     0.012 A 
ATOM     20  C   UNL     1       4.736  -2.329   4.902  1.00  0.00     0.010 A 
ATOM     21  C   UNL     1       2.498  -2.870   5.598  1.00  0.00     0.001 A 
ATOM     22  C   UNL     1       3.862  -2.950   5.800  1.00  0.00     0.001 A 
BRANCH  14  23
ATOM     23  O   UNL     1       0.987  -0.581   2.399  1.00  0.00    -0.493 OA
BRANCH  23  24
ATOM     24  C   UNL     1       0.499  -1.204   1.200  1.00  0.00     0.226 C 
ATOM     25  C   UNL     1       0.472  -0.239   0.022  1.00  0.00     0.049 C 
ENDBRANCH  23  24
ENDBRANCH  14  23
ENDBRANCH  10  13
ENDBRANCH   8   9
ENDBRANCH   5   8
ENDBRANCH   3   4
ENDBRANCH   2   3
ENDBRANCH   1   2
BRANCH   1  26
ATOM     26  C   UNL     1       6.094   4.949   5.127  1.00  0.00     0.002 C 
BRANCH  26  27
ATOM     27  C   UNL     1       5.129   4.333   6.145  1.00  0.00     0.021 C 
BRANCH  27  28
ATOM     28  C   UNL     1       5.700   4.164   7.549  1.00  0.00     0.116 C 
BRANCH  28  29
ATOM     29  N   UNL     1       6.108   5.432   8.127  1.00  0.00    -0.352 N 
ATOM     30  C   UNL     1       5.821   5.966   9.358  1.00  0.00     0.251 C 
ATOM     31  H   UNL     1       6.675   5.993   7.550  1.00  0.00     0.163 HD
ATOM     32  O   UNL     1       6.096   7.140   9.585  1.00  0.00    -0.269 OA
BRANCH  30  33
ATOM     33  C   UNL     1       5.177   5.138  10.403  1.00  0.00     0.039 A 
ATOM     34  C   UNL     1       4.205   5.724  11.218  1.00  0.00     0.014 A 
ATOM     35  C   UNL     1       5.559   3.811  10.617  1.00  0.00     0.014 A 
ATOM     36  C   UNL     1       3.602   4.973  12.229  1.00  0.00     0.010 A 
ATOM     37  C   UNL     1       4.901   3.041  11.573  1.00  0.00     0.010 A 
ATOM     38  C   UNL     1       3.936   3.621  12.408  1.00  0.00    -0.014 A 
BRANCH  38  39
ATOM     39  C   UNL     1       3.320   2.821  13.499  1.00  0.00     0.031 A 
ATOM     40  C   UNL     1       4.177   2.291  14.619  1.00  0.00     0.074 A 
ATOM     41  C   UNL     1       2.001   2.549  13.467  1.00  0.00     0.049 A 
ATOM     42  N   UNL     1       3.832   1.564  15.651  1.00  0.00    -0.248 NA
ATOM     43  C   UNL     1       5.616   2.595  14.557  1.00  0.00     0.031 C 
ATOM     44  C   UNL     1       1.077   2.961  12.409  1.00  0.00     0.029 A 
ATOM     45  N   UNL     1       1.208   1.859  14.349  1.00  0.00    -0.354 N 
ATOM     46  C   UNL     1       5.008   1.314  16.350  1.00  0.00     0.074 A 
ATOM     47  C   UNL     1       6.084   1.913  15.592  1.00  0.00     0.031 C 
ATOM     48  C   UNL     1      -0.161   2.542  12.718  1.00  0.00     0.029 A 
ATOM     49  C   UNL     1      -0.115   1.807  13.979  1.00  0.00     0.049 A 
ATOM     50  H   UNL     1       1.554   1.440  15.171  1.00  0.00     0.167 HD
ATOM     51  C   UNL     1       5.175   0.670  17.530  1.00  0.00     0.037 A 
ATOM     52  C   UNL     1      -1.171   1.237  14.590  1.00  0.00     0.037 A 
ATOM     53  C   UNL     1       4.095   0.101  18.294  1.00  0.00     0.049 A 
ATOM     54  C   UNL     1      -0.966   0.549  15.913  1.00  0.00     0.074 A 
ATOM     55  C   UNL     1       4.148  -0.531  19.524  1.00  0.00     0.029 A 
ATOM     56  N   UNL     1       2.764   0.098  17.902  1.00  0.00    -0.354 N 
ATOM     57  N   UNL     1       0.145   0.372  16.589  1.00  0.00    -0.248 NA
ATOM     58  C   UNL     1      -2.161  -0.002  16.566  1.00  0.00     0.031 C 
ATOM     59  C   UNL     1       2.855  -0.950  19.858  1.00  0.00     0.029 A 
ATOM     60  C   UNL     1       1.988  -0.532  18.861  1.00  0.00     0.049 A 
ATOM     61  H   UNL     1       2.421   0.487  17.064  1.00  0.00     0.167 HD
ATOM     62  C   UNL     1      -0.223  -0.277  17.763  1.00  0.00     0.074 A 
ATOM     63  C   UNL     1      -1.660  -0.451  17.708  1.00  0.00     0.031 C 
ATOM     64  C   UNL     1       0.556  -0.688  18.795  1.00  0.00     0.037 A 
BRANCH  51  65
ATOM     65  C   UNL     1       6.576   0.556  18.070  1.00  0.00     0.058 A 
ATOM     66  C   UNL     1       7.280   1.677  18.540  1.00  0.00     0.135 A 
ATOM     67  C   UNL     1       7.216  -0.692  18.140  1.00  0.00     0.135 A 
ATOM     68  F   UNL     1       6.724   2.898  18.482  1.00  0.00    -0.206 F 
ATOM     69  C   UNL     1       8.579   1.572  19.027  1.00  0.00     0.059 A 
ATOM     70  C   UNL     1       8.504  -0.826  18.653  1.00  0.00     0.059 A 
ATOM     71  F   UNL     1       6.592  -1.798  17.706  1.00  0.00    -0.206 F 
ATOM     72  C   UNL     1       9.183   0.315  19.078  1.00  0.00     0.060 A 
BRANCH  72  73
ATOM     73  S   UNL     1      10.868   0.195  19.715  1.00  0.00     0.124 S 
ATOM     74  O   UNL     1      11.637   0.770  18.614  1.00  0.00    -0.237 OA
ATOM     75  O   UNL     1      10.802   1.000  20.929  1.00  0.00    -0.237 OA
ATOM     76  O   UNL     1      11.051  -1.238  19.925  1.00  0.00    -0.744 OA
ENDBRANCH  72  73
ENDBRANCH  51  65
BRANCH  52  77
ATOM     77  C   UNL     1      -2.524   1.331  13.979  1.00  0.00     0.058 A 
ATOM     78  C   UNL     1      -3.523   2.131  14.553  1.00  0.00     0.135 A 
ATOM     79  C   UNL     1      -2.844   0.630  12.806  1.00  0.00     0.135 A 
ATOM     80  F   UNL     1      -3.267   2.818  15.678  1.00  0.00    -0.206 F 
ATOM     81  C   UNL     1      -4.796   2.218  14.002  1.00  0.00     0.059 A 
ATOM     82  C   UNL     1      -4.103   0.722  12.219  1.00  0.00     0.059 A 
ATOM     83  F   UNL     1      -1.919  -0.135  12.205  1.00  0.00    -0.206 F 
ATOM     84  C   UNL     1      -5.077   1.509  12.832  1.00  0.00     0.060 A 
BRANCH  84  85
ATOM     85  S   UNL     1      -6.721   1.661  12.100  1.00  0.00     0.124 S 
ATOM     86  O   UNL     1      -7.528   0.876  13.027  1.00  0.00    -0.237 OA
ATOM     87  O   UNL     1      -6.937   3.104  12.127  1.00  0.00    -0.237 OA
ATOM     88  O   UNL     1      -6.549   1.086  10.769  1.00  0.00    -0.744 OA
ENDBRANCH  84  85
ENDBRANCH  52  77
BRANCH  64  89
ATOM     89  C   UNL     1      -0.137  -1.317  19.973  1.00  0.00     0.058 A 
ATOM     90  C   UNL     1      -0.716  -2.594  19.901  1.00  0.00     0.135 A 
ATOM     91  C   UNL     1      -0.204  -0.635  21.199  1.00  0.00     0.135 A 
ATOM     92  F   UNL     1      -0.681  -3.288  18.752  1.00  0.00    -0.206 F 
ATOM     93  C   UNL     1      -1.375  -3.155  20.990  1.00  0.00     0.059 A 
ATOM     94  C   UNL     1      -0.831  -1.190  22.310  1.00  0.00     0.059 A 
ATOM     95  F   UNL     1       0.346   0.582  21.328  1.00  0.00    -0.206 F 
ATOM     96  C   UNL     1      -1.431  -2.442  22.189  1.00  0.00     0.060 A 
BRANCH  96  97
ATOM     97  S   UNL     1      -2.291  -3.178  23.596  1.00  0.00     0.124 S 
ATOM     98  O   UNL     1      -3.688  -2.996  23.213  1.00  0.00    -0.237 OA
ATOM     99  O   UNL     1      -1.803  -4.553  23.578  1.00  0.00    -0.237 OA
ATOM    100  O   UNL     1      -1.840  -2.374  24.728  1.00  0.00    -0.744 OA
ENDBRANCH  96  97
ENDBRANCH  64  89
ENDBRANCH  38  39
ENDBRANCH  30  33
ENDBRANCH  28  29
ENDBRANCH  27  28
ENDBRANCH  26  27
ENDBRANCH   1  26
TORSDOF 20
