REMARK SMILES CS(=O)(=O)Nc1cc(C(=O)NCCCCCCNC(=O)c2ccc(-c3c4nc(c(-c5c(F)cc(S(=O)(=O)[O-])cc5F)c5ccc([nH]5)c(-c5c(F)cc(S(=O)(=O)[O-])cc5F)c5nc(c(-c6c(F)cc(S(=O)(=O)[O-])cc6F)c6ccc3[nH]6)C=C5)C=C4)cc2)ccc1N1CC[NH+](CC(=O)N2CCCC2)CC1
REMARK SMILES IDX 14 1 13 2 12 3 11 4 9 5 10 6 8 8 6 9 7 10 89 11 88 12 87 13
REMARK SMILES IDX 5 14 2 16 1 17 3 18 4 19 90 20 91 21 103 22 92 23 102 24
REMARK SMILES IDX 93 25 94 27 95 28 96 29 97 30 98 31 101 32 99 33 100 34
REMARK SMILES IDX 15 35 16 36 17 37 18 38 19 39 20 41 21 42 22 43 86 44 23 45
REMARK SMILES IDX 85 46 24 47 25 48 26 49 79 50 27 51 84 52 78 53 80 54 28 55
REMARK SMILES IDX 83 56 77 57 76 58 29 60 63 61 42 62 62 63 43 64 46 65 61 66
REMARK SMILES IDX 81 67 44 68 45 69 60 71 82 72 47 73 30 74 31 75 40 76 32 77
REMARK SMILES IDX 33 78 39 79 41 80 34 81 35 82 36 83 37 84 38 85 64 86 65 87
REMARK SMILES IDX 74 88 66 89 67 90 73 91 75 92 68 93 69 94 70 95 71 96 72 97
REMARK SMILES IDX 48 98 49 99 58 100 50 101 51 102 57 103 59 104 52 105 53 106
REMARK SMILES IDX 54 107 55 108 56 109
REMARK H PARENT 11 7 5 15 93 26 18 40 80 59 46 70
REMARK Flexibility Score: inf
ROOT
ATOM      1  C   UNL     1       6.272   5.070  -6.966  1.00  0.00     0.002 C 
ENDROOT
BRANCH   1   2
ATOM      2  C   UNL     1       6.190   3.959  -5.916  1.00  0.00     0.021 C 
BRANCH   2   3
ATOM      3  C   UNL     1       4.999   4.019  -4.961  1.00  0.00     0.116 C 
BRANCH   3   4
ATOM      4  N   UNL     1       3.718   3.925  -5.635  1.00  0.00    -0.352 N 
ATOM      5  C   UNL     1       2.547   3.304  -5.277  1.00  0.00     0.251 C 
ATOM      6  O   UNL     1       1.620   3.303  -6.085  1.00  0.00    -0.269 OA
ATOM      7  H   UNL     1       3.682   4.388  -6.503  1.00  0.00     0.163 HD
BRANCH   5   8
ATOM      8  C   UNL     1       2.371   2.601  -3.977  1.00  0.00     0.042 A 
ATOM      9  C   UNL     1       1.274   0.784  -2.757  1.00  0.00     0.073 A 
ATOM     10  C   UNL     1       1.475   1.529  -3.932  1.00  0.00     0.042 A 
ATOM     11  C   UNL     1       2.078   1.025  -1.608  1.00  0.00     0.062 A 
ATOM     12  C   UNL     1       2.885   2.179  -1.652  1.00  0.00     0.029 A 
ATOM     13  C   UNL     1       3.010   2.970  -2.802  1.00  0.00     0.016 A 
BRANCH   9  14
ATOM     14  N   UNL     1       0.401  -0.333  -2.946  1.00  0.00    -0.282 N 
ATOM     15  H   UNL     1       0.601  -0.930  -3.703  1.00  0.00     0.180 HD
BRANCH  14  16
ATOM     16  S   UNL     1      -0.914  -0.721  -2.015  1.00  0.00     0.229 S 
ATOM     17  C   UNL     1      -0.994   0.345  -0.587  1.00  0.00     0.183 C 
ATOM     18  O   UNL     1      -0.672  -2.080  -1.561  1.00  0.00    -0.207 OA
ATOM     19  O   UNL     1      -2.083  -0.451  -2.823  1.00  0.00    -0.207 OA
ENDBRANCH  14  16
ENDBRANCH   9  14
BRANCH  11  20
ATOM     20  N   UNL     1       2.125   0.172  -0.490  1.00  0.00    -0.359 N 
ATOM     21  C   UNL     1       2.898   0.567   0.729  1.00  0.00     0.178 C 
ATOM     22  C   UNL     1       2.341  -1.245  -0.791  1.00  0.00     0.178 C 
ATOM     23  C   UNL     1       2.722  -0.440   1.907  1.00  0.00     0.284 C 
ATOM     24  C   UNL     1       1.921  -2.132   0.385  1.00  0.00     0.284 C 
ATOM     25  N   UNL     1       2.705  -1.881   1.591  1.00  0.00    -0.324 N 
ATOM     26  H   UNL     1       2.234  -2.310   2.387  1.00  0.00     0.348 HD
BRANCH  25  27
ATOM     27  C   UNL     1       3.989  -2.602   1.628  1.00  0.00     0.363 C 
BRANCH  27  28
ATOM     28  C   UNL     1       5.150  -2.048   0.796  1.00  0.00     0.277 C 
ATOM     29  O   UNL     1       5.825  -1.115   1.244  1.00  0.00    -0.268 OA
ATOM     30  N   UNL     1       5.484  -2.652  -0.406  1.00  0.00    -0.338 N 
ATOM     31  C   UNL     1       4.692  -3.514  -1.280  1.00  0.00     0.119 C 
ATOM     32  C   UNL     1       6.794  -2.405  -0.988  1.00  0.00     0.119 C 
ATOM     33  C   UNL     1       5.683  -4.095  -2.273  1.00  0.00     0.023 C 
ATOM     34  C   UNL     1       6.736  -2.999  -2.387  1.00  0.00     0.023 C 
ENDBRANCH  27  28
ENDBRANCH  25  27
ENDBRANCH  11  20
ENDBRANCH   5   8
ENDBRANCH   3   4
ENDBRANCH   2   3
ENDBRANCH   1   2
BRANCH   1  35
ATOM     35  C   UNL     1       6.223   6.505  -6.436  1.00  0.00     0.002 C 
BRANCH  35  36
ATOM     36  C   UNL     1       7.234   6.849  -5.341  1.00  0.00     0.021 C 
BRANCH  36  37
ATOM     37  C   UNL     1       8.691   6.537  -5.669  1.00  0.00     0.116 C 
BRANCH  37  38
ATOM     38  N   UNL     1       9.170   7.261  -6.834  1.00  0.00    -0.352 N 
ATOM     39  C   UNL     1      10.286   8.050  -6.971  1.00  0.00     0.251 C 
ATOM     40  H   UNL     1       8.615   7.172  -7.642  1.00  0.00     0.163 HD
ATOM     41  O   UNL     1      10.442   8.715  -7.990  1.00  0.00    -0.269 OA
BRANCH  39  42
ATOM     42  C   UNL     1      11.284   8.117  -5.880  1.00  0.00     0.039 A 
ATOM     43  C   UNL     1      11.788   9.364  -5.503  1.00  0.00     0.014 A 
ATOM     44  C   UNL     1      11.725   6.959  -5.233  1.00  0.00     0.014 A 
ATOM     45  C   UNL     1      12.686   9.455  -4.436  1.00  0.00     0.010 A 
ATOM     46  C   UNL     1      12.559   7.059  -4.122  1.00  0.00     0.010 A 
ATOM     47  C   UNL     1      13.052   8.307  -3.713  1.00  0.00    -0.014 A 
BRANCH  47  48
ATOM     48  C   UNL     1      13.947   8.396  -2.529  1.00  0.00     0.031 A 
ATOM     49  C   UNL     1      15.290   7.715  -2.542  1.00  0.00     0.074 A 
ATOM     50  C   UNL     1      13.531   9.049  -1.425  1.00  0.00     0.049 A 
ATOM     51  N   UNL     1      16.180   7.626  -1.588  1.00  0.00    -0.248 NA
ATOM     52  C   UNL     1      15.673   7.022  -3.783  1.00  0.00     0.031 C 
ATOM     53  C   UNL     1      12.236   9.720  -1.276  1.00  0.00     0.029 A 
ATOM     54  N   UNL     1      14.148   9.254  -0.216  1.00  0.00    -0.354 N 
ATOM     55  C   UNL     1      17.224   6.871  -2.110  1.00  0.00     0.074 A 
ATOM     56  C   UNL     1      16.829   6.471  -3.442  1.00  0.00     0.031 C 
ATOM     57  C   UNL     1      12.169  10.282  -0.058  1.00  0.00     0.029 A 
ATOM     58  C   UNL     1      13.392   9.977   0.677  1.00  0.00     0.049 A 
ATOM     59  H   UNL     1      15.048   8.914  -0.007  1.00  0.00     0.167 HD
ATOM     60  C   UNL     1      18.415   6.563  -1.542  1.00  0.00     0.037 A 
ATOM     61  C   UNL     1      13.650  10.345   1.948  1.00  0.00     0.037 A 
ATOM     62  C   UNL     1      18.808   6.976  -0.220  1.00  0.00     0.049 A 
ATOM     63  C   UNL     1      14.966   9.957   2.568  1.00  0.00     0.074 A 
ATOM     64  C   UNL     1      20.006   6.743   0.433  1.00  0.00     0.029 A 
ATOM     65  N   UNL     1      18.015   7.709   0.651  1.00  0.00    -0.354 N 
ATOM     66  N   UNL     1      15.962   9.286   2.040  1.00  0.00    -0.248 NA
ATOM     67  C   UNL     1      15.198  10.382   3.956  1.00  0.00     0.031 C 
ATOM     68  C   UNL     1      19.919   7.291   1.717  1.00  0.00     0.029 A 
ATOM     69  C   UNL     1      18.690   7.918   1.843  1.00  0.00     0.049 A 
ATOM     70  H   UNL     1      17.107   8.032   0.453  1.00  0.00     0.167 HD
ATOM     71  C   UNL     1      16.951   9.240   3.017  1.00  0.00     0.074 A 
ATOM     72  C   UNL     1      16.438   9.961   4.163  1.00  0.00     0.031 C 
ATOM     73  C   UNL     1      18.173   8.654   2.970  1.00  0.00     0.037 A 
BRANCH  60  74
ATOM     74  C   UNL     1      19.387   5.748  -2.352  1.00  0.00     0.058 A 
ATOM     75  C   UNL     1      20.031   6.280  -3.482  1.00  0.00     0.135 A 
ATOM     76  C   UNL     1      19.721   4.438  -1.969  1.00  0.00     0.135 A 
ATOM     77  F   UNL     1      19.739   7.521  -3.904  1.00  0.00    -0.206 F 
ATOM     78  C   UNL     1      20.951   5.538  -4.214  1.00  0.00     0.059 A 
ATOM     79  C   UNL     1      20.662   3.688  -2.669  1.00  0.00     0.059 A 
ATOM     80  F   UNL     1      19.136   3.877  -0.899  1.00  0.00    -0.206 F 
ATOM     81  C   UNL     1      21.262   4.243  -3.798  1.00  0.00     0.060 A 
BRANCH  81  82
ATOM     82  S   UNL     1      22.471   3.301  -4.752  1.00  0.00     0.124 S 
ATOM     83  O   UNL     1      21.725   3.025  -5.976  1.00  0.00    -0.237 OA
ATOM     84  O   UNL     1      23.572   4.250  -4.881  1.00  0.00    -0.237 OA
ATOM     85  O   UNL     1      22.742   2.141  -3.909  1.00  0.00    -0.744 OA
ENDBRANCH  81  82
ENDBRANCH  60  74
BRANCH  61  86
ATOM     86  C   UNL     1      12.652  11.136   2.720  1.00  0.00     0.058 A 
ATOM     87  C   UNL     1      12.916  12.462   3.095  1.00  0.00     0.135 A 
ATOM     88  C   UNL     1      11.425  10.579   3.115  1.00  0.00     0.135 A 
ATOM     89  F   UNL     1      14.076  13.039   2.747  1.00  0.00    -0.206 F 
ATOM     90  C   UNL     1      12.017  13.197   3.861  1.00  0.00     0.059 A 
ATOM     91  C   UNL     1      10.496  11.305   3.854  1.00  0.00     0.059 A 
ATOM     92  F   UNL     1      11.114   9.321   2.767  1.00  0.00    -0.206 F 
ATOM     93  C   UNL     1      10.809  12.608   4.237  1.00  0.00     0.060 A 
BRANCH  93  94
ATOM     94  S   UNL     1       9.640  13.577   5.215  1.00  0.00     0.124 S 
ATOM     95  O   UNL     1      10.305  13.617   6.512  1.00  0.00    -0.237 OA
ATOM     96  O   UNL     1       9.596  14.837   4.479  1.00  0.00    -0.237 OA
ATOM     97  O   UNL     1       8.416  12.783   5.157  1.00  0.00    -0.744 OA
ENDBRANCH  93  94
ENDBRANCH  61  86
BRANCH  73  98
ATOM     98  C   UNL     1      19.064   8.808   4.173  1.00  0.00     0.058 A 
ATOM     99  C   UNL     1      18.801   8.146   5.382  1.00  0.00     0.135 A 
ATOM    100  C   UNL     1      20.227   9.593   4.096  1.00  0.00     0.135 A 
ATOM    101  F   UNL     1      17.700   7.388   5.512  1.00  0.00    -0.206 F 
ATOM    102  C   UNL     1      19.645   8.276   6.480  1.00  0.00     0.059 A 
ATOM    103  C   UNL     1      21.102   9.711   5.171  1.00  0.00     0.059 A 
ATOM    104  F   UNL     1      20.533  10.241   2.961  1.00  0.00    -0.206 F 
ATOM    105  C   UNL     1      20.796   9.058   6.364  1.00  0.00     0.060 A 
BRANCH 105 106
ATOM    106  S   UNL     1      21.900   9.188   7.786  1.00  0.00     0.124 S 
ATOM    107  O   UNL     1      21.124  10.038   8.684  1.00  0.00    -0.237 OA
ATOM    108  O   UNL     1      22.043   7.795   8.197  1.00  0.00    -0.237 OA
ATOM    109  O   UNL     1      23.103   9.799   7.229  1.00  0.00    -0.744 OA
ENDBRANCH 105 106
ENDBRANCH  73  98
ENDBRANCH  47  48
ENDBRANCH  39  42
ENDBRANCH  37  38
ENDBRANCH  36  37
ENDBRANCH  35  36
ENDBRANCH   1  35
TORSDOF 21
