REMARK SMILES Cc1ccc(Cl)c(Nc2ccccc2C(=O)NCC(=O)NCCCCCCNC(=O)c2ccc(-c3c4nc(c(-c5c(F)cc(S(=O)(=O)[O-])cc5F)c5ccc([nH]5)c(-c5c(F)cc(S(=O)(=O)[O-])cc5F)c5nc(c(-c6c(F)cc(S(=O)(=O)[O-])cc6F)c6ccc3[nH]6)C=C5)C=C4)cc2)c1Cl
REMARK SMILES IDX 24 1 23 2 22 3 21 4 19 5 20 6 18 8 17 9 15 10 16 11 14 13
REMARK SMILES IDX 9 14 10 15 11 16 13 17 12 18 8 19 7 21 1 22 2 23 3 24 97 25
REMARK SMILES IDX 4 26 98 27 5 28 6 29 25 30 26 31 27 32 28 33 29 34 30 36
REMARK SMILES IDX 31 37 32 38 96 39 33 40 95 41 34 42 35 43 36 44 89 45 37 46
REMARK SMILES IDX 94 47 88 48 90 49 38 50 93 51 87 52 86 53 39 55 73 56 52 57
REMARK SMILES IDX 72 58 53 59 56 60 71 61 91 62 54 63 55 64 70 66 92 67 57 68
REMARK SMILES IDX 40 69 41 70 50 71 42 72 43 73 49 74 51 75 44 76 45 77 46 78
REMARK SMILES IDX 47 79 48 80 74 81 75 82 84 83 76 84 77 85 83 86 85 87 78 88
REMARK SMILES IDX 79 89 80 90 81 91 82 92 58 93 59 94 68 95 60 96 61 97 67 98
REMARK SMILES IDX 69 99 62 100 63 101 64 102 65 103 66 104
REMARK H PARENT 21 7 17 12 8 20 28 35 90 54 56 65
REMARK Flexibility Score: inf
ROOT
ATOM      1  C   UNL     1      -2.789  -4.079   4.689  1.00  0.00     0.002 C 
ENDROOT
BRANCH   1   2
ATOM      2  C   UNL     1      -1.490  -3.680   3.979  1.00  0.00     0.021 C 
BRANCH   2   3
ATOM      3  C   UNL     1      -1.701  -3.498   2.481  1.00  0.00     0.116 C 
BRANCH   3   4
ATOM      4  N   UNL     1      -2.572  -2.371   2.263  1.00  0.00    -0.355 N 
ATOM      5  C   UNL     1      -2.207  -1.060   2.253  1.00  0.00     0.239 C 
ATOM      6  O   UNL     1      -3.095  -0.205   2.290  1.00  0.00    -0.273 OA
ATOM      7  H   UNL     1      -3.524  -2.569   2.106  1.00  0.00     0.163 HD
BRANCH   5   8
ATOM      8  C   UNL     1      -0.771  -0.689   1.894  1.00  0.00     0.216 C 
BRANCH   8   9
ATOM      9  N   UNL     1       0.431  -1.257   2.462  1.00  0.00    -0.343 N 
ATOM     10  C   UNL     1       1.527  -1.827   1.846  1.00  0.00     0.253 C 
ATOM     11  O   UNL     1       2.606  -1.614   2.411  1.00  0.00    -0.269 OA
ATOM     12  H   UNL     1       0.475  -1.234   3.445  1.00  0.00     0.164 HD
BRANCH  10  13
ATOM     13  C   UNL     1       1.497  -2.856   0.740  1.00  0.00     0.063 A 
ATOM     14  C   UNL     1       0.787  -2.908  -0.484  1.00  0.00     0.051 A 
ATOM     15  C   UNL     1       0.900  -4.087  -1.271  1.00  0.00     0.027 A 
ATOM     16  C   UNL     1       1.733  -5.150  -0.927  1.00  0.00     0.002 A 
ATOM     17  C   UNL     1       2.346  -3.954   1.056  1.00  0.00     0.016 A 
ATOM     18  C   UNL     1       2.477  -5.074   0.234  1.00  0.00     0.001 A 
BRANCH  14  19
ATOM     19  N   UNL     1       0.069  -1.882  -1.135  1.00  0.00    -0.352 N 
ATOM     20  H   UNL     1      -0.698  -2.215  -1.655  1.00  0.00     0.167 HD
BRANCH  19  21
ATOM     21  C   UNL     1       0.216  -0.473  -1.200  1.00  0.00     0.077 A 
ATOM     22  C   UNL     1       2.687   2.251  -0.149  1.00  0.00     0.046 C 
ATOM     23  C   UNL     1       1.425   1.564  -0.595  1.00  0.00    -0.030 A 
ATOM     24  C   UNL     1       0.218   2.279  -0.603  1.00  0.00     0.006 A 
ATOM     25  C   UNL     1       1.425   0.199  -0.943  1.00  0.00     0.069 A 
ATOM     26  C   UNL     1      -0.967   1.664  -0.995  1.00  0.00     0.023 A 
ATOM     27  Cl  UNL     1       2.948  -0.613  -1.149  1.00  0.00    -0.082 Cl
ATOM     28  C   UNL     1      -0.964   0.306  -1.304  1.00  0.00     0.066 A 
ATOM     29  Cl  UNL     1      -2.489  -0.441  -1.668  1.00  0.00    -0.082 Cl
ENDBRANCH  19  21
ENDBRANCH  14  19
ENDBRANCH  10  13
ENDBRANCH   8   9
ENDBRANCH   5   8
ENDBRANCH   3   4
ENDBRANCH   2   3
ENDBRANCH   1   2
BRANCH   1  30
ATOM     30  C   UNL     1      -3.400  -5.382   4.162  1.00  0.00     0.002 C 
BRANCH  30  31
ATOM     31  C   UNL     1      -2.441  -6.574   4.201  1.00  0.00     0.021 C 
BRANCH  31  32
ATOM     32  C   UNL     1      -1.866  -6.845   5.585  1.00  0.00     0.116 C 
BRANCH  32  33
ATOM     33  N   UNL     1      -2.920  -7.120   6.549  1.00  0.00    -0.352 N 
ATOM     34  C   UNL     1      -3.046  -8.191   7.394  1.00  0.00     0.251 C 
ATOM     35  H   UNL     1      -3.637  -6.447   6.601  1.00  0.00     0.163 HD
ATOM     36  O   UNL     1      -4.106  -8.409   7.967  1.00  0.00    -0.269 OA
BRANCH  34  37
ATOM     37  C   UNL     1      -1.884  -9.078   7.591  1.00  0.00     0.039 A 
ATOM     38  C   UNL     1      -2.067 -10.459   7.529  1.00  0.00     0.014 A 
ATOM     39  C   UNL     1      -0.615  -8.534   7.817  1.00  0.00     0.014 A 
ATOM     40  C   UNL     1      -0.961 -11.300   7.652  1.00  0.00     0.010 A 
ATOM     41  C   UNL     1       0.493  -9.370   7.862  1.00  0.00     0.010 A 
ATOM     42  C   UNL     1       0.329 -10.761   7.792  1.00  0.00    -0.014 A 
BRANCH  42  43
ATOM     43  C   UNL     1       1.520 -11.639   7.876  1.00  0.00     0.031 A 
ATOM     44  C   UNL     1       2.354 -11.658   9.127  1.00  0.00     0.074 A 
ATOM     45  C   UNL     1       1.884 -12.367   6.803  1.00  0.00     0.049 A 
ATOM     46  N   UNL     1       3.456 -12.316   9.374  1.00  0.00    -0.248 NA
ATOM     47  C   UNL     1       1.905 -10.799  10.235  1.00  0.00     0.031 C 
ATOM     48  C   UNL     1       1.185 -12.383   5.516  1.00  0.00     0.029 A 
ATOM     49  N   UNL     1       2.938 -13.224   6.619  1.00  0.00    -0.354 N 
ATOM     50  C   UNL     1       3.838 -11.944  10.657  1.00  0.00     0.074 A 
ATOM     51  C   UNL     1       2.885 -10.955  11.112  1.00  0.00     0.031 C 
ATOM     52  C   UNL     1       1.817 -13.224   4.684  1.00  0.00     0.029 A 
ATOM     53  C   UNL     1       2.985 -13.778   5.362  1.00  0.00     0.049 A 
ATOM     54  H   UNL     1       3.599 -13.424   7.321  1.00  0.00     0.167 HD
ATOM     55  C   UNL     1       4.875 -12.403  11.398  1.00  0.00     0.037 A 
ATOM     56  C   UNL     1       3.873 -14.630   4.816  1.00  0.00     0.037 A 
ATOM     57  C   UNL     1       5.810 -13.397  10.938  1.00  0.00     0.049 A 
ATOM     58  C   UNL     1       5.015 -15.132   5.654  1.00  0.00     0.074 A 
ATOM     59  C   UNL     1       6.860 -13.976  11.627  1.00  0.00     0.029 A 
ATOM     60  N   UNL     1       5.812 -13.954   9.666  1.00  0.00    -0.354 N 
ATOM     61  N   UNL     1       5.322 -14.827   6.893  1.00  0.00    -0.248 NA
ATOM     62  C   UNL     1       5.925 -16.099   5.028  1.00  0.00     0.031 C 
ATOM     63  C   UNL     1       7.527 -14.845  10.757  1.00  0.00     0.029 A 
ATOM     64  C   UNL     1       6.860 -14.851   9.542  1.00  0.00     0.049 A 
ATOM     65  H   UNL     1       5.163 -13.742   8.956  1.00  0.00     0.167 HD
ATOM     66  C   UNL     1       6.449 -15.581   7.203  1.00  0.00     0.074 A 
ATOM     67  C   UNL     1       6.759 -16.365   6.024  1.00  0.00     0.031 C 
ATOM     68  C   UNL     1       7.158 -15.621   8.358  1.00  0.00     0.037 A 
BRANCH  55  69
ATOM     69  C   UNL     1       5.049 -11.825  12.777  1.00  0.00     0.058 A 
ATOM     70  C   UNL     1       4.125 -12.075  13.806  1.00  0.00     0.135 A 
ATOM     71  C   UNL     1       6.151 -11.007  13.076  1.00  0.00     0.135 A 
ATOM     72  F   UNL     1       3.045 -12.839  13.575  1.00  0.00    -0.206 F 
ATOM     73  C   UNL     1       4.260 -11.497  15.064  1.00  0.00     0.059 A 
ATOM     74  C   UNL     1       6.324 -10.444  14.338  1.00  0.00     0.059 A 
ATOM     75  F   UNL     1       7.067 -10.736  12.134  1.00  0.00    -0.206 F 
ATOM     76  C   UNL     1       5.360 -10.677  15.318  1.00  0.00     0.060 A 
BRANCH  76  77
ATOM     77  S   UNL     1       5.507  -9.912  16.946  1.00  0.00     0.124 S 
ATOM     78  O   UNL     1       4.473  -8.884  16.878  1.00  0.00    -0.237 OA
ATOM     79  O   UNL     1       5.230 -11.029  17.843  1.00  0.00    -0.237 OA
ATOM     80  O   UNL     1       6.880  -9.419  16.968  1.00  0.00    -0.744 OA
ENDBRANCH  76  77
ENDBRANCH  55  69
BRANCH  56  81
ATOM     81  C   UNL     1       3.687 -15.076   3.410  1.00  0.00     0.058 A 
ATOM     82  C   UNL     1       3.262 -16.380   3.115  1.00  0.00     0.135 A 
ATOM     83  C   UNL     1       3.872 -14.190   2.337  1.00  0.00     0.135 A 
ATOM     84  F   UNL     1       3.077 -17.265   4.107  1.00  0.00    -0.206 F 
ATOM     85  C   UNL     1       3.027 -16.791   1.807  1.00  0.00     0.059 A 
ATOM     86  C   UNL     1       3.620 -14.570   1.023  1.00  0.00     0.059 A 
ATOM     87  F   UNL     1       4.260 -12.926   2.568  1.00  0.00    -0.206 F 
ATOM     88  C   UNL     1       3.199 -15.875   0.768  1.00  0.00     0.060 A 
BRANCH  88  89
ATOM     89  S   UNL     1       2.807 -16.394  -0.917  1.00  0.00     0.124 S 
ATOM     90  O   UNL     1       3.915 -17.293  -1.214  1.00  0.00    -0.237 OA
ATOM     91  O   UNL     1       1.500 -17.022  -0.746  1.00  0.00    -0.237 OA
ATOM     92  O   UNL     1       2.795 -15.137  -1.661  1.00  0.00    -0.744 OA
ENDBRANCH  88  89
ENDBRANCH  56  81
BRANCH  68  93
ATOM     93  C   UNL     1       8.330 -16.563   8.417  1.00  0.00     0.058 A 
ATOM     94  C   UNL     1       9.521 -16.305   7.720  1.00  0.00     0.135 A 
ATOM     95  C   UNL     1       8.280 -17.709   9.227  1.00  0.00     0.135 A 
ATOM     96  F   UNL     1       9.620 -15.227   6.926  1.00  0.00    -0.206 F 
ATOM     97  C   UNL     1      10.612 -17.164   7.806  1.00  0.00     0.059 A 
ATOM     98  C   UNL     1       9.369 -18.566   9.351  1.00  0.00     0.059 A 
ATOM     99  F   UNL     1       7.168 -17.997   9.924  1.00  0.00    -0.206 F 
ATOM    100  C   UNL     1      10.528 -18.290   8.626  1.00  0.00     0.060 A 
BRANCH 100 101
ATOM    101  S   UNL     1      11.964 -19.376   8.756  1.00  0.00     0.124 S 
ATOM    102  O   UNL     1      11.941 -20.049   7.461  1.00  0.00    -0.237 OA
ATOM    103  O   UNL     1      13.055 -18.428   8.959  1.00  0.00    -0.237 OA
ATOM    104  O   UNL     1      11.651 -20.218   9.906  1.00  0.00    -0.744 OA
ENDBRANCH 100 101
ENDBRANCH  68  93
ENDBRANCH  42  43
ENDBRANCH  34  37
ENDBRANCH  32  33
ENDBRANCH  31  32
ENDBRANCH  30  31
ENDBRANCH   1  30
TORSDOF 20
