REMARK SMILES CCn1cc(CC(=O)NCCCCCCNC(=O)c2ccc(-c3c4nc(c(-c5c(F)cc(S(=O)(=O)[O-])cc5F)c5ccc([nH]5)c(-c5c(F)cc(S(=O)(=O)[O-])cc5F)c5nc(c(-c6c(F)cc(S(=O)(=O)[O-])cc6F)c6ccc3[nH]6)C=C5)C=C4)cc2)c2ccccc21
REMARK SMILES IDX 13 1 12 2 11 3 10 4 9 5 7 6 8 7 6 9 5 10 3 11 4 12 90 13
REMARK SMILES IDX 85 14 89 15 86 16 88 17 87 18 2 19 1 20 14 21 15 22 16 23
REMARK SMILES IDX 17 24 18 26 19 27 20 28 84 29 21 30 83 31 22 32 23 33 24 34
REMARK SMILES IDX 77 35 25 36 82 37 76 38 78 39 26 40 81 41 75 42 74 43 27 45
REMARK SMILES IDX 61 46 40 47 60 48 41 49 44 50 59 51 79 52 42 53 43 54 58 56
REMARK SMILES IDX 80 57 45 58 28 59 29 60 38 61 30 62 31 63 37 64 39 65 32 66
REMARK SMILES IDX 33 67 34 68 35 69 36 70 62 71 63 72 72 73 64 74 65 75 71 76
REMARK SMILES IDX 73 77 66 78 67 79 68 80 69 81 70 82 46 83 47 84 56 85 48 86
REMARK SMILES IDX 49 87 55 88 57 89 50 90 51 91 52 92 53 93 54 94
REMARK H PARENT 9 8 16 25 78 44 44 55
REMARK Flexibility Score: inf
ROOT
ATOM      1  C   UNL     1      -4.546   1.050   5.523  1.00  0.00     0.002 C 
ENDROOT
BRANCH   1   2
ATOM      2  C   UNL     1      -3.338   0.113   5.637  1.00  0.00     0.002 C 
BRANCH   2   3
ATOM      3  C   UNL     1      -2.175   0.421   4.684  1.00  0.00     0.021 C 
BRANCH   3   4
ATOM      4  C   UNL     1      -1.550   1.804   4.891  1.00  0.00     0.116 C 
BRANCH   4   5
ATOM      5  N   UNL     1      -0.763   1.853   6.110  1.00  0.00    -0.356 N 
ATOM      6  C   UNL     1       0.596   1.858   6.258  1.00  0.00     0.224 C 
ATOM      7  O   UNL     1       1.063   1.818   7.399  1.00  0.00    -0.275 OA
ATOM      8  H   UNL     1      -1.280   1.888   6.947  1.00  0.00     0.163 HD
BRANCH   6   9
ATOM      9  C   UNL     1       1.502   1.975   5.041  1.00  0.00     0.137 C 
BRANCH   9  10
ATOM     10  C   UNL     1       1.461   0.773   4.152  1.00  0.00    -0.013 A 
ATOM     11  N   UNL     1       1.075  -0.532   2.376  1.00  0.00    -0.347 N 
ATOM     12  C   UNL     1       1.092   0.764   2.821  1.00  0.00     0.091 A 
ATOM     13  C   UNL     1       1.501  -1.377   3.384  1.00  0.00     0.048 A 
ATOM     14  C   UNL     1       1.762  -0.579   4.504  1.00  0.00     0.003 A 
ATOM     15  C   UNL     1       1.655  -2.773   3.425  1.00  0.00     0.027 A 
ATOM     16  C   UNL     1       2.200  -1.196   5.695  1.00  0.00     0.010 A 
ATOM     17  C   UNL     1       2.092  -3.359   4.617  1.00  0.00     0.002 A 
ATOM     18  C   UNL     1       2.363  -2.583   5.738  1.00  0.00     0.001 A 
BRANCH  11  19
ATOM     19  C   UNL     1       0.562  -0.947   1.080  1.00  0.00     0.119 C 
ATOM     20  C   UNL     1       1.004  -0.076  -0.088  1.00  0.00     0.027 C 
ENDBRANCH  11  19
ENDBRANCH   9  10
ENDBRANCH   6   9
ENDBRANCH   4   5
ENDBRANCH   3   4
ENDBRANCH   2   3
ENDBRANCH   1   2
BRANCH   1  21
ATOM     21  C   UNL     1      -5.192   1.137   4.134  1.00  0.00     0.021 C 
BRANCH  21  22
ATOM     22  C   UNL     1      -5.725  -0.191   3.595  1.00  0.00     0.116 C 
BRANCH  22  23
ATOM     23  N   UNL     1      -6.722  -0.812   4.442  1.00  0.00    -0.352 N 
ATOM     24  C   UNL     1      -8.078  -0.701   4.586  1.00  0.00     0.251 C 
ATOM     25  H   UNL     1      -6.332  -1.470   5.062  1.00  0.00     0.163 HD
ATOM     26  O   UNL     1      -8.603  -1.523   5.344  1.00  0.00    -0.269 OA
BRANCH  24  27
ATOM     27  C   UNL     1      -8.938   0.343   3.958  1.00  0.00     0.039 A 
ATOM     28  C   UNL     1      -8.528   1.278   3.008  1.00  0.00     0.014 A 
ATOM     29  C   UNL     1     -10.273   0.396   4.411  1.00  0.00     0.014 A 
ATOM     30  C   UNL     1      -9.398   2.284   2.590  1.00  0.00     0.010 A 
ATOM     31  C   UNL     1     -11.150   1.391   3.986  1.00  0.00     0.010 A 
ATOM     32  C   UNL     1     -10.701   2.360   3.099  1.00  0.00    -0.014 A 
BRANCH  32  33
ATOM     33  C   UNL     1     -11.592   3.381   2.544  1.00  0.00     0.031 A 
ATOM     34  C   UNL     1     -11.823   3.244   1.077  1.00  0.00     0.074 A 
ATOM     35  C   UNL     1     -12.247   4.318   3.260  1.00  0.00     0.049 A 
ATOM     36  N   UNL     1     -11.424   4.031   0.133  1.00  0.00    -0.248 NA
ATOM     37  C   UNL     1     -12.445   2.002   0.595  1.00  0.00     0.031 C 
ATOM     38  C   UNL     1     -12.364   4.424   4.716  1.00  0.00     0.029 A 
ATOM     39  N   UNL     1     -13.023   5.353   2.818  1.00  0.00    -0.354 N 
ATOM     40  C   UNL     1     -11.931   3.498  -1.052  1.00  0.00     0.074 A 
ATOM     41  C   UNL     1     -12.397   2.176  -0.727  1.00  0.00     0.031 C 
ATOM     42  C   UNL     1     -13.319   5.331   5.026  1.00  0.00     0.029 A 
ATOM     43  C   UNL     1     -13.783   5.973   3.807  1.00  0.00     0.049 A 
ATOM     44  H   UNL     1     -13.043   5.638   1.875  1.00  0.00     0.167 HD
ATOM     45  C   UNL     1     -12.124   4.276  -2.154  1.00  0.00     0.037 A 
ATOM     46  C   UNL     1     -14.742   6.920   3.630  1.00  0.00     0.037 A 
ATOM     47  C   UNL     1     -11.370   5.501  -2.058  1.00  0.00     0.049 A 
ATOM     48  C   UNL     1     -14.485   7.558   2.315  1.00  0.00     0.074 A 
ATOM     49  C   UNL     1     -10.031   5.824  -1.968  1.00  0.00     0.029 A 
ATOM     50  N   UNL     1     -12.058   6.632  -1.696  1.00  0.00    -0.354 N 
ATOM     51  N   UNL     1     -13.450   8.305   2.052  1.00  0.00    -0.248 NA
ATOM     52  C   UNL     1     -15.196   7.046   1.155  1.00  0.00     0.031 C 
ATOM     53  C   UNL     1      -9.981   6.976  -1.129  1.00  0.00     0.029 A 
ATOM     54  C   UNL     1     -11.291   7.324  -0.796  1.00  0.00     0.049 A 
ATOM     55  H   UNL     1     -12.946   6.900  -2.026  1.00  0.00     0.167 HD
ATOM     56  C   UNL     1     -13.124   8.006   0.739  1.00  0.00     0.074 A 
ATOM     57  C   UNL     1     -14.297   7.319   0.207  1.00  0.00     0.031 C 
ATOM     58  C   UNL     1     -11.837   8.099   0.297  1.00  0.00     0.037 A 
BRANCH  45  59
ATOM     59  C   UNL     1     -13.276   4.121  -3.129  1.00  0.00     0.058 A 
ATOM     60  C   UNL     1     -13.347   4.978  -4.251  1.00  0.00     0.135 A 
ATOM     61  C   UNL     1     -14.454   3.388  -2.860  1.00  0.00     0.135 A 
ATOM     62  F   UNL     1     -12.289   5.721  -4.615  1.00  0.00    -0.206 F 
ATOM     63  C   UNL     1     -14.522   5.167  -4.981  1.00  0.00     0.059 A 
ATOM     64  C   UNL     1     -15.620   3.522  -3.607  1.00  0.00     0.059 A 
ATOM     65  F   UNL     1     -14.570   2.572  -1.807  1.00  0.00    -0.206 F 
ATOM     66  C   UNL     1     -15.660   4.447  -4.637  1.00  0.00     0.060 A 
BRANCH  66  67
ATOM     67  S   UNL     1     -17.205   4.767  -5.503  1.00  0.00     0.124 S 
ATOM     68  O   UNL     1     -17.508   6.124  -5.065  1.00  0.00    -0.237 OA
ATOM     69  O   UNL     1     -16.803   4.619  -6.898  1.00  0.00    -0.237 OA
ATOM     70  O   UNL     1     -18.095   3.725  -4.999  1.00  0.00    -0.744 OA
ENDBRANCH  66  67
ENDBRANCH  45  59
BRANCH  46  71
ATOM     71  C   UNL     1     -16.029   7.120   4.357  1.00  0.00     0.058 A 
ATOM     72  C   UNL     1     -16.828   8.258   4.122  1.00  0.00     0.135 A 
ATOM     73  C   UNL     1     -16.652   6.065   5.051  1.00  0.00     0.135 A 
ATOM     74  F   UNL     1     -16.326   9.313   3.462  1.00  0.00    -0.206 F 
ATOM     75  C   UNL     1     -18.180   8.314   4.482  1.00  0.00     0.059 A 
ATOM     76  C   UNL     1     -17.996   6.103   5.430  1.00  0.00     0.059 A 
ATOM     77  F   UNL     1     -16.001   4.920   5.298  1.00  0.00    -0.206 F 
ATOM     78  C   UNL     1     -18.764   7.217   5.111  1.00  0.00     0.060 A 
BRANCH  78  79
ATOM     79  S   UNL     1     -20.551   7.201   5.394  1.00  0.00     0.124 S 
ATOM     80  O   UNL     1     -20.709   8.244   6.401  1.00  0.00    -0.237 OA
ATOM     81  O   UNL     1     -21.075   7.511   4.067  1.00  0.00    -0.237 OA
ATOM     82  O   UNL     1     -20.809   5.840   5.859  1.00  0.00    -0.744 OA
ENDBRANCH  78  79
ENDBRANCH  46  71
BRANCH  58  83
ATOM     83  C   UNL     1     -10.850   8.882   1.125  1.00  0.00     0.058 A 
ATOM     84  C   UNL     1     -10.432   8.531   2.421  1.00  0.00     0.135 A 
ATOM     85  C   UNL     1     -10.182   9.949   0.503  1.00  0.00     0.135 A 
ATOM     86  F   UNL     1     -10.953   7.468   3.052  1.00  0.00    -0.206 F 
ATOM     87  C   UNL     1      -9.412   9.225   3.075  1.00  0.00     0.059 A 
ATOM     88  C   UNL     1      -9.141  10.632   1.122  1.00  0.00     0.059 A 
ATOM     89  F   UNL     1     -10.500  10.300  -0.754  1.00  0.00    -0.206 F 
ATOM     90  C   UNL     1      -8.764  10.268   2.412  1.00  0.00     0.060 A 
BRANCH  90  91
ATOM     91  S   UNL     1      -7.370  11.089   3.215  1.00  0.00     0.124 S 
ATOM     92  O   UNL     1      -8.020  11.819   4.296  1.00  0.00    -0.237 OA
ATOM     93  O   UNL     1      -6.532   9.965   3.619  1.00  0.00    -0.237 OA
ATOM     94  O   UNL     1      -6.805  11.922   2.152  1.00  0.00    -0.744 OA
ENDBRANCH  90  91
ENDBRANCH  58  83
ENDBRANCH  32  33
ENDBRANCH  24  27
ENDBRANCH  22  23
ENDBRANCH  21  22
ENDBRANCH   1  21
TORSDOF 18
