REMARK SMILES O=C(NCCCCCCNC(=O)c1ccc2nc(-c3c[nH]nc3-c3ccc(F)cc3F)[nH]c2c1)c1ccc(-c2c3nc(c(-c4c(F)cc(S(=O)(=O)[O-])cc4F)c4ccc([nH]4)c(-c4c(F)cc(S(=O)(=O)[O-])cc4F)c4nc(c(-c5c(F)cc(S(=O)(=O)[O-])cc5F)c5ccc2[nH]5)C=C4)C=C3)cc1
REMARK SMILES IDX 6 1 5 2 4 3 3 4 1 5 2 6 35 8 36 9 100 10 37 11 99 12 38 13
REMARK SMILES IDX 39 14 40 15 93 16 41 17 98 18 92 19 94 20 42 21 97 22 91 23
REMARK SMILES IDX 90 24 43 26 77 27 56 28 76 29 57 30 60 31 75 32 95 33 58 34
REMARK SMILES IDX 59 35 74 37 96 38 61 39 44 40 45 41 54 42 46 43 47 44 53 45
REMARK SMILES IDX 55 46 48 47 49 48 50 49 51 50 52 51 78 52 79 53 88 54 80 55
REMARK SMILES IDX 81 56 87 57 89 58 82 59 83 60 84 61 85 62 86 63 62 64 63 65
REMARK SMILES IDX 72 66 64 67 65 68 71 69 73 70 66 71 67 72 68 73 69 74 70 75
REMARK SMILES IDX 7 76 8 77 9 78 10 79 11 80 12 82 13 83 14 84 34 85 15 86
REMARK SMILES IDX 33 87 16 88 32 89 17 90 18 91 19 93 20 94 23 95 21 96 22 97
REMARK SMILES IDX 24 99 25 100 30 101 26 102 29 103 31 104 27 105 28 106
REMARK H PARENT 3 7 94 25 60 36 10 81 32 92 21 98
REMARK Flexibility Score: inf
ROOT
ATOM      1  C   UNL     1       4.201   1.548  -3.626  1.00  0.00     0.002 C 
ENDROOT
BRANCH   1   2
ATOM      2  C   UNL     1       4.648   0.356  -2.780  1.00  0.00     0.021 C 
BRANCH   2   3
ATOM      3  C   UNL     1       4.452   0.516  -1.279  1.00  0.00     0.116 C 
BRANCH   3   4
ATOM      4  N   UNL     1       3.053   0.570  -0.889  1.00  0.00    -0.352 N 
ATOM      5  O   UNL     1       1.193  -0.052   0.227  1.00  0.00    -0.269 OA
ATOM      6  C   UNL     1       2.414  -0.119   0.116  1.00  0.00     0.251 C 
ATOM      7  H   UNL     1       2.488   1.182  -1.414  1.00  0.00     0.163 HD
BRANCH   6   8
ATOM      8  C   UNL     1       3.203  -0.963   1.042  1.00  0.00     0.039 A 
ATOM      9  C   UNL     1       4.397  -0.491   1.591  1.00  0.00     0.014 A 
ATOM     10  C   UNL     1       2.748  -2.248   1.358  1.00  0.00     0.014 A 
ATOM     11  C   UNL     1       5.202  -1.348   2.331  1.00  0.00     0.010 A 
ATOM     12  C   UNL     1       3.519  -3.079   2.179  1.00  0.00     0.010 A 
ATOM     13  C   UNL     1       4.767  -2.646   2.650  1.00  0.00    -0.014 A 
BRANCH  13  14
ATOM     14  C   UNL     1       5.616  -3.482   3.539  1.00  0.00     0.031 A 
ATOM     15  C   UNL     1       6.270  -4.745   3.047  1.00  0.00     0.074 A 
ATOM     16  C   UNL     1       5.851  -3.039   4.790  1.00  0.00     0.049 A 
ATOM     17  N   UNL     1       7.107  -5.531   3.676  1.00  0.00    -0.248 NA
ATOM     18  C   UNL     1       5.945  -5.189   1.683  1.00  0.00     0.031 C 
ATOM     19  C   UNL     1       5.250  -1.838   5.381  1.00  0.00     0.029 A 
ATOM     20  N   UNL     1       6.680  -3.510   5.774  1.00  0.00    -0.354 N 
ATOM     21  C   UNL     1       7.400  -6.565   2.795  1.00  0.00     0.074 A 
ATOM     22  C   UNL     1       6.634  -6.320   1.592  1.00  0.00     0.031 C 
ATOM     23  C   UNL     1       5.788  -1.626   6.591  1.00  0.00     0.029 A 
ATOM     24  C   UNL     1       6.724  -2.704   6.888  1.00  0.00     0.049 A 
ATOM     25  H   UNL     1       7.195  -4.346   5.692  1.00  0.00     0.167 HD
ATOM     26  C   UNL     1       8.238  -7.615   2.974  1.00  0.00     0.037 A 
ATOM     27  C   UNL     1       7.437  -2.816   8.024  1.00  0.00     0.037 A 
ATOM     28  C   UNL     1       9.012  -7.841   4.169  1.00  0.00     0.049 A 
ATOM     29  C   UNL     1       8.366  -3.983   8.186  1.00  0.00     0.074 A 
ATOM     30  C   UNL     1       9.898  -8.871   4.439  1.00  0.00     0.029 A 
ATOM     31  N   UNL     1       9.001  -7.024   5.290  1.00  0.00    -0.354 N 
ATOM     32  N   UNL     1       8.630  -4.947   7.337  1.00  0.00    -0.248 NA
ATOM     33  C   UNL     1       9.085  -4.084   9.462  1.00  0.00     0.031 C 
ATOM     34  C   UNL     1      10.400  -8.692   5.733  1.00  0.00     0.029 A 
ATOM     35  C   UNL     1       9.855  -7.531   6.256  1.00  0.00     0.049 A 
ATOM     36  H   UNL     1       8.465  -6.204   5.385  1.00  0.00     0.167 HD
ATOM     37  C   UNL     1       9.543  -5.773   7.978  1.00  0.00     0.074 A 
ATOM     38  C   UNL     1       9.812  -5.176   9.271  1.00  0.00     0.031 C 
ATOM     39  C   UNL     1      10.099  -6.930   7.542  1.00  0.00     0.037 A 
BRANCH  26  40
ATOM     40  C   UNL     1       8.373  -8.613   1.857  1.00  0.00     0.058 A 
ATOM     41  C   UNL     1       7.822  -9.899   1.977  1.00  0.00     0.135 A 
ATOM     42  C   UNL     1       9.127  -8.328   0.708  1.00  0.00     0.135 A 
ATOM     43  F   UNL     1       7.091 -10.223   3.055  1.00  0.00    -0.206 F 
ATOM     44  C   UNL     1       8.028 -10.877   1.006  1.00  0.00     0.059 A 
ATOM     45  C   UNL     1       9.330  -9.283  -0.283  1.00  0.00     0.059 A 
ATOM     46  F   UNL     1       9.661  -7.109   0.536  1.00  0.00    -0.206 F 
ATOM     47  C   UNL     1       8.781 -10.557  -0.122  1.00  0.00     0.060 A 
BRANCH  47  48
ATOM     48  S   UNL     1       9.089 -11.795  -1.401  1.00  0.00     0.124 S 
ATOM     49  O   UNL     1       8.283 -11.281  -2.504  1.00  0.00    -0.237 OA
ATOM     50  O   UNL     1      10.535 -11.706  -1.578  1.00  0.00    -0.237 OA
ATOM     51  O   UNL     1       8.608 -13.035  -0.799  1.00  0.00    -0.744 OA
ENDBRANCH  47  48
ENDBRANCH  26  40
BRANCH  27  52
ATOM     52  C   UNL     1       7.295  -1.792   9.090  1.00  0.00     0.058 A 
ATOM     53  C   UNL     1       6.107  -1.676   9.829  1.00  0.00     0.135 A 
ATOM     54  C   UNL     1       8.334  -0.894   9.373  1.00  0.00     0.135 A 
ATOM     55  F   UNL     1       5.078  -2.501   9.582  1.00  0.00    -0.206 F 
ATOM     56  C   UNL     1       5.946  -0.698  10.803  1.00  0.00     0.059 A 
ATOM     57  C   UNL     1       8.206   0.076  10.362  1.00  0.00     0.059 A 
ATOM     58  F   UNL     1       9.489  -0.968   8.695  1.00  0.00    -0.206 F 
ATOM     59  C   UNL     1       7.006   0.167  11.070  1.00  0.00     0.060 A 
BRANCH  59  60
ATOM     60  S   UNL     1       6.828   1.462  12.316  1.00  0.00     0.124 S 
ATOM     61  O   UNL     1       7.613   0.918  13.417  1.00  0.00    -0.237 OA
ATOM     62  O   UNL     1       7.397   2.623  11.638  1.00  0.00    -0.237 OA
ATOM     63  O   UNL     1       5.386   1.520  12.533  1.00  0.00    -0.744 OA
ENDBRANCH  59  60
ENDBRANCH  27  52
BRANCH  39  64
ATOM     64  C   UNL     1      11.047  -7.621   8.478  1.00  0.00     0.058 A 
ATOM     65  C   UNL     1      12.430  -7.600   8.242  1.00  0.00     0.135 A 
ATOM     66  C   UNL     1      10.580  -8.317   9.604  1.00  0.00     0.135 A 
ATOM     67  F   UNL     1      12.924  -6.954   7.174  1.00  0.00    -0.206 F 
ATOM     68  C   UNL     1      13.323  -8.241   9.094  1.00  0.00     0.059 A 
ATOM     69  C   UNL     1      11.456  -8.945  10.482  1.00  0.00     0.059 A 
ATOM     70  F   UNL     1       9.266  -8.358   9.876  1.00  0.00    -0.206 F 
ATOM     71  C   UNL     1      12.827  -8.897  10.220  1.00  0.00     0.060 A 
BRANCH  71  72
ATOM     72  S   UNL     1      13.954  -9.720  11.366  1.00  0.00     0.124 S 
ATOM     73  O   UNL     1      13.948  -8.797  12.496  1.00  0.00    -0.237 OA
ATOM     74  O   UNL     1      13.292 -11.002  11.590  1.00  0.00    -0.237 OA
ATOM     75  O   UNL     1      15.206  -9.790  10.618  1.00  0.00    -0.744 OA
ENDBRANCH  71  72
ENDBRANCH  39  64
ENDBRANCH  13  14
ENDBRANCH   6   8
ENDBRANCH   3   4
ENDBRANCH   2   3
ENDBRANCH   1   2
BRANCH   1  76
ATOM     76  C   UNL     1       4.814   2.899  -3.248  1.00  0.00     0.002 C 
BRANCH  76  77
ATOM     77  C   UNL     1       6.344   2.935  -3.142  1.00  0.00     0.021 C 
BRANCH  77  78
ATOM     78  C   UNL     1       7.095   2.423  -4.370  1.00  0.00     0.116 C 
BRANCH  78  79
ATOM     79  N   UNL     1       6.789   3.215  -5.548  1.00  0.00    -0.352 N 
ATOM     80  C   UNL     1       7.648   3.914  -6.350  1.00  0.00     0.251 C 
ATOM     81  H   UNL     1       5.839   3.253  -5.802  1.00  0.00     0.163 HD
ATOM     82  O   UNL     1       7.229   4.688  -7.205  1.00  0.00    -0.269 OA
BRANCH  80  83
ATOM     83  C   UNL     1       9.101   3.731  -6.183  1.00  0.00     0.042 A 
ATOM     84  C   UNL     1       9.672   2.477  -6.438  1.00  0.00     0.016 A 
ATOM     85  C   UNL     1       9.872   4.846  -5.822  1.00  0.00     0.042 A 
ATOM     86  C   UNL     1      11.058   2.307  -6.367  1.00  0.00     0.031 A 
ATOM     87  C   UNL     1      11.248   4.633  -5.734  1.00  0.00     0.067 A 
ATOM     88  C   UNL     1      11.851   3.417  -6.040  1.00  0.00     0.089 A 
ATOM     89  N   UNL     1      12.296   5.447  -5.382  1.00  0.00    -0.338 N 
ATOM     90  N   UNL     1      13.212   3.529  -6.001  1.00  0.00    -0.228 NA
ATOM     91  C   UNL     1      13.461   4.761  -5.614  1.00  0.00     0.142 A 
ATOM     92  H   UNL     1      12.224   6.361  -5.025  1.00  0.00     0.168 HD
BRANCH  91  93
ATOM     93  C   UNL     1      14.824   5.326  -5.505  1.00  0.00     0.063 A 
ATOM     94  C   UNL     1      15.224   6.361  -4.695  1.00  0.00     0.117 A 
ATOM     95  C   UNL     1      15.984   4.928  -6.228  1.00  0.00     0.106 A 
ATOM     96  N   UNL     1      16.571   6.467  -4.891  1.00  0.00    -0.284 N 
ATOM     97  N   UNL     1      17.045   5.665  -5.856  1.00  0.00    -0.175 NA
ATOM     98  H   UNL     1      17.142   7.077  -4.371  1.00  0.00     0.189 HD
BRANCH  95  99
ATOM     99  C   UNL     1      16.056   3.993  -7.344  1.00  0.00     0.039 A 
ATOM    100  C   UNL     1      15.248   4.210  -8.476  1.00  0.00     0.016 A 
ATOM    101  C   UNL     1      16.896   2.878  -7.316  1.00  0.00     0.135 A 
ATOM    102  C   UNL     1      15.278   3.316  -9.547  1.00  0.00     0.040 A 
ATOM    103  C   UNL     1      16.932   1.985  -8.385  1.00  0.00     0.079 A 
ATOM    104  F   UNL     1      17.675   2.628  -6.253  1.00  0.00    -0.206 F 
ATOM    105  C   UNL     1      16.120   2.212  -9.490  1.00  0.00     0.126 A 
ATOM    106  F   UNL     1      16.149   1.356 -10.520  1.00  0.00    -0.207 F 
ENDBRANCH  95  99
ENDBRANCH  91  93
ENDBRANCH  80  83
ENDBRANCH  78  79
ENDBRANCH  77  78
ENDBRANCH  76  77
ENDBRANCH   1  76
TORSDOF 18
