REMARK SMILES CC(C)N(CCCC(=O)NCCCCCCNC(=O)c1ccc(-c2c3nc(c(-c4c(F)cc(S(=O)(=O)[O-])cc4F)c4ccc([nH]4)c(-c4c(F)cc(S(=O)(=O)[O-])cc4F)c4nc(c(-c5c(F)cc(S(=O)(=O)[O-])cc5F)c5ccc2[nH]5)C=C4)C=C3)cc1)C(=O)N[C@@H]1CCCC1(C)C
REMARK SMILES IDX 12 1 11 2 10 3 8 4 9 5 7 7 6 8 5 9 4 10 2 11 1 12 3 13 86 14
REMARK SMILES IDX 87 15 88 16 89 18 90 19 93 20 91 21 92 22 94 23 95 24 13 25
REMARK SMILES IDX 14 26 15 27 16 28 17 29 18 30 19 32 20 33 21 34 85 35 22 36
REMARK SMILES IDX 84 37 23 38 24 39 25 40 78 41 26 42 83 43 77 44 79 45 27 46
REMARK SMILES IDX 82 47 76 48 75 49 28 51 62 52 41 53 61 54 42 55 45 56 60 57
REMARK SMILES IDX 80 58 43 59 44 60 59 62 81 63 46 64 29 65 30 66 39 67 31 68
REMARK SMILES IDX 32 69 38 70 40 71 33 72 34 73 35 74 36 75 37 76 63 77 64 78
REMARK SMILES IDX 73 79 65 80 66 81 72 82 74 83 67 84 68 85 69 86 70 87 71 88
REMARK SMILES IDX 47 89 48 90 57 91 49 92 50 93 56 94 58 95 51 96 52 97 53 98
REMARK SMILES IDX 54 99 55 100
REMARK H PARENT 10 6 88 17 17 31 79 50 45 61
REMARK Flexibility Score: inf
ROOT
ATOM      1  C   UNL     1      -1.611  -0.500   3.435  1.00  0.00     0.021 C 
ENDROOT
BRANCH   1   2
ATOM      2  C   UNL     1      -2.474  -0.939   2.269  1.00  0.00     0.116 C 
BRANCH   2   3
ATOM      3  N   UNL     1      -2.370  -0.202   1.032  1.00  0.00    -0.356 N 
ATOM      4  C   UNL     1      -1.290  -0.161   0.193  1.00  0.00     0.220 C 
ATOM      5  O   UNL     1      -0.135  -0.382   0.541  1.00  0.00    -0.275 OA
ATOM      6  H   UNL     1      -3.157   0.326   0.765  1.00  0.00     0.163 HD
BRANCH   4   7
ATOM      7  C   UNL     1      -1.650   0.164  -1.251  1.00  0.00     0.102 C 
BRANCH   7   8
ATOM      8  C   UNL     1      -2.665  -0.776  -1.910  1.00  0.00     0.031 C 
BRANCH   8   9
ATOM      9  C   UNL     1      -3.450  -1.754  -1.049  1.00  0.00     0.122 C 
BRANCH   9  10
ATOM     10  N   UNL     1      -4.672  -1.463  -0.245  1.00  0.00    -0.322 N 
BRANCH  10  11
ATOM     11  C   UNL     1      -5.241  -2.782   0.234  1.00  0.00     0.080 C 
ATOM     12  C   UNL     1      -5.945  -2.736   1.592  1.00  0.00     0.031 C 
ATOM     13  C   UNL     1      -6.120  -3.501  -0.806  1.00  0.00     0.031 C 
ENDBRANCH  10  11
BRANCH  10  14
ATOM     14  C   UNL     1      -5.583  -0.438  -0.296  1.00  0.00     0.317 C 
ATOM     15  O   UNL     1      -6.797  -0.676  -0.370  1.00  0.00    -0.249 OA
ATOM     16  N   UNL     1      -5.374   0.874  -0.109  1.00  0.00    -0.335 N 
ATOM     17  H   UNL     1      -6.268   1.285  -0.080  1.00  0.00     0.165 HD
BRANCH  16  18
ATOM     18  C   UNL     1      -4.422   1.980   0.074  1.00  0.00     0.089 C 
ATOM     19  C   UNL     1      -4.011   2.367   1.502  1.00  0.00     0.025 C 
ATOM     20  C   UNL     1      -4.941   3.365  -0.440  1.00  0.00    -0.015 C 
ATOM     21  C   UNL     1      -3.314   3.728   1.343  1.00  0.00     0.003 C 
ATOM     22  C   UNL     1      -3.788   4.292   0.001  1.00  0.00     0.008 C 
ATOM     23  C   UNL     1      -5.127   3.384  -1.956  1.00  0.00     0.013 C 
ATOM     24  C   UNL     1      -6.246   3.860   0.230  1.00  0.00     0.013 C 
ENDBRANCH  16  18
ENDBRANCH  10  14
ENDBRANCH   9  10
ENDBRANCH   8   9
ENDBRANCH   7   8
ENDBRANCH   4   7
ENDBRANCH   2   3
ENDBRANCH   1   2
BRANCH   1  25
ATOM     25  C   UNL     1      -2.194   0.525   4.418  1.00  0.00     0.002 C 
BRANCH  25  26
ATOM     26  C   UNL     1      -3.675   0.474   4.824  1.00  0.00     0.002 C 
BRANCH  26  27
ATOM     27  C   UNL     1      -4.324  -0.860   5.188  1.00  0.00     0.021 C 
BRANCH  27  28
ATOM     28  C   UNL     1      -3.547  -1.793   6.098  1.00  0.00     0.116 C 
BRANCH  28  29
ATOM     29  N   UNL     1      -3.225  -1.214   7.385  1.00  0.00    -0.352 N 
ATOM     30  C   UNL     1      -3.214  -1.827   8.616  1.00  0.00     0.251 C 
ATOM     31  H   UNL     1      -2.984  -0.259   7.379  1.00  0.00     0.163 HD
ATOM     32  O   UNL     1      -3.002  -1.167   9.629  1.00  0.00    -0.269 OA
BRANCH  30  33
ATOM     33  C   UNL     1      -3.501  -3.278   8.719  1.00  0.00     0.039 A 
ATOM     34  C   UNL     1      -4.407  -3.712   9.690  1.00  0.00     0.014 A 
ATOM     35  C   UNL     1      -2.897  -4.203   7.862  1.00  0.00     0.014 A 
ATOM     36  C   UNL     1      -4.748  -5.065   9.766  1.00  0.00     0.010 A 
ATOM     37  C   UNL     1      -3.291  -5.540   7.892  1.00  0.00     0.010 A 
ATOM     38  C   UNL     1      -4.215  -5.986   8.849  1.00  0.00    -0.014 A 
BRANCH  38  39
ATOM     39  C   UNL     1      -4.606  -7.419   8.887  1.00  0.00     0.031 A 
ATOM     40  C   UNL     1      -3.584  -8.473   9.216  1.00  0.00     0.074 A 
ATOM     41  C   UNL     1      -5.867  -7.775   8.572  1.00  0.00     0.049 A 
ATOM     42  N   UNL     1      -3.723  -9.773   9.259  1.00  0.00    -0.248 NA
ATOM     43  C   UNL     1      -2.220  -8.004   9.507  1.00  0.00     0.031 C 
ATOM     44  C   UNL     1      -6.933  -6.851   8.183  1.00  0.00     0.029 A 
ATOM     45  N   UNL     1      -6.463  -9.010   8.520  1.00  0.00    -0.354 N 
ATOM     46  C   UNL     1      -2.465 -10.278   9.569  1.00  0.00     0.074 A 
ATOM     47  C   UNL     1      -1.565  -9.147   9.647  1.00  0.00     0.031 C 
ATOM     48  C   UNL     1      -8.056  -7.549   7.950  1.00  0.00     0.029 A 
ATOM     49  C   UNL     1      -7.784  -8.970   8.143  1.00  0.00     0.049 A 
ATOM     50  H   UNL     1      -5.988  -9.847   8.732  1.00  0.00     0.167 HD
ATOM     51  C   UNL     1      -2.098 -11.563   9.794  1.00  0.00     0.037 A 
ATOM     52  C   UNL     1      -8.676  -9.965   7.970  1.00  0.00     0.037 A 
ATOM     53  C   UNL     1      -3.003 -12.681   9.733  1.00  0.00     0.049 A 
ATOM     54  C   UNL     1      -8.254 -11.384   8.236  1.00  0.00     0.074 A 
ATOM     55  C   UNL     1      -2.746 -14.014  10.001  1.00  0.00     0.029 A 
ATOM     56  N   UNL     1      -4.342 -12.597   9.375  1.00  0.00    -0.354 N 
ATOM     57  N   UNL     1      -7.077 -11.838   8.598  1.00  0.00    -0.248 NA
ATOM     58  C   UNL     1      -9.279 -12.424   8.083  1.00  0.00     0.031 C 
ATOM     59  C   UNL     1      -3.918 -14.741   9.764  1.00  0.00     0.029 A 
ATOM     60  C   UNL     1      -4.918 -13.856   9.394  1.00  0.00     0.049 A 
ATOM     61  H   UNL     1      -4.812 -11.764   9.141  1.00  0.00     0.167 HD
ATOM     62  C   UNL     1      -7.224 -13.213   8.735  1.00  0.00     0.074 A 
ATOM     63  C   UNL     1      -8.609 -13.515   8.429  1.00  0.00     0.031 C 
ATOM     64  C   UNL     1      -6.298 -14.141   9.084  1.00  0.00     0.037 A 
BRANCH  51  65
ATOM     65  C   UNL     1      -0.651 -11.819  10.122  1.00  0.00     0.058 A 
ATOM     66  C   UNL     1      -0.086 -11.400  11.338  1.00  0.00     0.135 A 
ATOM     67  C   UNL     1       0.182 -12.487   9.211  1.00  0.00     0.135 A 
ATOM     68  F   UNL     1      -0.833 -10.745  12.241  1.00  0.00    -0.206 F 
ATOM     69  C   UNL     1       1.264 -11.590  11.618  1.00  0.00     0.059 A 
ATOM     70  C   UNL     1       1.528 -12.716   9.483  1.00  0.00     0.059 A 
ATOM     71  F   UNL     1      -0.305 -12.914   8.036  1.00  0.00    -0.206 F 
ATOM     72  C   UNL     1       2.065 -12.242  10.680  1.00  0.00     0.060 A 
BRANCH  72  73
ATOM     73  S   UNL     1       3.820 -12.455  11.042  1.00  0.00     0.124 S 
ATOM     74  O   UNL     1       4.327 -11.104  10.823  1.00  0.00    -0.237 OA
ATOM     75  O   UNL     1       3.802 -12.907  12.430  1.00  0.00    -0.237 OA
ATOM     76  O   UNL     1       4.250 -13.453  10.067  1.00  0.00    -0.744 OA
ENDBRANCH  72  73
ENDBRANCH  51  65
BRANCH  52  77
ATOM     77  C   UNL     1     -10.065  -9.639   7.551  1.00  0.00     0.058 A 
ATOM     78  C   UNL     1     -11.131  -9.726   8.457  1.00  0.00     0.135 A 
ATOM     79  C   UNL     1     -10.344  -9.183   6.253  1.00  0.00     0.135 A 
ATOM     80  F   UNL     1     -10.915 -10.163   9.707  1.00  0.00    -0.206 F 
ATOM     81  C   UNL     1     -12.427  -9.373   8.094  1.00  0.00     0.059 A 
ATOM     82  C   UNL     1     -11.627  -8.803   5.872  1.00  0.00     0.059 A 
ATOM     83  F   UNL     1      -9.355  -9.068   5.354  1.00  0.00    -0.206 F 
ATOM     84  C   UNL     1     -12.664  -8.904   6.800  1.00  0.00     0.060 A 
BRANCH  84  85
ATOM     85  S   UNL     1     -14.333  -8.369   6.365  1.00  0.00     0.124 S 
ATOM     86  O   UNL     1     -15.031  -9.645   6.255  1.00  0.00    -0.237 OA
ATOM     87  O   UNL     1     -14.696  -7.538   7.508  1.00  0.00    -0.237 OA
ATOM     88  O   UNL     1     -14.137  -7.646   5.112  1.00  0.00    -0.744 OA
ENDBRANCH  84  85
ENDBRANCH  52  77
BRANCH  64  89
ATOM     89  C   UNL     1      -6.753 -15.571   9.174  1.00  0.00     0.058 A 
ATOM     90  C   UNL     1      -7.026 -16.332   8.027  1.00  0.00     0.135 A 
ATOM     91  C   UNL     1      -6.864 -16.204  10.423  1.00  0.00     0.135 A 
ATOM     92  F   UNL     1      -6.941 -15.773   6.809  1.00  0.00    -0.206 F 
ATOM     93  C   UNL     1      -7.412 -17.666   8.115  1.00  0.00     0.059 A 
ATOM     94  C   UNL     1      -7.224 -17.544  10.533  1.00  0.00     0.059 A 
ATOM     95  F   UNL     1      -6.605 -15.524  11.551  1.00  0.00    -0.206 F 
ATOM     96  C   UNL     1      -7.506 -18.264   9.373  1.00  0.00     0.060 A 
BRANCH  96  97
ATOM     97  S   UNL     1      -7.973 -20.005   9.472  1.00  0.00     0.124 S 
ATOM     98  O   UNL     1      -9.403 -19.942   9.187  1.00  0.00    -0.237 OA
ATOM     99  O   UNL     1      -7.146 -20.611   8.434  1.00  0.00    -0.237 OA
ATOM    100  O   UNL     1      -7.621 -20.374  10.840  1.00  0.00    -0.744 OA
ENDBRANCH  96  97
ENDBRANCH  64  89
ENDBRANCH  38  39
ENDBRANCH  30  33
ENDBRANCH  28  29
ENDBRANCH  27  28
ENDBRANCH  26  27
ENDBRANCH  25  26
ENDBRANCH   1  25
TORSDOF 22
