REMARK SMILES Cc1cc(C[NH+]2C[C@@H](C)[C@H](C)C2)oc1C(=O)NCCCCCCNC(=O)c1ccc(-c2c3nc(c(-c4c(F)cc(S(=O)(=O)[O-])cc4F)c4ccc([nH]4)c(-c4c(F)cc(S(=O)(=O)[O-])cc4F)c4nc(c(-c5c(F)cc(S(=O)(=O)[O-])cc5F)c5ccc2[nH]5)C=C4)C=C3)cc1
REMARK SMILES IDX 21 1 20 2 19 3 18 4 17 5 15 6 16 7 14 9 1 10 2 11 3 12 4 13
REMARK SMILES IDX 13 14 5 15 6 16 7 17 12 18 8 20 10 21 9 22 11 23 22 24 23 25
REMARK SMILES IDX 24 26 25 27 26 29 27 30 28 31 92 32 29 33 91 34 30 35 31 36
REMARK SMILES IDX 32 37 85 38 33 39 90 40 84 41 86 42 34 43 89 44 83 45 82 46
REMARK SMILES IDX 35 48 69 49 48 50 68 51 49 52 52 53 67 54 87 55 50 56 51 57
REMARK SMILES IDX 66 59 88 60 53 61 36 62 37 63 46 64 38 65 39 66 45 67 47 68
REMARK SMILES IDX 40 69 41 70 42 71 43 72 44 73 70 74 71 75 80 76 72 77 73 78
REMARK SMILES IDX 79 79 81 80 74 81 75 82 76 83 77 84 78 85 54 86 55 87 64 88
REMARK SMILES IDX 56 89 57 90 63 91 65 92 58 93 59 94 60 95 61 96 62 97
REMARK H PARENT 17 8 6 19 24 28 86 47 52 58
REMARK Flexibility Score: inf
ROOT
ATOM      1  C   UNL     1      -5.133  -3.962  -0.066  1.00  0.00     0.002 C 
ENDROOT
BRANCH   1   2
ATOM      2  C   UNL     1      -4.290  -4.048  -1.343  1.00  0.00     0.002 C 
BRANCH   2   3
ATOM      3  C   UNL     1      -3.600  -2.764  -1.815  1.00  0.00     0.021 C 
BRANCH   3   4
ATOM      4  C   UNL     1      -2.771  -2.016  -0.778  1.00  0.00     0.116 C 
BRANCH   4   5
ATOM      5  N   UNL     1      -1.573  -2.704  -0.372  1.00  0.00    -0.349 N 
ATOM      6  C   UNL     1      -0.370  -2.185   0.058  1.00  0.00     0.287 C 
ATOM      7  O   UNL     1       0.525  -3.014   0.241  1.00  0.00    -0.266 OA
ATOM      8  H   UNL     1      -1.619  -3.687  -0.406  1.00  0.00     0.163 HD
BRANCH   6   9
ATOM      9  C   UNL     1      -0.162  -0.753   0.245  1.00  0.00     0.194 A 
ATOM     10  C   UNL     1      -2.333   0.452   1.094  1.00  0.00     0.049 C 
ATOM     11  C   UNL     1      -0.915   0.343   0.672  1.00  0.00     0.001 A 
ATOM     12  C   UNL     1      -0.027   1.458   0.681  1.00  0.00     0.056 A 
ATOM     13  C   UNL     1       1.186   1.018   0.217  1.00  0.00     0.159 A 
ATOM     14  O   UNL     1       1.122  -0.320  -0.016  1.00  0.00    -0.450 OA
BRANCH  13  15
ATOM     15  C   UNL     1       2.483   1.700  -0.069  1.00  0.00     0.338 C 
BRANCH  15  16
ATOM     16  N   UNL     1       2.517   2.464  -1.321  1.00  0.00    -0.328 N 
ATOM     17  C   UNL     1       2.335   1.654  -2.526  1.00  0.00     0.266 C 
ATOM     18  C   UNL     1       1.624   3.625  -1.386  1.00  0.00     0.266 C 
ATOM     19  H   UNL     1       3.473   2.821  -1.302  1.00  0.00     0.348 HD
ATOM     20  C   UNL     1       1.907   2.680  -3.571  1.00  0.00     0.049 C 
ATOM     21  C   UNL     1       0.954   3.560  -2.762  1.00  0.00     0.049 C 
ATOM     22  C   UNL     1       1.264   2.033  -4.789  1.00  0.00     0.014 C 
ATOM     23  C   UNL     1       0.705   4.935  -3.362  1.00  0.00     0.014 C 
ENDBRANCH  15  16
ENDBRANCH  13  15
ENDBRANCH   6   9
ENDBRANCH   4   5
ENDBRANCH   3   4
ENDBRANCH   2   3
ENDBRANCH   1   2
BRANCH   1  24
ATOM     24  C   UNL     1      -6.158  -2.829   0.019  1.00  0.00     0.021 C 
BRANCH  24  25
ATOM     25  C   UNL     1      -7.127  -2.695  -1.151  1.00  0.00     0.116 C 
BRANCH  25  26
ATOM     26  N   UNL     1      -7.915  -3.891  -1.382  1.00  0.00    -0.352 N 
ATOM     27  C   UNL     1      -9.271  -4.030  -1.550  1.00  0.00     0.251 C 
ATOM     28  H   UNL     1      -7.400  -4.729  -1.425  1.00  0.00     0.163 HD
ATOM     29  O   UNL     1      -9.758  -5.156  -1.623  1.00  0.00    -0.269 OA
BRANCH  27  30
ATOM     30  C   UNL     1     -10.152  -2.840  -1.612  1.00  0.00     0.039 A 
ATOM     31  C   UNL     1     -11.354  -2.862  -0.897  1.00  0.00     0.014 A 
ATOM     32  C   UNL     1      -9.820  -1.720  -2.378  1.00  0.00     0.014 A 
ATOM     33  C   UNL     1     -12.188  -1.740  -0.899  1.00  0.00     0.010 A 
ATOM     34  C   UNL     1     -10.619  -0.578  -2.327  1.00  0.00     0.010 A 
ATOM     35  C   UNL     1     -11.812  -0.575  -1.587  1.00  0.00    -0.014 A 
BRANCH  35  36
ATOM     36  C   UNL     1     -12.649   0.653  -1.536  1.00  0.00     0.031 A 
ATOM     37  C   UNL     1     -13.295   1.185  -2.787  1.00  0.00     0.074 A 
ATOM     38  C   UNL     1     -12.778   1.325  -0.374  1.00  0.00     0.049 A 
ATOM     39  N   UNL     1     -13.996   2.277  -2.955  1.00  0.00    -0.248 NA
ATOM     40  C   UNL     1     -13.109   0.398  -4.017  1.00  0.00     0.031 C 
ATOM     41  C   UNL     1     -12.166   0.937   0.900  1.00  0.00     0.029 A 
ATOM     42  N   UNL     1     -13.456   2.481  -0.075  1.00  0.00    -0.354 N 
ATOM     43  C   UNL     1     -14.321   2.317  -4.306  1.00  0.00     0.074 A 
ATOM     44  C   UNL     1     -13.702   1.164  -4.922  1.00  0.00     0.031 C 
ATOM     45  C   UNL     1     -12.509   1.828   1.843  1.00  0.00     0.029 A 
ATOM     46  C   UNL     1     -13.333   2.870   1.239  1.00  0.00     0.049 A 
ATOM     47  H   UNL     1     -13.980   2.984  -0.739  1.00  0.00     0.167 HD
ATOM     48  C   UNL     1     -15.083   3.221  -4.968  1.00  0.00     0.037 A 
ATOM     49  C   UNL     1     -13.820   3.950   1.882  1.00  0.00     0.037 A 
ATOM     50  C   UNL     1     -15.722   4.352  -4.345  1.00  0.00     0.049 A 
ATOM     51  C   UNL     1     -14.667   4.937   1.126  1.00  0.00     0.074 A 
ATOM     52  C   UNL     1     -16.559   5.291  -4.920  1.00  0.00     0.029 A 
ATOM     53  N   UNL     1     -15.595   4.697  -3.007  1.00  0.00    -0.354 N 
ATOM     54  N   UNL     1     -15.011   4.927  -0.140  1.00  0.00    -0.248 NA
ATOM     55  C   UNL     1     -15.199   6.078   1.884  1.00  0.00     0.031 C 
ATOM     56  C   UNL     1     -16.907   6.227  -3.940  1.00  0.00     0.029 A 
ATOM     57  C   UNL     1     -16.325   5.844  -2.743  1.00  0.00     0.049 A 
ATOM     58  H   UNL     1     -15.064   4.199  -2.344  1.00  0.00     0.167 HD
ATOM     59  C   UNL     1     -15.822   6.042  -0.323  1.00  0.00     0.074 A 
ATOM     60  C   UNL     1     -15.925   6.698   0.964  1.00  0.00     0.031 C 
ATOM     61  C   UNL     1     -16.427   6.481  -1.454  1.00  0.00     0.037 A 
BRANCH  48  62
ATOM     62  C   UNL     1     -15.277   3.023  -6.447  1.00  0.00     0.058 A 
ATOM     63  C   UNL     1     -16.070   1.980  -6.953  1.00  0.00     0.135 A 
ATOM     64  C   UNL     1     -14.700   3.911  -7.369  1.00  0.00     0.135 A 
ATOM     65  F   UNL     1     -16.634   1.093  -6.117  1.00  0.00    -0.206 F 
ATOM     66  C   UNL     1     -16.262   1.809  -8.320  1.00  0.00     0.059 A 
ATOM     67  C   UNL     1     -14.901   3.775  -8.740  1.00  0.00     0.059 A 
ATOM     68  F   UNL     1     -13.932   4.926  -6.941  1.00  0.00    -0.206 F 
ATOM     69  C   UNL     1     -15.673   2.712  -9.206  1.00  0.00     0.060 A 
BRANCH  69  70
ATOM     70  S   UNL     1     -15.939   2.481 -10.977  1.00  0.00     0.124 S 
ATOM     71  O   UNL     1     -15.092   1.323 -11.248  1.00  0.00    -0.237 OA
ATOM     72  O   UNL     1     -17.377   2.244 -11.049  1.00  0.00    -0.237 OA
ATOM     73  O   UNL     1     -15.484   3.740 -11.556  1.00  0.00    -0.744 OA
ENDBRANCH  69  70
ENDBRANCH  48  62
BRANCH  49  74
ATOM     74  C   UNL     1     -13.534   4.145   3.329  1.00  0.00     0.058 A 
ATOM     75  C   UNL     1     -14.543   3.996   4.291  1.00  0.00     0.135 A 
ATOM     76  C   UNL     1     -12.246   4.476   3.779  1.00  0.00     0.135 A 
ATOM     77  F   UNL     1     -15.792   3.686   3.910  1.00  0.00    -0.206 F 
ATOM     78  C   UNL     1     -14.293   4.187   5.646  1.00  0.00     0.059 A 
ATOM     79  C   UNL     1     -11.965   4.647   5.130  1.00  0.00     0.059 A 
ATOM     80  F   UNL     1     -11.241   4.612   2.900  1.00  0.00    -0.206 F 
ATOM     81  C   UNL     1     -12.999   4.511   6.056  1.00  0.00     0.060 A 
BRANCH  81  82
ATOM     82  S   UNL     1     -12.673   4.714   7.821  1.00  0.00     0.124 S 
ATOM     83  O   UNL     1     -13.289   6.009   8.086  1.00  0.00    -0.237 OA
ATOM     84  O   UNL     1     -13.350   3.555   8.394  1.00  0.00    -0.237 OA
ATOM     85  O   UNL     1     -11.216   4.679   7.897  1.00  0.00    -0.744 OA
ENDBRANCH  81  82
ENDBRANCH  49  74
BRANCH  61  86
ATOM     86  C   UNL     1     -17.288   7.709  -1.347  1.00  0.00     0.058 A 
ATOM     87  C   UNL     1     -16.733   8.989  -1.199  1.00  0.00     0.135 A 
ATOM     88  C   UNL     1     -18.685   7.606  -1.450  1.00  0.00     0.135 A 
ATOM     89  F   UNL     1     -15.404   9.141  -1.089  1.00  0.00    -0.206 F 
ATOM     90  C   UNL     1     -17.535  10.124  -1.136  1.00  0.00     0.059 A 
ATOM     91  C   UNL     1     -19.504   8.730  -1.416  1.00  0.00     0.059 A 
ATOM     92  F   UNL     1     -19.266   6.405  -1.603  1.00  0.00    -0.206 F 
ATOM     93  C   UNL     1     -18.920   9.985  -1.247  1.00  0.00     0.060 A 
BRANCH  93  94
ATOM     94  S   UNL     1     -19.947  11.469  -1.202  1.00  0.00     0.124 S 
ATOM     95  O   UNL     1     -19.908  11.809   0.217  1.00  0.00    -0.237 OA
ATOM     96  O   UNL     1     -19.227  12.375  -2.091  1.00  0.00    -0.237 OA
ATOM     97  O   UNL     1     -21.237  11.005  -1.702  1.00  0.00    -0.744 OA
ENDBRANCH  93  94
ENDBRANCH  61  86
ENDBRANCH  35  36
ENDBRANCH  27  30
ENDBRANCH  25  26
ENDBRANCH  24  25
ENDBRANCH   1  24
TORSDOF 18
