REMARK SMILES O=C(NCCCCCCNC(=O)c1ccc(NC(=O)c2ccc([N+](=O)[O-])cc2Cl)cc1Cl)c1ccc(-c2c3nc(c(-c4c(F)cc(S(=O)(=O)[O-])cc4F)c4ccc([nH]4)c(-c4c(F)cc(S(=O)(=O)[O-])cc4F)c4nc(c(-c5c(F)cc(S(=O)(=O)[O-])cc5F)c5ccc2[nH]5)C=C4)C=C3)cc1
REMARK SMILES IDX 6 1 5 2 4 3 3 4 1 5 2 6 33 8 34 9 98 10 35 11 97 12 36 13
REMARK SMILES IDX 37 14 38 15 91 16 39 17 96 18 90 19 92 20 40 21 95 22 89 23
REMARK SMILES IDX 88 24 41 26 75 27 54 28 74 29 55 30 58 31 73 32 93 33 56 34
REMARK SMILES IDX 57 35 72 37 94 38 59 39 42 40 43 41 52 42 44 43 45 44 51 45
REMARK SMILES IDX 53 46 46 47 47 48 48 49 49 50 50 51 76 52 77 53 86 54 78 55
REMARK SMILES IDX 79 56 85 57 87 58 80 59 81 60 82 61 83 62 84 63 60 64 61 65
REMARK SMILES IDX 70 66 62 67 63 68 69 69 71 70 64 71 65 72 66 73 67 74 68 75
REMARK SMILES IDX 7 76 8 77 9 78 10 79 11 80 12 82 13 83 14 84 31 85 15 86
REMARK SMILES IDX 30 87 32 88 16 89 17 90 18 91 19 93 20 94 21 95 28 96 22 97
REMARK SMILES IDX 27 98 29 99 23 100 24 101 25 102 26 103
REMARK H PARENT 3 7 92 25 58 36 10 81 17 92
REMARK Flexibility Score: inf
ROOT
ATOM      1  C   UNL     1       4.309   3.244  -2.251  1.00  0.00     0.002 C 
ENDROOT
BRANCH   1   2
ATOM      2  C   UNL     1       4.783   1.800  -2.091  1.00  0.00     0.021 C 
BRANCH   2   3
ATOM      3  C   UNL     1       4.526   1.173  -0.727  1.00  0.00     0.116 C 
BRANCH   3   4
ATOM      4  N   UNL     1       3.111   1.029  -0.427  1.00  0.00    -0.352 N 
ATOM      5  O   UNL     1       1.204  -0.061   0.081  1.00  0.00    -0.269 OA
ATOM      6  C   UNL     1       2.430  -0.083   0.009  1.00  0.00     0.251 C 
ATOM      7  H   UNL     1       2.566   1.839  -0.553  1.00  0.00     0.163 HD
BRANCH   6   8
ATOM      8  C   UNL     1       3.175  -1.311   0.368  1.00  0.00     0.039 A 
ATOM      9  C   UNL     1       4.333  -1.242   1.146  1.00  0.00     0.014 A 
ATOM     10  C   UNL     1       2.703  -2.551  -0.074  1.00  0.00     0.014 A 
ATOM     11  C   UNL     1       5.087  -2.388   1.368  1.00  0.00     0.010 A 
ATOM     12  C   UNL     1       3.420  -3.716   0.222  1.00  0.00     0.010 A 
ATOM     13  C   UNL     1       4.630  -3.642   0.926  1.00  0.00    -0.014 A 
BRANCH  13  14
ATOM     14  C   UNL     1       5.397  -4.859   1.295  1.00  0.00     0.031 A 
ATOM     15  C   UNL     1       6.072  -5.709   0.254  1.00  0.00     0.074 A 
ATOM     16  C   UNL     1       5.507  -5.171   2.602  1.00  0.00     0.049 A 
ATOM     17  N   UNL     1       6.805  -6.781   0.420  1.00  0.00    -0.248 NA
ATOM     18  C   UNL     1       5.900  -5.314  -1.153  1.00  0.00     0.031 C 
ATOM     19  C   UNL     1       4.875  -4.430   3.699  1.00  0.00     0.029 A 
ATOM     20  N   UNL     1       6.199  -6.170   3.236  1.00  0.00    -0.354 N 
ATOM     21  C   UNL     1       7.173  -7.197  -0.855  1.00  0.00     0.074 A 
ATOM     22  C   UNL     1       6.562  -6.274  -1.788  1.00  0.00     0.031 C 
ATOM     23  C   UNL     1       5.246  -4.971   4.868  1.00  0.00     0.029 A 
ATOM     24  C   UNL     1       6.091  -6.129   4.606  1.00  0.00     0.049 A 
ATOM     25  H   UNL     1       6.722  -6.852   2.756  1.00  0.00     0.167 HD
ATOM     26  C   UNL     1       7.955  -8.245  -1.209  1.00  0.00     0.037 A 
ATOM     27  C   UNL     1       6.602  -6.941   5.550  1.00  0.00     0.037 A 
ATOM     28  C   UNL     1       8.569  -9.152  -0.270  1.00  0.00     0.049 A 
ATOM     29  C   UNL     1       7.457  -8.100   5.126  1.00  0.00     0.074 A 
ATOM     30  C   UNL     1       9.401 -10.228  -0.530  1.00  0.00     0.029 A 
ATOM     31  N   UNL     1       8.418  -9.091   1.108  1.00  0.00    -0.354 N 
ATOM     32  N   UNL     1       7.816  -8.457   3.917  1.00  0.00    -0.248 NA
ATOM     33  C   UNL     1       7.972  -8.967   6.193  1.00  0.00     0.031 C 
ATOM     34  C   UNL     1       9.723 -10.840   0.687  1.00  0.00     0.029 A 
ATOM     35  C   UNL     1       9.127 -10.120   1.710  1.00  0.00     0.049 A 
ATOM     36  H   UNL     1       7.886  -8.416   1.589  1.00  0.00     0.167 HD
ATOM     37  C   UNL     1       8.605  -9.589   4.077  1.00  0.00     0.074 A 
ATOM     38  C   UNL     1       8.694  -9.838   5.502  1.00  0.00     0.031 C 
ATOM     39  C   UNL     1       9.198 -10.357   3.129  1.00  0.00     0.037 A 
BRANCH  26  40
ATOM     40  C   UNL     1       8.195  -8.483  -2.675  1.00  0.00     0.058 A 
ATOM     41  C   UNL     1       9.053  -7.662  -3.423  1.00  0.00     0.135 A 
ATOM     42  C   UNL     1       7.618  -9.588  -3.323  1.00  0.00     0.135 A 
ATOM     43  F   UNL     1       9.621  -6.585  -2.858  1.00  0.00    -0.206 F 
ATOM     44  C   UNL     1       9.320  -7.919  -4.765  1.00  0.00     0.059 A 
ATOM     45  C   UNL     1       7.888  -9.877  -4.659  1.00  0.00     0.059 A 
ATOM     46  F   UNL     1       6.791 -10.407  -2.655  1.00  0.00    -0.206 F 
ATOM     47  C   UNL     1       8.734  -9.030  -5.374  1.00  0.00     0.060 A 
BRANCH  47  48
ATOM     48  S   UNL     1       9.111  -9.363  -7.109  1.00  0.00     0.124 S 
ATOM     49  O   UNL     1       8.345  -8.316  -7.778  1.00  0.00    -0.237 OA
ATOM     50  O   UNL     1      10.562  -9.210  -7.149  1.00  0.00    -0.237 OA
ATOM     51  O   UNL     1       8.622 -10.723  -7.309  1.00  0.00    -0.744 OA
ENDBRANCH  47  48
ENDBRANCH  26  40
BRANCH  27  52
ATOM     52  C   UNL     1       6.303  -6.689   6.983  1.00  0.00     0.058 A 
ATOM     53  C   UNL     1       7.299  -6.245   7.864  1.00  0.00     0.135 A 
ATOM     54  C   UNL     1       5.009  -6.871   7.494  1.00  0.00     0.135 A 
ATOM     55  F   UNL     1       8.552  -6.058   7.422  1.00  0.00    -0.206 F 
ATOM     56  C   UNL     1       7.027  -6.009   9.208  1.00  0.00     0.059 A 
ATOM     57  C   UNL     1       4.706  -6.615   8.826  1.00  0.00     0.059 A 
ATOM     58  F   UNL     1       4.017  -7.275   6.685  1.00  0.00    -0.206 F 
ATOM     59  C   UNL     1       5.727  -6.197   9.679  1.00  0.00     0.060 A 
BRANCH  59  60
ATOM     60  S   UNL     1       5.370  -5.850  11.415  1.00  0.00     0.124 S 
ATOM     61  O   UNL     1       5.917  -7.034  12.067  1.00  0.00    -0.237 OA
ATOM     62  O   UNL     1       6.097  -4.604  11.637  1.00  0.00    -0.237 OA
ATOM     63  O   UNL     1       3.915  -5.729  11.438  1.00  0.00    -0.744 OA
ENDBRANCH  59  60
ENDBRANCH  27  52
BRANCH  39  64
ATOM     64  C   UNL     1      10.003 -11.529   3.613  1.00  0.00     0.058 A 
ATOM     65  C   UNL     1       9.386 -12.682   4.122  1.00  0.00     0.135 A 
ATOM     66  C   UNL     1      11.405 -11.505   3.553  1.00  0.00     0.135 A 
ATOM     67  F   UNL     1       8.048 -12.750   4.209  1.00  0.00    -0.206 F 
ATOM     68  C   UNL     1      10.132 -13.760   4.586  1.00  0.00     0.059 A 
ATOM     69  C   UNL     1      12.171 -12.582   3.987  1.00  0.00     0.059 A 
ATOM     70  F   UNL     1      12.043 -10.429   3.066  1.00  0.00    -0.206 F 
ATOM     71  C   UNL     1      11.525 -13.698   4.517  1.00  0.00     0.060 A 
BRANCH  71  72
ATOM     72  S   UNL     1      12.486 -15.107   5.111  1.00  0.00     0.124 S 
ATOM     73  O   UNL     1      12.400 -14.931   6.557  1.00  0.00    -0.237 OA
ATOM     74  O   UNL     1      11.749 -16.243   4.566  1.00  0.00    -0.237 OA
ATOM     75  O   UNL     1      13.806 -14.886   4.528  1.00  0.00    -0.744 OA
ENDBRANCH  71  72
ENDBRANCH  39  64
ENDBRANCH  13  14
ENDBRANCH   6   8
ENDBRANCH   3   4
ENDBRANCH   2   3
ENDBRANCH   1   2
BRANCH   1  76
ATOM     76  C   UNL     1       4.833   4.245  -1.217  1.00  0.00     0.002 C 
BRANCH  76  77
ATOM     77  C   UNL     1       6.353   4.308  -1.038  1.00  0.00     0.021 C 
BRANCH  77  78
ATOM     78  C   UNL     1       7.175   4.462  -2.316  1.00  0.00     0.116 C 
BRANCH  78  79
ATOM     79  N   UNL     1       6.807   5.624  -3.108  1.00  0.00    -0.352 N 
ATOM     80  C   UNL     1       7.611   6.481  -3.818  1.00  0.00     0.252 C 
ATOM     81  H   UNL     1       5.844   5.825  -3.140  1.00  0.00     0.163 HD
ATOM     82  O   UNL     1       7.124   7.422  -4.438  1.00  0.00    -0.269 OA
BRANCH  80  83
ATOM     83  C   UNL     1       9.078   6.356  -3.741  1.00  0.00     0.058 A 
ATOM     84  C   UNL     1       9.765   7.455  -3.222  1.00  0.00     0.017 A 
ATOM     85  C   UNL     1       9.797   5.235  -4.155  1.00  0.00     0.055 A 
ATOM     86  C   UNL     1      11.144   7.387  -3.009  1.00  0.00     0.027 A 
ATOM     87  C   UNL     1      11.169   5.152  -3.878  1.00  0.00     0.047 A 
ATOM     88  Cl  UNL     1       9.075   3.937  -5.034  1.00  0.00    -0.083 Cl
ATOM     89  C   UNL     1      11.842   6.203  -3.241  1.00  0.00     0.043 A 
BRANCH  89  90
ATOM     90  N   UNL     1      13.184   5.968  -2.874  1.00  0.00    -0.322 N 
ATOM     91  C   UNL     1      14.076   6.642  -2.070  1.00  0.00     0.257 C 
ATOM     92  H   UNL     1      13.560   5.152  -3.277  1.00  0.00     0.170 HD
ATOM     93  O   UNL     1      15.238   6.253  -1.970  1.00  0.00    -0.269 OA
BRANCH  91  94
ATOM     94  C   UNL     1      13.706   7.861  -1.340  1.00  0.00     0.059 A 
ATOM     95  C   UNL     1      14.294   9.056  -1.782  1.00  0.00     0.022 A 
ATOM     96  C   UNL     1      12.792   7.870  -0.277  1.00  0.00     0.060 A 
ATOM     97  C   UNL     1      13.897  10.274  -1.232  1.00  0.00     0.086 A 
ATOM     98  C   UNL     1      12.378   9.090   0.267  1.00  0.00     0.107 A 
ATOM     99  Cl  UNL     1      12.107   6.423   0.366  1.00  0.00    -0.083 Cl
ATOM    100  C   UNL     1      12.916  10.287  -0.230  1.00  0.00     0.270 A 
BRANCH 100 101
ATOM    101  N   UNL     1      12.420  11.572   0.275  1.00  0.00     0.062 N 
ATOM    102  O   UNL     1      13.059  12.591  -0.021  1.00  0.00    -0.258 OA
ATOM    103  O   UNL     1      11.380  11.560   0.947  1.00  0.00    -0.258 OA
ENDBRANCH 100 101
ENDBRANCH  91  94
ENDBRANCH  89  90
ENDBRANCH  80  83
ENDBRANCH  78  79
ENDBRANCH  77  78
ENDBRANCH  76  77
ENDBRANCH   1  76
TORSDOF 19
