REMARK SMILES Cc1ccccc1NC(=O)CSc1nc(C(=O)NCCCCCCNC(=O)c2ccc(-c3c4nc(c(-c5c(F)cc(S(=O)(=O)[O-])cc5F)c5ccc([nH]5)c(-c5c(F)cc(S(=O)(=O)[O-])cc5F)c5nc(c(-c6c(F)cc(S(=O)(=O)[O-])cc6F)c6ccc3[nH]6)C=C5)C=C4)cc2)c2ccccc2n1
REMARK SMILES IDX 21 1 20 2 19 3 18 4 16 5 17 6 15 8 13 9 14 10 100 11 99 12
REMARK SMILES IDX 94 13 98 14 95 15 97 16 96 17 12 18 11 19 9 20 8 21 10 23
REMARK SMILES IDX 7 24 1 25 2 26 3 27 4 28 6 29 5 30 22 31 23 32 24 33 25 34
REMARK SMILES IDX 26 35 27 37 28 38 29 39 93 40 30 41 92 42 31 43 32 44 33 45
REMARK SMILES IDX 86 46 34 47 91 48 85 49 87 50 35 51 90 52 84 53 83 54 36 56
REMARK SMILES IDX 70 57 49 58 69 59 50 60 53 61 68 62 88 63 51 64 52 65 67 67
REMARK SMILES IDX 89 68 54 69 37 70 38 71 47 72 39 73 40 74 46 75 48 76 41 77
REMARK SMILES IDX 42 78 43 79 44 80 45 81 71 82 72 83 81 84 73 85 74 86 80 87
REMARK SMILES IDX 82 88 75 89 76 90 77 91 78 92 79 93 55 94 56 95 65 96 57 97
REMARK SMILES IDX 58 98 64 99 66 100 59 101 60 102 61 103 62 104 63 105
REMARK H PARENT 18 7 8 22 25 36 87 55 53 66
REMARK Flexibility Score: inf
ROOT
ATOM      1  C   UNL     1      -1.928   9.518  -8.134  1.00  0.00     0.002 C 
ENDROOT
BRANCH   1   2
ATOM      2  C   UNL     1      -2.329   8.070  -7.815  1.00  0.00     0.021 C 
BRANCH   2   3
ATOM      3  C   UNL     1      -1.489   7.270  -6.823  1.00  0.00     0.116 C 
BRANCH   3   4
ATOM      4  N   UNL     1      -1.282   7.864  -5.517  1.00  0.00    -0.351 N 
ATOM      5  C   UNL     1      -0.872   7.269  -4.333  1.00  0.00     0.270 C 
ATOM      6  O   UNL     1      -0.667   7.989  -3.356  1.00  0.00    -0.267 OA
ATOM      7  H   UNL     1      -1.458   8.831  -5.462  1.00  0.00     0.163 HD
BRANCH   5   8
ATOM      8  C   UNL     1      -0.752   5.776  -4.184  1.00  0.00     0.140 A 
ATOM      9  C   UNL     1      -1.499   3.971  -3.011  1.00  0.00     0.189 A 
ATOM     10  N   UNL     1      -1.460   5.295  -3.131  1.00  0.00    -0.217 NA
ATOM     11  N   UNL     1      -0.985   3.104  -3.890  1.00  0.00    -0.222 NA
ATOM     12  C   UNL     1      -0.276   3.597  -4.906  1.00  0.00     0.076 A 
ATOM     13  C   UNL     1      -0.030   4.962  -5.069  1.00  0.00     0.032 A 
ATOM     14  C   UNL     1       0.231   2.709  -5.847  1.00  0.00     0.029 A 
ATOM     15  C   UNL     1       0.881   5.378  -6.075  1.00  0.00     0.013 A 
ATOM     16  C   UNL     1       1.025   3.136  -6.913  1.00  0.00     0.002 A 
ATOM     17  C   UNL     1       1.380   4.473  -7.008  1.00  0.00     0.001 A 
BRANCH   9  18
ATOM     18  S   UNL     1      -2.381   3.271  -1.649  1.00  0.00    -0.076 SA
BRANCH  18  19
ATOM     19  C   UNL     1      -1.418   3.946  -0.266  1.00  0.00     0.178 C 
BRANCH  19  20
ATOM     20  C   UNL     1       0.051   3.585  -0.295  1.00  0.00     0.234 C 
ATOM     21  N   UNL     1       0.567   2.340  -0.103  1.00  0.00    -0.325 N 
ATOM     22  H   UNL     1       1.551   2.346  -0.128  1.00  0.00     0.169 HD
ATOM     23  O   UNL     1       0.891   4.481  -0.467  1.00  0.00    -0.274 OA
BRANCH  21  24
ATOM     24  C   UNL     1       0.058   1.046   0.124  1.00  0.00     0.044 A 
ATOM     25  C   UNL     1       2.430   0.034  -0.190  1.00  0.00     0.046 C 
ATOM     26  C   UNL     1       0.940  -0.060   0.029  1.00  0.00    -0.027 A 
ATOM     27  C   UNL     1       0.420  -1.370   0.098  1.00  0.00     0.005 A 
ATOM     28  C   UNL     1      -0.933  -1.598   0.313  1.00  0.00     0.000 A 
ATOM     29  C   UNL     1      -1.283   0.789   0.420  1.00  0.00     0.026 A 
ATOM     30  C   UNL     1      -1.780  -0.517   0.499  1.00  0.00     0.002 A 
ENDBRANCH  21  24
ENDBRANCH  19  20
ENDBRANCH  18  19
ENDBRANCH   9  18
ENDBRANCH   5   8
ENDBRANCH   3   4
ENDBRANCH   2   3
ENDBRANCH   1   2
BRANCH   1  31
ATOM     31  C   UNL     1      -0.443   9.889  -8.254  1.00  0.00     0.002 C 
BRANCH  31  32
ATOM     32  C   UNL     1       0.428   9.063  -9.197  1.00  0.00     0.021 C 
BRANCH  32  33
ATOM     33  C   UNL     1       0.110   9.210 -10.682  1.00  0.00     0.116 C 
BRANCH  33  34
ATOM     34  N   UNL     1       1.126   9.972 -11.405  1.00  0.00    -0.352 N 
ATOM     35  C   UNL     1       1.448   9.919 -12.758  1.00  0.00     0.251 C 
ATOM     36  H   UNL     1       1.651  10.605 -10.865  1.00  0.00     0.163 HD
ATOM     37  O   UNL     1       2.379  10.501 -13.252  1.00  0.00    -0.269 OA
BRANCH  35  38
ATOM     38  C   UNL     1       0.497   9.169 -13.607  1.00  0.00     0.039 A 
ATOM     39  C   UNL     1      -0.473   9.929 -14.268  1.00  0.00     0.014 A 
ATOM     40  C   UNL     1       0.353   7.799 -13.409  1.00  0.00     0.014 A 
ATOM     41  C   UNL     1      -1.710   9.352 -14.525  1.00  0.00     0.010 A 
ATOM     42  C   UNL     1      -0.902   7.251 -13.596  1.00  0.00     0.010 A 
ATOM     43  C   UNL     1      -1.950   8.056 -14.072  1.00  0.00    -0.014 A 
BRANCH  43  44
ATOM     44  C   UNL     1      -3.296   7.504 -13.946  1.00  0.00     0.031 A 
ATOM     45  C   UNL     1      -3.761   6.492 -14.914  1.00  0.00     0.074 A 
ATOM     46  C   UNL     1      -4.104   7.907 -12.940  1.00  0.00     0.049 A 
ATOM     47  N   UNL     1      -4.980   6.090 -15.031  1.00  0.00    -0.248 NA
ATOM     48  C   UNL     1      -2.866   5.923 -15.913  1.00  0.00     0.031 C 
ATOM     49  C   UNL     1      -5.362   7.301 -12.515  1.00  0.00     0.029 A 
ATOM     50  N   UNL     1      -4.068   9.140 -12.275  1.00  0.00    -0.354 N 
ATOM     51  C   UNL     1      -5.001   5.056 -15.938  1.00  0.00     0.074 A 
ATOM     52  C   UNL     1      -3.688   5.072 -16.530  1.00  0.00     0.031 C 
ATOM     53  C   UNL     1      -6.110   8.240 -11.918  1.00  0.00     0.029 A 
ATOM     54  C   UNL     1      -5.416   9.507 -12.058  1.00  0.00     0.049 A 
ATOM     55  H   UNL     1      -3.267   9.648 -12.013  1.00  0.00     0.167 HD
ATOM     56  C   UNL     1      -6.104   4.253 -15.986  1.00  0.00     0.037 A 
ATOM     57  C   UNL     1      -5.932  10.616 -12.665  1.00  0.00     0.037 A 
ATOM     58  C   UNL     1      -7.254   4.933 -15.373  1.00  0.00     0.049 A 
ATOM     59  C   UNL     1      -7.019  10.334 -13.686  1.00  0.00     0.074 A 
ATOM     60  C   UNL     1      -7.950   4.851 -14.178  1.00  0.00     0.029 A 
ATOM     61  N   UNL     1      -7.679   6.112 -15.967  1.00  0.00    -0.354 N 
ATOM     62  N   UNL     1      -7.474   9.144 -13.978  1.00  0.00    -0.248 NA
ATOM     63  C   UNL     1      -7.640  11.376 -14.508  1.00  0.00     0.031 C 
ATOM     64  C   UNL     1      -8.732   6.043 -14.035  1.00  0.00     0.029 A 
ATOM     65  C   UNL     1      -8.529   6.832 -15.153  1.00  0.00     0.049 A 
ATOM     66  H   UNL     1      -7.405   6.402 -16.867  1.00  0.00     0.167 HD
ATOM     67  C   UNL     1      -8.371   9.235 -15.010  1.00  0.00     0.074 A 
ATOM     68  C   UNL     1      -8.459  10.656 -15.295  1.00  0.00     0.031 C 
ATOM     69  C   UNL     1      -8.956   8.151 -15.599  1.00  0.00     0.037 A 
BRANCH  56  70
ATOM     70  C   UNL     1      -6.078   2.788 -16.412  1.00  0.00     0.058 A 
ATOM     71  C   UNL     1      -7.119   1.912 -16.026  1.00  0.00     0.135 A 
ATOM     72  C   UNL     1      -5.013   2.142 -17.078  1.00  0.00     0.135 A 
ATOM     73  F   UNL     1      -8.225   2.368 -15.422  1.00  0.00    -0.206 F 
ATOM     74  C   UNL     1      -7.062   0.522 -16.211  1.00  0.00     0.059 A 
ATOM     75  C   UNL     1      -4.925   0.762 -17.259  1.00  0.00     0.059 A 
ATOM     76  F   UNL     1      -3.986   2.801 -17.612  1.00  0.00    -0.206 F 
ATOM     77  C   UNL     1      -5.944  -0.049 -16.804  1.00  0.00     0.060 A 
BRANCH  77  78
ATOM     78  S   UNL     1      -5.815  -1.838 -16.965  1.00  0.00     0.124 S 
ATOM     79  O   UNL     1      -5.873  -2.272 -15.572  1.00  0.00    -0.237 OA
ATOM     80  O   UNL     1      -6.979  -2.157 -17.784  1.00  0.00    -0.237 OA
ATOM     81  O   UNL     1      -4.522  -2.030 -17.618  1.00  0.00    -0.744 OA
ENDBRANCH  77  78
ENDBRANCH  56  70
BRANCH  57  82
ATOM     82  C   UNL     1      -4.981  11.761 -12.659  1.00  0.00     0.058 A 
ATOM     83  C   UNL     1      -4.638  12.311 -11.406  1.00  0.00     0.135 A 
ATOM     84  C   UNL     1      -4.130  12.036 -13.736  1.00  0.00     0.135 A 
ATOM     85  F   UNL     1      -5.428  12.095 -10.341  1.00  0.00    -0.206 F 
ATOM     86  C   UNL     1      -3.432  12.969 -11.195  1.00  0.00     0.059 A 
ATOM     87  C   UNL     1      -2.915  12.700 -13.549  1.00  0.00     0.059 A 
ATOM     88  F   UNL     1      -4.407  11.550 -14.955  1.00  0.00    -0.206 F 
ATOM     89  C   UNL     1      -2.548  13.101 -12.262  1.00  0.00     0.060 A 
BRANCH  89  90
ATOM     90  S   UNL     1      -0.875  13.693 -11.908  1.00  0.00     0.124 S 
ATOM     91  O   UNL     1      -1.136  14.931 -11.182  1.00  0.00    -0.237 OA
ATOM     92  O   UNL     1      -0.335  12.596 -11.106  1.00  0.00    -0.237 OA
ATOM     93  O   UNL     1      -0.293  13.850 -13.236  1.00  0.00    -0.744 OA
ENDBRANCH  89  90
ENDBRANCH  57  82
BRANCH  69  94
ATOM     94  C   UNL     1      -9.981   8.272 -16.692  1.00  0.00     0.058 A 
ATOM     95  C   UNL     1     -11.121   9.081 -16.556  1.00  0.00     0.135 A 
ATOM     96  C   UNL     1      -9.917   7.470 -17.850  1.00  0.00     0.135 A 
ATOM     97  F   UNL     1     -11.282   9.858 -15.473  1.00  0.00    -0.206 F 
ATOM     98  C   UNL     1     -12.131   9.106 -17.519  1.00  0.00     0.059 A 
ATOM     99  C   UNL     1     -10.934   7.443 -18.801  1.00  0.00     0.059 A 
ATOM    100  F   UNL     1      -8.846   6.704 -18.106  1.00  0.00    -0.206 F 
ATOM    101  C   UNL     1     -12.032   8.278 -18.636  1.00  0.00     0.060 A 
BRANCH 101 102
ATOM    102  S   UNL     1     -13.354   8.263 -19.863  1.00  0.00     0.124 S 
ATOM    103  O   UNL     1     -14.545   8.521 -19.058  1.00  0.00    -0.237 OA
ATOM    104  O   UNL     1     -12.942   9.349 -20.746  1.00  0.00    -0.237 OA
ATOM    105  O   UNL     1     -13.269   6.920 -20.429  1.00  0.00    -0.744 OA
ENDBRANCH 101 102
ENDBRANCH  69  94
ENDBRANCH  43  44
ENDBRANCH  35  38
ENDBRANCH  33  34
ENDBRANCH  32  33
ENDBRANCH  31  32
ENDBRANCH   1  31
TORSDOF 20
