REMARK SMILES O=C(NCCCCCCNC(=O)[C@@H]1[C@@H]2C[C@H]3C[C@@H](C2)C[C@]1(n1ncc(N2CCN(c4ccc(F)cc4)CC2)c(Cl)c1=O)C3)c1ccc(-c2c3nc(c(-c4c(F)cc(S(=O)(=O)[O-])cc4F)c4ccc([nH]4)c(-c4c(F)cc(S(=O)(=O)[O-])cc4F)c4nc(c(-c5c(F)cc(S(=O)(=O)[O-])cc5F)c5ccc2[nH]5)C=C4)C=C3)cc1
REMARK SMILES IDX 6 1 5 2 4 3 3 4 1 5 2 6 44 8 45 9 109 10 46 11 108 12 47 13
REMARK SMILES IDX 48 14 49 15 102 16 50 17 107 18 101 19 103 20 51 21 106 22
REMARK SMILES IDX 100 23 99 24 52 26 86 27 65 28 85 29 66 30 69 31 84 32
REMARK SMILES IDX 104 33 67 34 68 35 83 37 105 38 70 39 53 40 54 41 63 42
REMARK SMILES IDX 55 43 56 44 62 45 64 46 57 47 58 48 59 49 60 50 61 51 87 52
REMARK SMILES IDX 88 53 97 54 89 55 90 56 96 57 98 58 91 59 92 60 93 61 94 62
REMARK SMILES IDX 95 63 71 64 72 65 81 66 73 67 74 68 80 69 82 70 75 71 76 72
REMARK SMILES IDX 77 73 78 74 79 75 7 76 8 77 9 78 10 79 11 80 12 82 13 83
REMARK SMILES IDX 14 84 21 85 19 86 15 87 43 88 20 89 18 90 16 91 17 92 22 93
REMARK SMILES IDX 23 94 41 95 24 96 39 97 42 98 25 99 40 100 26 101 27 102
REMARK SMILES IDX 38 103 28 104 37 105 29 106 30 107 31 108 36 109 32 110
REMARK SMILES IDX 35 111 33 112 34 113
REMARK H PARENT 3 7 103 25 69 36 10 81
REMARK Flexibility Score: inf
ROOT
ATOM      1  C   UNL     1       4.334  -3.339  -1.852  1.00  0.00     0.002 C 
ENDROOT
BRANCH   1   2
ATOM      2  C   UNL     1       4.891  -2.376  -0.808  1.00  0.00     0.021 C 
BRANCH   2   3
ATOM      3  C   UNL     1       4.476  -0.923  -0.919  1.00  0.00     0.116 C 
BRANCH   3   4
ATOM      4  N   UNL     1       3.050  -0.719  -0.797  1.00  0.00    -0.352 N 
ATOM      5  O   UNL     1       1.110   0.049   0.010  1.00  0.00    -0.269 OA
ATOM      6  C   UNL     1       2.335   0.132   0.011  1.00  0.00     0.251 C 
ATOM      7  H   UNL     1       2.501  -1.281  -1.391  1.00  0.00     0.163 HD
BRANCH   6   8
ATOM      8  C   UNL     1       3.005   1.128   0.889  1.00  0.00     0.039 A 
ATOM      9  C   UNL     1       2.373   1.480   2.087  1.00  0.00     0.014 A 
ATOM     10  C   UNL     1       4.190   1.776   0.531  1.00  0.00     0.014 A 
ATOM     11  C   UNL     1       2.917   2.475   2.904  1.00  0.00     0.010 A 
ATOM     12  C   UNL     1       4.795   2.680   1.402  1.00  0.00     0.010 A 
ATOM     13  C   UNL     1       4.133   3.089   2.566  1.00  0.00    -0.014 A 
BRANCH  13  14
ATOM     14  C   UNL     1       4.640   4.254   3.339  1.00  0.00     0.031 A 
ATOM     15  C   UNL     1       4.742   5.602   2.667  1.00  0.00     0.074 A 
ATOM     16  C   UNL     1       4.989   4.117   4.633  1.00  0.00     0.049 A 
ATOM     17  N   UNL     1       5.136   6.747   3.164  1.00  0.00    -0.248 NA
ATOM     18  C   UNL     1       4.382   5.668   1.240  1.00  0.00     0.031 C 
ATOM     19  C   UNL     1       4.964   2.862   5.385  1.00  0.00     0.029 A 
ATOM     20  N   UNL     1       5.418   5.045   5.548  1.00  0.00    -0.354 N 
ATOM     21  C   UNL     1       5.077   7.655   2.113  1.00  0.00     0.074 A 
ATOM     22  C   UNL     1       4.696   6.916   0.933  1.00  0.00     0.031 C 
ATOM     23  C   UNL     1       5.311   3.108   6.659  1.00  0.00     0.029 A 
ATOM     24  C   UNL     1       5.617   4.530   6.807  1.00  0.00     0.049 A 
ATOM     25  H   UNL     1       5.569   5.992   5.324  1.00  0.00     0.167 HD
ATOM     26  C   UNL     1       5.274   8.994   2.132  1.00  0.00     0.037 A 
ATOM     27  C   UNL     1       5.993   5.135   7.951  1.00  0.00     0.037 A 
ATOM     28  C   UNL     1       5.608   9.733   3.318  1.00  0.00     0.049 A 
ATOM     29  C   UNL     1       6.239   6.620   7.949  1.00  0.00     0.074 A 
ATOM     30  C   UNL     1       5.770  11.099   3.462  1.00  0.00     0.029 A 
ATOM     31  N   UNL     1       5.834   9.166   4.564  1.00  0.00    -0.354 N 
ATOM     32  N   UNL     1       6.109   7.475   6.962  1.00  0.00    -0.248 NA
ATOM     33  C   UNL     1       6.688   7.225   9.212  1.00  0.00     0.031 C 
ATOM     34  C   UNL     1       6.146  11.353   4.784  1.00  0.00     0.029 A 
ATOM     35  C   UNL     1       6.172  10.151   5.475  1.00  0.00     0.049 A 
ATOM     36  H   UNL     1       5.763   8.206   4.769  1.00  0.00     0.167 HD
ATOM     37  C   UNL     1       6.451   8.717   7.484  1.00  0.00     0.074 A 
ATOM     38  C   UNL     1       6.776   8.507   8.880  1.00  0.00     0.031 C 
ATOM     39  C   UNL     1       6.498   9.921   6.862  1.00  0.00     0.037 A 
BRANCH  26  40
ATOM     40  C   UNL     1       5.115   9.741   0.835  1.00  0.00     0.058 A 
ATOM     41  C   UNL     1       3.862   9.884   0.216  1.00  0.00     0.135 A 
ATOM     42  C   UNL     1       6.225  10.327   0.206  1.00  0.00     0.135 A 
ATOM     43  F   UNL     1       2.769   9.331   0.764  1.00  0.00    -0.206 F 
ATOM     44  C   UNL     1       3.723  10.541  -1.002  1.00  0.00     0.059 A 
ATOM     45  C   UNL     1       6.103  11.019  -0.996  1.00  0.00     0.059 A 
ATOM     46  F   UNL     1       7.446  10.223   0.753  1.00  0.00    -0.206 F 
ATOM     47  C   UNL     1       4.850  11.103  -1.602  1.00  0.00     0.060 A 
BRANCH  47  48
ATOM     48  S   UNL     1       4.651  11.933  -3.192  1.00  0.00     0.124 S 
ATOM     49  O   UNL     1       4.376  10.804  -4.076  1.00  0.00    -0.237 OA
ATOM     50  O   UNL     1       3.526  12.826  -2.937  1.00  0.00    -0.237 OA
ATOM     51  O   UNL     1       5.938  12.590  -3.398  1.00  0.00    -0.744 OA
ENDBRANCH  47  48
ENDBRANCH  26  40
BRANCH  27  52
ATOM     52  C   UNL     1       6.114   4.332   9.198  1.00  0.00     0.058 A 
ATOM     53  C   UNL     1       5.177   4.463  10.233  1.00  0.00     0.135 A 
ATOM     54  C   UNL     1       7.130   3.376   9.355  1.00  0.00     0.135 A 
ATOM     55  F   UNL     1       4.194   5.372  10.136  1.00  0.00    -0.206 F 
ATOM     56  C   UNL     1       5.234   3.668  11.374  1.00  0.00     0.059 A 
ATOM     57  C   UNL     1       7.195   2.553  10.476  1.00  0.00     0.059 A 
ATOM     58  F   UNL     1       8.046   3.204   8.389  1.00  0.00    -0.206 F 
ATOM     59  C   UNL     1       6.240   2.706  11.479  1.00  0.00     0.060 A 
BRANCH  59  60
ATOM     60  S   UNL     1       6.248   1.621  12.924  1.00  0.00     0.124 S 
ATOM     61  O   UNL     1       6.589   2.552  13.992  1.00  0.00    -0.237 OA
ATOM     62  O   UNL     1       4.878   1.116  12.929  1.00  0.00    -0.237 OA
ATOM     63  O   UNL     1       7.272   0.633  12.598  1.00  0.00    -0.744 OA
ENDBRANCH  59  60
ENDBRANCH  27  52
BRANCH  39  64
ATOM     64  C   UNL     1       6.935  11.115   7.663  1.00  0.00     0.058 A 
ATOM     65  C   UNL     1       8.285  11.309   7.994  1.00  0.00     0.135 A 
ATOM     66  C   UNL     1       6.026  12.137   7.982  1.00  0.00     0.135 A 
ATOM     67  F   UNL     1       9.192  10.359   7.717  1.00  0.00    -0.206 F 
ATOM     68  C   UNL     1       8.720  12.480   8.604  1.00  0.00     0.059 A 
ATOM     69  C   UNL     1       6.443  13.327   8.570  1.00  0.00     0.059 A 
ATOM     70  F   UNL     1       4.725  12.003   7.678  1.00  0.00    -0.206 F 
ATOM     71  C   UNL     1       7.794  13.490   8.874  1.00  0.00     0.060 A 
BRANCH  71  72
ATOM     72  S   UNL     1       8.395  15.038   9.580  1.00  0.00     0.124 S 
ATOM     73  O   UNL     1       8.793  14.617  10.920  1.00  0.00    -0.237 OA
ATOM     74  O   UNL     1       9.486  15.387   8.675  1.00  0.00    -0.237 OA
ATOM     75  O   UNL     1       7.231  15.917   9.520  1.00  0.00    -0.744 OA
ENDBRANCH  71  72
ENDBRANCH  39  64
ENDBRANCH  13  14
ENDBRANCH   6   8
ENDBRANCH   3   4
ENDBRANCH   2   3
ENDBRANCH   1   2
BRANCH   1  76
ATOM     76  C   UNL     1       4.654  -3.080  -3.324  1.00  0.00     0.002 C 
BRANCH  76  77
ATOM     77  C   UNL     1       6.052  -2.624  -3.766  1.00  0.00     0.021 C 
BRANCH  77  78
ATOM     78  C   UNL     1       7.302  -3.509  -3.638  1.00  0.00     0.116 C 
BRANCH  78  79
ATOM     79  N   UNL     1       7.188  -4.896  -4.044  1.00  0.00    -0.356 N 
ATOM     80  C   UNL     1       8.122  -5.853  -3.688  1.00  0.00     0.225 C 
ATOM     81  H   UNL     1       6.417  -5.167  -4.593  1.00  0.00     0.163 HD
ATOM     82  O   UNL     1       8.793  -6.339  -4.602  1.00  0.00    -0.275 OA
BRANCH  80  83
ATOM     83  C   UNL     1       8.093  -6.504  -2.284  1.00  0.00     0.109 C 
ATOM     84  C   UNL     1       6.814  -6.178  -1.444  1.00  0.00     0.004 C 
ATOM     85  C   UNL     1       9.343  -6.585  -1.317  1.00  0.00     0.079 C 
ATOM     86  C   UNL     1       6.532  -7.362  -0.506  1.00  0.00     0.008 C 
ATOM     87  C   UNL     1       6.967  -4.952  -0.528  1.00  0.00     0.008 C 
ATOM     88  C   UNL     1       9.398  -5.282  -0.449  1.00  0.00     0.035 C 
ATOM     89  C   UNL     1       9.005  -7.774  -0.331  1.00  0.00     0.035 C 
ATOM     90  C   UNL     1       7.715  -7.547   0.460  1.00  0.00    -0.008 C 
ATOM     91  C   UNL     1       8.150  -5.089   0.404  1.00  0.00    -0.008 C 
ATOM     92  C   UNL     1       7.912  -6.293   1.316  1.00  0.00     0.007 C 
BRANCH  85  93
ATOM     93  N   UNL     1      10.731  -6.895  -1.838  1.00  0.00    -0.222 N 
ATOM     94  N   UNL     1      11.733  -6.110  -1.283  1.00  0.00    -0.175 NA
ATOM     95  C   UNL     1      11.033  -8.140  -2.409  1.00  0.00     0.288 A 
ATOM     96  C   UNL     1      12.856  -6.669  -0.982  1.00  0.00     0.161 A 
ATOM     97  C   UNL     1      12.381  -8.711  -2.030  1.00  0.00     0.132 A 
ATOM     98  O   UNL     1      10.216  -8.826  -3.020  1.00  0.00    -0.266 OA
ATOM     99  C   UNL     1      13.231  -8.081  -1.202  1.00  0.00     0.082 A 
ATOM    100  Cl  UNL     1      12.684 -10.353  -2.511  1.00  0.00    -0.076 Cl
BRANCH  99 101
ATOM    101  N   UNL     1      14.419  -8.544  -0.624  1.00  0.00    -0.365 N 
ATOM    102  C   UNL     1      14.650  -8.596   0.846  1.00  0.00     0.138 C 
ATOM    103  C   UNL     1      15.653  -8.744  -1.412  1.00  0.00     0.138 C 
ATOM    104  C   UNL     1      15.394  -9.902   1.266  1.00  0.00     0.138 C 
ATOM    105  C   UNL     1      16.355 -10.058  -1.015  1.00  0.00     0.138 C 
ATOM    106  N   UNL     1      16.598 -10.081   0.439  1.00  0.00    -0.368 N 
BRANCH 106 107
ATOM    107  C   UNL     1      17.765 -10.645   0.908  1.00  0.00     0.037 A 
ATOM    108  C   UNL     1      18.999 -10.104   0.505  1.00  0.00     0.029 A 
ATOM    109  C   UNL     1      17.791 -11.742   1.779  1.00  0.00     0.029 A 
ATOM    110  C   UNL     1      20.213 -10.635   0.944  1.00  0.00     0.041 A 
ATOM    111  C   UNL     1      19.006 -12.293   2.210  1.00  0.00     0.041 A 
ATOM    112  C   UNL     1      20.205 -11.732   1.790  1.00  0.00     0.123 A 
ATOM    113  F   UNL     1      21.366 -12.256   2.204  1.00  0.00    -0.207 F 
ENDBRANCH 106 107
ENDBRANCH  99 101
ENDBRANCH  85  93
ENDBRANCH  80  83
ENDBRANCH  78  79
ENDBRANCH  77  78
ENDBRANCH  76  77
ENDBRANCH   1  76
TORSDOF 19
