REMARK SMILES CCc1ccc(-c2cc(Cl)cc3c2O[C@H](C(F)(F)F)C(C(=O)NCCCCCCNC(=O)c2ccc(-c4c5nc(c(-c6c(F)cc(S(=O)(=O)[O-])cc6F)c6ccc([nH]6)c(-c6c(F)cc(S(=O)(=O)[O-])cc6F)c6nc(c(-c7c(F)cc(S(=O)(=O)[O-])cc7F)c7ccc4[nH]7)C=C6)C=C5)cc2)=C3)cc1
REMARK SMILES IDX 27 1 26 2 25 3 24 4 23 5 21 6 22 7 20 9 7 10 8 11 13 12 9 13
REMARK SMILES IDX 12 14 14 15 10 16 11 17 99 18 15 19 6 20 3 21 4 22 101 23
REMARK SMILES IDX 5 24 100 25 2 26 1 27 16 28 17 29 18 30 19 31 28 32 29 33
REMARK SMILES IDX 30 34 31 35 32 37 33 38 34 39 98 40 35 41 97 42 36 43 37 44
REMARK SMILES IDX 38 45 91 46 39 47 96 48 90 49 92 50 40 51 95 52 89 53 88 54
REMARK SMILES IDX 41 56 75 57 54 58 74 59 55 60 58 61 73 62 93 63 56 64 57 65
REMARK SMILES IDX 72 67 94 68 59 69 42 70 43 71 52 72 44 73 45 74 51 75 53 76
REMARK SMILES IDX 46 77 47 78 48 79 49 80 50 81 76 82 77 83 86 84 78 85 79 86
REMARK SMILES IDX 85 87 87 88 80 89 81 90 82 91 83 92 84 93 60 94 61 95 70 96
REMARK SMILES IDX 62 97 63 98 69 99 71 100 64 101 65 102 66 103 67 104 68 105
REMARK H PARENT 23 8 30 36 92 55 58 66
REMARK Flexibility Score: inf
ROOT
ATOM      1  C   UNL     1       7.578   1.691 -14.726  1.00  0.00     0.002 C 
ENDROOT
BRANCH   1   2
ATOM      2  C   UNL     1       7.862   0.670 -13.623  1.00  0.00     0.002 C 
BRANCH   2   3
ATOM      3  C   UNL     1       8.364   1.271 -12.299  1.00  0.00     0.021 C 
BRANCH   3   4
ATOM      4  C   UNL     1       7.456   2.356 -11.702  1.00  0.00     0.116 C 
BRANCH   4   5
ATOM      5  N   UNL     1       6.137   1.807 -11.456  1.00  0.00    -0.352 N 
ATOM      6  C   UNL     1       5.562   1.694 -10.233  1.00  0.00     0.251 C 
ATOM      7  O   UNL     1       5.084   0.626  -9.871  1.00  0.00    -0.270 OA
ATOM      8  H   UNL     1       5.621   1.493 -12.233  1.00  0.00     0.163 HD
BRANCH   6   9
ATOM      9  C   UNL     1       5.398   2.965  -9.467  1.00  0.00     0.067 C 
ATOM     10  C   UNL     1       3.113   1.534  -6.436  1.00  0.00     0.026 A 
ATOM     11  C   UNL     1       2.109   0.722  -7.030  1.00  0.00     0.033 A 
ATOM     12  C   UNL     1       3.834   2.368  -7.308  1.00  0.00     0.135 A 
ATOM     13  C   UNL     1       1.727   0.852  -8.363  1.00  0.00     0.042 A 
ATOM     14  C   UNL     1       3.350   2.571  -8.626  1.00  0.00     0.019 A 
ATOM     15  O   UNL     1       5.042   2.965  -6.968  1.00  0.00    -0.475 OA
ATOM     16  Cl  UNL     1       0.525  -0.191  -9.012  1.00  0.00    -0.084 Cl
ATOM     17  C   UNL     1       2.294   1.833  -9.152  1.00  0.00     0.032 A 
ATOM     18  C   UNL     1       4.139   3.443  -9.523  1.00  0.00     0.025 C 
ATOM     19  C   UNL     1       6.037   2.968  -8.086  1.00  0.00     0.314 C 
BRANCH  10  20
ATOM     20  C   UNL     1       3.091   1.555  -4.949  1.00  0.00    -0.015 A 
ATOM     21  C   UNL     1       1.837   1.468  -2.380  1.00  0.00    -0.048 A 
ATOM     22  C   UNL     1       2.347   0.307  -2.966  1.00  0.00     0.004 A 
ATOM     23  C   UNL     1       2.075   2.687  -3.035  1.00  0.00     0.004 A 
ATOM     24  C   UNL     1       2.989   0.354  -4.216  1.00  0.00     0.009 A 
ATOM     25  C   UNL     1       2.704   2.733  -4.291  1.00  0.00     0.009 A 
BRANCH  21  26
ATOM     26  C   UNL     1       0.932   1.454  -1.165  1.00  0.00     0.032 C 
ATOM     27  C   UNL     1       1.087   0.281  -0.204  1.00  0.00     0.009 C 
ENDBRANCH  21  26
ENDBRANCH  10  20
BRANCH  19  28
ATOM     28  C   UNL     1       6.997   4.177  -8.012  1.00  0.00     0.429 C 
ATOM     29  F   UNL     1       6.541   5.155  -7.198  1.00  0.00    -0.167 F 
ATOM     30  F   UNL     1       8.220   3.805  -7.566  1.00  0.00    -0.167 F 
ATOM     31  F   UNL     1       7.199   4.752  -9.228  1.00  0.00    -0.167 F 
ENDBRANCH  19  28
ENDBRANCH   6   9
ENDBRANCH   4   5
ENDBRANCH   3   4
ENDBRANCH   2   3
ENDBRANCH   1   2
BRANCH   1  32
ATOM     32  C   UNL     1       8.781   2.548 -15.119  1.00  0.00     0.021 C 
BRANCH  32  33
ATOM     33  C   UNL     1      10.011   1.753 -15.543  1.00  0.00     0.116 C 
BRANCH  33  34
ATOM     34  N   UNL     1       9.758   0.920 -16.708  1.00  0.00    -0.352 N 
ATOM     35  C   UNL     1      10.505   0.795 -17.852  1.00  0.00     0.251 C 
ATOM     36  H   UNL     1       8.941   0.372 -16.671  1.00  0.00     0.163 HD
ATOM     37  O   UNL     1      10.058   0.177 -18.817  1.00  0.00    -0.269 OA
BRANCH  35  38
ATOM     38  C   UNL     1      11.835   1.433 -17.925  1.00  0.00     0.039 A 
ATOM     39  C   UNL     1      12.168   2.179 -19.056  1.00  0.00     0.014 A 
ATOM     40  C   UNL     1      12.742   1.311 -16.867  1.00  0.00     0.014 A 
ATOM     41  C   UNL     1      13.390   2.854 -19.101  1.00  0.00     0.010 A 
ATOM     42  C   UNL     1      13.923   2.046 -16.881  1.00  0.00     0.010 A 
ATOM     43  C   UNL     1      14.262   2.821 -18.000  1.00  0.00    -0.014 A 
BRANCH  43  44
ATOM     44  C   UNL     1      15.531   3.593 -18.002  1.00  0.00     0.031 A 
ATOM     45  C   UNL     1      16.852   2.876 -17.921  1.00  0.00     0.074 A 
ATOM     46  C   UNL     1      15.491   4.940 -18.016  1.00  0.00     0.049 A 
ATOM     47  N   UNL     1      18.059   3.374 -17.853  1.00  0.00    -0.248 NA
ATOM     48  C   UNL     1      16.809   1.405 -17.885  1.00  0.00     0.031 C 
ATOM     49  C   UNL     1      14.271   5.750 -18.043  1.00  0.00     0.029 A 
ATOM     50  N   UNL     1      16.502   5.868 -18.000  1.00  0.00    -0.354 N 
ATOM     51  C   UNL     1      18.915   2.284 -17.755  1.00  0.00     0.074 A 
ATOM     52  C   UNL     1      18.087   1.099 -17.715  1.00  0.00     0.031 C 
ATOM     53  C   UNL     1      14.605   7.050 -18.065  1.00  0.00     0.029 A 
ATOM     54  C   UNL     1      16.058   7.170 -18.012  1.00  0.00     0.049 A 
ATOM     55  H   UNL     1      17.456   5.625 -17.982  1.00  0.00     0.167 HD
ATOM     56  C   UNL     1      20.269   2.271 -17.724  1.00  0.00     0.037 A 
ATOM     57  C   UNL     1      16.744   8.330 -17.974  1.00  0.00     0.037 A 
ATOM     58  C   UNL     1      21.086   3.455 -17.786  1.00  0.00     0.049 A 
ATOM     59  C   UNL     1      18.248   8.289 -17.934  1.00  0.00     0.074 A 
ATOM     60  C   UNL     1      22.467   3.545 -17.823  1.00  0.00     0.029 A 
ATOM     61  N   UNL     1      20.601   4.754 -17.815  1.00  0.00    -0.354 N 
ATOM     62  N   UNL     1      19.044   7.246 -17.913  1.00  0.00    -0.248 NA
ATOM     63  C   UNL     1      18.948   9.581 -17.922  1.00  0.00     0.031 C 
ATOM     64  C   UNL     1      22.817   4.899 -17.819  1.00  0.00     0.029 A 
ATOM     65  C   UNL     1      21.654   5.653 -17.842  1.00  0.00     0.049 A 
ATOM     66  H   UNL     1      19.648   5.001 -17.816  1.00  0.00     0.167 HD
ATOM     67  C   UNL     1      20.338   7.756 -17.912  1.00  0.00     0.074 A 
ATOM     68  C   UNL     1      20.218   9.199 -17.950  1.00  0.00     0.031 C 
ATOM     69  C   UNL     1      21.519   7.089 -17.884  1.00  0.00     0.037 A 
BRANCH  56  70
ATOM     70  C   UNL     1      20.954   0.934 -17.620  1.00  0.00     0.058 A 
ATOM     71  C   UNL     1      20.939   0.011 -18.678  1.00  0.00     0.135 A 
ATOM     72  C   UNL     1      21.670   0.588 -16.462  1.00  0.00     0.135 A 
ATOM     73  F   UNL     1      20.258   0.282 -19.803  1.00  0.00    -0.206 F 
ATOM     74  C   UNL     1      21.583  -1.218 -18.582  1.00  0.00     0.059 A 
ATOM     75  C   UNL     1      22.348  -0.623 -16.356  1.00  0.00     0.059 A 
ATOM     76  F   UNL     1      21.718   1.431 -15.419  1.00  0.00    -0.206 F 
ATOM     77  C   UNL     1      22.287  -1.526 -17.416  1.00  0.00     0.060 A 
BRANCH  77  78
ATOM     78  S   UNL     1      23.124  -3.121 -17.312  1.00  0.00     0.124 S 
ATOM     79  O   UNL     1      21.994  -4.035 -17.180  1.00  0.00    -0.237 OA
ATOM     80  O   UNL     1      23.841  -3.180 -18.582  1.00  0.00    -0.237 OA
ATOM     81  O   UNL     1      23.965  -2.989 -16.126  1.00  0.00    -0.744 OA
ENDBRANCH  77  78
ENDBRANCH  56  70
BRANCH  57  82
ATOM     82  C   UNL     1      16.013   9.626 -17.988  1.00  0.00     0.058 A 
ATOM     83  C   UNL     1      16.067  10.476 -19.103  1.00  0.00     0.135 A 
ATOM     84  C   UNL     1      15.236  10.036 -16.893  1.00  0.00     0.135 A 
ATOM     85  F   UNL     1      16.802  10.132 -20.173  1.00  0.00    -0.206 F 
ATOM     86  C   UNL     1      15.393  11.692 -19.128  1.00  0.00     0.059 A 
ATOM     87  C   UNL     1      14.529  11.235 -16.905  1.00  0.00     0.059 A 
ATOM     88  F   UNL     1      15.136   9.253 -15.808  1.00  0.00    -0.206 F 
ATOM     89  C   UNL     1      14.623  12.061 -18.023  1.00  0.00     0.060 A 
BRANCH  89  90
ATOM     90  S   UNL     1      13.713  13.620 -18.084  1.00  0.00     0.124 S 
ATOM     91  O   UNL     1      14.791  14.595 -17.963  1.00  0.00    -0.237 OA
ATOM     92  O   UNL     1      13.063  13.544 -19.389  1.00  0.00    -0.237 OA
ATOM     93  O   UNL     1      12.813  13.528 -16.939  1.00  0.00    -0.744 OA
ENDBRANCH  89  90
ENDBRANCH  57  82
BRANCH  69  94
ATOM     94  C   UNL     1      22.780   7.908 -17.929  1.00  0.00     0.058 A 
ATOM     95  C   UNL     1      23.203   8.677 -16.834  1.00  0.00     0.135 A 
ATOM     96  C   UNL     1      23.605   7.878 -19.067  1.00  0.00     0.135 A 
ATOM     97  F   UNL     1      22.451   8.746 -15.725  1.00  0.00    -0.206 F 
ATOM     98  C   UNL     1      24.387   9.408 -16.874  1.00  0.00     0.059 A 
ATOM     99  C   UNL     1      24.807   8.576 -19.117  1.00  0.00     0.059 A 
ATOM    100  F   UNL     1      23.253   7.150 -20.138  1.00  0.00    -0.206 F 
ATOM    101  C   UNL     1      25.184   9.348 -18.019  1.00  0.00     0.060 A 
BRANCH 101 102
ATOM    102  S   UNL     1      26.733  10.274 -18.043  1.00  0.00     0.124 S 
ATOM    103  O   UNL     1      26.254  11.646 -18.167  1.00  0.00    -0.237 OA
ATOM    104  O   UNL     1      27.326   9.923 -16.756  1.00  0.00    -0.237 OA
ATOM    105  O   UNL     1      27.429   9.743 -19.212  1.00  0.00    -0.744 OA
ENDBRANCH 101 102
ENDBRANCH  69  94
ENDBRANCH  43  44
ENDBRANCH  35  38
ENDBRANCH  33  34
ENDBRANCH  32  33
ENDBRANCH   1  32
TORSDOF 19
