REMARK SMILES CN(C)c1cc(C(F)(F)F)cc(-c2cccc(/C=C/C(=O)NCCCCCCNC(=O)c3ccc(-c4c5nc(c(-c6c(F)cc(S(=O)(=O)[O-])cc6F)c6ccc([nH]6)c(-c6c(F)cc(S(=O)(=O)[O-])cc6F)c6nc(c(-c7c(F)cc(S(=O)(=O)[O-])cc7F)c7ccc4[nH]7)C=C6)C=C5)cc3)c2)n1
REMARK SMILES IDX 25 1 24 2 23 3 22 4 20 5 21 6 19 8 18 9 17 10 13 11 14 12
REMARK SMILES IDX 98 13 15 14 16 15 12 16 4 17 5 18 99 19 6 20 11 21 2 22 1 23
REMARK SMILES IDX 3 24 7 25 8 26 9 27 10 28 26 29 27 30 28 31 29 32 30 33
REMARK SMILES IDX 31 35 32 36 33 37 97 38 34 39 96 40 35 41 36 42 37 43 90 44
REMARK SMILES IDX 38 45 95 46 89 47 91 48 39 49 94 50 88 51 87 52 40 54 74 55
REMARK SMILES IDX 53 56 73 57 54 58 57 59 72 60 92 61 55 62 56 63 71 65 93 66
REMARK SMILES IDX 58 67 41 68 42 69 51 70 43 71 44 72 50 73 52 74 45 75 46 76
REMARK SMILES IDX 47 77 48 78 49 79 75 80 76 81 85 82 77 83 78 84 84 85 86 86
REMARK SMILES IDX 79 87 80 88 81 89 82 90 83 91 59 92 60 93 69 94 61 95 62 96
REMARK SMILES IDX 68 97 70 98 63 99 64 100 65 101 66 102 67 103
REMARK H PARENT 22 7 29 34 91 53 57 64
REMARK Flexibility Score: inf
ROOT
ATOM      1  C   UNL     1       1.284  12.287   0.085  1.00  0.00     0.002 C 
ENDROOT
BRANCH   1   2
ATOM      2  C   UNL     1       0.831  10.919   0.613  1.00  0.00     0.021 C 
BRANCH   2   3
ATOM      3  C   UNL     1       0.588  10.900   2.123  1.00  0.00     0.116 C 
BRANCH   3   4
ATOM      4  N   UNL     1      -0.695  11.505   2.435  1.00  0.00    -0.353 N 
ATOM      5  C   UNL     1      -1.837  10.979   2.949  1.00  0.00     0.243 C 
ATOM      6  O   UNL     1      -2.792  11.719   3.181  1.00  0.00    -0.270 OA
ATOM      7  H   UNL     1      -0.747  12.469   2.239  1.00  0.00     0.163 HD
BRANCH   5   8
ATOM      8  C   UNL     1      -1.927   9.550   3.328  1.00  0.00     0.072 C 
ATOM      9  C   UNL     1      -1.481   8.526   2.588  1.00  0.00     0.014 C 
BRANCH   9  10
ATOM     10  C   UNL     1      -1.577   7.113   2.979  1.00  0.00    -0.025 A 
ATOM     11  C   UNL     1      -0.606   4.865   2.861  1.00  0.00     0.001 A 
ATOM     12  C   UNL     1      -1.754   4.362   3.491  1.00  0.00     0.010 A 
ATOM     13  C   UNL     1      -0.533   6.247   2.616  1.00  0.00     0.018 A 
ATOM     14  C   UNL     1      -2.789   5.215   3.878  1.00  0.00     0.001 A 
ATOM     15  C   UNL     1      -2.704   6.583   3.618  1.00  0.00     0.008 A 
BRANCH  11  16
ATOM     16  C   UNL     1       0.469   3.967   2.426  1.00  0.00     0.073 A 
ATOM     17  C   UNL     1       1.059   2.244   0.957  1.00  0.00     0.129 A 
ATOM     18  C   UNL     1       2.345   2.225   1.486  1.00  0.00     0.060 A 
ATOM     19  N   UNL     1       0.137   3.111   1.430  1.00  0.00    -0.231 NA
ATOM     20  C   UNL     1       2.707   3.127   2.494  1.00  0.00     0.061 A 
ATOM     21  C   UNL     1       1.741   4.011   2.976  1.00  0.00     0.042 A 
BRANCH  17  22
ATOM     22  N   UNL     1       0.707   1.415  -0.094  1.00  0.00    -0.363 N 
ATOM     23  C   UNL     1       1.124   0.027  -0.104  1.00  0.00     0.144 C 
ATOM     24  C   UNL     1      -0.385   1.850  -0.945  1.00  0.00     0.144 C 
ENDBRANCH  17  22
BRANCH  20  25
ATOM     25  C   UNL     1       4.115   3.178   3.021  1.00  0.00     0.416 C 
ATOM     26  F   UNL     1       4.709   4.377   2.772  1.00  0.00    -0.166 F 
ATOM     27  F   UNL     1       4.163   3.007   4.371  1.00  0.00    -0.166 F 
ATOM     28  F   UNL     1       4.931   2.228   2.491  1.00  0.00    -0.166 F 
ENDBRANCH  20  25
ENDBRANCH  11  16
ENDBRANCH   9  10
ENDBRANCH   5   8
ENDBRANCH   3   4
ENDBRANCH   2   3
ENDBRANCH   1   2
BRANCH   1  29
ATOM     29  C   UNL     1       2.610  12.795   0.665  1.00  0.00     0.002 C 
BRANCH  29  30
ATOM     30  C   UNL     1       3.790  11.830   0.522  1.00  0.00     0.021 C 
BRANCH  30  31
ATOM     31  C   UNL     1       4.149  11.487  -0.920  1.00  0.00     0.116 C 
BRANCH  31  32
ATOM     32  N   UNL     1       4.596  12.661  -1.654  1.00  0.00    -0.352 N 
ATOM     33  C   UNL     1       5.784  12.879  -2.305  1.00  0.00     0.251 C 
ATOM     34  H   UNL     1       3.953  13.406  -1.688  1.00  0.00     0.163 HD
ATOM     35  O   UNL     1       6.090  14.012  -2.660  1.00  0.00    -0.269 OA
BRANCH  33  36
ATOM     36  C   UNL     1       6.695  11.744  -2.568  1.00  0.00     0.039 A 
ATOM     37  C   UNL     1       8.064  11.907  -2.344  1.00  0.00     0.014 A 
ATOM     38  C   UNL     1       6.200  10.528  -3.048  1.00  0.00     0.014 A 
ATOM     39  C   UNL     1       8.930  10.831  -2.549  1.00  0.00     0.010 A 
ATOM     40  C   UNL     1       7.053   9.437  -3.182  1.00  0.00     0.010 A 
ATOM     41  C   UNL     1       8.427   9.578  -2.939  1.00  0.00    -0.014 A 
BRANCH  41  42
ATOM     42  C   UNL     1       9.324   8.404  -3.092  1.00  0.00     0.031 A 
ATOM     43  C   UNL     1       9.497   7.753  -4.438  1.00  0.00     0.074 A 
ATOM     44  C   UNL     1       9.932   7.888  -2.006  1.00  0.00     0.049 A 
ATOM     45  N   UNL     1      10.185   6.687  -4.757  1.00  0.00    -0.248 NA
ATOM     46  C   UNL     1       8.781   8.364  -5.570  1.00  0.00     0.031 C 
ATOM     47  C   UNL     1       9.802   8.402  -0.641  1.00  0.00     0.029 A 
ATOM     48  N   UNL     1      10.773   6.812  -1.874  1.00  0.00    -0.354 N 
ATOM     49  C   UNL     1       9.978   6.495  -6.118  1.00  0.00     0.074 A 
ATOM     50  C   UNL     1       9.057   7.521  -6.554  1.00  0.00     0.031 C 
ATOM     51  C   UNL     1      10.553   7.656   0.185  1.00  0.00     0.029 A 
ATOM     52  C   UNL     1      11.185   6.588  -0.582  1.00  0.00     0.049 A 
ATOM     53  H   UNL     1      11.055   6.252  -2.634  1.00  0.00     0.167 HD
ATOM     54  C   UNL     1      10.525   5.561  -6.934  1.00  0.00     0.037 A 
ATOM     55  C   UNL     1      11.976   5.624  -0.070  1.00  0.00     0.037 A 
ATOM     56  C   UNL     1      11.458   4.556  -6.494  1.00  0.00     0.049 A 
ATOM     57  C   UNL     1      12.566   4.595  -0.995  1.00  0.00     0.074 A 
ATOM     58  C   UNL     1      12.113   3.601  -7.251  1.00  0.00     0.029 A 
ATOM     59  N   UNL     1      11.864   4.371  -5.180  1.00  0.00    -0.354 N 
ATOM     60  N   UNL     1      12.413   4.468  -2.292  1.00  0.00    -0.248 NA
ATOM     61  C   UNL     1      13.442   3.582  -0.390  1.00  0.00     0.031 C 
ATOM     62  C   UNL     1      12.877   2.807  -6.389  1.00  0.00     0.029 A 
ATOM     63  C   UNL     1      12.743   3.303  -5.101  1.00  0.00     0.049 A 
ATOM     64  H   UNL     1      11.572   4.919  -4.416  1.00  0.00     0.167 HD
ATOM     65  C   UNL     1      13.194   3.379  -2.662  1.00  0.00     0.074 A 
ATOM     66  C   UNL     1      13.829   2.892  -1.454  1.00  0.00     0.031 C 
ATOM     67  C   UNL     1      13.371   2.833  -3.891  1.00  0.00     0.037 A 
BRANCH  54  68
ATOM     68  C   UNL     1      10.132   5.584  -8.387  1.00  0.00     0.058 A 
ATOM     69  C   UNL     1      10.542   6.616  -9.247  1.00  0.00     0.135 A 
ATOM     70  C   UNL     1       9.367   4.542  -8.937  1.00  0.00     0.135 A 
ATOM     71  F   UNL     1      11.262   7.645  -8.773  1.00  0.00    -0.206 F 
ATOM     72  C   UNL     1      10.184   6.630 -10.591  1.00  0.00     0.059 A 
ATOM     73  C   UNL     1       9.023   4.520 -10.285  1.00  0.00     0.059 A 
ATOM     74  F   UNL     1       8.947   3.530  -8.161  1.00  0.00    -0.206 F 
ATOM     75  C   UNL     1       9.425   5.576 -11.101  1.00  0.00     0.060 A 
BRANCH  75  76
ATOM     76  S   UNL     1       8.976   5.606 -12.850  1.00  0.00     0.124 S 
ATOM     77  O   UNL     1       7.976   6.670 -12.875  1.00  0.00    -0.237 OA
ATOM     78  O   UNL     1      10.248   5.918 -13.493  1.00  0.00    -0.237 OA
ATOM     79  O   UNL     1       8.465   4.261 -13.094  1.00  0.00    -0.744 OA
ENDBRANCH  75  76
ENDBRANCH  54  68
BRANCH  55  80
ATOM     80  C   UNL     1      12.270   5.601   1.389  1.00  0.00     0.058 A 
ATOM     81  C   UNL     1      13.551   5.904   1.872  1.00  0.00     0.135 A 
ATOM     82  C   UNL     1      11.274   5.292   2.329  1.00  0.00     0.135 A 
ATOM     83  F   UNL     1      14.539   6.200   1.014  1.00  0.00    -0.206 F 
ATOM     84  C   UNL     1      13.841   5.883   3.233  1.00  0.00     0.059 A 
ATOM     85  C   UNL     1      11.532   5.292   3.696  1.00  0.00     0.059 A 
ATOM     86  F   UNL     1      10.026   5.013   1.919  1.00  0.00    -0.206 F 
ATOM     87  C   UNL     1      12.823   5.578   4.137  1.00  0.00     0.060 A 
BRANCH  87  88
ATOM     88  S   UNL     1      13.200   5.601   5.904  1.00  0.00     0.124 S 
ATOM     89  O   UNL     1      14.004   4.393   6.047  1.00  0.00    -0.237 OA
ATOM     90  O   UNL     1      13.913   6.865   6.048  1.00  0.00    -0.237 OA
ATOM     91  O   UNL     1      11.880   5.559   6.528  1.00  0.00    -0.744 OA
ENDBRANCH  87  88
ENDBRANCH  55  80
BRANCH  67  92
ATOM     92  C   UNL     1      14.315   1.666  -4.001  1.00  0.00     0.058 A 
ATOM     93  C   UNL     1      13.983   0.397  -3.503  1.00  0.00     0.135 A 
ATOM     94  C   UNL     1      15.546   1.810  -4.661  1.00  0.00     0.135 A 
ATOM     95  F   UNL     1      12.821   0.206  -2.859  1.00  0.00    -0.206 F 
ATOM     96  C   UNL     1      14.849  -0.684  -3.634  1.00  0.00     0.059 A 
ATOM     97  C   UNL     1      16.415   0.737  -4.829  1.00  0.00     0.059 A 
ATOM     98  F   UNL     1      15.909   3.000  -5.165  1.00  0.00    -0.206 F 
ATOM     99  C   UNL     1      16.063  -0.504  -4.301  1.00  0.00     0.060 A 
BRANCH  99 100
ATOM    100  S   UNL     1      17.162  -1.923  -4.494  1.00  0.00     0.124 S 
ATOM    101  O   UNL     1      17.678  -2.082  -3.138  1.00  0.00    -0.237 OA
ATOM    102  O   UNL     1      16.248  -2.966  -4.950  1.00  0.00    -0.237 OA
ATOM    103  O   UNL     1      18.132  -1.470  -5.486  1.00  0.00    -0.744 OA
ENDBRANCH  99 100
ENDBRANCH  67  92
ENDBRANCH  41  42
ENDBRANCH  33  36
ENDBRANCH  31  32
ENDBRANCH  30  31
ENDBRANCH  29  30
ENDBRANCH   1  29
TORSDOF 20
