REMARK SMILES CC[C@](C)(NC(=O)[C@H]1CNc2ccccc2O1)C(=O)NCCCCCCNC(=O)c1ccc(-c2c3nc(c(-c4c(F)cc(S(=O)(=O)[O-])cc4F)c4ccc([nH]4)c(-c4c(F)cc(S(=O)(=O)[O-])cc4F)c4nc(c(-c5c(F)cc(S(=O)(=O)[O-])cc5F)c5ccc2[nH]5)C=C4)C=C3)cc1
REMARK SMILES IDX 24 1 23 2 22 3 21 4 20 5 18 6 19 7 3 9 4 10 2 11 1 12 5 13
REMARK SMILES IDX 6 14 7 16 8 17 9 18 17 19 10 20 16 21 11 22 15 24 12 25
REMARK SMILES IDX 14 26 13 27 25 28 26 29 27 30 28 31 29 33 30 34 31 35 95 36
REMARK SMILES IDX 32 37 94 38 33 39 34 40 35 41 88 42 36 43 93 44 87 45 89 46
REMARK SMILES IDX 37 47 92 48 86 49 85 50 38 52 72 53 51 54 71 55 52 56 55 57
REMARK SMILES IDX 70 58 90 59 53 60 54 61 69 63 91 64 56 65 39 66 40 67 49 68
REMARK SMILES IDX 41 69 42 70 48 71 50 72 43 73 44 74 45 75 46 76 47 77 73 78
REMARK SMILES IDX 74 79 83 80 75 81 76 82 82 83 84 84 77 85 78 86 79 87 80 88
REMARK SMILES IDX 81 89 57 90 58 91 67 92 59 93 60 94 66 95 68 96 61 97 62 98
REMARK SMILES IDX 63 99 64 100 65 101
REMARK H PARENT 20 8 5 15 10 23 27 32 89 51 55 62
REMARK Flexibility Score: inf
ROOT
ATOM      1  C   UNL     1       0.735  -0.497   0.376  1.00  0.00     0.002 C 
ENDROOT
BRANCH   1   2
ATOM      2  C   UNL     1       1.813  -1.346  -0.296  1.00  0.00     0.002 C 
BRANCH   2   3
ATOM      3  C   UNL     1       1.894  -2.780   0.233  1.00  0.00     0.021 C 
BRANCH   3   4
ATOM      4  C   UNL     1       0.676  -3.628  -0.093  1.00  0.00     0.116 C 
BRANCH   4   5
ATOM      5  N   UNL     1       0.351  -3.613  -1.508  1.00  0.00    -0.354 N 
ATOM      6  C   UNL     1       0.522  -4.553  -2.479  1.00  0.00     0.245 C 
ATOM      7  O   UNL     1       0.043  -4.301  -3.589  1.00  0.00    -0.272 OA
ATOM      8  H   UNL     1      -0.068  -2.779  -1.819  1.00  0.00     0.163 HD
BRANCH   6   9
ATOM      9  C   UNL     1       1.214  -5.912  -2.180  1.00  0.00     0.116 C 
ATOM     10  C   UNL     1       1.347  -6.723  -3.486  1.00  0.00     0.045 C 
BRANCH   9  11
ATOM     11  C   UNL     1       0.321  -6.759  -1.196  1.00  0.00     0.035 C 
ATOM     12  C   UNL     1      -1.156  -6.371  -1.088  1.00  0.00     0.007 C 
ENDBRANCH   9  11
BRANCH   9  13
ATOM     13  N   UNL     1       2.584  -5.778  -1.596  1.00  0.00    -0.339 N 
ATOM     14  C   UNL     1       3.710  -5.139  -2.065  1.00  0.00     0.263 C 
ATOM     15  H   UNL     1       2.702  -6.224  -0.726  1.00  0.00     0.164 HD
ATOM     16  O   UNL     1       4.799  -5.596  -1.701  1.00  0.00    -0.271 OA
BRANCH  14  17
ATOM     17  C   UNL     1       3.622  -3.836  -2.878  1.00  0.00     0.281 C 
ATOM     18  C   UNL     1       4.544  -2.788  -2.224  1.00  0.00     0.168 C 
ATOM     19  O   UNL     1       3.969  -3.926  -4.268  1.00  0.00    -0.477 OA
ATOM     20  N   UNL     1       4.130  -1.483  -2.723  1.00  0.00    -0.378 N 
ATOM     21  C   UNL     1       3.917  -2.667  -4.858  1.00  0.00     0.143 A 
ATOM     22  C   UNL     1       3.938  -1.465  -4.107  1.00  0.00     0.077 A 
ATOM     23  H   UNL     1       4.000  -0.696  -2.146  1.00  0.00     0.160 HD
ATOM     24  C   UNL     1       3.857  -2.623  -6.248  1.00  0.00     0.049 A 
ATOM     25  C   UNL     1       3.697  -0.255  -4.760  1.00  0.00     0.029 A 
ATOM     26  C   UNL     1       3.700  -1.394  -6.894  1.00  0.00     0.004 A 
ATOM     27  C   UNL     1       3.580  -0.219  -6.149  1.00  0.00     0.002 A 
ENDBRANCH  14  17
ENDBRANCH   9  13
ENDBRANCH   6   9
ENDBRANCH   4   5
ENDBRANCH   3   4
ENDBRANCH   2   3
ENDBRANCH   1   2
BRANCH   1  28
ATOM     28  C   UNL     1       0.893  -0.373   1.891  1.00  0.00     0.021 C 
BRANCH  28  29
ATOM     29  C   UNL     1       2.273   0.095   2.336  1.00  0.00     0.116 C 
BRANCH  29  30
ATOM     30  N   UNL     1       2.575   1.434   1.853  1.00  0.00    -0.352 N 
ATOM     31  C   UNL     1       2.918   2.543   2.591  1.00  0.00     0.251 C 
ATOM     32  H   UNL     1       2.529   1.562   0.878  1.00  0.00     0.163 HD
ATOM     33  O   UNL     1       2.948   3.653   2.086  1.00  0.00    -0.269 OA
BRANCH  31  34
ATOM     34  C   UNL     1       3.226   2.349   4.022  1.00  0.00     0.039 A 
ATOM     35  C   UNL     1       2.524   3.083   4.978  1.00  0.00     0.014 A 
ATOM     36  C   UNL     1       4.151   1.372   4.402  1.00  0.00     0.014 A 
ATOM     37  C   UNL     1       2.710   2.792   6.330  1.00  0.00     0.010 A 
ATOM     38  C   UNL     1       4.272   1.031   5.743  1.00  0.00     0.010 A 
ATOM     39  C   UNL     1       3.559   1.743   6.721  1.00  0.00    -0.014 A 
BRANCH  39  40
ATOM     40  C   UNL     1       3.737   1.386   8.151  1.00  0.00     0.031 A 
ATOM     41  C   UNL     1       5.095   1.521   8.786  1.00  0.00     0.074 A 
ATOM     42  C   UNL     1       2.701   0.887   8.856  1.00  0.00     0.049 A 
ATOM     43  N   UNL     1       5.482   1.183   9.988  1.00  0.00    -0.248 NA
ATOM     44  C   UNL     1       6.168   2.082   7.947  1.00  0.00     0.031 C 
ATOM     45  C   UNL     1       1.350   0.659   8.335  1.00  0.00     0.029 A 
ATOM     46  N   UNL     1       2.624   0.471  10.162  1.00  0.00    -0.354 N 
ATOM     47  C   UNL     1       6.838   1.481  10.046  1.00  0.00     0.074 A 
ATOM     48  C   UNL     1       7.223   1.965   8.739  1.00  0.00     0.031 C 
ATOM     49  C   UNL     1       0.577   0.163   9.315  1.00  0.00     0.029 A 
ATOM     50  C   UNL     1       1.381   0.003  10.523  1.00  0.00     0.049 A 
ATOM     51  H   UNL     1       3.388   0.503  10.782  1.00  0.00     0.167 HD
ATOM     52  C   UNL     1       7.680   1.392  11.102  1.00  0.00     0.037 A 
ATOM     53  C   UNL     1       0.945  -0.504  11.692  1.00  0.00     0.037 A 
ATOM     54  C   UNL     1       7.282   0.942  12.409  1.00  0.00     0.049 A 
ATOM     55  C   UNL     1       1.901  -0.588  12.853  1.00  0.00     0.074 A 
ATOM     56  C   UNL     1       8.049   0.854  13.558  1.00  0.00     0.029 A 
ATOM     57  N   UNL     1       6.006   0.515  12.745  1.00  0.00    -0.354 N 
ATOM     58  N   UNL     1       3.169  -0.251  12.903  1.00  0.00    -0.248 NA
ATOM     59  C   UNL     1       1.369  -1.112  14.119  1.00  0.00     0.031 C 
ATOM     60  C   UNL     1       7.245   0.341  14.580  1.00  0.00     0.029 A 
ATOM     61  C   UNL     1       5.966   0.155  14.081  1.00  0.00     0.049 A 
ATOM     62  H   UNL     1       5.243   0.474  12.125  1.00  0.00     0.167 HD
ATOM     63  C   UNL     1       3.574  -0.491  14.212  1.00  0.00     0.074 A 
ATOM     64  C   UNL     1       2.416  -0.989  14.924  1.00  0.00     0.031 C 
ATOM     65  C   UNL     1       4.795  -0.317  14.775  1.00  0.00     0.037 A 
BRANCH  52  66
ATOM     66  C   UNL     1       9.107   1.817  10.897  1.00  0.00     0.058 A 
ATOM     67  C   UNL     1       9.451   3.167  10.723  1.00  0.00     0.135 A 
ATOM     68  C   UNL     1      10.148   0.875  10.931  1.00  0.00     0.135 A 
ATOM     69  F   UNL     1       8.493   4.106  10.662  1.00  0.00    -0.206 F 
ATOM     70  C   UNL     1      10.773   3.568  10.574  1.00  0.00     0.059 A 
ATOM     71  C   UNL     1      11.482   1.257  10.812  1.00  0.00     0.059 A 
ATOM     72  F   UNL     1       9.875  -0.430  11.089  1.00  0.00    -0.206 F 
ATOM     73  C   UNL     1      11.783   2.606  10.625  1.00  0.00     0.060 A 
BRANCH  73  74
ATOM     74  S   UNL     1      13.496   3.150  10.467  1.00  0.00     0.124 S 
ATOM     75  O   UNL     1      13.561   3.500   9.051  1.00  0.00    -0.237 OA
ATOM     76  O   UNL     1      13.554   4.271  11.400  1.00  0.00    -0.237 OA
ATOM     77  O   UNL     1      14.265   1.972  10.857  1.00  0.00    -0.744 OA
ENDBRANCH  73  74
ENDBRANCH  52  66
BRANCH  53  78
ATOM     78  C   UNL     1      -0.464  -0.964  11.836  1.00  0.00     0.058 A 
ATOM     79  C   UNL     1      -1.369  -0.280  12.661  1.00  0.00     0.135 A 
ATOM     80  C   UNL     1      -0.926  -2.111  11.173  1.00  0.00     0.135 A 
ATOM     81  F   UNL     1      -0.975   0.821  13.319  1.00  0.00    -0.206 F 
ATOM     82  C   UNL     1      -2.670  -0.735  12.854  1.00  0.00     0.059 A 
ATOM     83  C   UNL     1      -2.230  -2.571  11.327  1.00  0.00     0.059 A 
ATOM     84  F   UNL     1      -0.108  -2.792  10.355  1.00  0.00    -0.206 F 
ATOM     85  C   UNL     1      -3.090  -1.886  12.185  1.00  0.00     0.060 A 
BRANCH  85  86
ATOM     86  S   UNL     1      -4.782  -2.465  12.431  1.00  0.00     0.124 S 
ATOM     87  O   UNL     1      -4.704  -3.035  13.771  1.00  0.00    -0.237 OA
ATOM     88  O   UNL     1      -5.551  -1.231  12.305  1.00  0.00    -0.237 OA
ATOM     89  O   UNL     1      -4.968  -3.424  11.345  1.00  0.00    -0.744 OA
ENDBRANCH  85  86
ENDBRANCH  53  78
BRANCH  65  90
ATOM     90  C   UNL     1       4.933  -0.619  16.241  1.00  0.00     0.058 A 
ATOM     91  C   UNL     1       4.935  -1.935  16.728  1.00  0.00     0.135 A 
ATOM     92  C   UNL     1       5.124   0.424  17.163  1.00  0.00     0.135 A 
ATOM     93  F   UNL     1       4.751  -2.966  15.889  1.00  0.00    -0.206 F 
ATOM     94  C   UNL     1       5.098  -2.206  18.082  1.00  0.00     0.059 A 
ATOM     95  C   UNL     1       5.318   0.174  18.517  1.00  0.00     0.059 A 
ATOM     96  F   UNL     1       5.141   1.700  16.747  1.00  0.00    -0.206 F 
ATOM     97  C   UNL     1       5.292  -1.145  18.969  1.00  0.00     0.060 A 
BRANCH  97  98
ATOM     98  S   UNL     1       5.539  -1.514  20.719  1.00  0.00     0.124 S 
ATOM     99  O   UNL     1       4.189  -1.880  21.135  1.00  0.00    -0.237 OA
ATOM    100  O   UNL     1       6.507  -2.605  20.674  1.00  0.00    -0.237 OA
ATOM    101  O   UNL     1       6.045  -0.257  21.263  1.00  0.00    -0.744 OA
ENDBRANCH  97  98
ENDBRANCH  65  90
ENDBRANCH  39  40
ENDBRANCH  31  34
ENDBRANCH  29  30
ENDBRANCH  28  29
ENDBRANCH   1  28
TORSDOF 19
