REMARK SMILES O=C(NCCCCCCNC(=O)[C@H]1CCCN(C(=O)C2CC[NH+](Cc3ccco3)CC2)C1)c1ccc(-c2c3nc(c(-c4c(F)cc(S(=O)(=O)[O-])cc4F)c4ccc([nH]4)c(-c4c(F)cc(S(=O)(=O)[O-])cc4F)c4nc(c(-c5c(F)cc(S(=O)(=O)[O-])cc5F)c5ccc2[nH]5)C=C4)C=C3)cc1
REMARK SMILES IDX 7 1 6 2 5 3 4 4 3 5 1 6 2 7 33 9 34 10 98 11 35 12 97 13
REMARK SMILES IDX 36 14 37 15 38 16 91 17 39 18 96 19 90 20 92 21 40 22 95 23
REMARK SMILES IDX 89 24 88 25 41 27 75 28 54 29 74 30 55 31 58 32 73 33 93 34
REMARK SMILES IDX 56 35 57 36 72 38 94 39 59 40 42 41 43 42 52 43 44 44 45 45
REMARK SMILES IDX 51 46 53 47 46 48 47 49 48 50 49 51 50 52 76 53 77 54 86 55
REMARK SMILES IDX 78 56 79 57 85 58 87 59 80 60 81 61 82 62 83 63 84 64 60 65
REMARK SMILES IDX 61 66 70 67 62 68 63 69 69 70 71 71 64 72 65 73 66 74 67 75
REMARK SMILES IDX 68 76 8 77 9 78 10 79 11 80 12 82 13 83 14 84 32 85 15 86
REMARK SMILES IDX 17 87 16 88 18 89 19 90 20 91 21 92 31 93 22 94 30 95 23 96
REMARK SMILES IDX 24 98 25 99 26 100 29 101 27 102 28 103
REMARK H PARENT 3 8 92 26 58 37 10 81 23 97
REMARK Flexibility Score: inf
ROOT
ATOM      1  C   UNL     1       6.370  -5.166   1.256  1.00  0.00     0.002 C 
ENDROOT
BRANCH   1   2
ATOM      2  C   UNL     1       6.873  -6.519   0.740  1.00  0.00     0.002 C 
BRANCH   2   3
ATOM      3  C   UNL     1       6.042  -7.721   1.198  1.00  0.00     0.021 C 
BRANCH   3   4
ATOM      4  C   UNL     1       4.552  -7.580   0.915  1.00  0.00     0.116 C 
BRANCH   4   5
ATOM      5  N   UNL     1       4.303  -7.362  -0.499  1.00  0.00    -0.352 N 
ATOM      6  O   UNL     1       3.662  -7.951  -2.575  1.00  0.00    -0.269 OA
ATOM      7  C   UNL     1       3.568  -8.125  -1.368  1.00  0.00     0.251 C 
ATOM      8  H   UNL     1       4.719  -6.558  -0.885  1.00  0.00     0.163 HD
BRANCH   7   9
ATOM      9  C   UNL     1       2.674  -9.162  -0.820  1.00  0.00     0.039 A 
ATOM     10  C   UNL     1       1.831  -8.872   0.259  1.00  0.00     0.014 A 
ATOM     11  C   UNL     1       2.679 -10.431  -1.400  1.00  0.00     0.014 A 
ATOM     12  C   UNL     1       1.065  -9.882   0.826  1.00  0.00     0.010 A 
ATOM     13  C   UNL     1       1.852 -11.422  -0.877  1.00  0.00     0.010 A 
ATOM     14  C   UNL     1       1.051 -11.160   0.248  1.00  0.00    -0.014 A 
BRANCH  14  15
ATOM     15  C   UNL     1       0.148 -12.209   0.774  1.00  0.00     0.031 A 
ATOM     16  C   UNL     1       0.705 -13.470   1.363  1.00  0.00     0.074 A 
ATOM     17  C   UNL     1      -1.182 -12.035   0.659  1.00  0.00     0.049 A 
ATOM     18  N   UNL     1       0.073 -14.546   1.754  1.00  0.00    -0.248 NA
ATOM     19  C   UNL     1       2.166 -13.537   1.521  1.00  0.00     0.031 C 
ATOM     20  C   UNL     1      -1.830 -10.846   0.100  1.00  0.00     0.029 A 
ATOM     21  N   UNL     1      -2.226 -12.864   0.981  1.00  0.00    -0.354 N 
ATOM     22  C   UNL     1       1.057 -15.430   2.179  1.00  0.00     0.074 A 
ATOM     23  C   UNL     1       2.330 -14.771   1.974  1.00  0.00     0.031 C 
ATOM     24  C   UNL     1      -3.158 -11.023   0.114  1.00  0.00     0.029 A 
ATOM     25  C   UNL     1      -3.451 -12.360   0.617  1.00  0.00     0.049 A 
ATOM     26  H   UNL     1      -2.109 -13.733   1.428  1.00  0.00     0.167 HD
ATOM     27  C   UNL     1       0.905 -16.676   2.690  1.00  0.00     0.037 A 
ATOM     28  C   UNL     1      -4.673 -12.926   0.638  1.00  0.00     0.037 A 
ATOM     29  C   UNL     1      -0.374 -17.314   2.875  1.00  0.00     0.049 A 
ATOM     30  C   UNL     1      -4.818 -14.323   1.166  1.00  0.00     0.074 A 
ATOM     31  C   UNL     1      -0.644 -18.558   3.418  1.00  0.00     0.029 A 
ATOM     32  N   UNL     1      -1.596 -16.767   2.505  1.00  0.00    -0.354 N 
ATOM     33  N   UNL     1      -3.885 -15.136   1.601  1.00  0.00    -0.248 NA
ATOM     34  C   UNL     1      -6.175 -14.882   1.212  1.00  0.00     0.031 C 
ATOM     35  C   UNL     1      -2.020 -18.788   3.318  1.00  0.00     0.029 A 
ATOM     36  C   UNL     1      -2.619 -17.659   2.780  1.00  0.00     0.049 A 
ATOM     37  H   UNL     1      -1.717 -15.875   2.105  1.00  0.00     0.167 HD
ATOM     38  C   UNL     1      -4.543 -16.292   2.002  1.00  0.00     0.074 A 
ATOM     39  C   UNL     1      -5.955 -16.074   1.753  1.00  0.00     0.031 C 
ATOM     40  C   UNL     1      -4.024 -17.423   2.539  1.00  0.00     0.037 A 
BRANCH  27  41
ATOM     41  C   UNL     1       2.154 -17.442   3.035  1.00  0.00     0.058 A 
ATOM     42  C   UNL     1       2.998 -17.058   4.090  1.00  0.00     0.135 A 
ATOM     43  C   UNL     1       2.517 -18.580   2.294  1.00  0.00     0.135 A 
ATOM     44  F   UNL     1       2.708 -15.975   4.829  1.00  0.00    -0.206 F 
ATOM     45  C   UNL     1       4.183 -17.737   4.360  1.00  0.00     0.059 A 
ATOM     46  C   UNL     1       3.679 -19.294   2.567  1.00  0.00     0.059 A 
ATOM     47  F   UNL     1       1.745 -19.000   1.279  1.00  0.00    -0.206 F 
ATOM     48  C   UNL     1       4.520 -18.848   3.585  1.00  0.00     0.060 A 
BRANCH  48  49
ATOM     49  S   UNL     1       6.087 -19.682   3.910  1.00  0.00     0.124 S 
ATOM     50  O   UNL     1       7.045 -18.712   3.387  1.00  0.00    -0.237 OA
ATOM     51  O   UNL     1       6.067 -19.831   5.362  1.00  0.00    -0.237 OA
ATOM     52  O   UNL     1       5.976 -20.925   3.154  1.00  0.00    -0.744 OA
ENDBRANCH  48  49
ENDBRANCH  27  41
BRANCH  28  53
ATOM     53  C   UNL     1      -5.832 -12.151   0.128  1.00  0.00     0.058 A 
ATOM     54  C   UNL     1      -6.785 -11.615   1.004  1.00  0.00     0.135 A 
ATOM     55  C   UNL     1      -5.954 -11.850  -1.239  1.00  0.00     0.135 A 
ATOM     56  F   UNL     1      -6.712 -11.878   2.317  1.00  0.00    -0.206 F 
ATOM     57  C   UNL     1      -7.813 -10.798   0.546  1.00  0.00     0.059 A 
ATOM     58  C   UNL     1      -6.957 -11.014  -1.717  1.00  0.00     0.059 A 
ATOM     59  F   UNL     1      -5.053 -12.323  -2.115  1.00  0.00    -0.206 F 
ATOM     60  C   UNL     1      -7.882 -10.492  -0.815  1.00  0.00     0.060 A 
BRANCH  60  61
ATOM     61  S   UNL     1      -9.161  -9.348  -1.379  1.00  0.00     0.124 S 
ATOM     62  O   UNL     1     -10.365 -10.159  -1.234  1.00  0.00    -0.237 OA
ATOM     63  O   UNL     1      -9.018  -8.243  -0.436  1.00  0.00    -0.237 OA
ATOM     64  O   UNL     1      -8.763  -9.048  -2.751  1.00  0.00    -0.744 OA
ENDBRANCH  60  61
ENDBRANCH  28  53
BRANCH  40  65
ATOM     65  C   UNL     1      -4.980 -18.507   2.954  1.00  0.00     0.058 A 
ATOM     66  C   UNL     1      -5.617 -19.337   2.019  1.00  0.00     0.135 A 
ATOM     67  C   UNL     1      -5.171 -18.785   4.318  1.00  0.00     0.135 A 
ATOM     68  F   UNL     1      -5.478 -19.105   0.705  1.00  0.00    -0.206 F 
ATOM     69  C   UNL     1      -6.405 -20.410   2.423  1.00  0.00     0.059 A 
ATOM     70  C   UNL     1      -5.931 -19.869   4.743  1.00  0.00     0.059 A 
ATOM     71  F   UNL     1      -4.581 -18.023   5.252  1.00  0.00    -0.206 F 
ATOM     72  C   UNL     1      -6.544 -20.677   3.787  1.00  0.00     0.060 A 
BRANCH  72  73
ATOM     73  S   UNL     1      -7.492 -22.128   4.294  1.00  0.00     0.124 S 
ATOM     74  O   UNL     1      -8.856 -21.711   3.988  1.00  0.00    -0.237 OA
ATOM     75  O   UNL     1      -6.941 -23.173   3.437  1.00  0.00    -0.237 OA
ATOM     76  O   UNL     1      -7.180 -22.260   5.714  1.00  0.00    -0.744 OA
ENDBRANCH  72  73
ENDBRANCH  40  65
ENDBRANCH  14  15
ENDBRANCH   7   9
ENDBRANCH   4   5
ENDBRANCH   3   4
ENDBRANCH   2   3
ENDBRANCH   1   2
BRANCH   1  77
ATOM     77  C   UNL     1       6.198  -5.103   2.772  1.00  0.00     0.021 C 
BRANCH  77  78
ATOM     78  C   UNL     1       7.473  -5.461   3.509  1.00  0.00     0.116 C 
BRANCH  78  79
ATOM     79  N   UNL     1       8.496  -4.454   3.269  1.00  0.00    -0.356 N 
ATOM     80  C   UNL     1       8.982  -3.529   4.156  1.00  0.00     0.224 C 
ATOM     81  H   UNL     1       8.885  -4.435   2.364  1.00  0.00     0.163 HD
ATOM     82  O   UNL     1       9.737  -2.642   3.770  1.00  0.00    -0.275 OA
BRANCH  80  83
ATOM     83  C   UNL     1       8.630  -3.758   5.606  1.00  0.00     0.098 C 
ATOM     84  C   UNL     1       9.357  -5.067   5.993  1.00  0.00     0.017 C 
ATOM     85  C   UNL     1       8.989  -2.573   6.537  1.00  0.00     0.133 C 
ATOM     86  C   UNL     1       9.113  -5.340   7.447  1.00  0.00     0.022 C 
ATOM     87  N   UNL     1       8.987  -2.998   7.954  1.00  0.00    -0.342 N 
ATOM     88  C   UNL     1       9.755  -4.184   8.167  1.00  0.00     0.119 C 
BRANCH  87  89
ATOM     89  C   UNL     1       8.303  -2.330   8.950  1.00  0.00     0.226 C 
ATOM     90  O   UNL     1       7.712  -1.274   8.686  1.00  0.00    -0.275 OA
BRANCH  89  91
ATOM     91  C   UNL     1       8.249  -2.850  10.427  1.00  0.00     0.090 C 
ATOM     92  C   UNL     1       9.473  -2.594  11.306  1.00  0.00     0.075 C 
ATOM     93  C   UNL     1       7.662  -4.236  10.709  1.00  0.00     0.075 C 
ATOM     94  C   UNL     1      10.503  -3.723  11.348  1.00  0.00     0.263 C 
ATOM     95  C   UNL     1       8.655  -5.394  10.930  1.00  0.00     0.263 C 
ATOM     96  N   UNL     1       9.981  -5.081  11.469  1.00  0.00    -0.329 N 
ATOM     97  H   UNL     1       9.775  -5.075  12.468  1.00  0.00     0.348 HD
BRANCH  96  98
ATOM     98  C   UNL     1      10.985  -6.155  11.225  1.00  0.00     0.338 C 
BRANCH  98  99
ATOM     99  C   UNL     1      11.697  -6.176   9.891  1.00  0.00     0.157 A 
ATOM    100  C   UNL     1      12.679  -5.391   9.306  1.00  0.00     0.052 A 
ATOM    101  O   UNL     1      11.386  -7.200   9.035  1.00  0.00    -0.463 OA
ATOM    102  C   UNL     1      12.912  -5.912   8.007  1.00  0.00     0.042 A 
ATOM    103  C   UNL     1      12.120  -7.029   7.901  1.00  0.00     0.195 A 
ENDBRANCH  98  99
ENDBRANCH  96  98
ENDBRANCH  89  91
ENDBRANCH  87  89
ENDBRANCH  80  83
ENDBRANCH  78  79
ENDBRANCH  77  78
ENDBRANCH   1  77
TORSDOF 20
