REMARK SMILES CCC(=O)N1CCC[C@](C[C@H]2CC(c3ccc(C)cc3)=NO2)(C(=O)NCCCCCCNC(=O)c2ccc(-c3c4nc(c(-c5c(F)cc(S(=O)(=O)[O-])cc5F)c5ccc([nH]5)c(-c5c(F)cc(S(=O)(=O)[O-])cc5F)c5nc(c(-c6c(F)cc(S(=O)(=O)[O-])cc6F)c6ccc3[nH]6)C=C5)C=C4)cc2)C1
REMARK SMILES IDX 28 1 27 2 26 3 25 4 23 5 24 6 9 8 5 9 6 10 101 11 7 12 8 13
REMARK SMILES IDX 3 14 4 15 2 16 1 17 10 18 11 19 12 20 22 21 13 22 21 23
REMARK SMILES IDX 14 24 15 25 20 26 16 27 19 28 17 29 18 30 29 31 30 32 31 33
REMARK SMILES IDX 32 34 33 35 34 37 35 38 36 39 100 40 37 41 99 42 38 43 39 44
REMARK SMILES IDX 40 45 93 46 41 47 98 48 92 49 94 50 42 51 97 52 91 53 90 54
REMARK SMILES IDX 43 56 77 57 56 58 76 59 57 60 60 61 75 62 95 63 58 64 59 65
REMARK SMILES IDX 74 67 96 68 61 69 44 70 45 71 54 72 46 73 47 74 53 75 55 76
REMARK SMILES IDX 48 77 49 78 50 79 51 80 52 81 78 82 79 83 88 84 80 85 81 86
REMARK SMILES IDX 87 87 89 88 82 89 83 90 84 91 85 92 86 93 62 94 63 95 72 96
REMARK SMILES IDX 64 97 65 98 71 99 73 100 66 101 67 102 68 103 69 104 70 105
REMARK H PARENT 25 7 32 36 94 55 60 66
REMARK Flexibility Score: inf
ROOT
ATOM      1  C   UNL     1      -1.247  -2.958  -1.548  1.00  0.00     0.002 C 
ENDROOT
BRANCH   1   2
ATOM      2  C   UNL     1       0.227  -2.740  -1.933  1.00  0.00     0.021 C 
BRANCH   2   3
ATOM      3  C   UNL     1       1.178  -2.761  -0.772  1.00  0.00     0.116 C 
BRANCH   3   4
ATOM      4  N   UNL     1       2.236  -3.730  -0.906  1.00  0.00    -0.356 N 
ATOM      5  C   UNL     1       3.562  -3.586  -0.687  1.00  0.00     0.228 C 
ATOM      6  O   UNL     1       4.096  -4.597  -0.202  1.00  0.00    -0.274 OA
ATOM      7  H   UNL     1       1.953  -4.626  -1.199  1.00  0.00     0.163 HD
BRANCH   5   8
ATOM      8  C   UNL     1       4.457  -2.383  -1.158  1.00  0.00     0.070 C 
ATOM      9  N   UNL     1       2.963  -0.690  -2.388  1.00  0.00    -0.342 N 
ATOM     10  C   UNL     1       3.377  -1.236  -3.686  1.00  0.00     0.119 C 
ATOM     11  C   UNL     1       3.837  -0.969  -1.252  1.00  0.00     0.136 C 
ATOM     12  C   UNL     1       3.903  -2.661  -3.622  1.00  0.00     0.023 C 
ATOM     13  C   UNL     1       4.981  -2.791  -2.552  1.00  0.00     0.021 C 
BRANCH   9  14
ATOM     14  C   UNL     1       2.084   0.392  -2.468  1.00  0.00     0.222 C 
ATOM     15  O   UNL     1       1.727   0.804  -3.581  1.00  0.00    -0.275 OA
BRANCH  14  16
ATOM     16  C   UNL     1       1.624   1.235  -1.272  1.00  0.00     0.097 C 
ATOM     17  C   UNL     1       1.469   0.756   0.156  1.00  0.00     0.014 C 
ENDBRANCH  14  16
ENDBRANCH   9  14
BRANCH   8  18
ATOM     18  C   UNL     1       5.606  -2.381  -0.068  1.00  0.00     0.067 C 
BRANCH  18  19
ATOM     19  C   UNL     1       6.824  -1.450  -0.087  1.00  0.00     0.211 C 
ATOM     20  C   UNL     1       7.856  -1.724  -1.152  1.00  0.00     0.108 C 
ATOM     21  O   UNL     1       6.476  -0.069  -0.159  1.00  0.00    -0.392 OA
ATOM     22  C   UNL     1       7.952  -0.367  -1.739  1.00  0.00     0.091 C 
ATOM     23  N   UNL     1       7.238   0.549  -1.175  1.00  0.00    -0.090 NA
BRANCH  22  24
ATOM     24  C   UNL     1       8.923  -0.104  -2.804  1.00  0.00    -0.001 A 
ATOM     25  C   UNL     1       8.949  -0.886  -3.959  1.00  0.00     0.010 A 
ATOM     26  C   UNL     1       9.888   0.878  -2.581  1.00  0.00     0.010 A 
ATOM     27  C   UNL     1       9.977  -0.702  -4.886  1.00  0.00     0.004 A 
ATOM     28  C   UNL     1      10.922   1.044  -3.499  1.00  0.00     0.004 A 
ATOM     29  C   UNL     1      10.982   0.248  -4.651  1.00  0.00    -0.051 A 
ATOM     30  C   UNL     1      12.135   0.402  -5.598  1.00  0.00     0.044 C 
ENDBRANCH  22  24
ENDBRANCH  18  19
ENDBRANCH   8  18
ENDBRANCH   5   8
ENDBRANCH   3   4
ENDBRANCH   2   3
ENDBRANCH   1   2
BRANCH   1  31
ATOM     31  C   UNL     1      -2.086  -2.032  -0.581  1.00  0.00     0.002 C 
BRANCH  31  32
ATOM     32  C   UNL     1      -2.814  -0.599  -0.879  1.00  0.00     0.021 C 
BRANCH  32  33
ATOM     33  C   UNL     1      -4.168  -0.580  -1.748  1.00  0.00     0.116 C 
BRANCH  33  34
ATOM     34  N   UNL     1      -5.006   0.687  -2.214  1.00  0.00    -0.352 N 
ATOM     35  C   UNL     1      -5.788   1.039  -3.411  1.00  0.00     0.251 C 
ATOM     36  H   UNL     1      -5.001   1.408  -1.544  1.00  0.00     0.163 HD
ATOM     37  O   UNL     1      -7.019   1.014  -3.221  1.00  0.00    -0.269 OA
BRANCH  35  38
ATOM     38  C   UNL     1      -5.387   1.520  -4.897  1.00  0.00     0.039 A 
ATOM     39  C   UNL     1      -6.181   1.144  -6.026  1.00  0.00     0.014 A 
ATOM     40  C   UNL     1      -4.225   2.167  -5.286  1.00  0.00     0.014 A 
ATOM     41  C   UNL     1      -5.551   0.801  -7.293  1.00  0.00     0.010 A 
ATOM     42  C   UNL     1      -3.603   1.853  -6.539  1.00  0.00     0.010 A 
ATOM     43  C   UNL     1      -4.165   0.948  -7.449  1.00  0.00    -0.014 A 
BRANCH  43  44
ATOM     44  C   UNL     1      -3.275   0.095  -8.348  1.00  0.00     0.031 A 
ATOM     45  C   UNL     1      -2.762   0.597  -9.623  1.00  0.00     0.074 A 
ATOM     46  C   UNL     1      -2.716  -1.129  -8.092  1.00  0.00     0.049 A 
ATOM     47  N   UNL     1      -2.860  -0.036 -10.751  1.00  0.00    -0.248 NA
ATOM     48  C   UNL     1      -1.955   1.805  -9.667  1.00  0.00     0.031 C 
ATOM     49  C   UNL     1      -1.716  -1.950  -8.806  1.00  0.00     0.029 A 
ATOM     50  N   UNL     1      -2.899  -1.937  -6.990  1.00  0.00    -0.354 N 
ATOM     51  C   UNL     1      -1.895   0.517 -11.564  1.00  0.00     0.074 A 
ATOM     52  C   UNL     1      -1.504   1.760 -10.923  1.00  0.00     0.031 C 
ATOM     53  C   UNL     1      -1.718  -3.210  -8.311  1.00  0.00     0.029 A 
ATOM     54  C   UNL     1      -2.745  -3.287  -7.293  1.00  0.00     0.049 A 
ATOM     55  H   UNL     1      -3.114  -1.597  -6.091  1.00  0.00     0.167 HD
ATOM     56  C   UNL     1      -1.246  -0.204 -12.528  1.00  0.00     0.037 A 
ATOM     57  C   UNL     1      -3.829  -4.121  -7.183  1.00  0.00     0.037 A 
ATOM     58  C   UNL     1      -1.449  -1.650 -12.380  1.00  0.00     0.049 A 
ATOM     59  C   UNL     1      -4.332  -4.503  -8.543  1.00  0.00     0.074 A 
ATOM     60  C   UNL     1      -0.622  -2.690 -11.974  1.00  0.00     0.029 A 
ATOM     61  N   UNL     1      -2.725  -2.182 -12.372  1.00  0.00    -0.354 N 
ATOM     62  N   UNL     1      -3.637  -4.340  -9.627  1.00  0.00    -0.248 NA
ATOM     63  C   UNL     1      -5.681  -4.995  -8.813  1.00  0.00     0.031 C 
ATOM     64  C   UNL     1      -1.413  -3.852 -11.762  1.00  0.00     0.029 A 
ATOM     65  C   UNL     1      -2.725  -3.527 -12.045  1.00  0.00     0.049 A 
ATOM     66  H   UNL     1      -3.538  -1.664 -12.574  1.00  0.00     0.167 HD
ATOM     67  C   UNL     1      -4.439  -4.522 -10.712  1.00  0.00     0.074 A 
ATOM     68  C   UNL     1      -5.699  -4.985 -10.157  1.00  0.00     0.031 C 
ATOM     69  C   UNL     1      -3.998  -4.229 -11.969  1.00  0.00     0.037 A 
BRANCH  56  70
ATOM     70  C   UNL     1      -0.175   0.413 -13.408  1.00  0.00     0.058 A 
ATOM     71  C   UNL     1       0.873  -0.345 -13.966  1.00  0.00     0.135 A 
ATOM     72  C   UNL     1      -0.180   1.777 -13.783  1.00  0.00     0.135 A 
ATOM     73  F   UNL     1       0.950  -1.672 -13.810  1.00  0.00    -0.206 F 
ATOM     74  C   UNL     1       1.891   0.218 -14.736  1.00  0.00     0.059 A 
ATOM     75  C   UNL     1       0.854   2.374 -14.511  1.00  0.00     0.059 A 
ATOM     76  F   UNL     1      -1.216   2.575 -13.476  1.00  0.00    -0.206 F 
ATOM     77  C   UNL     1       1.889   1.583 -14.985  1.00  0.00     0.060 A 
BRANCH  77  78
ATOM     78  S   UNL     1       3.225   2.279 -15.972  1.00  0.00     0.124 S 
ATOM     79  O   UNL     1       4.412   1.836 -15.246  1.00  0.00    -0.237 OA
ATOM     80  O   UNL     1       3.004   1.647 -17.268  1.00  0.00    -0.237 OA
ATOM     81  O   UNL     1       2.972   3.717 -15.926  1.00  0.00    -0.744 OA
ENDBRANCH  77  78
ENDBRANCH  56  70
BRANCH  57  82
ATOM     82  C   UNL     1      -4.758  -3.868  -5.994  1.00  0.00     0.058 A 
ATOM     83  C   UNL     1      -4.165  -4.078  -4.754  1.00  0.00     0.135 A 
ATOM     84  C   UNL     1      -5.432  -2.662  -6.047  1.00  0.00     0.135 A 
ATOM     85  F   UNL     1      -4.024  -5.312  -4.256  1.00  0.00    -0.206 F 
ATOM     86  C   UNL     1      -3.666  -3.006  -4.027  1.00  0.00     0.059 A 
ATOM     87  C   UNL     1      -4.890  -1.586  -5.337  1.00  0.00     0.059 A 
ATOM     88  F   UNL     1      -6.330  -2.419  -7.014  1.00  0.00    -0.206 F 
ATOM     89  C   UNL     1      -3.790  -1.730  -4.529  1.00  0.00     0.060 A 
BRANCH  89  90
ATOM     90  S   UNL     1      -2.311  -0.409  -4.315  1.00  0.00     0.124 S 
ATOM     91  O   UNL     1      -1.400  -1.164  -3.501  1.00  0.00    -0.237 OA
ATOM     92  O   UNL     1      -1.780  -0.189  -5.658  1.00  0.00    -0.237 OA
ATOM     93  O   UNL     1      -2.824   0.762  -3.654  1.00  0.00    -0.744 OA
ENDBRANCH  89  90
ENDBRANCH  57  82
BRANCH  69  94
ATOM     94  C   UNL     1      -4.745  -4.569 -13.225  1.00  0.00     0.058 A 
ATOM     95  C   UNL     1      -5.517  -5.736 -13.346  1.00  0.00     0.135 A 
ATOM     96  C   UNL     1      -4.594  -3.809 -14.407  1.00  0.00     0.135 A 
ATOM     97  F   UNL     1      -5.616  -6.614 -12.335  1.00  0.00    -0.206 F 
ATOM     98  C   UNL     1      -6.182  -6.067 -14.524  1.00  0.00     0.059 A 
ATOM     99  C   UNL     1      -5.204  -4.148 -15.606  1.00  0.00     0.059 A 
ATOM    100  F   UNL     1      -3.850  -2.697 -14.453  1.00  0.00    -0.206 F 
ATOM    101  C   UNL     1      -6.028  -5.259 -15.646  1.00  0.00     0.060 A 
BRANCH 101 102
ATOM    102  S   UNL     1      -6.889  -5.684 -17.163  1.00  0.00     0.124 S 
ATOM    103  O   UNL     1      -6.681  -7.126 -17.249  1.00  0.00    -0.237 OA
ATOM    104  O   UNL     1      -8.250  -5.259 -16.850  1.00  0.00    -0.237 OA
ATOM    105  O   UNL     1      -6.202  -4.895 -18.181  1.00  0.00    -0.744 OA
ENDBRANCH 101 102
ENDBRANCH  69  94
ENDBRANCH  43  44
ENDBRANCH  35  38
ENDBRANCH  33  34
ENDBRANCH  32  33
ENDBRANCH  31  32
ENDBRANCH   1  31
TORSDOF 21
