REMARK SMILES O=C(NCCCCCCNC(=O)c1ccc(N2C(=O)[C@@H]3N=NC(c4ccccc4)=C3[C@H]2c2cccc(Br)c2)cc1)c1ccc(-c2c3nc(c(-c4c(F)cc(S(=O)(=O)[O-])cc4F)c4ccc([nH]4)c(-c4c(F)cc(S(=O)(=O)[O-])cc4F)c4nc(c(-c5c(F)cc(S(=O)(=O)[O-])cc5F)c5ccc2[nH]5)C=C4)C=C3)cc1
REMARK SMILES IDX 6 1 5 2 4 3 3 4 1 5 2 6 41 8 42 9 106 10 43 11 105 12 44 13
REMARK SMILES IDX 45 14 46 15 99 16 47 17 104 18 98 19 100 20 48 21 103 22
REMARK SMILES IDX 97 23 96 24 49 26 83 27 62 28 82 29 63 30 66 31 81 32 101 33
REMARK SMILES IDX 64 34 65 35 80 37 102 38 67 39 50 40 51 41 60 42 52 43 53 44
REMARK SMILES IDX 59 45 61 46 54 47 55 48 56 49 57 50 58 51 84 52 85 53 94 54
REMARK SMILES IDX 86 55 87 56 93 57 95 58 88 59 89 60 90 61 91 62 92 63 68 64
REMARK SMILES IDX 69 65 78 66 70 67 71 68 77 69 79 70 72 71 73 72 74 73 75 74
REMARK SMILES IDX 76 75 7 76 8 77 9 78 10 79 11 80 12 82 13 83 14 84 40 85
REMARK SMILES IDX 15 86 39 87 16 88 17 89 18 90 31 91 20 92 19 93 30 94 21 95
REMARK SMILES IDX 23 96 22 97 32 98 33 99 38 100 34 101 36 102 35 103 37 104
REMARK SMILES IDX 24 105 25 106 29 107 26 108 28 109 27 110
REMARK H PARENT 3 7 100 25 66 36 10 81
REMARK Flexibility Score: inf
ROOT
ATOM      1  C   UNL     1       4.264  -1.694   3.170  1.00  0.00     0.002 C 
ENDROOT
BRANCH   1   2
ATOM      2  C   UNL     1       4.753  -0.594   2.220  1.00  0.00     0.021 C 
BRANCH   2   3
ATOM      3  C   UNL     1       4.624  -0.914   0.731  1.00  0.00     0.116 C 
BRANCH   3   4
ATOM      4  N   UNL     1       3.270  -1.146   0.275  1.00  0.00    -0.352 N 
ATOM      5  O   UNL     1       1.209  -0.896  -0.488  1.00  0.00    -0.269 OA
ATOM      6  C   UNL     1       2.208  -0.338  -0.026  1.00  0.00     0.251 C 
ATOM      7  H   UNL     1       3.067  -2.102   0.153  1.00  0.00     0.163 HD
BRANCH   6   8
ATOM      8  C   UNL     1       2.161   1.130   0.217  1.00  0.00     0.039 A 
ATOM      9  C   UNL     1       3.271   1.964   0.359  1.00  0.00     0.014 A 
ATOM     10  C   UNL     1       0.877   1.702   0.284  1.00  0.00     0.014 A 
ATOM     11  C   UNL     1       3.107   3.320   0.636  1.00  0.00     0.010 A 
ATOM     12  C   UNL     1       0.707   3.060   0.536  1.00  0.00     0.010 A 
ATOM     13  C   UNL     1       1.826   3.866   0.738  1.00  0.00    -0.014 A 
BRANCH  13  14
ATOM     14  C   UNL     1       1.703   5.311   0.932  1.00  0.00     0.031 A 
ATOM     15  C   UNL     1       2.153   6.167  -0.208  1.00  0.00     0.074 A 
ATOM     16  C   UNL     1       1.059   5.864   1.979  1.00  0.00     0.049 A 
ATOM     17  N   UNL     1       3.043   7.108  -0.217  1.00  0.00    -0.248 NA
ATOM     18  C   UNL     1       1.569   5.889  -1.530  1.00  0.00     0.031 C 
ATOM     19  C   UNL     1       0.272   5.181   3.008  1.00  0.00     0.029 A 
ATOM     20  N   UNL     1       0.872   7.184   2.268  1.00  0.00    -0.354 N 
ATOM     21  C   UNL     1       3.010   7.664  -1.498  1.00  0.00     0.074 A 
ATOM     22  C   UNL     1       2.175   6.800  -2.293  1.00  0.00     0.031 C 
ATOM     23  C   UNL     1      -0.484   6.092   3.661  1.00  0.00     0.029 A 
ATOM     24  C   UNL     1      -0.144   7.422   3.184  1.00  0.00     0.049 A 
ATOM     25  H   UNL     1       1.408   7.904   1.863  1.00  0.00     0.167 HD
ATOM     26  C   UNL     1       3.529   8.891  -1.784  1.00  0.00     0.037 A 
ATOM     27  C   UNL     1      -0.723   8.617   3.462  1.00  0.00     0.037 A 
ATOM     28  C   UNL     1       4.419   9.354  -0.756  1.00  0.00     0.049 A 
ATOM     29  C   UNL     1       0.203   9.687   3.012  1.00  0.00     0.074 A 
ATOM     30  C   UNL     1       5.605   8.900  -0.213  1.00  0.00     0.029 A 
ATOM     31  N   UNL     1       3.966  10.324   0.103  1.00  0.00    -0.354 N 
ATOM     32  N   UNL     1       1.359   9.943   3.559  1.00  0.00    -0.248 NA
ATOM     33  C   UNL     1       0.009  10.245   1.682  1.00  0.00     0.031 C 
ATOM     34  C   UNL     1       5.547   9.265   1.163  1.00  0.00     0.029 A 
ATOM     35  C   UNL     1       4.343   9.942   1.364  1.00  0.00     0.049 A 
ATOM     36  H   UNL     1       3.467  11.137  -0.140  1.00  0.00     0.167 HD
ATOM     37  C   UNL     1       2.176  10.325   2.505  1.00  0.00     0.074 A 
ATOM     38  C   UNL     1       1.264  10.598   1.399  1.00  0.00     0.031 C 
ATOM     39  C   UNL     1       3.526  10.124   2.543  1.00  0.00     0.037 A 
BRANCH  26  40
ATOM     40  C   UNL     1       3.004   9.819  -2.855  1.00  0.00     0.058 A 
ATOM     41  C   UNL     1       3.759  10.948  -3.237  1.00  0.00     0.135 A 
ATOM     42  C   UNL     1       1.667   9.798  -3.306  1.00  0.00     0.135 A 
ATOM     43  F   UNL     1       5.040  11.075  -2.856  1.00  0.00    -0.206 F 
ATOM     44  C   UNL     1       3.204  12.013  -3.950  1.00  0.00     0.059 A 
ATOM     45  C   UNL     1       1.109  10.823  -4.064  1.00  0.00     0.059 A 
ATOM     46  F   UNL     1       0.814   8.831  -2.946  1.00  0.00    -0.206 F 
ATOM     47  C   UNL     1       1.870  11.948  -4.340  1.00  0.00     0.060 A 
BRANCH  47  48
ATOM     48  S   UNL     1       1.111  13.376  -5.138  1.00  0.00     0.124 S 
ATOM     49  O   UNL     1       1.019  14.313  -4.024  1.00  0.00    -0.237 OA
ATOM     50  O   UNL     1       2.087  13.704  -6.171  1.00  0.00    -0.237 OA
ATOM     51  O   UNL     1      -0.159  12.849  -5.628  1.00  0.00    -0.744 OA
ENDBRANCH  47  48
ENDBRANCH  26  40
BRANCH  27  52
ATOM     52  C   UNL     1      -2.148   8.881   3.795  1.00  0.00     0.058 A 
ATOM     53  C   UNL     1      -2.557  10.119   4.322  1.00  0.00     0.135 A 
ATOM     54  C   UNL     1      -3.177   8.026   3.350  1.00  0.00     0.135 A 
ATOM     55  F   UNL     1      -1.644  11.008   4.744  1.00  0.00    -0.206 F 
ATOM     56  C   UNL     1      -3.901  10.502   4.367  1.00  0.00     0.059 A 
ATOM     57  C   UNL     1      -4.523   8.379   3.400  1.00  0.00     0.059 A 
ATOM     58  F   UNL     1      -2.899   6.853   2.761  1.00  0.00    -0.206 F 
ATOM     59  C   UNL     1      -4.878   9.630   3.885  1.00  0.00     0.060 A 
BRANCH  59  60
ATOM     60  S   UNL     1      -6.594  10.186   3.776  1.00  0.00     0.124 S 
ATOM     61  O   UNL     1      -6.982  10.243   5.181  1.00  0.00    -0.237 OA
ATOM     62  O   UNL     1      -6.460  11.471   3.099  1.00  0.00    -0.237 OA
ATOM     63  O   UNL     1      -7.241   9.137   2.992  1.00  0.00    -0.744 OA
ENDBRANCH  59  60
ENDBRANCH  27  52
BRANCH  39  64
ATOM     64  C   UNL     1       4.166   9.792   3.864  1.00  0.00     0.058 A 
ATOM     65  C   UNL     1       3.897   8.625   4.600  1.00  0.00     0.135 A 
ATOM     66  C   UNL     1       5.213  10.610   4.318  1.00  0.00     0.135 A 
ATOM     67  F   UNL     1       2.988   7.736   4.176  1.00  0.00    -0.206 F 
ATOM     68  C   UNL     1       4.611   8.306   5.755  1.00  0.00     0.059 A 
ATOM     69  C   UNL     1       5.960  10.293   5.449  1.00  0.00     0.059 A 
ATOM     70  F   UNL     1       5.561  11.705   3.622  1.00  0.00    -0.206 F 
ATOM     71  C   UNL     1       5.646   9.143   6.170  1.00  0.00     0.060 A 
BRANCH  71  72
ATOM     72  S   UNL     1       6.636   8.669   7.604  1.00  0.00     0.124 S 
ATOM     73  O   UNL     1       5.722   8.936   8.710  1.00  0.00    -0.237 OA
ATOM     74  O   UNL     1       6.921   7.261   7.343  1.00  0.00    -0.237 OA
ATOM     75  O   UNL     1       7.796   9.554   7.525  1.00  0.00    -0.744 OA
ENDBRANCH  71  72
ENDBRANCH  39  64
ENDBRANCH  13  14
ENDBRANCH   6   8
ENDBRANCH   3   4
ENDBRANCH   2   3
ENDBRANCH   1   2
BRANCH   1  76
ATOM     76  C   UNL     1       4.843  -3.094   2.938  1.00  0.00     0.002 C 
BRANCH  76  77
ATOM     77  C   UNL     1       6.373  -3.195   2.891  1.00  0.00     0.021 C 
BRANCH  77  78
ATOM     78  C   UNL     1       7.110  -2.752   4.157  1.00  0.00     0.116 C 
BRANCH  78  79
ATOM     79  N   UNL     1       6.875  -3.652   5.272  1.00  0.00    -0.352 N 
ATOM     80  C   UNL     1       7.779  -4.291   6.082  1.00  0.00     0.251 C 
ATOM     81  H   UNL     1       5.929  -3.829   5.477  1.00  0.00     0.163 HD
ATOM     82  O   UNL     1       7.397  -5.146   6.878  1.00  0.00    -0.269 OA
BRANCH  80  83
ATOM     83  C   UNL     1       9.230  -4.007   5.974  1.00  0.00     0.039 A 
ATOM     84  C   UNL     1      10.079  -5.091   5.764  1.00  0.00     0.016 A 
ATOM     85  C   UNL     1       9.767  -2.720   6.118  1.00  0.00     0.016 A 
ATOM     86  C   UNL     1      11.450  -4.877   5.622  1.00  0.00     0.027 A 
ATOM     87  C   UNL     1      11.155  -2.508   5.992  1.00  0.00     0.027 A 
ATOM     88  C   UNL     1      12.001  -3.583   5.714  1.00  0.00     0.045 A 
BRANCH  88  89
ATOM     89  N   UNL     1      13.391  -3.395   5.425  1.00  0.00    -0.299 N 
ATOM     90  C   UNL     1      13.884  -4.134   4.296  1.00  0.00     0.259 C 
ATOM     91  C   UNL     1      14.384  -3.396   6.527  1.00  0.00     0.152 C 
ATOM     92  C   UNL     1      15.207  -4.734   4.680  1.00  0.00     0.248 C 
ATOM     93  O   UNL     1      13.310  -4.311   3.235  1.00  0.00    -0.271 OA
ATOM     94  C   UNL     1      15.055  -4.658   6.148  1.00  0.00     0.021 C 
ATOM     95  N   UNL     1      15.346  -6.183   4.468  1.00  0.00    -0.170 NA
ATOM     96  C   UNL     1      15.338  -5.865   6.625  1.00  0.00     0.097 C 
ATOM     97  N   UNL     1      15.550  -6.750   5.586  1.00  0.00    -0.154 NA
BRANCH  91  98
ATOM     98  C   UNL     1      15.386  -2.223   6.497  1.00  0.00    -0.020 A 
ATOM     99  C   UNL     1      16.787  -2.450   6.465  1.00  0.00     0.006 A 
ATOM    100  C   UNL     1      14.961  -0.887   6.557  1.00  0.00     0.022 A 
ATOM    101  C   UNL     1      17.715  -1.408   6.440  1.00  0.00     0.002 A 
ATOM    102  C   UNL     1      15.901   0.158   6.562  1.00  0.00     0.018 A 
ATOM    103  C   UNL     1      17.270  -0.096   6.492  1.00  0.00     0.016 A 
ATOM    104  Br  UNL     1      15.319   1.953   6.689  1.00  0.00    -0.051 Br
ENDBRANCH  91  98
BRANCH  96 105
ATOM    105  C   UNL     1      15.283  -6.361   7.998  1.00  0.00     0.002 A 
ATOM    106  C   UNL     1      16.348  -6.121   8.877  1.00  0.00     0.010 A 
ATOM    107  C   UNL     1      14.258  -7.232   8.387  1.00  0.00     0.010 A 
ATOM    108  C   UNL     1      16.420  -6.800  10.097  1.00  0.00     0.001 A 
ATOM    109  C   UNL     1      14.329  -7.904   9.610  1.00  0.00     0.001 A 
ATOM    110  C   UNL     1      15.421  -7.705  10.453  1.00  0.00     0.000 A 
ENDBRANCH  96 105
ENDBRANCH  88  89
ENDBRANCH  80  83
ENDBRANCH  78  79
ENDBRANCH  77  78
ENDBRANCH  76  77
ENDBRANCH   1  76
TORSDOF 19
