REMARK SMILES Cc1ccc(NC(=O)c2ccccc2NC(=O)[C@H]2CCCC[C@H]2C(=O)NCCCCCCNC(=O)c2ccc(-c3c4nc(c(-c5c(F)cc(S(=O)(=O)[O-])cc5F)c5ccc([nH]5)c(-c5c(F)cc(S(=O)(=O)[O-])cc5F)c5nc(c(-c6c(F)cc(S(=O)(=O)[O-])cc6F)c6ccc3[nH]6)C=C5)C=C4)cc2)cc1
REMARK SMILES IDX 29 1 28 2 27 3 26 4 24 5 25 6 23 8 18 9 19 10 20 11 22 12
REMARK SMILES IDX 21 13 16 14 15 15 17 17 14 18 9 19 10 20 11 21 13 22 12 23
REMARK SMILES IDX 7 24 6 25 8 27 5 28 1 29 2 30 3 31 103 32 4 33 102 34 30 35
REMARK SMILES IDX 31 36 32 37 33 38 34 39 35 41 36 42 37 43 101 44 38 45
REMARK SMILES IDX 100 46 39 47 40 48 41 49 94 50 42 51 99 52 93 53 95 54 43 55
REMARK SMILES IDX 98 56 92 57 91 58 44 60 78 61 57 62 77 63 58 64 61 65 76 66
REMARK SMILES IDX 96 67 59 68 60 69 75 71 97 72 62 73 45 74 46 75 55 76 47 77
REMARK SMILES IDX 48 78 54 79 56 80 49 81 50 82 51 83 52 84 53 85 79 86 80 87
REMARK SMILES IDX 89 88 81 89 82 90 88 91 90 92 83 93 84 94 85 95 86 96 87 97
REMARK SMILES IDX 63 98 64 99 73 100 65 101 66 102 72 103 74 104 67 105 68 106
REMARK SMILES IDX 69 107 70 108 71 109
REMARK H PARENT 26 7 15 16 6 26 33 40 95 59 61 70
REMARK Flexibility Score: inf
ROOT
ATOM      1  C   UNL     1       2.230   1.098   7.655  1.00  0.00     0.002 C 
ENDROOT
BRANCH   1   2
ATOM      2  C   UNL     1       1.704   0.067   6.649  1.00  0.00     0.021 C 
BRANCH   2   3
ATOM      3  C   UNL     1       0.496  -0.760   7.106  1.00  0.00     0.116 C 
BRANCH   3   4
ATOM      4  N   UNL     1      -0.753  -0.248   6.564  1.00  0.00    -0.356 N 
ATOM      5  C   UNL     1      -1.689  -0.751   5.726  1.00  0.00     0.223 C 
ATOM      6  O   UNL     1      -2.660  -0.017   5.494  1.00  0.00    -0.275 OA
ATOM      7  H   UNL     1      -0.964   0.661   6.875  1.00  0.00     0.163 HD
BRANCH   5   8
ATOM      8  C   UNL     1      -1.618  -2.102   5.007  1.00  0.00     0.091 C 
ATOM      9  C   UNL     1      -0.818  -2.033   3.690  1.00  0.00     0.091 C 
ATOM     10  C   UNL     1      -0.914  -3.352   2.901  1.00  0.00     0.014 C 
ATOM     11  C   UNL     1      -0.689  -4.603   3.759  1.00  0.00     0.001 C 
ATOM     12  C   UNL     1      -1.387  -3.355   5.850  1.00  0.00     0.014 C 
ATOM     13  C   UNL     1      -1.571  -4.618   5.005  1.00  0.00     0.001 C 
BRANCH   9  14
ATOM     14  C   UNL     1       0.638  -1.714   3.927  1.00  0.00     0.228 C 
ATOM     15  N   UNL     1       1.287  -0.662   3.379  1.00  0.00    -0.325 N 
ATOM     16  H   UNL     1       2.125  -0.481   3.864  1.00  0.00     0.169 HD
ATOM     17  O   UNL     1       1.301  -2.426   4.691  1.00  0.00    -0.274 OA
BRANCH  15  18
ATOM     18  C   UNL     1       1.120   0.250   2.321  1.00  0.00     0.054 A 
ATOM     19  C   UNL     1       2.095   1.263   2.127  1.00  0.00     0.063 A 
ATOM     20  C   UNL     1       1.905   2.246   1.136  1.00  0.00     0.016 A 
ATOM     21  C   UNL     1       0.793   2.215   0.304  1.00  0.00     0.001 A 
ATOM     22  C   UNL     1       0.053   0.195   1.417  1.00  0.00     0.027 A 
ATOM     23  C   UNL     1      -0.121   1.179   0.434  1.00  0.00     0.002 A 
BRANCH  19  24
ATOM     24  C   UNL     1       3.278   1.507   2.995  1.00  0.00     0.257 C 
ATOM     25  N   UNL     1       4.153   0.542   3.438  1.00  0.00    -0.322 N 
ATOM     26  H   UNL     1       4.816   0.890   4.077  1.00  0.00     0.170 HD
ATOM     27  O   UNL     1       3.428   2.657   3.415  1.00  0.00    -0.269 OA
BRANCH  25  28
ATOM     28  C   UNL     1       4.309  -0.827   3.179  1.00  0.00     0.041 A 
ATOM     29  C   UNL     1       3.952  -5.111   3.098  1.00  0.00     0.044 C 
ATOM     30  C   UNL     1       4.187  -3.630   3.088  1.00  0.00    -0.051 A 
ATOM     31  C   UNL     1       3.838  -2.862   1.968  1.00  0.00     0.005 A 
ATOM     32  C   UNL     1       4.690  -2.986   4.221  1.00  0.00     0.005 A 
ATOM     33  C   UNL     1       3.907  -1.464   2.009  1.00  0.00     0.026 A 
ATOM     34  C   UNL     1       4.765  -1.594   4.257  1.00  0.00     0.026 A 
ENDBRANCH  25  28
ENDBRANCH  19  24
ENDBRANCH  15  18
ENDBRANCH   9  14
ENDBRANCH   5   8
ENDBRANCH   3   4
ENDBRANCH   2   3
ENDBRANCH   1   2
BRANCH   1  35
ATOM     35  C   UNL     1       2.591   0.575   9.053  1.00  0.00     0.002 C 
BRANCH  35  36
ATOM     36  C   UNL     1       3.432  -0.701   9.093  1.00  0.00     0.021 C 
BRANCH  36  37
ATOM     37  C   UNL     1       4.877  -0.504   8.645  1.00  0.00     0.116 C 
BRANCH  37  38
ATOM     38  N   UNL     1       5.802  -0.491   9.769  1.00  0.00    -0.352 N 
ATOM     39  C   UNL     1       7.177  -0.627   9.745  1.00  0.00     0.251 C 
ATOM     40  H   UNL     1       5.397  -0.370  10.658  1.00  0.00     0.163 HD
ATOM     41  O   UNL     1       7.835  -0.875  10.740  1.00  0.00    -0.269 OA
BRANCH  39  42
ATOM     42  C   UNL     1       7.843  -0.327   8.465  1.00  0.00     0.039 A 
ATOM     43  C   UNL     1       8.541   0.883   8.377  1.00  0.00     0.014 A 
ATOM     44  C   UNL     1       7.573  -1.092   7.335  1.00  0.00     0.014 A 
ATOM     45  C   UNL     1       8.825   1.417   7.125  1.00  0.00     0.010 A 
ATOM     46  C   UNL     1       7.807  -0.531   6.094  1.00  0.00     0.010 A 
ATOM     47  C   UNL     1       8.379   0.744   5.989  1.00  0.00    -0.014 A 
BRANCH  47  48
ATOM     48  C   UNL     1       8.382   1.335   4.655  1.00  0.00     0.031 A 
ATOM     49  C   UNL     1       9.349   0.871   3.635  1.00  0.00     0.074 A 
ATOM     50  C   UNL     1       7.444   2.251   4.326  1.00  0.00     0.049 A 
ATOM     51  N   UNL     1       9.717   1.571   2.615  1.00  0.00    -0.248 NA
ATOM     52  C   UNL     1      10.010  -0.430   3.707  1.00  0.00     0.031 C 
ATOM     53  C   UNL     1       7.112   2.722   2.984  1.00  0.00     0.029 A 
ATOM     54  N   UNL     1       6.736   3.103   5.180  1.00  0.00    -0.354 N 
ATOM     55  C   UNL     1      10.428   0.745   1.778  1.00  0.00     0.074 A 
ATOM     56  C   UNL     1      10.628  -0.477   2.522  1.00  0.00     0.031 C 
ATOM     57  C   UNL     1       6.500   3.911   3.081  1.00  0.00     0.029 A 
ATOM     58  C   UNL     1       6.545   4.310   4.476  1.00  0.00     0.049 A 
ATOM     59  H   UNL     1       6.431   2.900   6.094  1.00  0.00     0.167 HD
ATOM     60  C   UNL     1      10.668   1.117   0.489  1.00  0.00     0.037 A 
ATOM     61  C   UNL     1       7.056   5.490   4.932  1.00  0.00     0.037 A 
ATOM     62  C   UNL     1      10.138   2.444   0.204  1.00  0.00     0.049 A 
ATOM     63  C   UNL     1       8.031   6.131   3.973  1.00  0.00     0.074 A 
ATOM     64  C   UNL     1       8.937   2.869  -0.342  1.00  0.00     0.029 A 
ATOM     65  N   UNL     1      10.716   3.561   0.800  1.00  0.00    -0.354 N 
ATOM     66  N   UNL     1       8.640   5.488   3.014  1.00  0.00    -0.248 NA
ATOM     67  C   UNL     1       8.396   7.544   4.013  1.00  0.00     0.031 C 
ATOM     68  C   UNL     1       8.759   4.232  -0.009  1.00  0.00     0.029 A 
ATOM     69  C   UNL     1       9.863   4.646   0.715  1.00  0.00     0.049 A 
ATOM     70  H   UNL     1      11.605   3.577   1.221  1.00  0.00     0.167 HD
ATOM     71  C   UNL     1       9.459   6.350   2.329  1.00  0.00     0.074 A 
ATOM     72  C   UNL     1       9.260   7.629   2.985  1.00  0.00     0.031 C 
ATOM     73  C   UNL     1      10.225   5.941   1.274  1.00  0.00     0.037 A 
BRANCH  60  74
ATOM     74  C   UNL     1      11.105   0.116  -0.550  1.00  0.00     0.058 A 
ATOM     75  C   UNL     1      10.494   0.069  -1.820  1.00  0.00     0.135 A 
ATOM     76  C   UNL     1      12.081  -0.872  -0.313  1.00  0.00     0.135 A 
ATOM     77  F   UNL     1       9.585   0.977  -2.196  1.00  0.00    -0.206 F 
ATOM     78  C   UNL     1      10.761  -0.938  -2.749  1.00  0.00     0.059 A 
ATOM     79  C   UNL     1      12.331  -1.918  -1.208  1.00  0.00     0.059 A 
ATOM     80  F   UNL     1      12.819  -0.849   0.808  1.00  0.00    -0.206 F 
ATOM     81  C   UNL     1      11.657  -1.947  -2.423  1.00  0.00     0.060 A 
BRANCH  81  82
ATOM     82  S   UNL     1      11.887  -3.305  -3.589  1.00  0.00     0.124 S 
ATOM     83  O   UNL     1      10.512  -3.674  -3.913  1.00  0.00    -0.237 OA
ATOM     84  O   UNL     1      12.639  -2.660  -4.659  1.00  0.00    -0.237 OA
ATOM     85  O   UNL     1      12.624  -4.298  -2.812  1.00  0.00    -0.744 OA
ENDBRANCH  81  82
ENDBRANCH  60  74
BRANCH  61  86
ATOM     86  C   UNL     1       7.093   5.582   6.417  1.00  0.00     0.058 A 
ATOM     87  C   UNL     1       5.861   5.636   7.099  1.00  0.00     0.135 A 
ATOM     88  C   UNL     1       8.219   5.187   7.150  1.00  0.00     0.135 A 
ATOM     89  F   UNL     1       4.753   6.032   6.451  1.00  0.00    -0.206 F 
ATOM     90  C   UNL     1       5.720   5.163   8.400  1.00  0.00     0.059 A 
ATOM     91  C   UNL     1       8.102   4.718   8.463  1.00  0.00     0.059 A 
ATOM     92  F   UNL     1       9.421   5.119   6.559  1.00  0.00    -0.206 F 
ATOM     93  C   UNL     1       6.838   4.646   9.050  1.00  0.00     0.060 A 
BRANCH  93  94
ATOM     94  S   UNL     1       6.575   3.737  10.593  1.00  0.00     0.124 S 
ATOM     95  O   UNL     1       6.003   4.764  11.457  1.00  0.00    -0.237 OA
ATOM     96  O   UNL     1       5.652   2.684  10.172  1.00  0.00    -0.237 OA
ATOM     97  O   UNL     1       7.915   3.287  10.950  1.00  0.00    -0.744 OA
ENDBRANCH  93  94
ENDBRANCH  61  86
BRANCH  73  98
ATOM     98  C   UNL     1      11.296   6.755   0.588  1.00  0.00     0.058 A 
ATOM     99  C   UNL     1      12.072   7.733   1.233  1.00  0.00     0.135 A 
ATOM    100  C   UNL     1      11.674   6.463  -0.747  1.00  0.00     0.135 A 
ATOM    101  F   UNL     1      11.890   8.022   2.530  1.00  0.00    -0.206 F 
ATOM    102  C   UNL     1      13.099   8.423   0.585  1.00  0.00     0.059 A 
ATOM    103  C   UNL     1      12.729   7.099  -1.394  1.00  0.00     0.059 A 
ATOM    104  F   UNL     1      11.033   5.531  -1.469  1.00  0.00    -0.206 F 
ATOM    105  C   UNL     1      13.421   8.099  -0.729  1.00  0.00     0.060 A 
BRANCH 105 106
ATOM    106  S   UNL     1      14.787   8.935  -1.555  1.00  0.00     0.124 S 
ATOM    107  O   UNL     1      14.096  10.038  -2.215  1.00  0.00    -0.237 OA
ATOM    108  O   UNL     1      15.659   9.312  -0.446  1.00  0.00    -0.237 OA
ATOM    109  O   UNL     1      15.322   7.903  -2.438  1.00  0.00    -0.744 OA
ENDBRANCH 105 106
ENDBRANCH  73  98
ENDBRANCH  47  48
ENDBRANCH  39  42
ENDBRANCH  37  38
ENDBRANCH  36  37
ENDBRANCH  35  36
ENDBRANCH   1  35
TORSDOF 20
