REMARK SMILES O=C(CNc1nc(-c2ccccc2)c(-c2ccccc2)s1)NCCCCCCNC(=O)c1ccc(-c2c3nc(c(-c4c(F)cc(S(=O)(=O)[O-])cc4F)c4ccc([nH]4)c(-c4c(F)cc(S(=O)(=O)[O-])cc4F)c4nc(c(-c5c(F)cc(S(=O)(=O)[O-])cc5F)c5ccc2[nH]5)C=C4)C=C3)cc1
REMARK SMILES IDX 25 1 24 2 23 3 22 4 1 5 2 6 3 8 4 9 5 11 6 12 21 13 7 14
REMARK SMILES IDX 14 15 8 16 9 17 13 18 10 19 12 20 11 21 15 22 16 23 20 24
REMARK SMILES IDX 17 25 19 26 18 27 26 28 27 29 28 30 29 31 30 32 31 34 32 35
REMARK SMILES IDX 33 36 97 37 34 38 96 39 35 40 36 41 37 42 90 43 38 44 95 45
REMARK SMILES IDX 89 46 91 47 39 48 94 49 88 50 87 51 40 53 74 54 53 55 73 56
REMARK SMILES IDX 54 57 57 58 72 59 92 60 55 61 56 62 71 64 93 65 58 66 41 67
REMARK SMILES IDX 42 68 51 69 43 70 44 71 50 72 52 73 45 74 46 75 47 76 48 77
REMARK SMILES IDX 49 78 75 79 76 80 85 81 77 82 78 83 84 84 86 85 79 86 80 87
REMARK SMILES IDX 81 88 82 89 83 90 59 91 60 92 69 93 61 94 62 95 68 96 70 97
REMARK SMILES IDX 63 98 64 99 65 100 66 101 67 102
REMARK H PARENT 22 7 4 10 29 33 91 52 57 63
REMARK Flexibility Score: inf
ROOT
ATOM      1  C   UNL     1       4.202  -1.012   3.566  1.00  0.00     0.002 C 
ENDROOT
BRANCH   1   2
ATOM      2  C   UNL     1       2.704  -1.084   3.235  1.00  0.00     0.021 C 
BRANCH   2   3
ATOM      3  C   UNL     1       2.185   0.058   2.361  1.00  0.00     0.116 C 
BRANCH   3   4
ATOM      4  N   UNL     1       2.839   0.082   1.070  1.00  0.00    -0.355 N 
ATOM      5  O   UNL     1       0.994  -0.404  -0.223  1.00  0.00    -0.273 OA
ATOM      6  C   UNL     1       2.190  -0.151  -0.129  1.00  0.00     0.239 C 
ATOM      7  H   UNL     1       3.804   0.277   1.043  1.00  0.00     0.163 HD
BRANCH   6   8
ATOM      8  C   UNL     1       3.132  -0.105  -1.343  1.00  0.00     0.215 C 
BRANCH   8   9
ATOM      9  N   UNL     1       4.088   0.982  -1.175  1.00  0.00    -0.352 N 
ATOM     10  H   UNL     1       3.771   1.852  -0.842  1.00  0.00     0.163 HD
BRANCH   9  11
ATOM     11  C   UNL     1       5.392   0.827  -1.462  1.00  0.00     0.184 A 
ATOM     12  N   UNL     1       5.910  -0.133  -2.189  1.00  0.00    -0.220 NA
ATOM     13  S   UNL     1       6.525   1.943  -0.806  1.00  0.00    -0.096 S 
ATOM     14  C   UNL     1       7.292  -0.019  -2.211  1.00  0.00     0.091 A 
ATOM     15  C   UNL     1       7.815   1.027  -1.466  1.00  0.00     0.064 A 
BRANCH  14  16
ATOM     16  C   UNL     1       8.114  -0.935  -2.986  1.00  0.00     0.002 A 
ATOM     17  C   UNL     1       9.062  -1.754  -2.360  1.00  0.00     0.010 A 
ATOM     18  C   UNL     1       8.007  -0.947  -4.381  1.00  0.00     0.010 A 
ATOM     19  C   UNL     1       9.918  -2.549  -3.125  1.00  0.00     0.001 A 
ATOM     20  C   UNL     1       8.868  -1.739  -5.145  1.00  0.00     0.001 A 
ATOM     21  C   UNL     1       9.827  -2.534  -4.516  1.00  0.00     0.000 A 
ENDBRANCH  14  16
BRANCH  15  22
ATOM     22  C   UNL     1       9.197   1.434  -1.221  1.00  0.00    -0.006 A 
ATOM     23  C   UNL     1       9.726   1.401   0.077  1.00  0.00     0.009 A 
ATOM     24  C   UNL     1      10.028   1.810  -2.285  1.00  0.00     0.009 A 
ATOM     25  C   UNL     1      11.061   1.737   0.307  1.00  0.00     0.001 A 
ATOM     26  C   UNL     1      11.363   2.147  -2.054  1.00  0.00     0.001 A 
ATOM     27  C   UNL     1      11.878   2.109  -0.759  1.00  0.00     0.000 A 
ENDBRANCH  15  22
ENDBRANCH   9  11
ENDBRANCH   8   9
ENDBRANCH   6   8
ENDBRANCH   3   4
ENDBRANCH   2   3
ENDBRANCH   1   2
BRANCH   1  28
ATOM     28  C   UNL     1       4.655   0.250   4.308  1.00  0.00     0.002 C 
BRANCH  28  29
ATOM     29  C   UNL     1       3.962   0.507   5.647  1.00  0.00     0.021 C 
BRANCH  29  30
ATOM     30  C   UNL     1       4.113  -0.606   6.679  1.00  0.00     0.116 C 
BRANCH  30  31
ATOM     31  N   UNL     1       5.497  -0.804   7.087  1.00  0.00    -0.352 N 
ATOM     32  C   UNL     1       6.041  -0.831   8.348  1.00  0.00     0.251 C 
ATOM     33  H   UNL     1       6.136  -0.939   6.350  1.00  0.00     0.163 HD
ATOM     34  O   UNL     1       7.263  -0.837   8.485  1.00  0.00    -0.269 OA
BRANCH  32  35
ATOM     35  C   UNL     1       5.161  -0.829   9.538  1.00  0.00     0.039 A 
ATOM     36  C   UNL     1       5.482   0.001  10.617  1.00  0.00     0.014 A 
ATOM     37  C   UNL     1       4.026  -1.641   9.596  1.00  0.00     0.014 A 
ATOM     38  C   UNL     1       4.628   0.065  11.721  1.00  0.00     0.010 A 
ATOM     39  C   UNL     1       3.137  -1.518  10.662  1.00  0.00     0.010 A 
ATOM     40  C   UNL     1       3.428  -0.665  11.737  1.00  0.00    -0.014 A 
BRANCH  40  41
ATOM     41  C   UNL     1       2.463  -0.541  12.863  1.00  0.00     0.031 A 
ATOM     42  C   UNL     1       2.137  -1.736  13.719  1.00  0.00     0.074 A 
ATOM     43  C   UNL     1       1.834   0.632  13.076  1.00  0.00     0.049 A 
ATOM     44  N   UNL     1       1.285  -1.837  14.707  1.00  0.00    -0.248 NA
ATOM     45  C   UNL     1       2.842  -2.989  13.407  1.00  0.00     0.031 C 
ATOM     46  C   UNL     1       2.032   1.852  12.290  1.00  0.00     0.029 A 
ATOM     47  N   UNL     1       0.895   0.991  14.011  1.00  0.00    -0.354 N 
ATOM     48  C   UNL     1       1.342  -3.162  15.125  1.00  0.00     0.074 A 
ATOM     49  C   UNL     1       2.270  -3.840  14.246  1.00  0.00     0.031 C 
ATOM     50  C   UNL     1       1.264   2.831  12.795  1.00  0.00     0.029 A 
ATOM     51  C   UNL     1       0.485   2.300  13.910  1.00  0.00     0.049 A 
ATOM     52  H   UNL     1       0.548   0.369  14.691  1.00  0.00     0.167 HD
ATOM     53  C   UNL     1       0.698  -3.755  16.160  1.00  0.00     0.037 A 
ATOM     54  C   UNL     1      -0.420   2.993  14.628  1.00  0.00     0.037 A 
ATOM     55  C   UNL     1      -0.214  -3.069  17.040  1.00  0.00     0.049 A 
ATOM     56  C   UNL     1      -1.143   2.306  15.756  1.00  0.00     0.074 A 
ATOM     57  C   UNL     1      -0.873  -3.565  18.151  1.00  0.00     0.029 A 
ATOM     58  N   UNL     1      -0.605  -1.744  16.903  1.00  0.00    -0.354 N 
ATOM     59  N   UNL     1      -1.024   1.071  16.182  1.00  0.00    -0.248 NA
ATOM     60  C   UNL     1      -2.122   3.108  16.503  1.00  0.00     0.031 C 
ATOM     61  C   UNL     1      -1.706  -2.558  18.651  1.00  0.00     0.029 A 
ATOM     62  C   UNL     1      -1.519  -1.415  17.891  1.00  0.00     0.049 A 
ATOM     63  H   UNL     1      -0.280  -1.129  16.206  1.00  0.00     0.167 HD
ATOM     64  C   UNL     1      -1.885   0.959  17.268  1.00  0.00     0.074 A 
ATOM     65  C   UNL     1      -2.512   2.253  17.439  1.00  0.00     0.031 C 
ATOM     66  C   UNL     1      -2.132  -0.119  18.055  1.00  0.00     0.037 A 
BRANCH  53  67
ATOM     67  C   UNL     1       0.953  -5.221  16.392  1.00  0.00     0.058 A 
ATOM     68  C   UNL     1       2.200  -5.698  16.829  1.00  0.00     0.135 A 
ATOM     69  C   UNL     1      -0.071  -6.163  16.194  1.00  0.00     0.135 A 
ATOM     70  F   UNL     1       3.219  -4.846  17.024  1.00  0.00    -0.206 F 
ATOM     71  C   UNL     1       2.436  -7.055  17.021  1.00  0.00     0.059 A 
ATOM     72  C   UNL     1       0.133  -7.523  16.413  1.00  0.00     0.059 A 
ATOM     73  F   UNL     1      -1.284  -5.767  15.780  1.00  0.00    -0.206 F 
ATOM     74  C   UNL     1       1.396  -7.961  16.807  1.00  0.00     0.060 A 
BRANCH  74  75
ATOM     75  S   UNL     1       1.724  -9.720  17.046  1.00  0.00     0.124 S 
ATOM     76  O   UNL     1       2.567 -10.018  15.891  1.00  0.00    -0.237 OA
ATOM     77  O   UNL     1       2.395  -9.739  18.341  1.00  0.00    -0.237 OA
ATOM     78  O   UNL     1       0.394 -10.321  17.022  1.00  0.00    -0.744 OA
ENDBRANCH  74  75
ENDBRANCH  53  67
BRANCH  54  79
ATOM     79  C   UNL     1      -0.674   4.428  14.322  1.00  0.00     0.058 A 
ATOM     80  C   UNL     1      -0.280   5.434  15.217  1.00  0.00     0.135 A 
ATOM     81  C   UNL     1      -1.304   4.824  13.132  1.00  0.00     0.135 A 
ATOM     82  F   UNL     1       0.320   5.107  16.372  1.00  0.00    -0.206 F 
ATOM     83  C   UNL     1      -0.515   6.779  14.953  1.00  0.00     0.059 A 
ATOM     84  C   UNL     1      -1.526   6.165  12.833  1.00  0.00     0.059 A 
ATOM     85  F   UNL     1      -1.688   3.903  12.235  1.00  0.00    -0.206 F 
ATOM     86  C   UNL     1      -1.136   7.135  13.755  1.00  0.00     0.060 A 
BRANCH  86  87
ATOM     87  S   UNL     1      -1.393   8.888  13.402  1.00  0.00     0.124 S 
ATOM     88  O   UNL     1      -2.449   9.226  14.349  1.00  0.00    -0.237 OA
ATOM     89  O   UNL     1      -0.077   9.452  13.684  1.00  0.00    -0.237 OA
ATOM     90  O   UNL     1      -1.781   8.893  11.995  1.00  0.00    -0.744 OA
ENDBRANCH  86  87
ENDBRANCH  54  79
BRANCH  66  91
ATOM     91  C   UNL     1      -3.090   0.063  19.202  1.00  0.00     0.058 A 
ATOM     92  C   UNL     1      -4.470   0.223  18.998  1.00  0.00     0.135 A 
ATOM     93  C   UNL     1      -2.625   0.026  20.527  1.00  0.00     0.135 A 
ATOM     94  F   UNL     1      -4.969   0.274  17.753  1.00  0.00    -0.206 F 
ATOM     95  C   UNL     1      -5.351   0.365  20.067  1.00  0.00     0.059 A 
ATOM     96  C   UNL     1      -3.491   0.134  21.610  1.00  0.00     0.059 A 
ATOM     97  F   UNL     1      -1.316  -0.135  20.780  1.00  0.00    -0.206 F 
ATOM     98  C   UNL     1      -4.851   0.316  21.370  1.00  0.00     0.060 A 
BRANCH  98  99
ATOM     99  S   UNL     1      -6.010   0.465  22.746  1.00  0.00     0.124 S 
ATOM    100  O   UNL     1      -6.362   1.880  22.682  1.00  0.00    -0.237 OA
ATOM    101  O   UNL     1      -7.065  -0.469  22.368  1.00  0.00    -0.237 OA
ATOM    102  O   UNL     1      -5.215   0.069  23.905  1.00  0.00    -0.744 OA
ENDBRANCH  98  99
ENDBRANCH  66  91
ENDBRANCH  40  41
ENDBRANCH  32  35
ENDBRANCH  30  31
ENDBRANCH  29  30
ENDBRANCH  28  29
ENDBRANCH   1  28
TORSDOF 20
