REMARK SMILES COc1ccc(C(=O)c2ccccc2)cc1[C@@H](C)C(=O)NCCCCCCNC(=O)c1ccc(-c2c3nc(c(-c4c(F)cc(S(=O)(=O)[O-])cc4F)c4ccc([nH]4)c(-c4c(F)cc(S(=O)(=O)[O-])cc4F)c4nc(c(-c5c(F)cc(S(=O)(=O)[O-])cc5F)c5ccc2[nH]5)C=C4)C=C3)cc1
REMARK SMILES IDX 24 1 23 2 22 3 21 4 19 5 20 6 17 8 18 9 16 10 3 11 4 12 5 13
REMARK SMILES IDX 15 14 6 15 2 16 1 17 7 18 8 19 9 20 10 21 14 22 11 23 13 24
REMARK SMILES IDX 12 25 25 26 26 27 27 28 28 29 29 30 30 32 31 33 32 34 96 35
REMARK SMILES IDX 33 36 95 37 34 38 35 39 36 40 89 41 37 42 94 43 88 44 90 45
REMARK SMILES IDX 38 46 93 47 87 48 86 49 39 51 73 52 52 53 72 54 53 55 56 56
REMARK SMILES IDX 71 57 91 58 54 59 55 60 70 62 92 63 57 64 40 65 41 66 50 67
REMARK SMILES IDX 42 68 43 69 49 70 51 71 44 72 45 73 46 74 47 75 48 76 74 77
REMARK SMILES IDX 75 78 84 79 76 80 77 81 83 82 85 83 78 84 79 85 80 86 81 87
REMARK SMILES IDX 82 88 58 89 59 90 68 91 60 92 61 93 67 94 69 95 62 96 63 97
REMARK SMILES IDX 64 98 65 99 66 100
REMARK H PARENT 21 7 28 31 90 50 56 61
REMARK Flexibility Score: inf
ROOT
ATOM      1  C   UNL     1       4.907  -0.147  -6.295  1.00  0.00     0.002 C 
ENDROOT
BRANCH   1   2
ATOM      2  C   UNL     1       4.453  -1.136  -5.215  1.00  0.00     0.021 C 
BRANCH   2   3
ATOM      3  C   UNL     1       5.205  -1.049  -3.882  1.00  0.00     0.116 C 
BRANCH   3   4
ATOM      4  N   UNL     1       4.665  -0.014  -3.021  1.00  0.00    -0.356 N 
ATOM      5  C   UNL     1       3.898  -0.038  -1.899  1.00  0.00     0.227 C 
ATOM      6  O   UNL     1       3.563   1.071  -1.459  1.00  0.00    -0.274 OA
ATOM      7  H   UNL     1       4.905   0.897  -3.308  1.00  0.00     0.163 HD
BRANCH   5   8
ATOM      8  C   UNL     1       3.420  -1.314  -1.181  1.00  0.00     0.109 C 
ATOM      9  C   UNL     1       4.498  -2.345  -0.849  1.00  0.00     0.023 C 
BRANCH   8  10
ATOM     10  C   UNL     1       2.149  -1.901  -1.781  1.00  0.00     0.007 A 
ATOM     11  C   UNL     1       0.891  -1.698  -1.192  1.00  0.00     0.122 A 
ATOM     12  C   UNL     1      -0.270  -2.233  -1.757  1.00  0.00     0.047 A 
ATOM     13  C   UNL     1      -0.197  -2.966  -2.940  1.00  0.00     0.016 A 
ATOM     14  C   UNL     1       2.196  -2.661  -2.964  1.00  0.00     0.020 A 
ATOM     15  C   UNL     1       1.040  -3.196  -3.550  1.00  0.00     0.023 A 
BRANCH  11  16
ATOM     16  O   UNL     1       0.763  -1.065   0.015  1.00  0.00    -0.496 OA
ATOM     17  C   UNL     1       0.557   0.339  -0.150  1.00  0.00     0.278 C 
ENDBRANCH  11  16
BRANCH  15  18
ATOM     18  C   UNL     1       1.053  -3.942  -4.841  1.00  0.00     0.193 C 
ATOM     19  O   UNL     1      -0.011  -4.129  -5.428  1.00  0.00    -0.289 OA
BRANCH  18  20
ATOM     20  C   UNL     1       2.297  -4.411  -5.498  1.00  0.00     0.022 A 
ATOM     21  C   UNL     1       2.388  -4.245  -6.883  1.00  0.00     0.012 A 
ATOM     22  C   UNL     1       3.334  -5.048  -4.806  1.00  0.00     0.012 A 
ATOM     23  C   UNL     1       3.517  -4.691  -7.565  1.00  0.00     0.001 A 
ATOM     24  C   UNL     1       4.477  -5.467  -5.493  1.00  0.00     0.001 A 
ATOM     25  C   UNL     1       4.568  -5.289  -6.872  1.00  0.00     0.000 A 
ENDBRANCH  18  20
ENDBRANCH  15  18
ENDBRANCH   8  10
ENDBRANCH   5   8
ENDBRANCH   3   4
ENDBRANCH   2   3
ENDBRANCH   1   2
BRANCH   1  26
ATOM     26  C   UNL     1       6.346  -0.313  -6.806  1.00  0.00     0.002 C 
BRANCH  26  27
ATOM     27  C   UNL     1       6.755  -1.722  -7.256  1.00  0.00     0.021 C 
BRANCH  27  28
ATOM     28  C   UNL     1       6.012  -2.276  -8.473  1.00  0.00     0.116 C 
BRANCH  28  29
ATOM     29  N   UNL     1       6.468  -1.696  -9.726  1.00  0.00    -0.352 N 
ATOM     30  C   UNL     1       6.827  -2.319 -10.901  1.00  0.00     0.251 C 
ATOM     31  H   UNL     1       6.530  -0.713  -9.735  1.00  0.00     0.163 HD
ATOM     32  O   UNL     1       7.334  -1.658 -11.803  1.00  0.00    -0.269 OA
BRANCH  30  33
ATOM     33  C   UNL     1       6.630  -3.780 -11.087  1.00  0.00     0.039 A 
ATOM     34  C   UNL     1       7.669  -4.543 -11.627  1.00  0.00     0.014 A 
ATOM     35  C   UNL     1       5.413  -4.397 -10.793  1.00  0.00     0.014 A 
ATOM     36  C   UNL     1       7.506  -5.923 -11.814  1.00  0.00     0.010 A 
ATOM     37  C   UNL     1       5.273  -5.787 -10.921  1.00  0.00     0.010 A 
ATOM     38  C   UNL     1       6.317  -6.572 -11.435  1.00  0.00    -0.014 A 
BRANCH  38  39
ATOM     39  C   UNL     1       6.176  -8.056 -11.574  1.00  0.00     0.031 A 
ATOM     40  C   UNL     1       5.140  -8.663 -12.490  1.00  0.00     0.074 A 
ATOM     41  C   UNL     1       6.971  -8.880 -10.858  1.00  0.00     0.049 A 
ATOM     42  N   UNL     1       4.888  -9.928 -12.729  1.00  0.00    -0.248 NA
ATOM     43  C   UNL     1       4.263  -7.734 -13.217  1.00  0.00     0.031 C 
ATOM     44  C   UNL     1       7.989  -8.451  -9.897  1.00  0.00     0.029 A 
ATOM     45  N   UNL     1       7.050 -10.254 -10.829  1.00  0.00    -0.354 N 
ATOM     46  C   UNL     1       3.823  -9.947 -13.623  1.00  0.00     0.074 A 
ATOM     47  C   UNL     1       3.445  -8.567 -13.847  1.00  0.00     0.031 C 
ATOM     48  C   UNL     1       8.607  -9.534  -9.397  1.00  0.00     0.029 A 
ATOM     49  C   UNL     1       8.013 -10.738  -9.973  1.00  0.00     0.049 A 
ATOM     50  H   UNL     1       6.470 -10.837 -11.370  1.00  0.00     0.167 HD
ATOM     51  C   UNL     1       3.226 -11.006 -14.223  1.00  0.00     0.037 A 
ATOM     52  C   UNL     1       8.382 -12.001  -9.679  1.00  0.00     0.037 A 
ATOM     53  C   UNL     1       3.610 -12.383 -14.036  1.00  0.00     0.049 A 
ATOM     54  C   UNL     1       7.708 -13.162 -10.360  1.00  0.00     0.074 A 
ATOM     55  C   UNL     1       3.097 -13.510 -14.658  1.00  0.00     0.029 A 
ATOM     56  N   UNL     1       4.595 -12.825 -13.167  1.00  0.00    -0.354 N 
ATOM     57  N   UNL     1       6.749 -13.150 -11.253  1.00  0.00    -0.248 NA
ATOM     58  C   UNL     1       8.173 -14.510  -9.997  1.00  0.00     0.031 C 
ATOM     59  C   UNL     1       3.744 -14.636 -14.137  1.00  0.00     0.029 A 
ATOM     60  C   UNL     1       4.691 -14.207 -13.223  1.00  0.00     0.049 A 
ATOM     61  H   UNL     1       5.145 -12.243 -12.595  1.00  0.00     0.167 HD
ATOM     62  C   UNL     1       6.516 -14.483 -11.578  1.00  0.00     0.074 A 
ATOM     63  C   UNL     1       7.439 -15.275 -10.794  1.00  0.00     0.031 C 
ATOM     64  C   UNL     1       5.617 -14.998 -12.451  1.00  0.00     0.037 A 
BRANCH  51  65
ATOM     65  C   UNL     1       2.086 -10.723 -15.164  1.00  0.00     0.058 A 
ATOM     66  C   UNL     1       2.302 -10.152 -16.428  1.00  0.00     0.135 A 
ATOM     67  C   UNL     1       0.771 -11.079 -14.822  1.00  0.00     0.135 A 
ATOM     68  F   UNL     1       3.539  -9.786 -16.802  1.00  0.00    -0.206 F 
ATOM     69  C   UNL     1       1.252  -9.915 -17.309  1.00  0.00     0.059 A 
ATOM     70  C   UNL     1      -0.292 -10.875 -15.698  1.00  0.00     0.059 A 
ATOM     71  F   UNL     1       0.509 -11.635 -13.629  1.00  0.00    -0.206 F 
ATOM     72  C   UNL     1      -0.043 -10.278 -16.934  1.00  0.00     0.060 A 
BRANCH  72  73
ATOM     73  S   UNL     1      -1.395  -9.968 -18.090  1.00  0.00     0.124 S 
ATOM     74  O   UNL     1      -1.554  -8.522 -17.967  1.00  0.00    -0.237 OA
ATOM     75  O   UNL     1      -0.840 -10.439 -19.355  1.00  0.00    -0.237 OA
ATOM     76  O   UNL     1      -2.491 -10.768 -17.553  1.00  0.00    -0.744 OA
ENDBRANCH  72  73
ENDBRANCH  51  65
BRANCH  52  77
ATOM     77  C   UNL     1       9.472 -12.242  -8.695  1.00  0.00     0.058 A 
ATOM     78  C   UNL     1      10.728 -12.709  -9.108  1.00  0.00     0.135 A 
ATOM     79  C   UNL     1       9.277 -12.009  -7.325  1.00  0.00     0.135 A 
ATOM     80  F   UNL     1      10.958 -12.956 -10.406  1.00  0.00    -0.206 F 
ATOM     81  C   UNL     1      11.750 -12.952  -8.196  1.00  0.00     0.059 A 
ATOM     82  C   UNL     1      10.291 -12.223  -6.397  1.00  0.00     0.059 A 
ATOM     83  F   UNL     1       8.097 -11.548  -6.882  1.00  0.00    -0.206 F 
ATOM     84  C   UNL     1      11.522 -12.704  -6.842  1.00  0.00     0.060 A 
BRANCH  84  85
ATOM     85  S   UNL     1      12.870 -12.969  -5.670  1.00  0.00     0.124 S 
ATOM     86  O   UNL     1      12.885 -14.423  -5.564  1.00  0.00    -0.237 OA
ATOM     87  O   UNL     1      14.004 -12.366  -6.363  1.00  0.00    -0.237 OA
ATOM     88  O   UNL     1      12.422 -12.252  -4.479  1.00  0.00    -0.744 OA
ENDBRANCH  84  85
ENDBRANCH  52  77
BRANCH  64  89
ATOM     89  C   UNL     1       5.601 -16.491 -12.643  1.00  0.00     0.058 A 
ATOM     90  C   UNL     1       5.076 -17.356 -11.670  1.00  0.00     0.135 A 
ATOM     91  C   UNL     1       6.071 -17.060 -13.838  1.00  0.00     0.135 A 
ATOM     92  F   UNL     1       4.620 -16.866 -10.506  1.00  0.00    -0.206 F 
ATOM     93  C   UNL     1       5.035 -18.734 -11.867  1.00  0.00     0.059 A 
ATOM     94  C   UNL     1       6.018 -18.432 -14.066  1.00  0.00     0.059 A 
ATOM     95  F   UNL     1       6.577 -16.279 -14.806  1.00  0.00    -0.206 F 
ATOM     96  C   UNL     1       5.508 -19.263 -13.070  1.00  0.00     0.060 A 
BRANCH  96  97
ATOM     97  S   UNL     1       5.416 -21.048 -13.329  1.00  0.00     0.124 S 
ATOM     98  O   UNL     1       6.513 -21.524 -12.492  1.00  0.00    -0.237 OA
ATOM     99  O   UNL     1       4.073 -21.367 -12.855  1.00  0.00    -0.237 OA
ATOM    100  O   UNL     1       5.616 -21.193 -14.768  1.00  0.00    -0.744 OA
ENDBRANCH  96  97
ENDBRANCH  64  89
ENDBRANCH  38  39
ENDBRANCH  30  33
ENDBRANCH  28  29
ENDBRANCH  27  28
ENDBRANCH  26  27
ENDBRANCH   1  26
TORSDOF 20
