REMARK SMILES N#CCC[NH+]1CCN(c2cc(C(=O)NCCCCCCNC(=O)c3ccc(-c4c5nc(c(-c6c(F)cc(S(=O)(=O)[O-])cc6F)c6ccc([nH]6)c(-c6c(F)cc(S(=O)(=O)[O-])cc6F)c6nc(c(-c7c(F)cc(S(=O)(=O)[O-])cc7F)c7ccc4[nH]7)C=C6)C=C5)cc3)c3cc(NS(=O)(=O)c4ccccc4Cl)ccc3n2)CC1
REMARK SMILES IDX 17 1 16 2 15 3 14 4 12 5 13 6 11 8 9 9 10 10 107 11 106 12
REMARK SMILES IDX 90 13 105 14 91 15 104 16 92 17 8 18 5 19 6 20 109 21 7 23
REMARK SMILES IDX 108 24 4 25 3 26 2 27 1 28 93 29 94 31 95 32 96 33 97 34
REMARK SMILES IDX 98 35 102 36 99 37 101 38 103 39 100 40 18 41 19 42 20 43
REMARK SMILES IDX 21 44 22 45 23 47 24 48 25 49 89 50 26 51 88 52 27 53 28 54
REMARK SMILES IDX 29 55 82 56 30 57 87 58 81 59 83 60 31 61 86 62 80 63 79 64
REMARK SMILES IDX 32 66 66 67 45 68 65 69 46 70 49 71 64 72 84 73 47 74 48 75
REMARK SMILES IDX 63 77 85 78 50 79 33 80 34 81 43 82 35 83 36 84 42 85 44 86
REMARK SMILES IDX 37 87 38 88 39 89 40 90 41 91 67 92 68 93 77 94 69 95 70 96
REMARK SMILES IDX 76 97 78 98 71 99 72 100 73 101 74 102 75 103 51 104 52 105
REMARK SMILES IDX 61 106 53 107 54 108 60 109 62 110 55 111 56 112 57 113
REMARK SMILES IDX 58 114 59 115
REMARK H PARENT 14 7 5 22 93 30 21 46 83 65 49 76
REMARK Flexibility Score: inf
ROOT
ATOM      1  C   UNL     1       2.771 -11.742  -2.142  1.00  0.00     0.002 C 
ENDROOT
BRANCH   1   2
ATOM      2  C   UNL     1       2.758 -10.941  -0.809  1.00  0.00     0.021 C 
BRANCH   2   3
ATOM      3  C   UNL     1       2.298  -9.429  -0.811  1.00  0.00     0.116 C 
BRANCH   3   4
ATOM      4  N   UNL     1       3.403  -8.445  -0.919  1.00  0.00    -0.352 N 
ATOM      5  C   UNL     1       3.483  -7.087  -0.684  1.00  0.00     0.252 C 
ATOM      6  O   UNL     1       3.592  -6.350  -1.669  1.00  0.00    -0.269 OA
ATOM      7  H   UNL     1       4.252  -8.842  -1.219  1.00  0.00     0.163 HD
BRANCH   5   8
ATOM      8  C   UNL     1       3.849  -6.512   0.660  1.00  0.00     0.052 A 
ATOM      9  C   UNL     1       4.650  -4.562   1.846  1.00  0.00     0.130 A 
ATOM     10  C   UNL     1       4.034  -5.138   0.733  1.00  0.00     0.061 A 
ATOM     11  N   UNL     1       5.327  -5.324   2.733  1.00  0.00    -0.231 NA
ATOM     12  C   UNL     1       5.276  -6.670   2.587  1.00  0.00     0.074 A 
ATOM     13  C   UNL     1       4.384  -7.269   1.693  1.00  0.00     0.015 A 
ATOM     14  C   UNL     1       6.189  -7.551   3.175  1.00  0.00     0.031 A 
ATOM     15  C   UNL     1       4.271  -8.631   1.678  1.00  0.00     0.038 A 
ATOM     16  C   UNL     1       6.377  -8.829   2.593  1.00  0.00     0.029 A 
ATOM     17  C   UNL     1       5.476  -9.238   1.625  1.00  0.00     0.050 A 
BRANCH   9  18
ATOM     18  N   UNL     1       4.484  -3.208   2.073  1.00  0.00    -0.345 N 
ATOM     19  N   UNL     1       3.923  -0.413   2.659  1.00  0.00    -0.331 N 
ATOM     20  C   UNL     1       2.842  -1.407   2.589  1.00  0.00     0.284 C 
ATOM     21  C   UNL     1       5.095  -1.093   3.256  1.00  0.00     0.284 C 
ATOM     22  H   UNL     1       3.578   0.347   3.245  1.00  0.00     0.348 HD
ATOM     23  C   UNL     1       3.168  -2.653   1.756  1.00  0.00     0.179 C 
ATOM     24  C   UNL     1       5.590  -2.344   2.488  1.00  0.00     0.179 C 
BRANCH  19  25
ATOM     25  C   UNL     1       4.238   0.391   1.459  1.00  0.00     0.277 C 
BRANCH  25  26
ATOM     26  C   UNL     1       3.722   0.075   0.030  1.00  0.00     0.181 C 
BRANCH  26  27
ATOM     27  C   UNL     1       2.202   0.075   0.030  1.00  0.00     0.068 C 
ATOM     28  N   UNL     1       0.941   0.075   0.030  1.00  0.00    -0.198 NA
ENDBRANCH  26  27
ENDBRANCH  25  26
ENDBRANCH  19  25
ENDBRANCH   9  18
BRANCH  17  29
ATOM     29  N   UNL     1       5.638 -10.164   0.525  1.00  0.00    -0.280 N 
ATOM     30  H   UNL     1       5.001 -10.904   0.399  1.00  0.00     0.180 HD
BRANCH  29  31
ATOM     31  S   UNL     1       6.940  -9.958  -0.542  1.00  0.00     0.263 S 
ATOM     32  O   UNL     1       7.779  -8.912   0.005  1.00  0.00    -0.201 OA
ATOM     33  O   UNL     1       7.439 -11.328  -0.573  1.00  0.00    -0.201 OA
BRANCH  31  34
ATOM     34  C   UNL     1       6.859  -9.548  -2.322  1.00  0.00     0.106 A 
ATOM     35  C   UNL     1       8.193  -9.645  -2.809  1.00  0.00     0.024 A 
ATOM     36  C   UNL     1       5.931  -9.168  -3.306  1.00  0.00     0.061 A 
ATOM     37  C   UNL     1       8.589  -9.353  -4.118  1.00  0.00     0.002 A 
ATOM     38  C   UNL     1       6.353  -8.808  -4.620  1.00  0.00     0.022 A 
ATOM     39  Cl  UNL     1       4.229  -9.190  -3.384  1.00  0.00    -0.083 Cl
ATOM     40  C   UNL     1       7.665  -8.901  -5.029  1.00  0.00     0.002 A 
ENDBRANCH  31  34
ENDBRANCH  29  31
ENDBRANCH  17  29
ENDBRANCH   5   8
ENDBRANCH   3   4
ENDBRANCH   2   3
ENDBRANCH   1   2
BRANCH   1  41
ATOM     41  C   UNL     1       4.115 -12.348  -2.636  1.00  0.00     0.002 C 
BRANCH  41  42
ATOM     42  C   UNL     1       4.811 -13.417  -1.800  1.00  0.00     0.021 C 
BRANCH  42  43
ATOM     43  C   UNL     1       3.986 -14.654  -1.527  1.00  0.00     0.116 C 
BRANCH  43  44
ATOM     44  N   UNL     1       3.766 -15.488  -2.698  1.00  0.00    -0.352 N 
ATOM     45  C   UNL     1       3.621 -16.860  -2.710  1.00  0.00     0.251 C 
ATOM     46  H   UNL     1       3.715 -15.029  -3.567  1.00  0.00     0.163 HD
ATOM     47  O   UNL     1       3.575 -17.484  -3.761  1.00  0.00    -0.269 OA
BRANCH  45  48
ATOM     48  C   UNL     1       3.547 -17.562  -1.409  1.00  0.00     0.039 A 
ATOM     49  C   UNL     1       4.370 -18.663  -1.166  1.00  0.00     0.014 A 
ATOM     50  C   UNL     1       2.693 -17.081  -0.411  1.00  0.00     0.014 A 
ATOM     51  C   UNL     1       4.345 -19.270   0.092  1.00  0.00     0.010 A 
ATOM     52  C   UNL     1       2.748 -17.618   0.867  1.00  0.00     0.010 A 
ATOM     53  C   UNL     1       3.535 -18.750   1.116  1.00  0.00    -0.014 A 
BRANCH  53  54
ATOM     54  C   UNL     1       3.391 -19.456   2.412  1.00  0.00     0.031 A 
ATOM     55  C   UNL     1       2.052 -20.050   2.771  1.00  0.00     0.074 A 
ATOM     56  C   UNL     1       4.431 -19.540   3.262  1.00  0.00     0.049 A 
ATOM     57  N   UNL     1       1.697 -20.703   3.846  1.00  0.00    -0.248 NA
ATOM     58  C   UNL     1       0.953 -19.845   1.811  1.00  0.00     0.031 C 
ATOM     59  C   UNL     1       5.750 -18.938   3.054  1.00  0.00     0.029 A 
ATOM     60  N   UNL     1       4.543 -20.174   4.472  1.00  0.00    -0.354 N 
ATOM     61  C   UNL     1       0.339 -20.964   3.697  1.00  0.00     0.074 A 
ATOM     62  C   UNL     1      -0.086 -20.330   2.471  1.00  0.00     0.031 C 
ATOM     63  C   UNL     1       6.550 -19.266   4.083  1.00  0.00     0.029 A 
ATOM     64  C   UNL     1       5.799 -20.089   5.026  1.00  0.00     0.049 A 
ATOM     65  H   UNL     1       3.795 -20.646   4.904  1.00  0.00     0.167 HD
ATOM     66  C   UNL     1      -0.475 -21.706   4.484  1.00  0.00     0.037 A 
ATOM     67  C   UNL     1       6.287 -20.639   6.154  1.00  0.00     0.037 A 
ATOM     68  C   UNL     1      -0.026 -22.387   5.667  1.00  0.00     0.049 A 
ATOM     69  C   UNL     1       5.386 -21.522   6.977  1.00  0.00     0.074 A 
ATOM     70  C   UNL     1      -0.739 -23.223   6.505  1.00  0.00     0.029 A 
ATOM     71  N   UNL     1       1.266 -22.320   6.167  1.00  0.00    -0.354 N 
ATOM     72  N   UNL     1       4.121 -21.816   6.785  1.00  0.00    -0.248 NA
ATOM     73  C   UNL     1       5.983 -22.164   8.155  1.00  0.00     0.031 C 
ATOM     74  C   UNL     1       0.119 -23.645   7.528  1.00  0.00     0.029 A 
ATOM     75  C   UNL     1       1.373 -23.098   7.305  1.00  0.00     0.049 A 
ATOM     76  H   UNL     1       1.999 -21.796   5.769  1.00  0.00     0.167 HD
ATOM     77  C   UNL     1       3.776 -22.695   7.806  1.00  0.00     0.074 A 
ATOM     78  C   UNL     1       4.972 -22.898   8.600  1.00  0.00     0.031 C 
ATOM     79  C   UNL     1       2.580 -23.280   8.070  1.00  0.00     0.037 A 
BRANCH  66  80
ATOM     80  C   UNL     1      -1.914 -21.833   4.066  1.00  0.00     0.058 A 
ATOM     81  C   UNL     1      -2.287 -22.561   2.923  1.00  0.00     0.135 A 
ATOM     82  C   UNL     1      -2.933 -21.215   4.808  1.00  0.00     0.135 A 
ATOM     83  F   UNL     1      -1.352 -23.153   2.164  1.00  0.00    -0.206 F 
ATOM     84  C   UNL     1      -3.612 -22.639   2.509  1.00  0.00     0.059 A 
ATOM     85  C   UNL     1      -4.270 -21.305   4.428  1.00  0.00     0.059 A 
ATOM     86  F   UNL     1      -2.634 -20.503   5.906  1.00  0.00    -0.206 F 
ATOM     87  C   UNL     1      -4.597 -22.003   3.266  1.00  0.00     0.060 A 
BRANCH  87  88
ATOM     88  S   UNL     1      -6.312 -22.107   2.713  1.00  0.00     0.124 S 
ATOM     89  O   UNL     1      -6.315 -21.166   1.597  1.00  0.00    -0.237 OA
ATOM     90  O   UNL     1      -6.441 -23.515   2.353  1.00  0.00    -0.237 OA
ATOM     91  O   UNL     1      -7.072 -21.691   3.887  1.00  0.00    -0.744 OA
ENDBRANCH  87  88
ENDBRANCH  66  80
BRANCH  67  92
ATOM     92  C   UNL     1       7.710 -20.427   6.533  1.00  0.00     0.058 A 
ATOM     93  C   UNL     1       8.648 -21.465   6.421  1.00  0.00     0.135 A 
ATOM     94  C   UNL     1       8.164 -19.185   7.001  1.00  0.00     0.135 A 
ATOM     95  F   UNL     1       8.262 -22.672   5.980  1.00  0.00    -0.206 F 
ATOM     96  C   UNL     1       9.981 -21.286   6.776  1.00  0.00     0.059 A 
ATOM     97  C   UNL     1       9.497 -18.975   7.342  1.00  0.00     0.059 A 
ATOM     98  F   UNL     1       7.311 -18.154   7.109  1.00  0.00    -0.206 F 
ATOM     99  C   UNL     1      10.397 -20.035   7.236  1.00  0.00     0.060 A 
BRANCH  99 100
ATOM    100  S   UNL     1      12.139 -19.799   7.651  1.00  0.00     0.124 S 
ATOM    101  O   UNL     1      12.234 -20.493   8.930  1.00  0.00    -0.237 OA
ATOM    102  O   UNL     1      12.813 -20.438   6.525  1.00  0.00    -0.237 OA
ATOM    103  O   UNL     1      12.274 -18.346   7.708  1.00  0.00    -0.744 OA
ENDBRANCH  99 100
ENDBRANCH  67  92
BRANCH  79 104
ATOM    104  C   UNL     1       2.521 -24.206   9.250  1.00  0.00     0.058 A 
ATOM    105  C   UNL     1       2.539 -23.718  10.566  1.00  0.00     0.135 A 
ATOM    106  C   UNL     1       2.414 -25.593   9.061  1.00  0.00     0.135 A 
ATOM    107  F   UNL     1       2.641 -22.399  10.796  1.00  0.00    -0.206 F 
ATOM    108  C   UNL     1       2.491 -24.578  11.657  1.00  0.00     0.059 A 
ATOM    109  C   UNL     1       2.338 -26.469  10.138  1.00  0.00     0.059 A 
ATOM    110  F   UNL     1       2.377 -26.106   7.822  1.00  0.00    -0.206 F 
ATOM    111  C   UNL     1       2.396 -25.952  11.432  1.00  0.00     0.060 A 
BRANCH 111 112
ATOM    112  S   UNL     1       2.329 -27.061  12.855  1.00  0.00     0.124 S 
ATOM    113  O   UNL     1       3.728 -27.094  13.265  1.00  0.00    -0.237 OA
ATOM    114  O   UNL     1       1.420 -26.360  13.758  1.00  0.00    -0.237 OA
ATOM    115  O   UNL     1       1.808 -28.302  12.291  1.00  0.00    -0.744 OA
ENDBRANCH 111 112
ENDBRANCH  79 104
ENDBRANCH  53  54
ENDBRANCH  45  48
ENDBRANCH  43  44
ENDBRANCH  42  43
ENDBRANCH  41  42
ENDBRANCH   1  41
TORSDOF 23
