REMARK SMILES Cc1ccc(-c2cc(C(=O)NCCCCCCNC(=O)c3ccc(-c4c5nc(c(-c6c(F)cc(S(=O)(=O)[O-])cc6F)c6ccc([nH]6)c(-c6c(F)cc(S(=O)(=O)[O-])cc6F)c6nc(c(-c7c(F)cc(S(=O)(=O)[O-])cc7F)c7ccc4[nH]7)C=C6)C=C5)cc3)c3cc(C)ccc3n2)c(C)c1
REMARK SMILES IDX 15 1 14 2 13 3 12 4 11 5 9 6 10 7 8 9 6 10 7 11 94 12 93 13
REMARK SMILES IDX 87 14 92 15 88 16 91 17 89 18 90 19 5 20 1 21 2 22 3 23
REMARK SMILES IDX 97 24 4 25 95 26 96 27 16 28 17 29 18 30 19 31 20 33 21 34
REMARK SMILES IDX 22 35 86 36 23 37 85 38 24 39 25 40 26 41 79 42 27 43 84 44
REMARK SMILES IDX 78 45 80 46 28 47 83 48 77 49 76 50 29 52 63 53 42 54 62 55
REMARK SMILES IDX 43 56 46 57 61 58 81 59 44 60 45 61 60 63 82 64 47 65 30 66
REMARK SMILES IDX 31 67 40 68 32 69 33 70 39 71 41 72 34 73 35 74 36 75 37 76
REMARK SMILES IDX 38 77 64 78 65 79 74 80 66 81 67 82 73 83 75 84 68 85 69 86
REMARK SMILES IDX 70 87 71 88 72 89 48 90 49 91 58 92 50 93 51 94 57 95 59 96
REMARK SMILES IDX 52 97 53 98 54 99 55 100 56 101
REMARK H PARENT 11 8 18 32 80 51 46 62
REMARK Flexibility Score: inf
ROOT
ATOM      1  C   UNL     1      -8.543  -6.963   2.227  1.00  0.00     0.002 C 
ENDROOT
BRANCH   1   2
ATOM      2  C   UNL     1      -7.250  -7.704   1.868  1.00  0.00     0.002 C 
BRANCH   2   3
ATOM      3  C   UNL     1      -6.363  -7.120   0.764  1.00  0.00     0.021 C 
BRANCH   3   4
ATOM      4  C   UNL     1      -6.074  -5.628   0.829  1.00  0.00     0.116 C 
BRANCH   4   5
ATOM      5  N   UNL     1      -5.311  -5.147   1.964  1.00  0.00    -0.352 N 
ATOM      6  C   UNL     1      -4.568  -3.991   2.120  1.00  0.00     0.252 C 
ATOM      7  O   UNL     1      -4.083  -3.770   3.232  1.00  0.00    -0.269 OA
ATOM      8  H   UNL     1      -5.324  -5.739   2.751  1.00  0.00     0.163 HD
BRANCH   6   9
ATOM      9  C   UNL     1      -4.221  -3.060   0.996  1.00  0.00     0.051 A 
ATOM     10  C   UNL     1      -2.460  -1.806  -0.047  1.00  0.00     0.072 A 
ATOM     11  C   UNL     1      -2.908  -2.568   1.019  1.00  0.00     0.043 A 
ATOM     12  N   UNL     1      -3.197  -1.638  -1.166  1.00  0.00    -0.248 NA
ATOM     13  C   UNL     1      -4.462  -2.078  -1.183  1.00  0.00     0.072 A 
ATOM     14  C   UNL     1      -5.071  -2.683  -0.069  1.00  0.00     0.013 A 
ATOM     15  C   UNL     1      -5.193  -1.933  -2.353  1.00  0.00     0.029 A 
ATOM     16  C   UNL     1      -6.469  -2.873  -0.111  1.00  0.00     0.014 A 
ATOM     17  C   UNL     1      -6.521  -2.353  -2.447  1.00  0.00     0.005 A 
ATOM     18  C   UNL     1      -7.180  -2.809  -1.312  1.00  0.00    -0.050 A 
ATOM     19  C   UNL     1      -8.566  -3.375  -1.398  1.00  0.00     0.044 C 
BRANCH  10  20
ATOM     20  C   UNL     1      -1.191  -1.064  -0.016  1.00  0.00     0.003 A 
ATOM     21  C   UNL     1       2.580   1.078   0.013  1.00  0.00     0.044 C 
ATOM     22  C   UNL     1       1.285   0.323   0.011  1.00  0.00    -0.051 A 
ATOM     23  C   UNL     1       1.255  -1.073  -0.009  1.00  0.00     0.004 A 
ATOM     24  C   UNL     1       0.076   1.024   0.022  1.00  0.00     0.007 A 
ATOM     25  C   UNL     1       0.034  -1.756  -0.024  1.00  0.00     0.011 A 
ATOM     26  C   UNL     1      -1.161   0.351   0.020  1.00  0.00    -0.041 A 
ATOM     27  C   UNL     1      -2.408   1.199   0.020  1.00  0.00     0.045 C 
ENDBRANCH  10  20
ENDBRANCH   6   9
ENDBRANCH   4   5
ENDBRANCH   3   4
ENDBRANCH   2   3
ENDBRANCH   1   2
BRANCH   1  28
ATOM     28  C   UNL     1      -9.511  -6.619   1.092  1.00  0.00     0.021 C 
BRANCH  28  29
ATOM     29  C   UNL     1      -9.912  -7.760   0.163  1.00  0.00     0.116 C 
BRANCH  29  30
ATOM     30  N   UNL     1     -10.546  -8.864   0.861  1.00  0.00    -0.352 N 
ATOM     31  C   UNL     1     -11.745  -9.488   0.615  1.00  0.00     0.251 C 
ATOM     32  H   UNL     1     -10.040  -9.220   1.627  1.00  0.00     0.163 HD
ATOM     33  O   UNL     1     -12.168 -10.323   1.415  1.00  0.00    -0.269 OA
BRANCH  31  34
ATOM     34  C   UNL     1     -12.544  -9.146  -0.584  1.00  0.00     0.039 A 
ATOM     35  C   UNL     1     -13.923  -8.966  -0.443  1.00  0.00     0.014 A 
ATOM     36  C   UNL     1     -11.951  -9.015  -1.842  1.00  0.00     0.014 A 
ATOM     37  C   UNL     1     -14.693  -8.582  -1.545  1.00  0.00     0.010 A 
ATOM     38  C   UNL     1     -12.707  -8.566  -2.925  1.00  0.00     0.010 A 
ATOM     39  C   UNL     1     -14.085  -8.336  -2.787  1.00  0.00    -0.014 A 
BRANCH  39  40
ATOM     40  C   UNL     1     -14.867  -7.819  -3.942  1.00  0.00     0.031 A 
ATOM     41  C   UNL     1     -15.005  -8.639  -5.196  1.00  0.00     0.074 A 
ATOM     42  C   UNL     1     -15.402  -6.582  -3.882  1.00  0.00     0.049 A 
ATOM     43  N   UNL     1     -15.558  -8.316  -6.337  1.00  0.00    -0.248 NA
ATOM     44  C   UNL     1     -14.428  -9.993  -5.172  1.00  0.00     0.031 C 
ATOM     45  C   UNL     1     -15.309  -5.674  -2.736  1.00  0.00     0.029 A 
ATOM     46  N   UNL     1     -16.116  -5.865  -4.811  1.00  0.00    -0.354 N 
ATOM     47  C   UNL     1     -15.401  -9.424  -7.163  1.00  0.00     0.074 A 
ATOM     48  C   UNL     1     -14.646 -10.404  -6.413  1.00  0.00     0.031 C 
ATOM     49  C   UNL     1     -15.945  -4.528  -3.027  1.00  0.00     0.029 A 
ATOM     50  C   UNL     1     -16.451  -4.597  -4.394  1.00  0.00     0.049 A 
ATOM     51  H   UNL     1     -16.363  -6.224  -5.694  1.00  0.00     0.167 HD
ATOM     52  C   UNL     1     -15.868  -9.617  -8.420  1.00  0.00     0.037 A 
ATOM     53  C   UNL     1     -17.074  -3.594  -5.044  1.00  0.00     0.037 A 
ATOM     54  C   UNL     1     -16.625  -8.639  -9.159  1.00  0.00     0.049 A 
ATOM     55  C   UNL     1     -17.539  -3.816  -6.460  1.00  0.00     0.074 A 
ATOM     56  C   UNL     1     -17.161  -8.750 -10.431  1.00  0.00     0.029 A 
ATOM     57  N   UNL     1     -16.954  -7.373  -8.697  1.00  0.00    -0.354 N 
ATOM     58  N   UNL     1     -17.425  -4.889  -7.205  1.00  0.00    -0.248 NA
ATOM     59  C   UNL     1     -18.219  -2.694  -7.123  1.00  0.00     0.031 C 
ATOM     60  C   UNL     1     -17.775  -7.536 -10.755  1.00  0.00     0.029 A 
ATOM     61  C   UNL     1     -17.668  -6.687  -9.665  1.00  0.00     0.049 A 
ATOM     62  H   UNL     1     -16.715  -7.016  -7.811  1.00  0.00     0.167 HD
ATOM     63  C   UNL     1     -18.042  -4.580  -8.413  1.00  0.00     0.074 A 
ATOM     64  C   UNL     1     -18.543  -3.227  -8.293  1.00  0.00     0.031 C 
ATOM     65  C   UNL     1     -18.176  -5.345  -9.524  1.00  0.00     0.037 A 
BRANCH  52  66
ATOM     66  C   UNL     1     -15.593 -10.943  -9.075  1.00  0.00     0.058 A 
ATOM     67  C   UNL     1     -16.229 -12.118  -8.641  1.00  0.00     0.135 A 
ATOM     68  C   UNL     1     -14.740 -11.036 -10.187  1.00  0.00     0.135 A 
ATOM     69  F   UNL     1     -17.044 -12.090  -7.574  1.00  0.00    -0.206 F 
ATOM     70  C   UNL     1     -16.015 -13.338  -9.271  1.00  0.00     0.059 A 
ATOM     71  C   UNL     1     -14.534 -12.242 -10.852  1.00  0.00     0.059 A 
ATOM     72  F   UNL     1     -14.106  -9.945 -10.646  1.00  0.00    -0.206 F 
ATOM     73  C   UNL     1     -15.169 -13.389 -10.380  1.00  0.00     0.060 A 
BRANCH  73  74
ATOM     74  S   UNL     1     -14.924 -14.979 -11.199  1.00  0.00     0.124 S 
ATOM     75  O   UNL     1     -14.135 -15.701 -10.205  1.00  0.00    -0.237 OA
ATOM     76  O   UNL     1     -16.294 -15.448 -11.383  1.00  0.00    -0.237 OA
ATOM     77  O   UNL     1     -14.215 -14.626 -12.425  1.00  0.00    -0.744 OA
ENDBRANCH  73  74
ENDBRANCH  52  66
BRANCH  53  78
ATOM     78  C   UNL     1     -17.279  -2.278  -4.377  1.00  0.00     0.058 A 
ATOM     79  C   UNL     1     -18.565  -1.813  -4.063  1.00  0.00     0.135 A 
ATOM     80  C   UNL     1     -16.192  -1.445  -4.066  1.00  0.00     0.135 A 
ATOM     81  F   UNL     1     -19.638  -2.569  -4.344  1.00  0.00    -0.206 F 
ATOM     82  C   UNL     1     -18.770  -0.558  -3.499  1.00  0.00     0.059 A 
ATOM     83  C   UNL     1     -16.369  -0.200  -3.472  1.00  0.00     0.059 A 
ATOM     84  F   UNL     1     -14.938  -1.847  -4.327  1.00  0.00    -0.206 F 
ATOM     85  C   UNL     1     -17.665   0.244  -3.211  1.00  0.00     0.060 A 
BRANCH  85  86
ATOM     86  S   UNL     1     -17.940   1.869  -2.473  1.00  0.00     0.124 S 
ATOM     87  O   UNL     1     -18.478   2.616  -3.604  1.00  0.00    -0.237 OA
ATOM     88  O   UNL     1     -18.882   1.563  -1.401  1.00  0.00    -0.237 OA
ATOM     89  O   UNL     1     -16.606   2.265  -2.031  1.00  0.00    -0.744 OA
ENDBRANCH  85  86
ENDBRANCH  53  78
BRANCH  65  90
ATOM     90  C   UNL     1     -18.923  -4.757 -10.691  1.00  0.00     0.058 A 
ATOM     91  C   UNL     1     -18.366  -3.744 -11.488  1.00  0.00     0.135 A 
ATOM     92  C   UNL     1     -20.181  -5.262 -11.057  1.00  0.00     0.135 A 
ATOM     93  F   UNL     1     -17.171  -3.220 -11.176  1.00  0.00    -0.206 F 
ATOM     94  C   UNL     1     -19.037  -3.244 -12.599  1.00  0.00     0.059 A 
ATOM     95  C   UNL     1     -20.856  -4.798 -12.182  1.00  0.00     0.059 A 
ATOM     96  F   UNL     1     -20.756  -6.236 -10.333  1.00  0.00    -0.206 F 
ATOM     97  C   UNL     1     -20.278  -3.783 -12.943  1.00  0.00     0.060 A 
BRANCH  97  98
ATOM     98  S   UNL     1     -21.108  -3.163 -14.422  1.00  0.00     0.124 S 
ATOM     99  O   UNL     1     -21.522  -1.832 -13.992  1.00  0.00    -0.237 OA
ATOM    100  O   UNL     1     -20.040  -3.205 -15.417  1.00  0.00    -0.237 OA
ATOM    101  O   UNL     1     -22.190  -4.120 -14.632  1.00  0.00    -0.744 OA
ENDBRANCH  97  98
ENDBRANCH  65  90
ENDBRANCH  39  40
ENDBRANCH  31  34
ENDBRANCH  29  30
ENDBRANCH  28  29
ENDBRANCH   1  28
TORSDOF 17
