REMARK SMILES CCN(Cc1ccccn1)C(=O)NC(CC)(CC)C(=O)NCCCCCCNC(=O)c1ccc(-c2c3nc(c(-c4c(F)cc(S(=O)(=O)[O-])cc4F)c4ccc([nH]4)c(-c4c(F)cc(S(=O)(=O)[O-])cc4F)c4nc(c(-c5c(F)cc(S(=O)(=O)[O-])cc5F)c5ccc2[nH]5)C=C4)C=C3)cc1
REMARK SMILES IDX 24 1 23 2 22 3 21 4 19 5 20 6 14 8 13 9 11 10 12 11 3 13
REMARK SMILES IDX 2 14 1 15 4 16 5 17 6 18 10 19 7 20 9 21 8 22 15 23 16 24
REMARK SMILES IDX 17 25 18 26 25 27 26 28 27 29 28 30 29 31 30 33 31 34 32 35
REMARK SMILES IDX 96 36 33 37 95 38 34 39 35 40 36 41 89 42 37 43 94 44 88 45
REMARK SMILES IDX 90 46 38 47 93 48 87 49 86 50 39 52 73 53 52 54 72 55 53 56
REMARK SMILES IDX 56 57 71 58 91 59 54 60 55 61 70 63 92 64 57 65 40 66 41 67
REMARK SMILES IDX 50 68 42 69 43 70 49 71 51 72 44 73 45 74 46 75 47 76 48 77
REMARK SMILES IDX 74 78 75 79 84 80 76 81 77 82 83 83 85 84 78 85 79 86 80 87
REMARK SMILES IDX 81 88 82 89 58 90 59 91 68 92 60 93 61 94 67 95 69 96 62 97
REMARK SMILES IDX 63 98 64 99 65 100 66 101
REMARK H PARENT 21 7 13 12 28 32 90 51 56 62
REMARK Flexibility Score: inf
ROOT
ATOM      1  C   UNL     1      -2.674  -4.673   5.487  1.00  0.00     0.002 C 
ENDROOT
BRANCH   1   2
ATOM      2  C   UNL     1      -1.216  -4.836   5.946  1.00  0.00     0.021 C 
BRANCH   2   3
ATOM      3  C   UNL     1      -0.291  -5.424   4.884  1.00  0.00     0.116 C 
BRANCH   3   4
ATOM      4  N   UNL     1      -0.337  -4.606   3.698  1.00  0.00    -0.354 N 
ATOM      5  C   UNL     1       0.515  -3.589   3.397  1.00  0.00     0.245 C 
ATOM      6  O   UNL     1       0.049  -2.451   3.302  1.00  0.00    -0.272 OA
ATOM      7  H   UNL     1      -1.050  -4.800   3.046  1.00  0.00     0.163 HD
BRANCH   5   8
ATOM      8  C   UNL     1       2.010  -3.915   3.163  1.00  0.00     0.120 C 
BRANCH   8   9
ATOM      9  N   UNL     1       2.534  -3.079   2.042  1.00  0.00    -0.323 N 
ATOM     10  C   UNL     1       2.209  -2.627   0.826  1.00  0.00     0.318 C 
ATOM     11  O   UNL     1       3.176  -2.147   0.214  1.00  0.00    -0.249 OA
ATOM     12  H   UNL     1       3.428  -2.745   2.282  1.00  0.00     0.166 HD
BRANCH  10  13
ATOM     13  N   UNL     1       0.959  -2.534   0.288  1.00  0.00    -0.319 N 
BRANCH  13  14
ATOM     14  C   UNL     1       0.750  -1.376  -0.597  1.00  0.00     0.118 C 
ATOM     15  C   UNL     1       1.018  -0.028   0.072  1.00  0.00     0.027 C 
ENDBRANCH  13  14
BRANCH  13  16
ATOM     16  C   UNL     1      -0.233  -3.389   0.440  1.00  0.00     0.177 C 
BRANCH  16  17
ATOM     17  C   UNL     1      -0.064  -4.886   0.366  1.00  0.00     0.060 A 
ATOM     18  C   UNL     1       0.887  -5.477  -0.460  1.00  0.00     0.026 A 
ATOM     19  N   UNL     1      -0.942  -5.628   1.098  1.00  0.00    -0.259 NA
ATOM     20  C   UNL     1       1.017  -6.864  -0.448  1.00  0.00     0.004 A 
ATOM     21  C   UNL     1      -0.797  -6.970   1.085  1.00  0.00     0.111 A 
ATOM     22  C   UNL     1       0.172  -7.626   0.350  1.00  0.00     0.020 A 
ENDBRANCH  16  17
ENDBRANCH  13  16
ENDBRANCH  10  13
ENDBRANCH   8   9
BRANCH   8  23
ATOM     23  C   UNL     1       2.323  -5.407   2.825  1.00  0.00     0.035 C 
ATOM     24  C   UNL     1       3.730  -5.906   3.156  1.00  0.00     0.007 C 
ENDBRANCH   8  23
BRANCH   8  25
ATOM     25  C   UNL     1       2.759  -3.498   4.474  1.00  0.00     0.035 C 
ATOM     26  C   UNL     1       2.544  -2.061   4.945  1.00  0.00     0.007 C 
ENDBRANCH   8  25
ENDBRANCH   5   8
ENDBRANCH   3   4
ENDBRANCH   2   3
ENDBRANCH   1   2
BRANCH   1  27
ATOM     27  C   UNL     1      -3.326  -5.938   4.920  1.00  0.00     0.002 C 
BRANCH  27  28
ATOM     28  C   UNL     1      -3.248  -7.166   5.827  1.00  0.00     0.021 C 
BRANCH  28  29
ATOM     29  C   UNL     1      -3.739  -6.935   7.249  1.00  0.00     0.116 C 
BRANCH  29  30
ATOM     30  N   UNL     1      -5.136  -6.548   7.294  1.00  0.00    -0.352 N 
ATOM     31  C   UNL     1      -6.118  -6.981   8.145  1.00  0.00     0.251 C 
ATOM     32  H   UNL     1      -5.416  -5.884   6.622  1.00  0.00     0.163 HD
ATOM     33  O   UNL     1      -7.290  -6.674   7.933  1.00  0.00    -0.269 OA
BRANCH  31  34
ATOM     34  C   UNL     1      -5.770  -7.841   9.297  1.00  0.00     0.039 A 
ATOM     35  C   UNL     1      -6.590  -8.932   9.586  1.00  0.00     0.014 A 
ATOM     36  C   UNL     1      -4.651  -7.574  10.094  1.00  0.00     0.014 A 
ATOM     37  C   UNL     1      -6.270  -9.772  10.652  1.00  0.00     0.010 A 
ATOM     38  C   UNL     1      -4.286  -8.463  11.103  1.00  0.00     0.010 A 
ATOM     39  C   UNL     1      -5.103  -9.560  11.407  1.00  0.00    -0.014 A 
BRANCH  39  40
ATOM     40  C   UNL     1      -4.750 -10.483  12.516  1.00  0.00     0.031 A 
ATOM     41  C   UNL     1      -4.713  -9.992  13.938  1.00  0.00     0.074 A 
ATOM     42  C   UNL     1      -4.458 -11.768  12.235  1.00  0.00     0.049 A 
ATOM     43  N   UNL     1      -4.510 -10.671  15.039  1.00  0.00    -0.248 NA
ATOM     44  C   UNL     1      -4.904  -8.549  14.155  1.00  0.00     0.031 C 
ATOM     45  C   UNL     1      -4.401 -12.346  10.890  1.00  0.00     0.029 A 
ATOM     46  N   UNL     1      -4.174 -12.826  13.061  1.00  0.00    -0.354 N 
ATOM     47  C   UNL     1      -4.541  -9.741  16.072  1.00  0.00     0.074 A 
ATOM     48  C   UNL     1      -4.721  -8.442  15.463  1.00  0.00     0.031 C 
ATOM     49  C   UNL     1      -4.158 -13.662  10.986  1.00  0.00     0.029 A 
ATOM     50  C   UNL     1      -4.010 -14.017  12.394  1.00  0.00     0.049 A 
ATOM     51  H   UNL     1      -4.095 -12.740  14.039  1.00  0.00     0.167 HD
ATOM     52  C   UNL     1      -4.451  -9.953  17.407  1.00  0.00     0.037 A 
ATOM     53  C   UNL     1      -3.784 -15.259  12.864  1.00  0.00     0.037 A 
ATOM     54  C   UNL     1      -4.292 -11.255  18.004  1.00  0.00     0.049 A 
ATOM     55  C   UNL     1      -3.705 -15.473  14.351  1.00  0.00     0.074 A 
ATOM     56  C   UNL     1      -4.263 -11.589  19.346  1.00  0.00     0.029 A 
ATOM     57  N   UNL     1      -4.125 -12.437  17.295  1.00  0.00    -0.354 N 
ATOM     58  N   UNL     1      -3.826 -14.595  15.319  1.00  0.00    -0.248 NA
ATOM     59  C   UNL     1      -3.473 -16.848  14.811  1.00  0.00     0.031 C 
ATOM     60  C   UNL     1      -4.020 -12.963  19.450  1.00  0.00     0.029 A 
ATOM     61  C   UNL     1      -3.963 -13.497  18.173  1.00  0.00     0.049 A 
ATOM     62  H   UNL     1      -4.122 -12.511  16.314  1.00  0.00     0.167 HD
ATOM     63  C   UNL     1      -3.722 -15.318  16.503  1.00  0.00     0.074 A 
ATOM     64  C   UNL     1      -3.536 -16.705  16.127  1.00  0.00     0.031 C 
ATOM     65  C   UNL     1      -3.781 -14.874  17.784  1.00  0.00     0.037 A 
BRANCH  52  66
ATOM     66  C   UNL     1      -4.512  -8.751  18.312  1.00  0.00     0.058 A 
ATOM     67  C   UNL     1      -5.685  -7.993  18.466  1.00  0.00     0.135 A 
ATOM     68  C   UNL     1      -3.386  -8.363  19.056  1.00  0.00     0.135 A 
ATOM     69  F   UNL     1      -6.791  -8.308  17.771  1.00  0.00    -0.206 F 
ATOM     70  C   UNL     1      -5.727  -6.872  19.291  1.00  0.00     0.059 A 
ATOM     71  C   UNL     1      -3.414  -7.266  19.912  1.00  0.00     0.059 A 
ATOM     72  F   UNL     1      -2.237  -9.050  18.952  1.00  0.00    -0.206 F 
ATOM     73  C   UNL     1      -4.585  -6.515  20.008  1.00  0.00     0.060 A 
BRANCH  73  74
ATOM     74  S   UNL     1      -4.652  -5.053  21.065  1.00  0.00     0.124 S 
ATOM     75  O   UNL     1      -4.664  -3.980  20.076  1.00  0.00    -0.237 OA
ATOM     76  O   UNL     1      -5.898  -5.254  21.797  1.00  0.00    -0.237 OA
ATOM     77  O   UNL     1      -3.435  -5.155  21.865  1.00  0.00    -0.744 OA
ENDBRANCH  73  74
ENDBRANCH  52  66
BRANCH  53  78
ATOM     78  C   UNL     1      -3.677 -16.402  11.919  1.00  0.00     0.058 A 
ATOM     79  C   UNL     1      -4.683 -17.378  11.851  1.00  0.00     0.135 A 
ATOM     80  C   UNL     1      -2.584 -16.531  11.048  1.00  0.00     0.135 A 
ATOM     81  F   UNL     1      -5.747 -17.302  12.665  1.00  0.00    -0.206 F 
ATOM     82  C   UNL     1      -4.604 -18.449  10.967  1.00  0.00     0.059 A 
ATOM     83  C   UNL     1      -2.495 -17.578  10.136  1.00  0.00     0.059 A 
ATOM     84  F   UNL     1      -1.604 -15.614  11.059  1.00  0.00    -0.206 F 
ATOM     85  C   UNL     1      -3.506 -18.537  10.109  1.00  0.00     0.060 A 
BRANCH  85  86
ATOM     86  S   UNL     1      -3.440 -19.900   8.925  1.00  0.00     0.124 S 
ATOM     87  O   UNL     1      -3.159 -21.033   9.798  1.00  0.00    -0.237 OA
ATOM     88  O   UNL     1      -4.776 -19.860   8.339  1.00  0.00    -0.237 OA
ATOM     89  O   UNL     1      -2.358 -19.510   8.026  1.00  0.00    -0.744 OA
ENDBRANCH  85  86
ENDBRANCH  53  78
BRANCH  65  90
ATOM     90  C   UNL     1      -3.691 -15.906  18.876  1.00  0.00     0.058 A 
ATOM     91  C   UNL     1      -2.499 -16.592  19.157  1.00  0.00     0.135 A 
ATOM     92  C   UNL     1      -4.814 -16.192  19.672  1.00  0.00     0.135 A 
ATOM     93  F   UNL     1      -1.397 -16.361  18.425  1.00  0.00    -0.206 F 
ATOM     94  C   UNL     1      -2.433 -17.553  20.161  1.00  0.00     0.059 A 
ATOM     95  C   UNL     1      -4.761 -17.124  20.703  1.00  0.00     0.059 A 
ATOM     96  F   UNL     1      -5.976 -15.555  19.456  1.00  0.00    -0.206 F 
ATOM     97  C   UNL     1      -3.571 -17.814  20.927  1.00  0.00     0.060 A 
BRANCH  97  98
ATOM     98  S   UNL     1      -3.471 -19.057  22.232  1.00  0.00     0.124 S 
ATOM     99  O   UNL     1      -3.451 -20.294  21.457  1.00  0.00    -0.237 OA
ATOM    100  O   UNL     1      -2.222 -18.709  22.901  1.00  0.00    -0.237 OA
ATOM    101  O   UNL     1      -4.681 -18.826  23.015  1.00  0.00    -0.744 OA
ENDBRANCH  97  98
ENDBRANCH  65  90
ENDBRANCH  39  40
ENDBRANCH  31  34
ENDBRANCH  29  30
ENDBRANCH  28  29
ENDBRANCH  27  28
ENDBRANCH   1  27
TORSDOF 23
