REMARK SMILES CC(C)Cc1ccc([C@H](CF)C(=O)NCCCCCCNC(=O)c2ccc(-c3c4nc(c(-c5c(F)cc(S(=O)(=O)[O-])cc5F)c5ccc([nH]5)c(-c5c(F)cc(S(=O)(=O)[O-])cc5F)c5nc(c(-c6c(F)cc(S(=O)(=O)[O-])cc6F)c6ccc3[nH]6)C=C5)C=C4)cc2)cc1
REMARK SMILES IDX 17 1 16 2 15 3 14 4 12 5 13 6 9 8 8 9 5 10 6 11 91 12 7 13
REMARK SMILES IDX 90 14 4 15 2 16 1 17 3 18 10 19 11 20 18 21 19 22 20 23
REMARK SMILES IDX 21 24 22 25 23 27 24 28 25 29 89 30 26 31 88 32 27 33 28 34
REMARK SMILES IDX 29 35 82 36 30 37 87 38 81 39 83 40 31 41 86 42 80 43 79 44
REMARK SMILES IDX 32 46 66 47 45 48 65 49 46 50 49 51 64 52 84 53 47 54 48 55
REMARK SMILES IDX 63 57 85 58 50 59 33 60 34 61 43 62 35 63 36 64 42 65 44 66
REMARK SMILES IDX 37 67 38 68 39 69 40 70 41 71 67 72 68 73 77 74 69 75 70 76
REMARK SMILES IDX 76 77 78 78 71 79 72 80 73 81 74 82 75 83 51 84 52 85 61 86
REMARK SMILES IDX 53 87 54 88 60 89 62 90 55 91 56 92 57 93 58 94 59 95
REMARK H PARENT 14 7 21 26 83 45 49 56
REMARK Flexibility Score: inf
ROOT
ATOM      1  C   UNL     1      -6.468  -0.885   4.278  1.00  0.00     0.002 C 
ENDROOT
BRANCH   1   2
ATOM      2  C   UNL     1      -4.985  -0.838   3.890  1.00  0.00     0.021 C 
BRANCH   2   3
ATOM      3  C   UNL     1      -4.233  -2.136   4.149  1.00  0.00     0.116 C 
BRANCH   3   4
ATOM      4  N   UNL     1      -4.711  -3.212   3.299  1.00  0.00    -0.355 N 
ATOM      5  C   UNL     1      -4.043  -4.266   2.753  1.00  0.00     0.230 C 
ATOM      6  O   UNL     1      -4.721  -5.120   2.173  1.00  0.00    -0.274 OA
ATOM      7  H   UNL     1      -5.670  -3.173   3.082  1.00  0.00     0.163 HD
BRANCH   5   8
ATOM      8  C   UNL     1      -2.526  -4.393   2.826  1.00  0.00     0.139 C 
BRANCH   8   9
ATOM      9  C   UNL     1      -1.939  -4.668   4.207  1.00  0.00    -0.033 A 
ATOM     10  C   UNL     1      -0.749  -5.154   6.726  1.00  0.00    -0.048 A 
ATOM     11  C   UNL     1      -2.127  -4.960   6.618  1.00  0.00     0.004 A 
ATOM     12  C   UNL     1       0.033  -5.118   5.569  1.00  0.00     0.004 A 
ATOM     13  C   UNL     1      -2.716  -4.754   5.371  1.00  0.00     0.005 A 
ATOM     14  C   UNL     1      -0.555  -4.879   4.325  1.00  0.00     0.005 A 
BRANCH  10  15
ATOM     15  C   UNL     1      -0.143  -5.499   8.063  1.00  0.00     0.038 C 
BRANCH  15  16
ATOM     16  C   UNL     1      -0.318  -6.993   8.401  1.00  0.00    -0.013 C 
ATOM     17  C   UNL     1       0.500  -7.890   7.467  1.00  0.00     0.008 C 
ATOM     18  C   UNL     1       0.076  -7.252   9.854  1.00  0.00     0.008 C 
ENDBRANCH  15  16
ENDBRANCH  10  15
ENDBRANCH   8   9
BRANCH   8  19
ATOM     19  C   UNL     1      -1.867  -3.217   2.102  1.00  0.00     0.232 C 
ATOM     20  F   UNL     1      -0.767  -3.664   1.427  1.00  0.00    -0.250 F 
ENDBRANCH   8  19
ENDBRANCH   5   8
ENDBRANCH   3   4
ENDBRANCH   2   3
ENDBRANCH   1   2
BRANCH   1  21
ATOM     21  C   UNL     1      -6.757  -1.304   5.724  1.00  0.00     0.002 C 
BRANCH  21  22
ATOM     22  C   UNL     1      -6.026  -0.495   6.797  1.00  0.00     0.021 C 
BRANCH  22  23
ATOM     23  C   UNL     1      -6.225   1.012   6.704  1.00  0.00     0.116 C 
BRANCH  23  24
ATOM     24  N   UNL     1      -7.622   1.391   6.820  1.00  0.00    -0.352 N 
ATOM     25  C   UNL     1      -8.184   2.383   7.580  1.00  0.00     0.251 C 
ATOM     26  H   UNL     1      -8.252   0.864   6.277  1.00  0.00     0.163 HD
ATOM     27  O   UNL     1      -9.407   2.449   7.694  1.00  0.00    -0.269 OA
BRANCH  25  28
ATOM     28  C   UNL     1      -7.317   3.358   8.276  1.00  0.00     0.039 A 
ATOM     29  C   UNL     1      -7.619   3.712   9.592  1.00  0.00     0.014 A 
ATOM     30  C   UNL     1      -6.217   3.929   7.629  1.00  0.00     0.014 A 
ATOM     31  C   UNL     1      -6.798   4.613  10.271  1.00  0.00     0.010 A 
ATOM     32  C   UNL     1      -5.353   4.762   8.334  1.00  0.00     0.010 A 
ATOM     33  C   UNL     1      -5.646   5.130   9.655  1.00  0.00    -0.014 A 
BRANCH  33  34
ATOM     34  C   UNL     1      -4.766   6.099  10.359  1.00  0.00     0.031 A 
ATOM     35  C   UNL     1      -4.610   7.495   9.816  1.00  0.00     0.074 A 
ATOM     36  C   UNL     1      -4.089   5.717  11.460  1.00  0.00     0.049 A 
ATOM     37  N   UNL     1      -3.840   8.465  10.238  1.00  0.00    -0.248 NA
ATOM     38  C   UNL     1      -5.405   7.840   8.624  1.00  0.00     0.031 C 
ATOM     39  C   UNL     1      -4.128   4.381  12.060  1.00  0.00     0.029 A 
ATOM     40  N   UNL     1      -3.227   6.415  12.269  1.00  0.00    -0.354 N 
ATOM     41  C   UNL     1      -4.060   9.529   9.370  1.00  0.00     0.074 A 
ATOM     42  C   UNL     1      -4.976   9.064   8.353  1.00  0.00     0.031 C 
ATOM     43  C   UNL     1      -3.342   4.363  13.149  1.00  0.00     0.029 A 
ATOM     44  C   UNL     1      -2.714   5.671  13.305  1.00  0.00     0.049 A 
ATOM     45  H   UNL     1      -2.998   7.361  12.121  1.00  0.00     0.167 HD
ATOM     46  C   UNL     1      -3.574  10.791   9.435  1.00  0.00     0.037 A 
ATOM     47  C   UNL     1      -1.828   6.004  14.265  1.00  0.00     0.037 A 
ATOM     48  C   UNL     1      -2.679  11.255  10.461  1.00  0.00     0.049 A 
ATOM     49  C   UNL     1      -1.286   7.410  14.300  1.00  0.00     0.074 A 
ATOM     50  C   UNL     1      -2.135  12.518  10.623  1.00  0.00     0.029 A 
ATOM     51  N   UNL     1      -2.207  10.480  11.510  1.00  0.00    -0.354 N 
ATOM     52  N   UNL     1      -1.532   8.412  13.489  1.00  0.00    -0.248 NA
ATOM     53  C   UNL     1      -0.357   7.737  15.391  1.00  0.00     0.031 C 
ATOM     54  C   UNL     1      -1.306  12.496  11.749  1.00  0.00     0.029 A 
ATOM     55  C   UNL     1      -1.379  11.237  12.322  1.00  0.00     0.049 A 
ATOM     56  H   UNL     1      -2.427   9.531  11.655  1.00  0.00     0.167 HD
ATOM     57  C   UNL     1      -0.827   9.497  14.000  1.00  0.00     0.074 A 
ATOM     58  C   UNL     1      -0.153   9.032  15.193  1.00  0.00     0.031 C 
ATOM     59  C   UNL     1      -0.745  10.765  13.526  1.00  0.00     0.037 A 
BRANCH  46  60
ATOM     60  C   UNL     1      -4.024  11.771   8.386  1.00  0.00     0.058 A 
ATOM     61  C   UNL     1      -5.342  12.257   8.359  1.00  0.00     0.135 A 
ATOM     62  C   UNL     1      -3.120  12.283   7.441  1.00  0.00     0.135 A 
ATOM     63  F   UNL     1      -6.254  11.786   9.225  1.00  0.00    -0.206 F 
ATOM     64  C   UNL     1      -5.750  13.203   7.426  1.00  0.00     0.059 A 
ATOM     65  C   UNL     1      -3.499  13.253   6.518  1.00  0.00     0.059 A 
ATOM     66  F   UNL     1      -1.849  11.850   7.418  1.00  0.00    -0.206 F 
ATOM     67  C   UNL     1      -4.819  13.702   6.514  1.00  0.00     0.060 A 
BRANCH  67  68
ATOM     68  S   UNL     1      -5.359  14.961   5.340  1.00  0.00     0.124 S 
ATOM     69  O   UNL     1      -6.228  14.186   4.460  1.00  0.00    -0.237 OA
ATOM     70  O   UNL     1      -6.031  15.925   6.206  1.00  0.00    -0.237 OA
ATOM     71  O   UNL     1      -4.112  15.424   4.739  1.00  0.00    -0.744 OA
ENDBRANCH  67  68
ENDBRANCH  46  60
BRANCH  47  72
ATOM     72  C   UNL     1      -1.395   5.001  15.278  1.00  0.00     0.058 A 
ATOM     73  C   UNL     1      -1.715   5.153  16.636  1.00  0.00     0.135 A 
ATOM     74  C   UNL     1      -0.610   3.896  14.915  1.00  0.00     0.135 A 
ATOM     75  F   UNL     1      -2.463   6.193  17.036  1.00  0.00    -0.206 F 
ATOM     76  C   UNL     1      -1.229   4.279  17.604  1.00  0.00     0.059 A 
ATOM     77  C   UNL     1      -0.141   2.988  15.860  1.00  0.00     0.059 A 
ATOM     78  F   UNL     1      -0.294   3.687  13.627  1.00  0.00    -0.206 F 
ATOM     79  C   UNL     1      -0.435   3.203  17.205  1.00  0.00     0.060 A 
BRANCH  79  80
ATOM     80  S   UNL     1       0.205   2.082  18.467  1.00  0.00     0.124 S 
ATOM     81  O   UNL     1       1.238   2.902  19.089  1.00  0.00    -0.237 OA
ATOM     82  O   UNL     1      -0.980   1.822  19.278  1.00  0.00    -0.237 OA
ATOM     83  O   UNL     1       0.686   0.943  17.690  1.00  0.00    -0.744 OA
ENDBRANCH  79  80
ENDBRANCH  47  72
BRANCH  59  84
ATOM     84  C   UNL     1       0.034  11.762  14.341  1.00  0.00     0.058 A 
ATOM     85  C   UNL     1       1.432  11.715  14.443  1.00  0.00     0.135 A 
ATOM     86  C   UNL     1      -0.636  12.807  14.999  1.00  0.00     0.135 A 
ATOM     87  F   UNL     1       2.122  10.736  13.835  1.00  0.00    -0.206 F 
ATOM     88  C   UNL     1       2.137  12.645  15.200  1.00  0.00     0.059 A 
ATOM     89  C   UNL     1       0.051  13.768  15.733  1.00  0.00     0.059 A 
ATOM     90  F   UNL     1      -1.973  12.909  14.923  1.00  0.00    -0.206 F 
ATOM     91  C   UNL     1       1.437  13.669  15.841  1.00  0.00     0.060 A 
BRANCH  91  92
ATOM     92  S   UNL     1       2.364  14.880  16.806  1.00  0.00     0.124 S 
ATOM     93  O   UNL     1       2.739  14.097  17.979  1.00  0.00    -0.237 OA
ATOM     94  O   UNL     1       3.455  15.229  15.901  1.00  0.00    -0.237 OA
ATOM     95  O   UNL     1       1.392  15.943  17.044  1.00  0.00    -0.744 OA
ENDBRANCH  91  92
ENDBRANCH  59  84
ENDBRANCH  33  34
ENDBRANCH  25  28
ENDBRANCH  23  24
ENDBRANCH  22  23
ENDBRANCH  21  22
ENDBRANCH   1  21
TORSDOF 20
