REMARK SMILES O=C(NC[C@@H]1CCOC1)NC[C@@H]1CC[C@H](C(=O)NCCCCCCNC(=O)c2ccc(-c3c4nc(c(-c5c(F)cc(S(=O)(=O)[O-])cc5F)c5ccc([nH]5)c(-c5c(F)cc(S(=O)(=O)[O-])cc5F)c5nc(c(-c6c(F)cc(S(=O)(=O)[O-])cc6F)c6ccc3[nH]6)C=C5)C=C4)cc2)O1
REMARK SMILES IDX 21 1 20 2 19 3 18 4 16 5 17 6 15 8 12 9 13 10 94 11 14 12
REMARK SMILES IDX 11 13 10 14 1 15 2 16 3 17 4 20 5 21 6 22 9 23 7 24 8 25
REMARK SMILES IDX 22 26 23 27 24 28 25 29 26 30 27 32 28 33 29 34 93 35 30 36
REMARK SMILES IDX 92 37 31 38 32 39 33 40 86 41 34 42 91 43 85 44 87 45 35 46
REMARK SMILES IDX 90 47 84 48 83 49 36 51 70 52 49 53 69 54 50 55 53 56 68 57
REMARK SMILES IDX 88 58 51 59 52 60 67 62 89 63 54 64 37 65 38 66 47 67 39 68
REMARK SMILES IDX 40 69 46 70 48 71 41 72 42 73 43 74 44 75 45 76 71 77 72 78
REMARK SMILES IDX 81 79 73 80 74 81 80 82 82 83 75 84 76 85 77 86 78 87 79 88
REMARK SMILES IDX 55 89 56 90 65 91 57 92 58 93 64 94 66 95 59 96 60 97 61 98
REMARK SMILES IDX 62 99 63 100
REMARK H PARENT 18 7 3 18 10 19 25 31 87 50 53 61
REMARK Flexibility Score: inf
ROOT
ATOM      1  C   UNL     1       7.043  -0.580   0.354  1.00  0.00     0.002 C 
ENDROOT
BRANCH   1   2
ATOM      2  C   UNL     1       6.488  -0.466   1.777  1.00  0.00     0.021 C 
BRANCH   2   3
ATOM      3  C   UNL     1       5.099  -1.081   1.927  1.00  0.00     0.116 C 
BRANCH   3   4
ATOM      4  N   UNL     1       5.014  -2.148   2.889  1.00  0.00    -0.354 N 
ATOM      5  C   UNL     1       4.043  -2.331   3.835  1.00  0.00     0.249 C 
ATOM      6  O   UNL     1       3.984  -3.428   4.396  1.00  0.00    -0.272 OA
ATOM      7  H   UNL     1       5.734  -2.820   2.864  1.00  0.00     0.163 HD
BRANCH   5   8
ATOM      8  C   UNL     1       3.090  -1.178   4.216  1.00  0.00     0.207 C 
ATOM      9  C   UNL     1       2.171   0.675   3.119  1.00  0.00     0.138 C 
ATOM     10  C   UNL     1       3.385   1.201   3.881  1.00  0.00     0.037 C 
ATOM     11  O   UNL     1       2.272  -0.754   3.131  1.00  0.00    -0.363 OA
ATOM     12  C   UNL     1       3.811   0.045   4.767  1.00  0.00     0.045 C 
BRANCH   9  13
ATOM     13  C   UNL     1       2.005   1.241   1.678  1.00  0.00     0.149 C 
BRANCH  13  14
ATOM     14  N   UNL     1       2.376   0.346   0.575  1.00  0.00    -0.336 N 
ATOM     15  O   UNL     1       0.493  -0.919   0.772  1.00  0.00    -0.249 OA
ATOM     16  C   UNL     1       1.569  -0.688   0.224  1.00  0.00     0.314 C 
ATOM     17  N   UNL     1       1.953  -1.515  -0.775  1.00  0.00    -0.338 N 
ATOM     18  H   UNL     1       1.382  -2.315  -0.835  1.00  0.00     0.165 HD
ATOM     19  H   UNL     1       3.216   0.497   0.085  1.00  0.00     0.165 HD
BRANCH  17  20
ATOM     20  C   UNL     1       3.004  -1.513  -1.783  1.00  0.00     0.123 C 
BRANCH  20  21
ATOM     21  C   UNL     1       4.136  -2.527  -1.542  1.00  0.00     0.036 C 
ATOM     22  C   UNL     1       5.010  -2.764  -2.760  1.00  0.00     0.036 C 
ATOM     23  C   UNL     1       3.714  -3.926  -1.121  1.00  0.00     0.165 C 
ATOM     24  C   UNL     1       4.536  -4.093  -3.291  1.00  0.00     0.160 C 
ATOM     25  O   UNL     1       4.063  -4.838  -2.169  1.00  0.00    -0.381 OA
ENDBRANCH  20  21
ENDBRANCH  17  20
ENDBRANCH  13  14
ENDBRANCH   9  13
ENDBRANCH   5   8
ENDBRANCH   3   4
ENDBRANCH   2   3
ENDBRANCH   1   2
BRANCH   1  26
ATOM     26  C   UNL     1       6.166   0.070  -0.721  1.00  0.00     0.002 C 
BRANCH  26  27
ATOM     27  C   UNL     1       6.365   1.553  -0.962  1.00  0.00     0.021 C 
BRANCH  27  28
ATOM     28  C   UNL     1       7.736   1.919  -1.497  1.00  0.00     0.116 C 
BRANCH  28  29
ATOM     29  N   UNL     1       8.106   1.202  -2.716  1.00  0.00    -0.352 N 
ATOM     30  C   UNL     1       8.531   1.695  -3.930  1.00  0.00     0.251 C 
ATOM     31  H   UNL     1       8.041   0.221  -2.662  1.00  0.00     0.163 HD
ATOM     32  O   UNL     1       8.700   0.940  -4.883  1.00  0.00    -0.269 OA
BRANCH  30  33
ATOM     33  C   UNL     1       8.731   3.151  -4.077  1.00  0.00     0.039 A 
ATOM     34  C   UNL     1       8.188   3.817  -5.176  1.00  0.00     0.014 A 
ATOM     35  C   UNL     1       9.355   3.865  -3.056  1.00  0.00     0.014 A 
ATOM     36  C   UNL     1       8.169   5.214  -5.186  1.00  0.00     0.010 A 
ATOM     37  C   UNL     1       9.197   5.240  -2.998  1.00  0.00     0.010 A 
ATOM     38  C   UNL     1       8.612   5.936  -4.065  1.00  0.00    -0.014 A 
BRANCH  38  39
ATOM     39  C   UNL     1       8.500   7.416  -3.974  1.00  0.00     0.031 A 
ATOM     40  C   UNL     1       9.734   8.234  -3.685  1.00  0.00     0.074 A 
ATOM     41  C   UNL     1       7.292   8.012  -4.037  1.00  0.00     0.049 A 
ATOM     42  N   UNL     1       9.835   9.505  -3.396  1.00  0.00    -0.248 NA
ATOM     43  C   UNL     1      11.017   7.511  -3.651  1.00  0.00     0.031 C 
ATOM     44  C   UNL     1       6.009   7.328  -4.226  1.00  0.00     0.029 A 
ATOM     45  N   UNL     1       6.943   9.336  -3.937  1.00  0.00    -0.354 N 
ATOM     46  C   UNL     1      11.177   9.716  -3.099  1.00  0.00     0.074 A 
ATOM     47  C   UNL     1      11.835   8.431  -3.167  1.00  0.00     0.031 C 
ATOM     48  C   UNL     1       5.023   8.239  -4.273  1.00  0.00     0.029 A 
ATOM     49  C   UNL     1       5.593   9.567  -4.075  1.00  0.00     0.049 A 
ATOM     50  H   UNL     1       7.598  10.054  -3.781  1.00  0.00     0.167 HD
ATOM     51  C   UNL     1      11.816  10.880  -2.835  1.00  0.00     0.037 A 
ATOM     52  C   UNL     1       4.898  10.720  -4.048  1.00  0.00     0.037 A 
ATOM     53  C   UNL     1      11.172  12.164  -2.862  1.00  0.00     0.049 A 
ATOM     54  C   UNL     1       5.640  12.012  -3.837  1.00  0.00     0.074 A 
ATOM     55  C   UNL     1      11.740  13.415  -2.706  1.00  0.00     0.029 A 
ATOM     56  N   UNL     1       9.817  12.361  -3.084  1.00  0.00    -0.354 N 
ATOM     57  N   UNL     1       6.920  12.200  -3.617  1.00  0.00    -0.248 NA
ATOM     58  C   UNL     1       4.848  13.249  -3.879  1.00  0.00     0.031 C 
ATOM     59  C   UNL     1      10.723  14.370  -2.813  1.00  0.00     0.029 A 
ATOM     60  C   UNL     1       9.529  13.714  -3.069  1.00  0.00     0.049 A 
ATOM     61  H   UNL     1       9.159  11.644  -3.231  1.00  0.00     0.167 HD
ATOM     62  C   UNL     1       7.090  13.576  -3.519  1.00  0.00     0.074 A 
ATOM     63  C   UNL     1       5.785  14.173  -3.716  1.00  0.00     0.031 C 
ATOM     64  C   UNL     1       8.223  14.283  -3.285  1.00  0.00     0.037 A 
BRANCH  51  65
ATOM     65  C   UNL     1      13.287  10.811  -2.533  1.00  0.00     0.058 A 
ATOM     66  C   UNL     1      14.226  10.466  -3.518  1.00  0.00     0.135 A 
ATOM     67  C   UNL     1      13.767  11.095  -1.244  1.00  0.00     0.135 A 
ATOM     68  F   UNL     1      13.821  10.165  -4.763  1.00  0.00    -0.206 F 
ATOM     69  C   UNL     1      15.582  10.360  -3.228  1.00  0.00     0.059 A 
ATOM     70  C   UNL     1      15.123  11.028  -0.939  1.00  0.00     0.059 A 
ATOM     71  F   UNL     1      12.914  11.430  -0.263  1.00  0.00    -0.206 F 
ATOM     72  C   UNL     1      16.020  10.640  -1.933  1.00  0.00     0.060 A 
BRANCH  72  73
ATOM     73  S   UNL     1      17.782  10.491  -1.570  1.00  0.00     0.124 S 
ATOM     74  O   UNL     1      17.940   9.041  -1.496  1.00  0.00    -0.237 OA
ATOM     75  O   UNL     1      18.396  11.136  -2.725  1.00  0.00    -0.237 OA
ATOM     76  O   UNL     1      17.928  11.204  -0.305  1.00  0.00    -0.744 OA
ENDBRANCH  72  73
ENDBRANCH  51  65
BRANCH  52  77
ATOM     77  C   UNL     1       3.428  10.712  -4.274  1.00  0.00     0.058 A 
ATOM     78  C   UNL     1       2.886  11.193  -5.476  1.00  0.00     0.135 A 
ATOM     79  C   UNL     1       2.538  10.216  -3.309  1.00  0.00     0.135 A 
ATOM     80  F   UNL     1       3.697  11.680  -6.428  1.00  0.00    -0.206 F 
ATOM     81  C   UNL     1       1.515  11.200  -5.708  1.00  0.00     0.059 A 
ATOM     82  C   UNL     1       1.163  10.192  -3.527  1.00  0.00     0.059 A 
ATOM     83  F   UNL     1       3.007   9.726  -2.151  1.00  0.00    -0.206 F 
ATOM     84  C   UNL     1       0.660  10.697  -4.726  1.00  0.00     0.060 A 
BRANCH  84  85
ATOM     85  S   UNL     1      -1.115  10.667  -5.056  1.00  0.00     0.124 S 
ATOM     86  O   UNL     1      -1.466  12.074  -4.899  1.00  0.00    -0.237 OA
ATOM     87  O   UNL     1      -1.166  10.143  -6.417  1.00  0.00    -0.237 OA
ATOM     88  O   UNL     1      -1.630   9.768  -4.027  1.00  0.00    -0.744 OA
ENDBRANCH  84  85
ENDBRANCH  52  77
BRANCH  64  89
ATOM     89  C   UNL     1       8.111  15.779  -3.264  1.00  0.00     0.058 A 
ATOM     90  C   UNL     1       7.543  16.457  -2.175  1.00  0.00     0.135 A 
ATOM     91  C   UNL     1       8.638  16.545  -4.316  1.00  0.00     0.135 A 
ATOM     92  F   UNL     1       7.021  15.768  -1.148  1.00  0.00    -0.206 F 
ATOM     93  C   UNL     1       7.485  17.845  -2.137  1.00  0.00     0.059 A 
ATOM     94  C   UNL     1       8.613  17.934  -4.288  1.00  0.00     0.059 A 
ATOM     95  F   UNL     1       9.202  15.941  -5.374  1.00  0.00    -0.206 F 
ATOM     96  C   UNL     1       8.026  18.576  -3.198  1.00  0.00     0.060 A 
BRANCH  96  97
ATOM     97  S   UNL     1       7.985  20.378  -3.117  1.00  0.00     0.124 S 
ATOM     98  O   UNL     1       6.587  20.654  -3.430  1.00  0.00    -0.237 OA
ATOM     99  O   UNL     1       8.390  20.640  -1.740  1.00  0.00    -0.237 OA
ATOM    100  O   UNL     1       8.949  20.784  -4.135  1.00  0.00    -0.744 OA
ENDBRANCH  96  97
ENDBRANCH  64  89
ENDBRANCH  38  39
ENDBRANCH  30  33
ENDBRANCH  28  29
ENDBRANCH  27  28
ENDBRANCH  26  27
ENDBRANCH   1  26
TORSDOF 20
