REMARK SMILES CC(C)[C@H](Sc1ccncc1)C(=O)NCCCCCCNC(=O)c1ccc(-c2c3nc(c(-c4c(F)cc(S(=O)(=O)[O-])cc4F)c4ccc([nH]4)c(-c4c(F)cc(S(=O)(=O)[O-])cc4F)c4nc(c(-c5c(F)cc(S(=O)(=O)[O-])cc5F)c5ccc2[nH]5)C=C4)C=C3)cc1
REMARK SMILES IDX 18 1 17 2 16 3 15 4 14 5 12 6 13 7 4 9 2 10 1 11 3 12 5 13
REMARK SMILES IDX 6 14 7 15 11 16 8 17 10 18 9 19 19 20 20 21 21 22 22 23
REMARK SMILES IDX 23 25 24 26 25 27 89 28 26 29 88 30 27 31 28 32 29 33 82 34
REMARK SMILES IDX 30 35 87 36 81 37 83 38 31 39 86 40 80 41 79 42 32 44 66 45
REMARK SMILES IDX 45 46 65 47 46 48 49 49 64 50 84 51 47 52 48 53 63 55 85 56
REMARK SMILES IDX 50 57 33 58 34 59 43 60 35 61 36 62 42 63 44 64 37 65 38 66
REMARK SMILES IDX 39 67 40 68 41 69 67 70 68 71 77 72 69 73 70 74 76 75 78 76
REMARK SMILES IDX 71 77 72 78 73 79 74 80 75 81 51 82 52 83 61 84 53 85 54 86
REMARK SMILES IDX 60 87 62 88 55 89 56 90 57 91 58 92 59 93
REMARK H PARENT 14 8 21 24 83 43 49 54
REMARK Flexibility Score: inf
ROOT
ATOM      1  C   UNL     1      -0.384   3.700  -5.957  1.00  0.00     0.002 C 
ENDROOT
BRANCH   1   2
ATOM      2  C   UNL     1       0.424   2.398  -5.904  1.00  0.00     0.002 C 
BRANCH   2   3
ATOM      3  C   UNL     1       0.955   2.008  -4.521  1.00  0.00     0.021 C 
BRANCH   3   4
ATOM      4  C   UNL     1      -0.106   1.999  -3.428  1.00  0.00     0.116 C 
BRANCH   4   5
ATOM      5  N   UNL     1      -1.067   0.925  -3.591  1.00  0.00    -0.355 N 
ATOM      6  C   UNL     1      -1.557   0.048  -2.665  1.00  0.00     0.233 C 
ATOM      7  O   UNL     1      -2.463  -0.714  -3.022  1.00  0.00    -0.274 OA
ATOM      8  H   UNL     1      -1.419   0.811  -4.504  1.00  0.00     0.163 HD
BRANCH   6   9
ATOM      9  C   UNL     1      -1.034   0.019  -1.213  1.00  0.00     0.143 C 
BRANCH   9  10
ATOM     10  C   UNL     1      -1.542   1.202  -0.316  1.00  0.00     0.006 C 
ATOM     11  C   UNL     1      -0.540   1.780   0.686  1.00  0.00     0.009 C 
ATOM     12  C   UNL     1      -2.220   2.382  -1.030  1.00  0.00     0.009 C 
ENDBRANCH   9  10
BRANCH   9  13
ATOM     13  S   UNL     1       0.772  -0.450  -1.324  1.00  0.00    -0.112 SA
BRANCH  13  14
ATOM     14  C   UNL     1       1.277  -0.947   0.304  1.00  0.00     0.011 A 
ATOM     15  C   UNL     1       0.436  -1.458   1.286  1.00  0.00     0.035 A 
ATOM     16  C   UNL     1       2.639  -0.820   0.592  1.00  0.00     0.035 A 
ATOM     17  C   UNL     1       0.980  -1.763   2.524  1.00  0.00     0.112 A 
ATOM     18  C   UNL     1       3.091  -1.165   1.852  1.00  0.00     0.112 A 
ATOM     19  N   UNL     1       2.287  -1.627   2.830  1.00  0.00    -0.265 NA
ENDBRANCH  13  14
ENDBRANCH   9  13
ENDBRANCH   6   9
ENDBRANCH   4   5
ENDBRANCH   3   4
ENDBRANCH   2   3
ENDBRANCH   1   2
BRANCH   1  20
ATOM     20  C   UNL     1       0.302   4.927  -5.350  1.00  0.00     0.021 C 
BRANCH  20  21
ATOM     21  C   UNL     1       1.669   5.253  -5.936  1.00  0.00     0.116 C 
BRANCH  21  22
ATOM     22  N   UNL     1       1.607   5.515  -7.362  1.00  0.00    -0.352 N 
ATOM     23  C   UNL     1       2.160   6.545  -8.080  1.00  0.00     0.251 C 
ATOM     24  H   UNL     1       1.094   4.860  -7.890  1.00  0.00     0.163 HD
ATOM     25  O   UNL     1       1.851   6.702  -9.257  1.00  0.00    -0.269 OA
BRANCH  23  26
ATOM     26  C   UNL     1       3.111   7.472  -7.428  1.00  0.00     0.039 A 
ATOM     27  C   UNL     1       3.010   8.839  -7.698  1.00  0.00     0.014 A 
ATOM     28  C   UNL     1       4.113   6.998  -6.577  1.00  0.00     0.014 A 
ATOM     29  C   UNL     1       3.892   9.732  -7.086  1.00  0.00     0.010 A 
ATOM     30  C   UNL     1       4.938   7.896  -5.906  1.00  0.00     0.010 A 
ATOM     31  C   UNL     1       4.851   9.271  -6.170  1.00  0.00    -0.014 A 
BRANCH  31  32
ATOM     32  C   UNL     1       5.804  10.205  -5.518  1.00  0.00     0.031 A 
ATOM     33  C   UNL     1       7.280  10.078  -5.789  1.00  0.00     0.074 A 
ATOM     34  C   UNL     1       5.349  11.136  -4.656  1.00  0.00     0.049 A 
ATOM     35  N   UNL     1       8.277  10.753  -5.277  1.00  0.00    -0.248 NA
ATOM     36  C   UNL     1       7.694   9.036  -6.744  1.00  0.00     0.031 C 
ATOM     37  C   UNL     1       3.946  11.333  -4.283  1.00  0.00     0.029 A 
ATOM     38  N   UNL     1       6.020  12.091  -3.933  1.00  0.00    -0.354 N 
ATOM     39  C   UNL     1       9.429  10.213  -5.837  1.00  0.00     0.074 A 
ATOM     40  C   UNL     1       9.014   9.113  -6.678  1.00  0.00     0.031 C 
ATOM     41  C   UNL     1       3.859  12.361  -3.423  1.00  0.00     0.029 A 
ATOM     42  C   UNL     1       5.200  12.872  -3.153  1.00  0.00     0.049 A 
ATOM     43  H   UNL     1       6.997  12.206  -3.969  1.00  0.00     0.167 HD
ATOM     44  C   UNL     1      10.713  10.617  -5.690  1.00  0.00     0.037 A 
ATOM     45  C   UNL     1       5.497  13.883  -2.313  1.00  0.00     0.037 A 
ATOM     46  C   UNL     1      11.116  11.731  -4.872  1.00  0.00     0.049 A 
ATOM     47  C   UNL     1       6.934  14.306  -2.158  1.00  0.00     0.074 A 
ATOM     48  C   UNL     1      12.387  12.244  -4.681  1.00  0.00     0.029 A 
ATOM     49  N   UNL     1      10.253  12.508  -4.113  1.00  0.00    -0.354 N 
ATOM     50  N   UNL     1       8.006  13.812  -2.731  1.00  0.00    -0.248 NA
ATOM     51  C   UNL     1       7.201  15.430  -1.250  1.00  0.00     0.031 C 
ATOM     52  C   UNL     1      12.298  13.306  -3.775  1.00  0.00     0.029 A 
ATOM     53  C   UNL     1      10.965  13.490  -3.444  1.00  0.00     0.049 A 
ATOM     54  H   UNL     1       9.278  12.381  -4.057  1.00  0.00     0.167 HD
ATOM     55  C   UNL     1       9.069  14.593  -2.286  1.00  0.00     0.074 A 
ATOM     56  C   UNL     1       8.508  15.593  -1.401  1.00  0.00     0.031 C 
ATOM     57  C   UNL     1      10.388  14.493  -2.585  1.00  0.00     0.037 A 
BRANCH  44  58
ATOM     58  C   UNL     1      11.775   9.858  -6.439  1.00  0.00     0.058 A 
ATOM     59  C   UNL     1      11.880   9.926  -7.838  1.00  0.00     0.135 A 
ATOM     60  C   UNL     1      12.723   9.083  -5.751  1.00  0.00     0.135 A 
ATOM     61  F   UNL     1      10.990  10.637  -8.549  1.00  0.00    -0.206 F 
ATOM     62  C   UNL     1      12.867   9.233  -8.530  1.00  0.00     0.059 A 
ATOM     63  C   UNL     1      13.739   8.406  -6.421  1.00  0.00     0.059 A 
ATOM     64  F   UNL     1      12.671   8.980  -4.414  1.00  0.00    -0.206 F 
ATOM     65  C   UNL     1      13.794   8.477  -7.812  1.00  0.00     0.060 A 
BRANCH  65  66
ATOM     66  S   UNL     1      15.076   7.594  -8.726  1.00  0.00     0.124 S 
ATOM     67  O   UNL     1      14.305   6.523  -9.348  1.00  0.00    -0.237 OA
ATOM     68  O   UNL     1      15.577   8.623  -9.631  1.00  0.00    -0.237 OA
ATOM     69  O   UNL     1      16.008   7.172  -7.684  1.00  0.00    -0.744 OA
ENDBRANCH  65  66
ENDBRANCH  44  58
BRANCH  45  70
ATOM     70  C   UNL     1       4.413  14.586  -1.573  1.00  0.00     0.058 A 
ATOM     71  C   UNL     1       4.084  15.918  -1.869  1.00  0.00     0.135 A 
ATOM     72  C   UNL     1       3.694  13.949  -0.550  1.00  0.00     0.135 A 
ATOM     73  F   UNL     1       4.745  16.573  -2.836  1.00  0.00    -0.206 F 
ATOM     74  C   UNL     1       3.103  16.603  -1.160  1.00  0.00     0.059 A 
ATOM     75  C   UNL     1       2.688  14.604   0.154  1.00  0.00     0.059 A 
ATOM     76  F   UNL     1       3.955  12.670  -0.240  1.00  0.00    -0.206 F 
ATOM     77  C   UNL     1       2.411  15.937  -0.147  1.00  0.00     0.060 A 
BRANCH  77  78
ATOM     78  S   UNL     1       1.124  16.827   0.753  1.00  0.00     0.124 S 
ATOM     79  O   UNL     1       1.915  17.736   1.574  1.00  0.00    -0.237 OA
ATOM     80  O   UNL     1       0.363  17.442  -0.330  1.00  0.00    -0.237 OA
ATOM     81  O   UNL     1       0.426  15.768   1.476  1.00  0.00    -0.744 OA
ENDBRANCH  77  78
ENDBRANCH  45  70
BRANCH  57  82
ATOM     82  C   UNL     1      11.312  15.529  -2.004  1.00  0.00     0.058 A 
ATOM     83  C   UNL     1      11.642  15.551  -0.641  1.00  0.00     0.135 A 
ATOM     84  C   UNL     1      11.914  16.484  -2.841  1.00  0.00     0.135 A 
ATOM     85  F   UNL     1      11.091  14.664   0.203  1.00  0.00    -0.206 F 
ATOM     86  C   UNL     1      12.513  16.503  -0.121  1.00  0.00     0.059 A 
ATOM     87  C   UNL     1      12.812  17.424  -2.348  1.00  0.00     0.059 A 
ATOM     88  F   UNL     1      11.643  16.499  -4.155  1.00  0.00    -0.206 F 
ATOM     89  C   UNL     1      13.095  17.435  -0.983  1.00  0.00     0.060 A 
BRANCH  89  90
ATOM     90  S   UNL     1      14.246  18.646  -0.300  1.00  0.00     0.124 S 
ATOM     91  O   UNL     1      13.340  19.546   0.407  1.00  0.00    -0.237 OA
ATOM     92  O   UNL     1      15.105  17.820   0.542  1.00  0.00    -0.237 OA
ATOM     93  O   UNL     1      14.891  19.207  -1.483  1.00  0.00    -0.744 OA
ENDBRANCH  89  90
ENDBRANCH  57  82
ENDBRANCH  31  32
ENDBRANCH  23  26
ENDBRANCH  21  22
ENDBRANCH  20  21
ENDBRANCH   1  20
TORSDOF 19
