REMARK SMILES Cc1ccc(N2C(=O)/C(=C\c3ccccc3O[C@H](C)C(=O)NCCCCCCNC(=O)c3ccc(-c4c5nc(c(-c6c(F)cc(S(=O)(=O)[O-])cc6F)c6ccc([nH]6)c(-c6c(F)cc(S(=O)(=O)[O-])cc6F)c6nc(c(-c7c(F)cc(S(=O)(=O)[O-])cc7F)c7ccc4[nH]7)C=C6)C=C5)cc3)SC2=S)c(C)c1
REMARK SMILES IDX 25 1 24 2 23 3 22 4 20 5 21 6 18 8 19 9 17 10 16 11 11 12
REMARK SMILES IDX 12 13 13 14 15 15 14 16 10 17 6 18 7 19 99 20 8 21 9 22
REMARK SMILES IDX 98 23 100 24 5 25 1 26 2 27 3 28 103 29 4 30 101 31 102 32
REMARK SMILES IDX 26 33 27 34 28 35 29 36 30 37 31 39 32 40 33 41 97 42 34 43
REMARK SMILES IDX 96 44 35 45 36 46 37 47 90 48 38 49 95 50 89 51 91 52 39 53
REMARK SMILES IDX 94 54 88 55 87 56 40 58 74 59 53 60 73 61 54 62 57 63 72 64
REMARK SMILES IDX 92 65 55 66 56 67 71 69 93 70 58 71 41 72 42 73 51 74 43 75
REMARK SMILES IDX 44 76 50 77 52 78 45 79 46 80 47 81 48 82 49 83 75 84 76 85
REMARK SMILES IDX 85 86 77 87 78 88 84 89 86 90 79 91 80 92 81 93 82 94 83 95
REMARK SMILES IDX 59 96 60 97 69 98 61 99 62 100 68 101 70 102 63 103 64 104
REMARK SMILES IDX 65 105 66 106 67 107
REMARK H PARENT 22 7 29 38 91 57 57 68
REMARK Flexibility Score: inf
ROOT
ATOM      1  C   UNL     1      -8.511  -2.786  -3.391  1.00  0.00     0.002 C 
ENDROOT
BRANCH   1   2
ATOM      2  C   UNL     1      -7.120  -2.168  -3.540  1.00  0.00     0.021 C 
BRANCH   2   3
ATOM      3  C   UNL     1      -6.255  -2.252  -2.286  1.00  0.00     0.116 C 
BRANCH   3   4
ATOM      4  N   UNL     1      -5.802  -3.609  -2.020  1.00  0.00    -0.353 N 
ATOM      5  C   UNL     1      -4.527  -4.120  -2.054  1.00  0.00     0.260 C 
ATOM      6  O   UNL     1      -4.367  -5.303  -1.743  1.00  0.00    -0.271 OA
ATOM      7  H   UNL     1      -6.509  -4.252  -1.783  1.00  0.00     0.163 HD
BRANCH   5   8
ATOM      8  C   UNL     1      -3.350  -3.236  -2.506  1.00  0.00     0.258 C 
ATOM      9  C   UNL     1      -3.525  -2.923  -3.989  1.00  0.00     0.064 C 
BRANCH   8  10
ATOM     10  O   UNL     1      -3.409  -2.149  -1.590  1.00  0.00    -0.480 OA
BRANCH  10  11
ATOM     11  C   UNL     1      -2.609  -1.051  -1.605  1.00  0.00     0.127 A 
ATOM     12  C   UNL     1      -2.744  -0.216  -0.472  1.00  0.00     0.018 A 
ATOM     13  C   UNL     1      -2.090   1.021  -0.433  1.00  0.00     0.012 A 
ATOM     14  C   UNL     1      -1.266   1.405  -1.488  1.00  0.00     0.001 A 
ATOM     15  C   UNL     1      -1.738  -0.684  -2.624  1.00  0.00     0.047 A 
ATOM     16  C   UNL     1      -1.075   0.546  -2.569  1.00  0.00     0.004 A 
BRANCH  12  17
ATOM     17  C   UNL     1      -3.552  -0.621   0.692  1.00  0.00     0.033 C 
ATOM     18  N   UNL     1      -2.326  -3.710   2.243  1.00  0.00    -0.261 N 
ATOM     19  C   UNL     1      -2.183  -2.677   1.320  1.00  0.00     0.270 C 
ATOM     20  C   UNL     1      -3.409  -3.628   3.104  1.00  0.00     0.152 C 
ATOM     21  O   UNL     1      -1.278  -2.562   0.502  1.00  0.00    -0.268 OA
ATOM     22  C   UNL     1      -3.312  -1.703   1.451  1.00  0.00     0.081 C 
ATOM     23  S   UNL     1      -4.350  -2.180   2.741  1.00  0.00    -0.054 SA
ATOM     24  S   UNL     1      -3.820  -4.612   4.395  1.00  0.00    -0.051 S 
BRANCH  18  25
ATOM     25  C   UNL     1      -1.405  -4.802   2.210  1.00  0.00     0.054 A 
ATOM     26  C   UNL     1       1.280  -8.152   1.672  1.00  0.00     0.044 C 
ATOM     27  C   UNL     1       0.337  -7.005   1.885  1.00  0.00    -0.051 A 
ATOM     28  C   UNL     1      -1.044  -7.188   1.840  1.00  0.00     0.005 A 
ATOM     29  C   UNL     1       0.843  -5.721   2.112  1.00  0.00     0.009 A 
ATOM     30  C   UNL     1      -1.905  -6.099   1.996  1.00  0.00     0.027 A 
ATOM     31  C   UNL     1      -0.009  -4.615   2.293  1.00  0.00    -0.027 A 
ATOM     32  C   UNL     1       0.642  -3.284   2.564  1.00  0.00     0.046 C 
ENDBRANCH  18  25
ENDBRANCH  12  17
ENDBRANCH  10  11
ENDBRANCH   8  10
ENDBRANCH   5   8
ENDBRANCH   3   4
ENDBRANCH   2   3
ENDBRANCH   1   2
BRANCH   1  33
ATOM     33  C   UNL     1      -9.362  -2.221  -2.249  1.00  0.00     0.002 C 
BRANCH  33  34
ATOM     34  C   UNL     1      -9.511  -0.696  -2.226  1.00  0.00     0.021 C 
BRANCH  34  35
ATOM     35  C   UNL     1     -10.101  -0.084  -3.493  1.00  0.00     0.116 C 
BRANCH  35  36
ATOM     36  N   UNL     1     -11.454  -0.549  -3.749  1.00  0.00    -0.352 N 
ATOM     37  C   UNL     1     -12.597   0.176  -3.977  1.00  0.00     0.251 C 
ATOM     38  H   UNL     1     -11.567  -1.526  -3.760  1.00  0.00     0.163 HD
ATOM     39  O   UNL     1     -13.685  -0.392  -3.990  1.00  0.00    -0.269 OA
BRANCH  37  40
ATOM     40  C   UNL     1     -12.521   1.639  -4.188  1.00  0.00     0.039 A 
ATOM     41  C   UNL     1     -13.455   2.461  -3.551  1.00  0.00     0.014 A 
ATOM     42  C   UNL     1     -11.555   2.199  -5.030  1.00  0.00     0.014 A 
ATOM     43  C   UNL     1     -13.389   3.847  -3.716  1.00  0.00     0.010 A 
ATOM     44  C   UNL     1     -11.450   3.584  -5.142  1.00  0.00     0.010 A 
ATOM     45  C   UNL     1     -12.370   4.422  -4.493  1.00  0.00    -0.014 A 
BRANCH  45  46
ATOM     46  C   UNL     1     -12.262   5.896  -4.648  1.00  0.00     0.031 A 
ATOM     47  C   UNL     1     -12.460   6.531  -5.998  1.00  0.00     0.074 A 
ATOM     48  C   UNL     1     -11.931   6.656  -3.585  1.00  0.00     0.049 A 
ATOM     49  N   UNL     1     -12.348   7.788  -6.344  1.00  0.00    -0.248 NA
ATOM     50  C   UNL     1     -12.803   5.631  -7.111  1.00  0.00     0.031 C 
ATOM     51  C   UNL     1     -11.666   6.154  -2.235  1.00  0.00     0.029 A 
ATOM     52  N   UNL     1     -11.751   8.012  -3.475  1.00  0.00    -0.354 N 
ATOM     53  C   UNL     1     -12.591   7.828  -7.712  1.00  0.00     0.074 A 
ATOM     54  C   UNL     1     -12.806   6.464  -8.142  1.00  0.00     0.031 C 
ATOM     55  C   UNL     1     -11.377   7.189  -1.429  1.00  0.00     0.029 A 
ATOM     56  C   UNL     1     -11.403   8.423  -2.209  1.00  0.00     0.049 A 
ATOM     57  H   UNL     1     -11.860   8.633  -4.231  1.00  0.00     0.167 HD
ATOM     58  C   UNL     1     -12.652   8.906  -8.531  1.00  0.00     0.037 A 
ATOM     59  C   UNL     1     -11.132   9.653  -1.732  1.00  0.00     0.037 A 
ATOM     60  C   UNL     1     -12.468  10.264  -8.092  1.00  0.00     0.049 A 
ATOM     61  C   UNL     1     -11.218  10.836  -2.658  1.00  0.00     0.074 A 
ATOM     62  C   UNL     1     -12.572  11.429  -8.831  1.00  0.00     0.029 A 
ATOM     63  N   UNL     1     -12.145  10.641  -6.796  1.00  0.00    -0.354 N 
ATOM     64  N   UNL     1     -11.511  10.862  -3.936  1.00  0.00    -0.248 NA
ATOM     65  C   UNL     1     -10.943  12.158  -2.077  1.00  0.00     0.031 C 
ATOM     66  C   UNL     1     -12.274  12.508  -7.992  1.00  0.00     0.029 A 
ATOM     67  C   UNL     1     -12.027  12.019  -6.719  1.00  0.00     0.049 A 
ATOM     68  H   UNL     1     -12.017  10.020  -6.043  1.00  0.00     0.167 HD
ATOM     69  C   UNL     1     -11.481  12.202  -4.306  1.00  0.00     0.074 A 
ATOM     70  C   UNL     1     -11.151  12.957  -3.115  1.00  0.00     0.031 C 
ATOM     71  C   UNL     1     -11.706  12.756  -5.523  1.00  0.00     0.037 A 
BRANCH  58  72
ATOM     72  C   UNL     1     -12.937   8.658  -9.987  1.00  0.00     0.058 A 
ATOM     73  C   UNL     1     -14.204   8.241 -10.428  1.00  0.00     0.135 A 
ATOM     74  C   UNL     1     -11.943   8.867 -10.956  1.00  0.00     0.135 A 
ATOM     75  F   UNL     1     -15.187   8.013  -9.543  1.00  0.00    -0.206 F 
ATOM     76  C   UNL     1     -14.465   8.010 -11.774  1.00  0.00     0.059 A 
ATOM     77  C   UNL     1     -12.191   8.668 -12.312  1.00  0.00     0.059 A 
ATOM     78  F   UNL     1     -10.715   9.266 -10.590  1.00  0.00    -0.206 F 
ATOM     79  C   UNL     1     -13.451   8.223 -12.709  1.00  0.00     0.060 A 
BRANCH  79  80
ATOM     80  S   UNL     1     -13.805   7.915 -14.452  1.00  0.00     0.124 S 
ATOM     81  O   UNL     1     -13.811   6.456 -14.494  1.00  0.00    -0.237 OA
ATOM     82  O   UNL     1     -15.103   8.559 -14.627  1.00  0.00    -0.237 OA
ATOM     83  O   UNL     1     -12.692   8.559 -15.143  1.00  0.00    -0.744 OA
ENDBRANCH  79  80
ENDBRANCH  58  72
BRANCH  59  84
ATOM     84  C   UNL     1     -10.778   9.831  -0.299  1.00  0.00     0.058 A 
ATOM     85  C   UNL     1     -11.676  10.432   0.596  1.00  0.00     0.135 A 
ATOM     86  C   UNL     1      -9.546   9.390   0.208  1.00  0.00     0.135 A 
ATOM     87  F   UNL     1     -12.864  10.875   0.156  1.00  0.00    -0.206 F 
ATOM     88  C   UNL     1     -11.360  10.606   1.939  1.00  0.00     0.059 A 
ATOM     89  C   UNL     1      -9.217   9.531   1.552  1.00  0.00     0.059 A 
ATOM     90  F   UNL     1      -8.660   8.793  -0.604  1.00  0.00    -0.206 F 
ATOM     91  C   UNL     1     -10.127  10.149   2.409  1.00  0.00     0.060 A 
BRANCH  91  92
ATOM     92  S   UNL     1      -9.746  10.333   4.165  1.00  0.00     0.124 S 
ATOM     93  O   UNL     1      -9.460  11.760   4.255  1.00  0.00    -0.237 OA
ATOM     94  O   UNL     1     -10.983   9.887   4.796  1.00  0.00    -0.237 OA
ATOM     95  O   UNL     1      -8.601   9.446   4.352  1.00  0.00    -0.744 OA
ENDBRANCH  91  92
ENDBRANCH  59  84
BRANCH  71  96
ATOM     96  C   UNL     1     -11.635  14.254  -5.625  1.00  0.00     0.058 A 
ATOM     97  C   UNL     1     -10.409  14.936  -5.600  1.00  0.00     0.135 A 
ATOM     98  C   UNL     1     -12.804  15.010  -5.809  1.00  0.00     0.135 A 
ATOM     99  F   UNL     1      -9.264  14.260  -5.420  1.00  0.00    -0.206 F 
ATOM    100  C   UNL     1     -10.346  16.319  -5.736  1.00  0.00     0.059 A 
ATOM    101  C   UNL     1     -12.762  16.391  -5.972  1.00  0.00     0.059 A 
ATOM    102  F   UNL     1     -14.002  14.404  -5.850  1.00  0.00    -0.206 F 
ATOM    103  C   UNL     1     -11.528  17.038  -5.924  1.00  0.00     0.060 A 
BRANCH 103 104
ATOM    104  S   UNL     1     -11.429  18.827  -6.142  1.00  0.00     0.124 S 
ATOM    105  O   UNL     1     -11.168  19.275  -4.778  1.00  0.00    -0.237 OA
ATOM    106  O   UNL     1     -10.318  18.968  -7.078  1.00  0.00    -0.237 OA
ATOM    107  O   UNL     1     -12.741  19.177  -6.678  1.00  0.00    -0.744 OA
ENDBRANCH 103 104
ENDBRANCH  71  96
ENDBRANCH  45  46
ENDBRANCH  37  40
ENDBRANCH  35  36
ENDBRANCH  34  35
ENDBRANCH  33  34
ENDBRANCH   1  33
TORSDOF 20
