REMARK SMILES COc1ccccc1-n1nnc(C(=O)NCCCCCCNC(=O)c2ccc(-c3c4nc(c(-c5c(F)cc(S(=O)(=O)[O-])cc5F)c5ccc([nH]5)c(-c5c(F)cc(S(=O)(=O)[O-])cc5F)c5nc(c(-c6c(F)cc(S(=O)(=O)[O-])cc6F)c6ccc3[nH]6)C=C5)C=C4)cc2)c1-c1ccc(Cl)cc1
REMARK SMILES IDX 19 1 18 2 17 3 16 4 15 5 13 6 14 7 12 9 9 10 10 11 91 12
REMARK SMILES IDX 11 13 8 14 3 15 4 16 5 17 7 18 6 19 2 20 1 21 92 22 93 23
REMARK SMILES IDX 98 24 94 25 97 26 95 27 96 28 20 29 21 30 22 31 23 32 24 34
REMARK SMILES IDX 25 35 26 36 90 37 27 38 89 39 28 40 29 41 30 42 83 43 31 44
REMARK SMILES IDX 88 45 82 46 84 47 32 48 87 49 81 50 80 51 33 53 67 54 46 55
REMARK SMILES IDX 66 56 47 57 50 58 65 59 85 60 48 61 49 62 64 64 86 65 51 66
REMARK SMILES IDX 34 67 35 68 44 69 36 70 37 71 43 72 45 73 38 74 39 75 40 76
REMARK SMILES IDX 41 77 42 78 68 79 69 80 78 81 70 82 71 83 77 84 79 85 72 86
REMARK SMILES IDX 73 87 74 88 75 89 76 90 52 91 53 92 62 93 54 94 55 95 61 96
REMARK SMILES IDX 63 97 56 98 57 99 58 100 59 101 60 102
REMARK H PARENT 15 8 22 33 84 52 50 63
REMARK Flexibility Score: inf
ROOT
ATOM      1  C   UNL     1       3.698   6.042  -1.802  1.00  0.00     0.002 C 
ENDROOT
BRANCH   1   2
ATOM      2  C   UNL     1       5.062   5.768  -1.145  1.00  0.00     0.002 C 
BRANCH   2   3
ATOM      3  C   UNL     1       5.167   4.698  -0.062  1.00  0.00     0.021 C 
BRANCH   3   4
ATOM      4  C   UNL     1       4.498   3.360  -0.308  1.00  0.00     0.116 C 
BRANCH   4   5
ATOM      5  N   UNL     1       5.120   2.393  -1.161  1.00  0.00    -0.351 N 
ATOM      6  C   UNL     1       4.994   1.015  -1.098  1.00  0.00     0.274 C 
ATOM      7  O   UNL     1       5.556   0.386  -2.000  1.00  0.00    -0.267 OA
ATOM      8  H   UNL     1       5.701   2.747  -1.873  1.00  0.00     0.163 HD
BRANCH   6   9
ATOM      9  C   UNL     1       4.267   0.299  -0.026  1.00  0.00     0.178 A 
ATOM     10  N   UNL     1       3.027  -0.557   1.579  1.00  0.00    -0.208 N 
ATOM     11  N   UNL     1       3.969  -1.467   1.277  1.00  0.00    -0.061 NA
ATOM     12  C   UNL     1       3.219   0.616   0.845  1.00  0.00     0.108 A 
ATOM     13  N   UNL     1       4.660  -1.004   0.248  1.00  0.00    -0.124 NA
BRANCH  10  14
ATOM     14  C   UNL     1       2.071  -0.786   2.596  1.00  0.00     0.109 A 
ATOM     15  C   UNL     1       0.722  -0.430   2.438  1.00  0.00     0.144 A 
ATOM     16  C   UNL     1      -0.070  -0.269   3.579  1.00  0.00     0.049 A 
ATOM     17  C   UNL     1       0.452  -0.512   4.850  1.00  0.00     0.004 A 
ATOM     18  C   UNL     1       2.576  -1.111   3.867  1.00  0.00     0.032 A 
ATOM     19  C   UNL     1       1.765  -0.956   4.992  1.00  0.00     0.003 A 
BRANCH  15  20
ATOM     20  O   UNL     1       0.082  -0.112   1.270  1.00  0.00    -0.494 OA
ATOM     21  C   UNL     1       0.276  -0.993   0.168  1.00  0.00     0.278 C 
ENDBRANCH  15  20
ENDBRANCH  10  14
BRANCH  12  22
ATOM     22  C   UNL     1       2.439   1.813   1.160  1.00  0.00     0.003 A 
ATOM     23  C   UNL     1       1.460   2.297   0.286  1.00  0.00     0.012 A 
ATOM     24  C   UNL     1       2.642   2.461   2.395  1.00  0.00     0.012 A 
ATOM     25  C   UNL     1       0.679   3.396   0.654  1.00  0.00     0.021 A 
ATOM     26  C   UNL     1       1.880   3.573   2.749  1.00  0.00     0.021 A 
ATOM     27  C   UNL     1       0.894   4.029   1.880  1.00  0.00     0.041 A 
ATOM     28  Cl  UNL     1      -0.053   5.398   2.308  1.00  0.00    -0.084 Cl
ENDBRANCH  12  22
ENDBRANCH   6   9
ENDBRANCH   4   5
ENDBRANCH   3   4
ENDBRANCH   2   3
ENDBRANCH   1   2
BRANCH   1  29
ATOM     29  C   UNL     1       2.468   6.277  -0.915  1.00  0.00     0.021 C 
BRANCH  29  30
ATOM     30  C   UNL     1       2.595   7.385   0.112  1.00  0.00     0.116 C 
BRANCH  30  31
ATOM     31  N   UNL     1       2.724   8.725  -0.460  1.00  0.00    -0.352 N 
ATOM     32  C   UNL     1       2.736   9.950   0.200  1.00  0.00     0.251 C 
ATOM     33  H   UNL     1       2.812   8.766  -1.440  1.00  0.00     0.163 HD
ATOM     34  O   UNL     1       2.490  10.980  -0.404  1.00  0.00    -0.269 OA
BRANCH  32  35
ATOM     35  C   UNL     1       3.069   9.986   1.644  1.00  0.00     0.039 A 
ATOM     36  C   UNL     1       2.588  10.971   2.515  1.00  0.00     0.014 A 
ATOM     37  C   UNL     1       3.921   9.002   2.123  1.00  0.00     0.014 A 
ATOM     38  C   UNL     1       2.974  10.928   3.859  1.00  0.00     0.010 A 
ATOM     39  C   UNL     1       4.061   8.799   3.459  1.00  0.00     0.010 A 
ATOM     40  C   UNL     1       3.727   9.837   4.309  1.00  0.00    -0.014 A 
BRANCH  40  41
ATOM     41  C   UNL     1       4.180   9.667   5.680  1.00  0.00     0.031 A 
ATOM     42  C   UNL     1       3.076   9.400   6.632  1.00  0.00     0.074 A 
ATOM     43  C   UNL     1       5.485   9.420   5.949  1.00  0.00     0.049 A 
ATOM     44  N   UNL     1       2.634  10.172   7.568  1.00  0.00    -0.248 NA
ATOM     45  C   UNL     1       2.222   8.222   6.385  1.00  0.00     0.031 C 
ATOM     46  C   UNL     1       6.600   9.300   4.994  1.00  0.00     0.029 A 
ATOM     47  N   UNL     1       6.079   9.077   7.124  1.00  0.00    -0.354 N 
ATOM     48  C   UNL     1       1.635   9.439   8.202  1.00  0.00     0.074 A 
ATOM     49  C   UNL     1       1.245   8.417   7.271  1.00  0.00     0.031 C 
ATOM     50  C   UNL     1       7.651   8.694   5.589  1.00  0.00     0.029 A 
ATOM     51  C   UNL     1       7.352   8.516   6.996  1.00  0.00     0.049 A 
ATOM     52  H   UNL     1       5.645   9.214   7.997  1.00  0.00     0.167 HD
ATOM     53  C   UNL     1       1.451   9.526   9.550  1.00  0.00     0.037 A 
ATOM     54  C   UNL     1       8.067   7.905   7.979  1.00  0.00     0.037 A 
ATOM     55  C   UNL     1       2.157  10.669  10.085  1.00  0.00     0.049 A 
ATOM     56  C   UNL     1       7.473   8.349   9.270  1.00  0.00     0.074 A 
ATOM     57  C   UNL     1       2.139  12.028   9.835  1.00  0.00     0.029 A 
ATOM     58  N   UNL     1       3.339  10.425  10.745  1.00  0.00    -0.354 N 
ATOM     59  N   UNL     1       7.502   9.586   9.692  1.00  0.00    -0.248 NA
ATOM     60  C   UNL     1       6.416   7.524   9.837  1.00  0.00     0.031 C 
ATOM     61  C   UNL     1       3.503  12.437   9.919  1.00  0.00     0.029 A 
ATOM     62  C   UNL     1       4.266  11.332  10.301  1.00  0.00     0.049 A 
ATOM     63  H   UNL     1       3.493   9.723  11.418  1.00  0.00     0.167 HD
ATOM     64  C   UNL     1       6.238   9.811  10.223  1.00  0.00     0.074 A 
ATOM     65  C   UNL     1       5.638   8.483  10.346  1.00  0.00     0.031 C 
ATOM     66  C   UNL     1       5.686  11.062  10.225  1.00  0.00     0.037 A 
BRANCH  53  67
ATOM     67  C   UNL     1       1.005   8.380  10.437  1.00  0.00     0.058 A 
ATOM     68  C   UNL     1       0.770   8.642  11.804  1.00  0.00     0.135 A 
ATOM     69  C   UNL     1       1.069   7.011  10.090  1.00  0.00     0.135 A 
ATOM     70  F   UNL     1       0.674   9.904  12.252  1.00  0.00    -0.206 F 
ATOM     71  C   UNL     1       0.713   7.631  12.763  1.00  0.00     0.059 A 
ATOM     72  C   UNL     1       0.957   5.986  11.022  1.00  0.00     0.059 A 
ATOM     73  F   UNL     1       1.337   6.583   8.853  1.00  0.00    -0.206 F 
ATOM     74  C   UNL     1       0.829   6.305  12.361  1.00  0.00     0.060 A 
BRANCH  74  75
ATOM     75  S   UNL     1       0.869   5.002  13.601  1.00  0.00     0.124 S 
ATOM     76  O   UNL     1       2.151   5.259  14.247  1.00  0.00    -0.237 OA
ATOM     77  O   UNL     1      -0.321   5.302  14.390  1.00  0.00    -0.237 OA
ATOM     78  O   UNL     1       0.796   3.780  12.805  1.00  0.00    -0.744 OA
ENDBRANCH  74  75
ENDBRANCH  53  67
BRANCH  54  79
ATOM     79  C   UNL     1       8.948   6.704   7.870  1.00  0.00     0.058 A 
ATOM     80  C   UNL     1       9.781   6.301   8.934  1.00  0.00     0.135 A 
ATOM     81  C   UNL     1       8.783   5.763   6.834  1.00  0.00     0.135 A 
ATOM     82  F   UNL     1       9.985   7.122   9.976  1.00  0.00    -0.206 F 
ATOM     83  C   UNL     1      10.366   5.028   8.991  1.00  0.00     0.059 A 
ATOM     84  C   UNL     1       9.363   4.494   6.863  1.00  0.00     0.059 A 
ATOM     85  F   UNL     1       7.968   6.010   5.797  1.00  0.00    -0.206 F 
ATOM     86  C   UNL     1      10.132   4.121   7.958  1.00  0.00     0.060 A 
BRANCH  86  87
ATOM     87  S   UNL     1      10.722   2.415   8.104  1.00  0.00     0.124 S 
ATOM     88  O   UNL     1      12.165   2.580   7.962  1.00  0.00    -0.237 OA
ATOM     89  O   UNL     1      10.250   2.036   9.432  1.00  0.00    -0.237 OA
ATOM     90  O   UNL     1      10.059   1.733   6.995  1.00  0.00    -0.744 OA
ENDBRANCH  86  87
ENDBRANCH  54  79
BRANCH  66  91
ATOM     91  C   UNL     1       6.576  12.242   9.920  1.00  0.00     0.058 A 
ATOM     92  C   UNL     1       7.206  12.477   8.683  1.00  0.00     0.135 A 
ATOM     93  C   UNL     1       6.652  13.264  10.877  1.00  0.00     0.135 A 
ATOM     94  F   UNL     1       7.098  11.599   7.677  1.00  0.00    -0.206 F 
ATOM     95  C   UNL     1       7.908  13.657   8.426  1.00  0.00     0.059 A 
ATOM     96  C   UNL     1       7.319  14.461  10.631  1.00  0.00     0.059 A 
ATOM     97  F   UNL     1       6.020  13.129  12.054  1.00  0.00    -0.206 F 
ATOM     98  C   UNL     1       7.957  14.646   9.408  1.00  0.00     0.060 A 
BRANCH  98  99
ATOM     99  S   UNL     1       8.806  16.200   9.056  1.00  0.00     0.124 S 
ATOM    100  O   UNL     1      10.205  15.786   9.028  1.00  0.00    -0.237 OA
ATOM    101  O   UNL     1       8.235  16.590   7.770  1.00  0.00    -0.237 OA
ATOM    102  O   UNL     1       8.431  17.056  10.179  1.00  0.00    -0.744 OA
ENDBRANCH  98  99
ENDBRANCH  66  91
ENDBRANCH  40  41
ENDBRANCH  32  35
ENDBRANCH  30  31
ENDBRANCH  29  30
ENDBRANCH   1  29
TORSDOF 19
