REMARK SMILES O=CN[C@@H](Cc1cc(Cl)ccc1[N+](=O)[O-])C(=O)NCCCCCCNC(=O)c1ccc(-c2c3nc(c(-c4c(F)cc(S(=O)(=O)[O-])cc4F)c4ccc([nH]4)c(-c4c(F)cc(S(=O)(=O)[O-])cc4F)c4nc(c(-c5c(F)cc(S(=O)(=O)[O-])cc5F)c5ccc2[nH]5)C=C4)C=C3)cc1
REMARK SMILES IDX 21 1 20 2 19 3 18 4 16 5 17 6 4 8 3 9 1 10 2 11 5 13 6 14
REMARK SMILES IDX 7 15 12 16 8 17 11 18 9 19 10 20 13 21 14 22 15 23 22 24
REMARK SMILES IDX 23 25 24 26 25 27 26 28 27 30 28 31 29 32 93 33 30 34 92 35
REMARK SMILES IDX 31 36 32 37 33 38 86 39 34 40 91 41 85 42 87 43 35 44 90 45
REMARK SMILES IDX 84 46 83 47 36 49 70 50 49 51 69 52 50 53 53 54 68 55 88 56
REMARK SMILES IDX 51 57 52 58 67 60 89 61 54 62 37 63 38 64 47 65 39 66 40 67
REMARK SMILES IDX 46 68 48 69 41 70 42 71 43 72 44 73 45 74 71 75 72 76 81 77
REMARK SMILES IDX 73 78 74 79 80 80 82 81 75 82 76 83 77 84 78 85 79 86 55 87
REMARK SMILES IDX 56 88 65 89 57 90 58 91 64 92 66 93 59 94 60 95 61 96 62 97
REMARK SMILES IDX 63 98
REMARK H PARENT 18 7 3 12 25 29 87 48 53 59
REMARK Flexibility Score: inf
ROOT
ATOM      1  C   UNL     1       3.656  -2.846   6.264  1.00  0.00     0.002 C 
ENDROOT
BRANCH   1   2
ATOM      2  C   UNL     1       3.515  -2.063   4.955  1.00  0.00     0.021 C 
BRANCH   2   3
ATOM      3  C   UNL     1       4.789  -1.382   4.417  1.00  0.00     0.116 C 
BRANCH   3   4
ATOM      4  N   UNL     1       5.090  -1.802   3.049  1.00  0.00    -0.354 N 
ATOM      5  C   UNL     1       4.996  -1.322   1.790  1.00  0.00     0.242 C 
ATOM      6  O   UNL     1       5.302  -2.159   0.920  1.00  0.00    -0.273 OA
ATOM      7  H   UNL     1       5.479  -2.707   3.045  1.00  0.00     0.163 HD
BRANCH   5   8
ATOM      8  C   UNL     1       4.572   0.097   1.290  1.00  0.00     0.175 C 
BRANCH   8   9
ATOM      9  N   UNL     1       3.367   0.159   0.462  1.00  0.00    -0.347 N 
ATOM     10  O   UNL     1       2.312  -0.161  -1.517  1.00  0.00    -0.279 OA
ATOM     11  C   UNL     1       3.248  -0.419  -0.765  1.00  0.00     0.337 C 
ATOM     12  H   UNL     1       2.591   0.650   0.816  1.00  0.00     0.164 HD
ENDBRANCH   8   9
BRANCH   8  13
ATOM     13  C   UNL     1       4.769   1.346   2.151  1.00  0.00     0.078 C 
BRANCH  13  14
ATOM     14  C   UNL     1       3.900   1.809   3.301  1.00  0.00     0.034 A 
ATOM     15  C   UNL     1       4.472   2.862   4.057  1.00  0.00     0.031 A 
ATOM     16  C   UNL     1       2.643   1.353   3.733  1.00  0.00     0.272 A 
ATOM     17  C   UNL     1       3.883   3.339   5.229  1.00  0.00     0.041 A 
ATOM     18  C   UNL     1       2.070   1.791   4.941  1.00  0.00     0.087 A 
ATOM     19  Cl  UNL     1       4.624   4.630   6.085  1.00  0.00    -0.084 Cl
ATOM     20  C   UNL     1       2.707   2.772   5.700  1.00  0.00     0.027 A 
BRANCH  16  21
ATOM     21  N   UNL     1       1.791   0.504   2.924  1.00  0.00     0.062 N 
ATOM     22  O   UNL     1       2.040  -0.703   2.893  1.00  0.00    -0.258 OA
ATOM     23  O   UNL     1       0.878   1.067   2.311  1.00  0.00    -0.258 OA
ENDBRANCH  16  21
ENDBRANCH  13  14
ENDBRANCH   8  13
ENDBRANCH   5   8
ENDBRANCH   3   4
ENDBRANCH   2   3
ENDBRANCH   1   2
BRANCH   1  24
ATOM     24  C   UNL     1       4.007  -2.024   7.507  1.00  0.00     0.002 C 
BRANCH  24  25
ATOM     25  C   UNL     1       3.008  -0.934   7.916  1.00  0.00     0.021 C 
BRANCH  25  26
ATOM     26  C   UNL     1       1.573  -1.390   8.192  1.00  0.00     0.116 C 
BRANCH  26  27
ATOM     27  N   UNL     1       1.497  -2.410   9.226  1.00  0.00    -0.352 N 
ATOM     28  C   UNL     1       0.989  -2.370  10.501  1.00  0.00     0.251 C 
ATOM     29  H   UNL     1       1.875  -3.281   8.966  1.00  0.00     0.163 HD
ATOM     30  O   UNL     1       1.234  -3.303  11.266  1.00  0.00    -0.269 OA
BRANCH  28  31
ATOM     31  C   UNL     1       0.165  -1.234  10.978  1.00  0.00     0.039 A 
ATOM     32  C   UNL     1       0.349  -0.778  12.288  1.00  0.00     0.014 A 
ATOM     33  C   UNL     1      -0.837  -0.667  10.186  1.00  0.00     0.014 A 
ATOM     34  C   UNL     1      -0.427   0.276  12.780  1.00  0.00     0.010 A 
ATOM     35  C   UNL     1      -1.567   0.428  10.656  1.00  0.00     0.010 A 
ATOM     36  C   UNL     1      -1.374   0.910  11.959  1.00  0.00    -0.014 A 
BRANCH  36  37
ATOM     37  C   UNL     1      -2.152   2.080  12.454  1.00  0.00     0.031 A 
ATOM     38  C   UNL     1      -3.648   2.001  12.612  1.00  0.00     0.074 A 
ATOM     39  C   UNL     1      -1.509   3.235  12.723  1.00  0.00     0.049 A 
ATOM     40  N   UNL     1      -4.487   2.924  13.008  1.00  0.00    -0.248 NA
ATOM     41  C   UNL     1      -4.289   0.726  12.255  1.00  0.00     0.031 C 
ATOM     42  C   UNL     1      -0.070   3.457  12.561  1.00  0.00     0.029 A 
ATOM     43  N   UNL     1      -1.978   4.439  13.186  1.00  0.00    -0.354 N 
ATOM     44  C   UNL     1      -5.751   2.348  12.940  1.00  0.00     0.074 A 
ATOM     45  C   UNL     1      -5.573   1.012  12.414  1.00  0.00     0.031 C 
ATOM     46  C   UNL     1       0.229   4.709  12.942  1.00  0.00     0.029 A 
ATOM     47  C   UNL     1      -0.998   5.390  13.345  1.00  0.00     0.049 A 
ATOM     48  H   UNL     1      -2.928   4.607  13.384  1.00  0.00     0.167 HD
ATOM     49  C   UNL     1      -6.946   2.874  13.304  1.00  0.00     0.037 A 
ATOM     50  C   UNL     1      -1.074   6.667  13.768  1.00  0.00     0.037 A 
ATOM     51  C   UNL     1      -7.115   4.198  13.849  1.00  0.00     0.049 A 
ATOM     52  C   UNL     1      -2.410   7.225  14.178  1.00  0.00     0.074 A 
ATOM     53  C   UNL     1      -8.275   4.801  14.305  1.00  0.00     0.029 A 
ATOM     54  N   UNL     1      -6.095   5.126  14.009  1.00  0.00    -0.354 N 
ATOM     55  N   UNL     1      -3.584   6.640  14.170  1.00  0.00    -0.248 NA
ATOM     56  C   UNL     1      -2.430   8.612  14.661  1.00  0.00     0.031 C 
ATOM     57  C   UNL     1      -7.964   6.108  14.699  1.00  0.00     0.029 A 
ATOM     58  C   UNL     1      -6.603   6.303  14.535  1.00  0.00     0.049 A 
ATOM     59  H   UNL     1      -5.150   4.970  13.782  1.00  0.00     0.167 HD
ATOM     60  C   UNL     1      -4.480   7.582  14.664  1.00  0.00     0.074 A 
ATOM     61  C   UNL     1      -3.707   8.766  14.982  1.00  0.00     0.031 C 
ATOM     62  C   UNL     1      -5.822   7.478  14.838  1.00  0.00     0.037 A 
BRANCH  49  63
ATOM     63  C   UNL     1      -8.171   2.013  13.132  1.00  0.00     0.058 A 
ATOM     64  C   UNL     1      -8.398   0.886  13.939  1.00  0.00     0.135 A 
ATOM     65  C   UNL     1      -9.147   2.338  12.176  1.00  0.00     0.135 A 
ATOM     66  F   UNL     1      -7.494   0.521  14.861  1.00  0.00    -0.206 F 
ATOM     67  C   UNL     1      -9.532   0.094  13.783  1.00  0.00     0.059 A 
ATOM     68  C   UNL     1     -10.303   1.576  12.021  1.00  0.00     0.059 A 
ATOM     69  F   UNL     1      -8.984   3.406  11.379  1.00  0.00    -0.206 F 
ATOM     70  C   UNL     1     -10.478   0.447  12.820  1.00  0.00     0.060 A 
BRANCH  70  71
ATOM     71  S   UNL     1     -11.944  -0.591  12.631  1.00  0.00     0.124 S 
ATOM     72  O   UNL     1     -11.383  -1.771  11.980  1.00  0.00    -0.237 OA
ATOM     73  O   UNL     1     -12.376  -0.775  14.013  1.00  0.00    -0.237 OA
ATOM     74  O   UNL     1     -12.831   0.220  11.804  1.00  0.00    -0.744 OA
ENDBRANCH  70  71
ENDBRANCH  49  63
BRANCH  50  75
ATOM     75  C   UNL     1       0.158   7.497  13.852  1.00  0.00     0.058 A 
ATOM     76  C   UNL     1       0.701   7.861  15.093  1.00  0.00     0.135 A 
ATOM     77  C   UNL     1       0.827   7.927  12.695  1.00  0.00     0.135 A 
ATOM     78  F   UNL     1       0.095   7.480  16.227  1.00  0.00    -0.206 F 
ATOM     79  C   UNL     1       1.854   8.633  15.186  1.00  0.00     0.059 A 
ATOM     80  C   UNL     1       1.996   8.678  12.763  1.00  0.00     0.059 A 
ATOM     81  F   UNL     1       0.359   7.590  11.483  1.00  0.00    -0.206 F 
ATOM     82  C   UNL     1       2.497   9.035  14.014  1.00  0.00     0.060 A 
BRANCH  82  83
ATOM     83  S   UNL     1       4.025   9.989  14.146  1.00  0.00     0.124 S 
ATOM     84  O   UNL     1       3.522  11.294  14.556  1.00  0.00    -0.237 OA
ATOM     85  O   UNL     1       4.766   9.242  15.158  1.00  0.00    -0.237 OA
ATOM     86  O   UNL     1       4.580   9.919  12.797  1.00  0.00    -0.744 OA
ENDBRANCH  82  83
ENDBRANCH  50  75
BRANCH  62  87
ATOM     87  C   UNL     1      -6.534   8.672  15.411  1.00  0.00     0.058 A 
ATOM     88  C   UNL     1      -6.723   9.845  14.662  1.00  0.00     0.135 A 
ATOM     89  C   UNL     1      -7.051   8.637  16.716  1.00  0.00     0.135 A 
ATOM     90  F   UNL     1      -6.243   9.933  13.412  1.00  0.00    -0.206 F 
ATOM     91  C   UNL     1      -7.368  10.954  15.200  1.00  0.00     0.059 A 
ATOM     92  C   UNL     1      -7.725   9.724  17.264  1.00  0.00     0.059 A 
ATOM     93  F   UNL     1      -6.908   7.536  17.471  1.00  0.00    -0.206 F 
ATOM     94  C   UNL     1      -7.862  10.885  16.504  1.00  0.00     0.060 A 
BRANCH  94  95
ATOM     95  S   UNL     1      -8.703  12.329  17.189  1.00  0.00     0.124 S 
ATOM     96  O   UNL     1      -7.580  13.218  17.465  1.00  0.00    -0.237 OA
ATOM     97  O   UNL     1      -9.577  12.733  16.092  1.00  0.00    -0.237 OA
ATOM     98  O   UNL     1      -9.387  11.797  18.364  1.00  0.00    -0.744 OA
ENDBRANCH  94  95
ENDBRANCH  62  87
ENDBRANCH  36  37
ENDBRANCH  28  31
ENDBRANCH  26  27
ENDBRANCH  25  26
ENDBRANCH  24  25
ENDBRANCH   1  24
TORSDOF 20
