REMARK SMILES CC1(C)OC(=O)C(=CNc2ccccc2C(=O)NCCCCCCNC(=O)c2ccc(-c3c4nc(c(-c5c(F)cc(S(=O)(=O)[O-])cc5F)c5ccc([nH]5)c(-c5c(F)cc(S(=O)(=O)[O-])cc5F)c5nc(c(-c6c(F)cc(S(=O)(=O)[O-])cc6F)c6ccc3[nH]6)C=C5)C=C4)cc2)C(=O)O1
REMARK SMILES IDX 22 1 21 2 20 3 19 4 18 5 16 6 17 7 15 9 10 10 11 11 12 12
REMARK SMILES IDX 14 13 13 14 9 15 8 17 1 18 2 19 3 20 4 21 96 22 5 23 94 24
REMARK SMILES IDX 6 25 7 26 95 27 23 28 24 29 25 30 26 31 27 33 28 34 29 35
REMARK SMILES IDX 93 36 30 37 92 38 31 39 32 40 33 41 86 42 34 43 91 44 85 45
REMARK SMILES IDX 87 46 35 47 90 48 84 49 83 50 36 52 70 53 49 54 69 55 50 56
REMARK SMILES IDX 53 57 68 58 88 59 51 60 52 61 67 63 89 64 54 65 37 66 38 67
REMARK SMILES IDX 47 68 39 69 40 70 46 71 48 72 41 73 42 74 43 75 44 76 45 77
REMARK SMILES IDX 71 78 72 79 81 80 73 81 74 82 80 83 82 84 75 85 76 86 77 87
REMARK SMILES IDX 78 88 79 89 55 90 56 91 65 92 57 93 58 94 64 95 66 96 59 97
REMARK SMILES IDX 60 98 61 99 62 100 63 101
REMARK H PARENT 18 8 9 16 25 32 87 51 53 62
REMARK Flexibility Score: inf
ROOT
ATOM      1  C   UNL     1      -0.102   0.632  -1.142  1.00  0.00     0.002 C 
ENDROOT
BRANCH   1   2
ATOM      2  C   UNL     1       0.140  -0.083  -2.709  1.00  0.00     0.002 C 
BRANCH   2   3
ATOM      3  C   UNL     1      -0.725  -1.207  -3.311  1.00  0.00     0.021 C 
BRANCH   3   4
ATOM      4  C   UNL     1      -2.221  -1.166  -3.072  1.00  0.00     0.116 C 
BRANCH   4   5
ATOM      5  N   UNL     1      -2.784   0.159  -3.159  1.00  0.00    -0.352 N 
ATOM      6  C   UNL     1      -4.018   0.570  -2.722  1.00  0.00     0.253 C 
ATOM      7  O   UNL     1      -4.380   1.726  -2.932  1.00  0.00    -0.269 OA
ATOM      8  H   UNL     1      -2.220   0.847  -3.580  1.00  0.00     0.163 HD
BRANCH   6   9
ATOM      9  C   UNL     1      -4.979  -0.419  -2.178  1.00  0.00     0.063 A 
ATOM     10  C   UNL     1      -4.795  -1.243  -1.044  1.00  0.00     0.051 A 
ATOM     11  C   UNL     1      -5.797  -2.198  -0.781  1.00  0.00     0.027 A 
ATOM     12  C   UNL     1      -6.912  -2.358  -1.614  1.00  0.00     0.002 A 
ATOM     13  C   UNL     1      -6.116  -0.574  -3.002  1.00  0.00     0.016 A 
ATOM     14  C   UNL     1      -7.070  -1.549  -2.731  1.00  0.00     0.001 A 
BRANCH  10  15
ATOM     15  N   UNL     1      -3.677  -1.264  -0.171  1.00  0.00    -0.360 N 
ATOM     16  H   UNL     1      -3.443  -2.141   0.209  1.00  0.00     0.166 HD
BRANCH  15  17
ATOM     17  C   UNL     1      -2.882  -0.214   0.210  1.00  0.00     0.106 C 
ATOM     18  C   UNL     1       2.477   1.667  -1.777  1.00  0.00     0.106 C 
ATOM     19  C   UNL     1       1.859   1.119  -0.456  1.00  0.00     0.252 C 
ATOM     20  C   UNL     1       2.979   1.455   0.606  1.00  0.00     0.106 C 
ATOM     21  O   UNL     1       0.504   2.116   0.227  1.00  0.00    -0.419 OA
ATOM     22  O   UNL     1       1.315  -0.638  -0.816  1.00  0.00    -0.419 OA
ATOM     23  C   UNL     1      -0.986   1.629   0.662  1.00  0.00     0.350 C 
ATOM     24  C   UNL     1      -0.278  -1.319  -0.433  1.00  0.00     0.350 C 
ATOM     25  O   UNL     1      -1.737   2.429   1.209  1.00  0.00    -0.246 OA
ATOM     26  C   UNL     1      -1.541  -0.100   0.276  1.00  0.00     0.161 C 
ATOM     27  O   UNL     1      -0.494  -2.512  -0.584  1.00  0.00    -0.246 OA
ENDBRANCH  15  17
ENDBRANCH  10  15
ENDBRANCH   6   9
ENDBRANCH   4   5
ENDBRANCH   3   4
ENDBRANCH   2   3
ENDBRANCH   1   2
BRANCH   1  28
ATOM     28  C   UNL     1       0.587   0.057   0.825  1.00  0.00     0.021 C 
BRANCH  28  29
ATOM     29  C   UNL     1       1.825  -1.190   1.284  1.00  0.00     0.116 C 
BRANCH  29  30
ATOM     30  N   UNL     1       3.091  -1.228   0.510  1.00  0.00    -0.352 N 
ATOM     31  C   UNL     1       4.393  -1.289   0.931  1.00  0.00     0.251 C 
ATOM     32  H   UNL     1       2.976  -1.206  -0.468  1.00  0.00     0.163 HD
ATOM     33  O   UNL     1       5.335  -0.930   0.239  1.00  0.00    -0.269 OA
BRANCH  31  34
ATOM     34  C   UNL     1       4.588  -1.907   2.230  1.00  0.00     0.039 A 
ATOM     35  C   UNL     1       5.154  -1.231   3.310  1.00  0.00     0.014 A 
ATOM     36  C   UNL     1       4.077  -3.200   2.327  1.00  0.00     0.014 A 
ATOM     37  C   UNL     1       5.183  -1.878   4.540  1.00  0.00     0.010 A 
ATOM     38  C   UNL     1       4.035  -3.801   3.557  1.00  0.00     0.010 A 
ATOM     39  C   UNL     1       4.614  -3.158   4.660  1.00  0.00    -0.014 A 
BRANCH  39  40
ATOM     40  C   UNL     1       4.665  -3.944   5.901  1.00  0.00     0.031 A 
ATOM     41  C   UNL     1       5.436  -5.232   5.875  1.00  0.00     0.074 A 
ATOM     42  C   UNL     1       3.894  -3.585   6.940  1.00  0.00     0.049 A 
ATOM     43  N   UNL     1       5.421  -6.219   6.725  1.00  0.00    -0.248 NA
ATOM     44  C   UNL     1       6.282  -5.469   4.688  1.00  0.00     0.031 C 
ATOM     45  C   UNL     1       3.068  -2.377   7.012  1.00  0.00     0.029 A 
ATOM     46  N   UNL     1       3.656  -4.225   8.124  1.00  0.00    -0.354 N 
ATOM     47  C   UNL     1       6.233  -7.199   6.167  1.00  0.00     0.074 A 
ATOM     48  C   UNL     1       6.653  -6.726   4.869  1.00  0.00     0.031 C 
ATOM     49  C   UNL     1       2.425  -2.358   8.191  1.00  0.00     0.029 A 
ATOM     50  C   UNL     1       2.761  -3.568   8.932  1.00  0.00     0.049 A 
ATOM     51  H   UNL     1       4.085  -5.075   8.373  1.00  0.00     0.167 HD
ATOM     52  C   UNL     1       6.623  -8.371   6.714  1.00  0.00     0.037 A 
ATOM     53  C   UNL     1       2.270  -3.926  10.132  1.00  0.00     0.037 A 
ATOM     54  C   UNL     1       6.220  -8.790   8.028  1.00  0.00     0.049 A 
ATOM     55  C   UNL     1       2.732  -5.231  10.727  1.00  0.00     0.074 A 
ATOM     56  C   UNL     1       6.586  -9.926   8.723  1.00  0.00     0.029 A 
ATOM     57  N   UNL     1       5.366  -8.068   8.852  1.00  0.00    -0.354 N 
ATOM     58  N   UNL     1       3.544  -6.129  10.218  1.00  0.00    -0.248 NA
ATOM     59  C   UNL     1       2.221  -5.567  12.060  1.00  0.00     0.031 C 
ATOM     60  C   UNL     1       5.928  -9.907   9.956  1.00  0.00     0.029 A 
ATOM     61  C   UNL     1       5.191  -8.735  10.049  1.00  0.00     0.049 A 
ATOM     62  H   UNL     1       4.947  -7.208   8.618  1.00  0.00     0.167 HD
ATOM     63  C   UNL     1       3.674  -7.118  11.186  1.00  0.00     0.074 A 
ATOM     64  C   UNL     1       2.863  -6.699  12.313  1.00  0.00     0.031 C 
ATOM     65  C   UNL     1       4.393  -8.267  11.155  1.00  0.00     0.037 A 
BRANCH  52  66
ATOM     66  C   UNL     1       7.549  -9.243   5.913  1.00  0.00     0.058 A 
ATOM     67  C   UNL     1       8.868  -8.847   5.634  1.00  0.00     0.135 A 
ATOM     68  C   UNL     1       7.129 -10.495   5.438  1.00  0.00     0.135 A 
ATOM     69  F   UNL     1       9.316  -7.649   6.042  1.00  0.00    -0.206 F 
ATOM     70  C   UNL     1       9.728  -9.648   4.891  1.00  0.00     0.059 A 
ATOM     71  C   UNL     1       7.984 -11.328   4.721  1.00  0.00     0.059 A 
ATOM     72  F   UNL     1       5.876 -10.921   5.666  1.00  0.00    -0.206 F 
ATOM     73  C   UNL     1       9.278 -10.890   4.444  1.00  0.00     0.060 A 
BRANCH  73  74
ATOM     74  S   UNL     1      10.422 -11.928   3.510  1.00  0.00     0.124 S 
ATOM     75  O   UNL     1      10.503 -11.208   2.244  1.00  0.00    -0.237 OA
ATOM     76  O   UNL     1      11.622 -11.890   4.339  1.00  0.00    -0.237 OA
ATOM     77  O   UNL     1       9.742 -13.219   3.455  1.00  0.00    -0.744 OA
ENDBRANCH  73  74
ENDBRANCH  52  66
BRANCH  53  78
ATOM     78  C   UNL     1       1.338  -3.030  10.864  1.00  0.00     0.058 A 
ATOM     79  C   UNL     1       1.747  -2.386  12.041  1.00  0.00     0.135 A 
ATOM     80  C   UNL     1       0.029  -2.798  10.415  1.00  0.00     0.135 A 
ATOM     81  F   UNL     1       2.992  -2.569  12.507  1.00  0.00    -0.206 F 
ATOM     82  C   UNL     1       0.882  -1.579  12.771  1.00  0.00     0.059 A 
ATOM     83  C   UNL     1      -0.847  -1.970  11.112  1.00  0.00     0.059 A 
ATOM     84  F   UNL     1      -0.405  -3.365   9.278  1.00  0.00    -0.206 F 
ATOM     85  C   UNL     1      -0.416  -1.381  12.300  1.00  0.00     0.060 A 
BRANCH  85  86
ATOM     86  S   UNL     1      -1.528  -0.328  13.256  1.00  0.00     0.124 S 
ATOM     87  O   UNL     1      -1.810  -1.172  14.411  1.00  0.00    -0.237 OA
ATOM     88  O   UNL     1      -0.697   0.845  13.509  1.00  0.00    -0.237 OA
ATOM     89  O   UNL     1      -2.648  -0.110  12.345  1.00  0.00    -0.744 OA
ENDBRANCH  85  86
ENDBRANCH  53  78
BRANCH  65  90
ATOM     90  C   UNL     1       4.378  -9.118  12.393  1.00  0.00     0.058 A 
ATOM     91  C   UNL     1       3.249  -9.863  12.762  1.00  0.00     0.135 A 
ATOM     92  C   UNL     1       5.535  -9.234  13.180  1.00  0.00     0.135 A 
ATOM     93  F   UNL     1       2.118  -9.780  12.044  1.00  0.00    -0.206 F 
ATOM     94  C   UNL     1       3.258 -10.676  13.889  1.00  0.00     0.059 A 
ATOM     95  C   UNL     1       5.577 -10.068  14.291  1.00  0.00     0.059 A 
ATOM     96  F   UNL     1       6.645  -8.552  12.858  1.00  0.00    -0.206 F 
ATOM     97  C   UNL     1       4.429 -10.775  14.644  1.00  0.00     0.060 A 
BRANCH  97  98
ATOM     98  S   UNL     1       4.438 -11.867  16.080  1.00  0.00     0.124 S 
ATOM     99  O   UNL     1       3.622 -11.113  17.026  1.00  0.00    -0.237 OA
ATOM    100  O   UNL     1       3.832 -13.084  15.549  1.00  0.00    -0.237 OA
ATOM    101  O   UNL     1       5.854 -11.974  16.417  1.00  0.00    -0.744 OA
ENDBRANCH  97  98
ENDBRANCH  65  90
ENDBRANCH  39  40
ENDBRANCH  31  34
ENDBRANCH  29  30
ENDBRANCH  28  29
ENDBRANCH   1  28
TORSDOF 18
