REMARK SMILES O=C(COc1ccccc1/C=C1/SC(=O)N(c2ccc(F)cc2)C1=O)NCCCCCCNC(=O)c1ccc(-c2c3nc(c(-c4c(F)cc(S(=O)(=O)[O-])cc4F)c4ccc([nH]4)c(-c4c(F)cc(S(=O)(=O)[O-])cc4F)c4nc(c(-c5c(F)cc(S(=O)(=O)[O-])cc5F)c5ccc2[nH]5)C=C4)C=C3)cc1
REMARK SMILES IDX 29 1 28 2 27 3 26 4 1 5 2 6 3 8 4 9 5 10 6 11 10 12 7 13
REMARK SMILES IDX 9 14 8 15 11 16 12 17 13 18 24 19 14 20 16 21 25 22 15 23
REMARK SMILES IDX 17 24 18 25 23 26 19 27 22 28 20 29 21 30 30 31 31 32 32 33
REMARK SMILES IDX 33 34 34 35 35 37 36 38 37 39 101 40 38 41 100 42 39 43
REMARK SMILES IDX 40 44 41 45 94 46 42 47 99 48 93 49 95 50 43 51 98 52 92 53
REMARK SMILES IDX 91 54 44 56 78 57 57 58 77 59 58 60 61 61 76 62 96 63 59 64
REMARK SMILES IDX 60 65 75 67 97 68 62 69 45 70 46 71 55 72 47 73 48 74 54 75
REMARK SMILES IDX 56 76 49 77 50 78 51 79 52 80 53 81 79 82 80 83 89 84 81 85
REMARK SMILES IDX 82 86 88 87 90 88 83 89 84 90 85 91 86 92 87 93 63 94 64 95
REMARK SMILES IDX 73 96 65 97 66 98 72 99 74 100 67 101 68 102 69 103 70 104
REMARK SMILES IDX 71 105
REMARK H PARENT 26 7 33 36 95 55 61 66
REMARK Flexibility Score: inf
ROOT
ATOM      1  C   UNL     1       3.070   4.187  -0.090  1.00  0.00     0.002 C 
ENDROOT
BRANCH   1   2
ATOM      2  C   UNL     1       1.599   3.842   0.210  1.00  0.00     0.021 C 
BRANCH   2   3
ATOM      3  C   UNL     1       1.034   2.456  -0.161  1.00  0.00     0.116 C 
BRANCH   3   4
ATOM      4  N   UNL     1       1.612   1.279   0.498  1.00  0.00    -0.353 N 
ATOM      5  O   UNL     1      -0.029  -0.162  -0.217  1.00  0.00    -0.271 OA
ATOM      6  C   UNL     1       1.083   0.003   0.286  1.00  0.00     0.257 C 
ATOM      7  H   UNL     1       2.384   1.389   1.098  1.00  0.00     0.163 HD
BRANCH   6   8
ATOM      8  C   UNL     1       1.989  -1.225   0.646  1.00  0.00     0.329 C 
BRANCH   8   9
ATOM      9  O   UNL     1       3.068  -1.693  -0.175  1.00  0.00    -0.483 OA
BRANCH   9  10
ATOM     10  C   UNL     1       2.730  -2.208  -1.407  1.00  0.00     0.127 A 
ATOM     11  C   UNL     1       2.823  -3.585  -1.601  1.00  0.00     0.047 A 
ATOM     12  C   UNL     1       2.533  -1.375  -2.530  1.00  0.00     0.018 A 
ATOM     13  C   UNL     1       2.563  -4.131  -2.864  1.00  0.00     0.004 A 
ATOM     14  C   UNL     1       2.178  -1.924  -3.763  1.00  0.00     0.012 A 
ATOM     15  C   UNL     1       2.187  -3.307  -3.927  1.00  0.00     0.001 A 
BRANCH  12  16
ATOM     16  C   UNL     1       2.756   0.075  -2.410  1.00  0.00     0.033 C 
ATOM     17  C   UNL     1       3.997   0.453  -2.065  1.00  0.00     0.084 C 
ATOM     18  S   UNL     1       4.421   1.085  -0.529  1.00  0.00    -0.022 SA
ATOM     19  C   UNL     1       5.225   0.295  -2.883  1.00  0.00     0.272 C 
ATOM     20  C   UNL     1       5.999   1.553  -1.049  1.00  0.00     0.298 C 
ATOM     21  N   UNL     1       6.269   1.003  -2.281  1.00  0.00    -0.236 N 
ATOM     22  O   UNL     1       5.239  -0.334  -3.932  1.00  0.00    -0.268 OA
ATOM     23  O   UNL     1       6.650   2.331  -0.365  1.00  0.00    -0.260 OA
BRANCH  21  24
ATOM     24  C   UNL     1       7.526   1.218  -2.912  1.00  0.00     0.053 A 
ATOM     25  C   UNL     1       7.655   1.201  -4.307  1.00  0.00     0.030 A 
ATOM     26  C   UNL     1       8.671   1.487  -2.140  1.00  0.00     0.030 A 
ATOM     27  C   UNL     1       8.891   1.440  -4.910  1.00  0.00     0.041 A 
ATOM     28  C   UNL     1       9.905   1.724  -2.741  1.00  0.00     0.041 A 
ATOM     29  C   UNL     1      10.004   1.694  -4.121  1.00  0.00     0.123 A 
ATOM     30  F   UNL     1      11.192   1.910  -4.699  1.00  0.00    -0.207 F 
ENDBRANCH  21  24
ENDBRANCH  12  16
ENDBRANCH   9  10
ENDBRANCH   8   9
ENDBRANCH   6   8
ENDBRANCH   3   4
ENDBRANCH   2   3
ENDBRANCH   1   2
BRANCH   1  31
ATOM     31  C   UNL     1       3.550   4.125  -1.550  1.00  0.00     0.002 C 
BRANCH  31  32
ATOM     32  C   UNL     1       3.167   5.272  -2.478  1.00  0.00     0.021 C 
BRANCH  32  33
ATOM     33  C   UNL     1       3.655   6.658  -2.075  1.00  0.00     0.116 C 
BRANCH  33  34
ATOM     34  N   UNL     1       5.103   6.835  -2.091  1.00  0.00    -0.352 N 
ATOM     35  C   UNL     1       5.819   7.960  -2.457  1.00  0.00     0.251 C 
ATOM     36  H   UNL     1       5.636   6.058  -1.807  1.00  0.00     0.163 HD
ATOM     37  O   UNL     1       7.046   7.945  -2.465  1.00  0.00    -0.269 OA
BRANCH  35  38
ATOM     38  C   UNL     1       5.086   9.173  -2.894  1.00  0.00     0.039 A 
ATOM     39  C   UNL     1       5.437   9.784  -4.101  1.00  0.00     0.014 A 
ATOM     40  C   UNL     1       3.994   9.645  -2.163  1.00  0.00     0.014 A 
ATOM     41  C   UNL     1       4.620  10.788  -4.630  1.00  0.00     0.010 A 
ATOM     42  C   UNL     1       3.131  10.573  -2.737  1.00  0.00     0.010 A 
ATOM     43  C   UNL     1       3.423  11.143  -3.985  1.00  0.00    -0.014 A 
BRANCH  43  44
ATOM     44  C   UNL     1       2.440  12.065  -4.617  1.00  0.00     0.031 A 
ATOM     45  C   UNL     1       2.046  13.345  -3.932  1.00  0.00     0.074 A 
ATOM     46  C   UNL     1       1.828  11.703  -5.763  1.00  0.00     0.049 A 
ATOM     47  N   UNL     1       1.149  14.230  -4.285  1.00  0.00    -0.248 NA
ATOM     48  C   UNL     1       2.726  13.654  -2.664  1.00  0.00     0.031 C 
ATOM     49  C   UNL     1       2.064  10.452  -6.489  1.00  0.00     0.029 A 
ATOM     50  N   UNL     1       0.868  12.340  -6.511  1.00  0.00    -0.354 N 
ATOM     51  C   UNL     1       1.151  15.193  -3.283  1.00  0.00     0.074 A 
ATOM     52  C   UNL     1       2.087  14.746  -2.274  1.00  0.00     0.031 C 
ATOM     53  C   UNL     1       1.288  10.423  -7.583  1.00  0.00     0.029 A 
ATOM     54  C   UNL     1       0.467  11.630  -7.619  1.00  0.00     0.049 A 
ATOM     55  H   UNL     1       0.502  13.223  -6.276  1.00  0.00     0.167 HD
ATOM     56  C   UNL     1       0.460  16.357  -3.221  1.00  0.00     0.037 A 
ATOM     57  C   UNL     1      -0.466  11.906  -8.552  1.00  0.00     0.037 A 
ATOM     58  C   UNL     1      -0.466  16.798  -4.232  1.00  0.00     0.049 A 
ATOM     59  C   UNL     1      -1.227  13.200  -8.466  1.00  0.00     0.074 A 
ATOM     60  C   UNL     1      -1.172  17.986  -4.293  1.00  0.00     0.029 A 
ATOM     61  N   UNL     1      -0.826  16.063  -5.354  1.00  0.00    -0.354 N 
ATOM     62  N   UNL     1      -1.151  14.140  -7.554  1.00  0.00    -0.248 NA
ATOM     63  C   UNL     1      -2.196  13.476  -9.535  1.00  0.00     0.031 C 
ATOM     64  C   UNL     1      -1.996  17.948  -5.423  1.00  0.00     0.029 A 
ATOM     65  C   UNL     1      -1.765  16.759  -6.098  1.00  0.00     0.049 A 
ATOM     66  H   UNL     1      -0.466  15.176  -5.586  1.00  0.00     0.167 HD
ATOM     67  C   UNL     1      -2.052  15.125  -7.944  1.00  0.00     0.074 A 
ATOM     68  C   UNL     1      -2.646  14.674  -9.187  1.00  0.00     0.031 C 
ATOM     69  C   UNL     1      -2.359  16.294  -7.328  1.00  0.00     0.037 A 
BRANCH  56  70
ATOM     70  C   UNL     1       0.686  17.229  -2.013  1.00  0.00     0.058 A 
ATOM     71  C   UNL     1       1.920  17.860  -1.781  1.00  0.00     0.135 A 
ATOM     72  C   UNL     1      -0.336  17.432  -1.072  1.00  0.00     0.135 A 
ATOM     73  F   UNL     1       2.938  17.693  -2.641  1.00  0.00    -0.206 F 
ATOM     74  C   UNL     1       2.150  18.614  -0.635  1.00  0.00     0.059 A 
ATOM     75  C   UNL     1      -0.139  18.212   0.065  1.00  0.00     0.059 A 
ATOM     76  F   UNL     1      -1.538  16.860  -1.244  1.00  0.00    -0.206 F 
ATOM     77  C   UNL     1       1.115  18.778   0.287  1.00  0.00     0.060 A 
BRANCH  77  78
ATOM     78  S   UNL     1       1.441  19.729   1.786  1.00  0.00     0.124 S 
ATOM     79  O   UNL     1       2.284  18.804   2.538  1.00  0.00    -0.237 OA
ATOM     80  O   UNL     1       2.112  20.915   1.264  1.00  0.00    -0.237 OA
ATOM     81  O   UNL     1       0.110  19.957   2.340  1.00  0.00    -0.744 OA
ENDBRANCH  77  78
ENDBRANCH  56  70
BRANCH  57  82
ATOM     82  C   UNL     1      -0.712  10.936  -9.652  1.00  0.00     0.058 A 
ATOM     83  C   UNL     1      -0.299  11.206 -10.965  1.00  0.00     0.135 A 
ATOM     84  C   UNL     1      -1.316   9.693  -9.401  1.00  0.00     0.135 A 
ATOM     85  F   UNL     1       0.275  12.384 -11.258  1.00  0.00    -0.206 F 
ATOM     86  C   UNL     1      -0.472  10.281 -11.989  1.00  0.00     0.059 A 
ATOM     87  C   UNL     1      -1.477   8.741 -10.403  1.00  0.00     0.059 A 
ATOM     88  F   UNL     1      -1.716   9.379  -8.159  1.00  0.00    -0.206 F 
ATOM     89  C   UNL     1      -1.053   9.046 -11.696  1.00  0.00     0.060 A 
BRANCH  89  90
ATOM     90  S   UNL     1      -1.189   7.818 -13.014  1.00  0.00     0.124 S 
ATOM     91  O   UNL     1      -2.247   8.388 -13.840  1.00  0.00    -0.237 OA
ATOM     92  O   UNL     1       0.152   7.838 -13.589  1.00  0.00    -0.237 OA
ATOM     93  O   UNL     1      -1.537   6.594 -12.298  1.00  0.00    -0.744 OA
ENDBRANCH  89  90
ENDBRANCH  57  82
BRANCH  69  94
ATOM     94  C   UNL     1      -3.383  17.177  -7.989  1.00  0.00     0.058 A 
ATOM     95  C   UNL     1      -4.746  16.841  -8.004  1.00  0.00     0.135 A 
ATOM     96  C   UNL     1      -3.005  18.401  -8.565  1.00  0.00     0.135 A 
ATOM     97  F   UNL     1      -5.161  15.679  -7.475  1.00  0.00    -0.206 F 
ATOM     98  C   UNL     1      -5.695  17.678  -8.582  1.00  0.00     0.059 A 
ATOM     99  C   UNL     1      -3.940  19.267  -9.122  1.00  0.00     0.059 A 
ATOM    100  F   UNL     1      -1.715  18.776  -8.570  1.00  0.00    -0.206 F 
ATOM    101  C   UNL     1      -5.283  18.892  -9.135  1.00  0.00     0.060 A 
BRANCH 101 102
ATOM    102  S   UNL     1      -6.531  19.985  -9.846  1.00  0.00     0.124 S 
ATOM    103  O   UNL     1      -6.883  19.274 -11.070  1.00  0.00    -0.237 OA
ATOM    104  O   UNL     1      -7.556  20.005  -8.807  1.00  0.00    -0.237 OA
ATOM    105  O   UNL     1      -5.814  21.243 -10.035  1.00  0.00    -0.744 OA
ENDBRANCH 101 102
ENDBRANCH  69  94
ENDBRANCH  43  44
ENDBRANCH  35  38
ENDBRANCH  33  34
ENDBRANCH  32  33
ENDBRANCH  31  32
ENDBRANCH   1  31
TORSDOF 20
