REMARK SMILES COc1ccc(-c2csc(NC(=O)[C@H](CC(=O)NCCCCCCNC(=O)c3ccc(-c4c5nc(c(-c6c(F)cc(S(=O)(=O)[O-])cc6F)c6ccc([nH]6)c(-c6c(F)cc(S(=O)(=O)[O-])cc6F)c6nc(c(-c7c(F)cc(S(=O)(=O)[O-])cc7F)c7ccc4[nH]7)C=C6)C=C5)cc3)[NH+]3CCCCC3)n2)cc1
REMARK SMILES IDX 20 1 19 2 18 3 16 4 17 5 15 7 14 8 12 9 11 10 13 12 10 13
REMARK SMILES IDX 7 14 8 15 100 16 9 17 6 18 3 19 4 20 102 21 5 22 101 23 2 24
REMARK SMILES IDX 1 25 94 26 95 27 99 28 96 30 98 31 97 32 21 33 22 34 23 35
REMARK SMILES IDX 24 36 25 37 26 38 27 40 28 41 29 42 93 43 30 44 92 45 31 46
REMARK SMILES IDX 32 47 33 48 86 49 34 50 91 51 85 52 87 53 35 54 90 55 84 56
REMARK SMILES IDX 83 57 36 59 70 60 49 61 69 62 50 63 53 64 68 65 88 66 51 67
REMARK SMILES IDX 52 68 67 70 89 71 54 72 37 73 38 74 47 75 39 76 40 77 46 78
REMARK SMILES IDX 48 79 41 80 42 81 43 82 44 83 45 84 71 85 72 86 81 87 73 88
REMARK SMILES IDX 74 89 80 90 82 91 75 92 76 93 77 94 78 95 79 96 55 97 56 98
REMARK SMILES IDX 65 99 57 100 58 101 64 102 66 103 59 104 60 105 61 106
REMARK SMILES IDX 62 107 63 108
REMARK H PARENT 18 6 11 11 94 29 25 39 87 58 53 69
REMARK Flexibility Score: inf
ROOT
ATOM      1  C   UNL     1       1.246  12.086   1.800  1.00  0.00     0.021 C 
ENDROOT
BRANCH   1   2
ATOM      2  C   UNL     1       2.231  11.031   1.318  1.00  0.00     0.116 C 
BRANCH   2   3
ATOM      3  N   UNL     1       3.606  11.457   1.519  1.00  0.00    -0.356 N 
ATOM      4  C   UNL     1       4.584  10.916   2.289  1.00  0.00     0.226 C 
ATOM      5  O   UNL     1       5.702  11.432   2.272  1.00  0.00    -0.275 OA
ATOM      6  H   UNL     1       3.869  12.263   1.019  1.00  0.00     0.163 HD
BRANCH   4   7
ATOM      7  C   UNL     1       4.303   9.705   3.144  1.00  0.00     0.175 C 
BRANCH   7   8
ATOM      8  C   UNL     1       4.015  10.063   4.614  1.00  0.00     0.284 C 
BRANCH   8   9
ATOM      9  C   UNL     1       2.694  10.874   4.747  1.00  0.00     0.285 C 
ATOM     10  N   UNL     1       2.632  12.176   5.174  1.00  0.00    -0.297 N 
ATOM     11  H   UNL     1       2.027  12.387   5.921  1.00  0.00     0.172 HD
ATOM     12  O   UNL     1       1.599  10.361   4.473  1.00  0.00    -0.268 OA
BRANCH  10  13
ATOM     13  C   UNL     1       3.360  13.204   4.627  1.00  0.00     0.190 A 
ATOM     14  C   UNL     1       3.751  15.014   3.430  1.00  0.00     0.084 A 
ATOM     15  C   UNL     1       5.048  14.670   3.764  1.00  0.00     0.097 A 
ATOM     16  N   UNL     1       2.783  14.219   4.023  1.00  0.00    -0.220 NA
ATOM     17  S   UNL     1       5.040  13.324   4.830  1.00  0.00    -0.105 S 
BRANCH  14  18
ATOM     18  C   UNL     1       3.409  16.126   2.547  1.00  0.00     0.001 A 
ATOM     19  C   UNL     1       2.800  18.350   0.923  1.00  0.00     0.118 A 
ATOM     20  C   UNL     1       3.899  17.544   0.631  1.00  0.00     0.047 A 
ATOM     21  C   UNL     1       1.963  18.007   1.984  1.00  0.00     0.047 A 
ATOM     22  C   UNL     1       4.207  16.444   1.439  1.00  0.00     0.014 A 
ATOM     23  C   UNL     1       2.264  16.897   2.788  1.00  0.00     0.014 A 
BRANCH  19  24
ATOM     24  O   UNL     1       2.613  19.416   0.086  1.00  0.00    -0.497 OA
ATOM     25  C   UNL     1       2.073  20.579   0.707  1.00  0.00     0.278 C 
ENDBRANCH  19  24
ENDBRANCH  14  18
ENDBRANCH  10  13
ENDBRANCH   8   9
BRANCH   8  26
ATOM     26  N   UNL     1       3.974   8.859   5.534  1.00  0.00    -0.324 N 
ATOM     27  C   UNL     1       2.918   7.874   5.218  1.00  0.00     0.262 C 
ATOM     28  C   UNL     1       5.289   8.192   5.596  1.00  0.00     0.262 C 
ATOM     29  H   UNL     1       3.735   9.240   6.449  1.00  0.00     0.348 HD
ATOM     30  C   UNL     1       2.884   6.720   6.226  1.00  0.00     0.062 C 
ATOM     31  C   UNL     1       5.315   7.066   6.630  1.00  0.00     0.062 C 
ATOM     32  C   UNL     1       4.235   6.033   6.340  1.00  0.00     0.012 C 
ENDBRANCH   8  26
ENDBRANCH   7   8
ENDBRANCH   4   7
ENDBRANCH   2   3
ENDBRANCH   1   2
BRANCH   1  33
ATOM     33  C   UNL     1       1.240  13.362   0.959  1.00  0.00     0.002 C 
BRANCH  33  34
ATOM     34  C   UNL     1       0.478  13.226  -0.358  1.00  0.00     0.002 C 
BRANCH  34  35
ATOM     35  C   UNL     1      -0.958  12.720  -0.207  1.00  0.00     0.021 C 
BRANCH  35  36
ATOM     36  C   UNL     1      -1.767  13.445   0.863  1.00  0.00     0.116 C 
BRANCH  36  37
ATOM     37  N   UNL     1      -1.977  14.842   0.514  1.00  0.00    -0.352 N 
ATOM     38  C   UNL     1      -3.160  15.463   0.194  1.00  0.00     0.251 C 
ATOM     39  H   UNL     1      -1.174  15.411   0.506  1.00  0.00     0.163 HD
ATOM     40  O   UNL     1      -3.171  16.567  -0.330  1.00  0.00    -0.269 OA
BRANCH  38  41
ATOM     41  C   UNL     1      -4.421  14.754   0.492  1.00  0.00     0.039 A 
ATOM     42  C   UNL     1      -5.372  14.592  -0.514  1.00  0.00     0.014 A 
ATOM     43  C   UNL     1      -4.624  14.208   1.764  1.00  0.00     0.014 A 
ATOM     44  C   UNL     1      -6.517  13.836  -0.255  1.00  0.00     0.010 A 
ATOM     45  C   UNL     1      -5.722  13.389   1.992  1.00  0.00     0.010 A 
ATOM     46  C   UNL     1      -6.688  13.207   0.991  1.00  0.00    -0.014 A 
BRANCH  46  47
ATOM     47  C   UNL     1      -7.883  12.374   1.277  1.00  0.00     0.031 A 
ATOM     48  C   UNL     1      -8.842  12.793   2.360  1.00  0.00     0.074 A 
ATOM     49  C   UNL     1      -8.078  11.223   0.605  1.00  0.00     0.049 A 
ATOM     50  N   UNL     1      -9.912  12.182   2.799  1.00  0.00    -0.248 NA
ATOM     51  C   UNL     1      -8.541  14.053   3.060  1.00  0.00     0.031 C 
ATOM     52  C   UNL     1      -7.197  10.692  -0.438  1.00  0.00     0.029 A 
ATOM     53  N   UNL     1      -9.078  10.289   0.700  1.00  0.00    -0.354 N 
ATOM     54  C   UNL     1     -10.405  12.977   3.827  1.00  0.00     0.074 A 
ATOM     55  C   UNL     1      -9.479  14.075   3.994  1.00  0.00     0.031 C 
ATOM     56  C   UNL     1      -7.714   9.546  -0.908  1.00  0.00     0.029 A 
ATOM     57  C   UNL     1      -8.937   9.236  -0.174  1.00  0.00     0.049 A 
ATOM     58  H   UNL     1      -9.827  10.364   1.335  1.00  0.00     0.167 HD
ATOM     59  C   UNL     1     -11.542  12.823   4.546  1.00  0.00     0.037 A 
ATOM     60  C   UNL     1      -9.705   8.145  -0.359  1.00  0.00     0.037 A 
ATOM     61  C   UNL     1     -12.463  11.731   4.365  1.00  0.00     0.049 A 
ATOM     62  C   UNL     1     -10.947   7.977   0.475  1.00  0.00     0.074 A 
ATOM     63  C   UNL     1     -13.662  11.500   5.014  1.00  0.00     0.029 A 
ATOM     64  N   UNL     1     -12.283  10.684   3.473  1.00  0.00    -0.354 N 
ATOM     65  N   UNL     1     -11.431   8.767   1.404  1.00  0.00    -0.248 NA
ATOM     66  C   UNL     1     -11.752   6.772   0.232  1.00  0.00     0.031 C 
ATOM     67  C   UNL     1     -14.182  10.287   4.552  1.00  0.00     0.029 A 
ATOM     68  C   UNL     1     -13.338   9.792   3.570  1.00  0.00     0.049 A 
ATOM     69  H   UNL     1     -11.518  10.589   2.860  1.00  0.00     0.167 HD
ATOM     70  C   UNL     1     -12.613   8.172   1.832  1.00  0.00     0.074 A 
ATOM     71  C   UNL     1     -12.775   6.961   1.054  1.00  0.00     0.031 C 
ATOM     72  C   UNL     1     -13.488   8.593   2.780  1.00  0.00     0.037 A 
BRANCH  59  73
ATOM     73  C   UNL     1     -11.847  13.863   5.592  1.00  0.00     0.058 A 
ATOM     74  C   UNL     1     -12.167  15.187   5.245  1.00  0.00     0.135 A 
ATOM     75  C   UNL     1     -11.827  13.535   6.957  1.00  0.00     0.135 A 
ATOM     76  F   UNL     1     -12.188  15.563   3.957  1.00  0.00    -0.206 F 
ATOM     77  C   UNL     1     -12.412  16.155   6.213  1.00  0.00     0.059 A 
ATOM     78  C   UNL     1     -12.103  14.480   7.942  1.00  0.00     0.059 A 
ATOM     79  F   UNL     1     -11.528  12.286   7.348  1.00  0.00    -0.206 F 
ATOM     80  C   UNL     1     -12.375  15.792   7.560  1.00  0.00     0.060 A 
BRANCH  80  81
ATOM     81  S   UNL     1     -12.681  17.065   8.803  1.00  0.00     0.124 S 
ATOM     82  O   UNL     1     -11.457  17.857   8.716  1.00  0.00    -0.237 OA
ATOM     83  O   UNL     1     -13.889  17.710   8.298  1.00  0.00    -0.237 OA
ATOM     84  O   UNL     1     -12.848  16.304  10.036  1.00  0.00    -0.744 OA
ENDBRANCH  80  81
ENDBRANCH  59  73
BRANCH  60  85
ATOM     85  C   UNL     1      -9.341   7.146  -1.401  1.00  0.00     0.058 A 
ATOM     86  C   UNL     1     -10.118   7.001  -2.560  1.00  0.00     0.135 A 
ATOM     87  C   UNL     1      -8.205   6.332  -1.271  1.00  0.00     0.135 A 
ATOM     88  F   UNL     1     -11.218   7.751  -2.728  1.00  0.00    -0.206 F 
ATOM     89  C   UNL     1      -9.792   6.076  -3.546  1.00  0.00     0.059 A 
ATOM     90  C   UNL     1      -7.843   5.418  -2.256  1.00  0.00     0.059 A 
ATOM     91  F   UNL     1      -7.419   6.441  -0.189  1.00  0.00    -0.206 F 
ATOM     92  C   UNL     1      -8.649   5.292  -3.387  1.00  0.00     0.060 A 
BRANCH  92  93
ATOM     93  S   UNL     1      -8.207   4.132  -4.699  1.00  0.00     0.124 S 
ATOM     94  O   UNL     1      -9.244   3.116  -4.556  1.00  0.00    -0.237 OA
ATOM     95  O   UNL     1      -8.294   4.971  -5.890  1.00  0.00    -0.237 OA
ATOM     96  O   UNL     1      -6.857   3.711  -4.335  1.00  0.00    -0.744 OA
ENDBRANCH  92  93
ENDBRANCH  60  85
BRANCH  72  97
ATOM     97  C   UNL     1     -14.724   7.763   3.002  1.00  0.00     0.058 A 
ATOM     98  C   UNL     1     -14.673   6.507   3.625  1.00  0.00     0.135 A 
ATOM     99  C   UNL     1     -15.986   8.262   2.637  1.00  0.00     0.135 A 
ATOM    100  F   UNL     1     -13.492   5.980   3.988  1.00  0.00    -0.206 F 
ATOM    101  C   UNL     1     -15.826   5.763   3.856  1.00  0.00     0.059 A 
ATOM    102  C   UNL     1     -17.154   7.550   2.888  1.00  0.00     0.059 A 
ATOM    103  F   UNL     1     -16.093   9.464   2.048  1.00  0.00    -0.206 F 
ATOM    104  C   UNL     1     -17.063   6.296   3.488  1.00  0.00     0.060 A 
BRANCH 104 105
ATOM    105  S   UNL     1     -18.553   5.337   3.830  1.00  0.00     0.124 S 
ATOM    106  O   UNL     1     -18.449   4.268   2.842  1.00  0.00    -0.237 OA
ATOM    107  O   UNL     1     -18.354   4.938   5.220  1.00  0.00    -0.237 OA
ATOM    108  O   UNL     1     -19.633   6.294   3.607  1.00  0.00    -0.744 OA
ENDBRANCH 104 105
ENDBRANCH  72  97
ENDBRANCH  46  47
ENDBRANCH  38  41
ENDBRANCH  36  37
ENDBRANCH  35  36
ENDBRANCH  34  35
ENDBRANCH  33  34
ENDBRANCH   1  33
TORSDOF 22
