REMARK SMILES O=C(CCCNC(=O)CN1CSCC1=O)NCCCCCCNC(=O)c1ccc(-c2c3nc(c(-c4c(F)cc(S(=O)(=O)[O-])cc4F)c4ccc([nH]4)c(-c4c(F)cc(S(=O)(=O)[O-])cc4F)c4nc(c(-c5c(F)cc(S(=O)(=O)[O-])cc5F)c5ccc2[nH]5)C=C4)C=C3)cc1
REMARK SMILES IDX 18 1 17 2 16 3 1 4 2 5 3 7 4 8 5 9 6 10 7 11 8 13 9 14 10 15
REMARK SMILES IDX 11 16 14 17 12 18 13 19 15 20 19 21 20 22 21 23 22 24 23 25
REMARK SMILES IDX 24 26 25 28 26 29 27 30 91 31 28 32 90 33 29 34 30 35 31 36
REMARK SMILES IDX 84 37 32 38 89 39 83 40 85 41 33 42 88 43 82 44 81 45 34 47
REMARK SMILES IDX 68 48 47 49 67 50 48 51 51 52 66 53 86 54 49 55 50 56 65 58
REMARK SMILES IDX 87 59 52 60 35 61 36 62 45 63 37 64 38 65 44 66 46 67 39 68
REMARK SMILES IDX 40 69 41 70 42 71 43 72 69 73 70 74 79 75 71 76 72 77 78 78
REMARK SMILES IDX 80 79 73 80 74 81 75 82 76 83 77 84 53 85 54 86 63 87 55 88
REMARK SMILES IDX 56 89 62 90 64 91 57 92 58 93 59 94 60 95 61 96
REMARK H PARENT 16 6 6 12 23 27 85 46 51 57
REMARK Flexibility Score: inf
ROOT
ATOM      1  C   UNL     1       2.536   2.042   2.878  1.00  0.00     0.021 C 
ENDROOT
BRANCH   1   2
ATOM      2  C   UNL     1       1.947   1.762   1.498  1.00  0.00     0.116 C 
BRANCH   2   3
ATOM      3  N   UNL     1       2.519   0.562   0.923  1.00  0.00    -0.356 N 
ATOM      4  O   UNL     1       0.845   0.147  -0.597  1.00  0.00    -0.275 OA
ATOM      5  C   UNL     1       1.944  -0.117  -0.123  1.00  0.00     0.220 C 
ATOM      6  H   UNL     1       3.360   0.216   1.300  1.00  0.00     0.163 HD
BRANCH   5   7
ATOM      7  C   UNL     1       2.848  -1.185  -0.702  1.00  0.00     0.102 C 
BRANCH   7   8
ATOM      8  C   UNL     1       3.770  -0.599  -1.775  1.00  0.00     0.031 C 
BRANCH   8   9
ATOM      9  C   UNL     1       4.795   0.408  -1.255  1.00  0.00     0.116 C 
BRANCH   9  10
ATOM     10  N   UNL     1       5.801  -0.199  -0.408  1.00  0.00    -0.355 N 
ATOM     11  C   UNL     1       7.158  -0.225  -0.567  1.00  0.00     0.239 C 
ATOM     12  H   UNL     1       5.459  -0.658   0.393  1.00  0.00     0.163 HD
ATOM     13  O   UNL     1       7.834  -0.526   0.420  1.00  0.00    -0.273 OA
BRANCH  11  14
ATOM     14  C   UNL     1       7.813   0.273  -1.864  1.00  0.00     0.220 C 
BRANCH  14  15
ATOM     15  N   UNL     1       7.308  -0.373  -3.070  1.00  0.00    -0.323 N 
ATOM     16  C   UNL     1       6.900   0.403  -4.210  1.00  0.00     0.190 C 
ATOM     17  C   UNL     1       7.563  -1.715  -3.307  1.00  0.00     0.233 C 
ATOM     18  S   UNL     1       6.166  -0.759  -5.365  1.00  0.00    -0.130 SA
ATOM     19  C   UNL     1       7.055  -2.165  -4.658  1.00  0.00     0.171 C 
ATOM     20  O   UNL     1       8.142  -2.461  -2.525  1.00  0.00    -0.274 OA
ENDBRANCH  14  15
ENDBRANCH  11  14
ENDBRANCH   9  10
ENDBRANCH   8   9
ENDBRANCH   7   8
ENDBRANCH   5   7
ENDBRANCH   2   3
ENDBRANCH   1   2
BRANCH   1  21
ATOM     21  C   UNL     1       4.046   2.329   2.888  1.00  0.00     0.002 C 
BRANCH  21  22
ATOM     22  C   UNL     1       4.478   3.610   2.168  1.00  0.00     0.002 C 
BRANCH  22  23
ATOM     23  C   UNL     1       3.841   4.898   2.692  1.00  0.00     0.021 C 
BRANCH  23  24
ATOM     24  C   UNL     1       4.003   5.139   4.190  1.00  0.00     0.116 C 
BRANCH  24  25
ATOM     25  N   UNL     1       5.394   5.287   4.587  1.00  0.00    -0.352 N 
ATOM     26  C   UNL     1       5.980   6.258   5.362  1.00  0.00     0.251 C 
ATOM     27  H   UNL     1       6.004   4.590   4.252  1.00  0.00     0.163 HD
ATOM     28  O   UNL     1       7.205   6.307   5.451  1.00  0.00    -0.269 OA
BRANCH  26  29
ATOM     29  C   UNL     1       5.145   7.260   6.062  1.00  0.00     0.039 A 
ATOM     30  C   UNL     1       5.540   8.599   6.038  1.00  0.00     0.014 A 
ATOM     31  C   UNL     1       3.979   6.888   6.739  1.00  0.00     0.014 A 
ATOM     32  C   UNL     1       4.733   9.571   6.633  1.00  0.00     0.010 A 
ATOM     33  C   UNL     1       3.136   7.868   7.264  1.00  0.00     0.010 A 
ATOM     34  C   UNL     1       3.503   9.220   7.215  1.00  0.00    -0.014 A 
BRANCH  34  35
ATOM     35  C   UNL     1       2.584  10.267   7.738  1.00  0.00     0.031 A 
ATOM     36  C   UNL     1       2.226  10.322   9.198  1.00  0.00     0.074 A 
ATOM     37  C   UNL     1       2.036  11.149   6.878  1.00  0.00     0.049 A 
ATOM     38  N   UNL     1       1.456  11.173   9.827  1.00  0.00    -0.248 NA
ATOM     39  C   UNL     1       2.786   9.272  10.062  1.00  0.00     0.031 C 
ATOM     40  C   UNL     1       2.257  11.163   5.430  1.00  0.00     0.029 A 
ATOM     41  N   UNL     1       1.184  12.204   7.092  1.00  0.00    -0.354 N 
ATOM     42  C   UNL     1       1.431  10.758  11.154  1.00  0.00     0.074 A 
ATOM     43  C   UNL     1       2.219   9.547  11.227  1.00  0.00     0.031 C 
ATOM     44  C   UNL     1       1.595  12.201   4.894  1.00  0.00     0.029 A 
ATOM     45  C   UNL     1       0.871  12.901   5.949  1.00  0.00     0.049 A 
ATOM     46  H   UNL     1       0.831  12.439   7.980  1.00  0.00     0.167 HD
ATOM     47  C   UNL     1       0.825  11.345  12.216  1.00  0.00     0.037 A 
ATOM     48  C   UNL     1       0.091  13.985   5.768  1.00  0.00     0.037 A 
ATOM     49  C   UNL     1       0.050  12.557  12.134  1.00  0.00     0.049 A 
ATOM     50  C   UNL     1      -0.576  14.614   6.960  1.00  0.00     0.074 A 
ATOM     51  C   UNL     1      -0.544  13.270  13.161  1.00  0.00     0.029 A 
ATOM     52  N   UNL     1      -0.254  13.229  10.958  1.00  0.00    -0.354 N 
ATOM     53  N   UNL     1      -0.516  14.259   8.222  1.00  0.00    -0.248 NA
ATOM     54  C   UNL     1      -1.411  15.794   6.704  1.00  0.00     0.031 C 
ATOM     55  C   UNL     1      -1.258  14.335  12.601  1.00  0.00     0.029 A 
ATOM     56  C   UNL     1      -1.057  14.326  11.230  1.00  0.00     0.049 A 
ATOM     57  H   UNL     1       0.056  12.966  10.061  1.00  0.00     0.167 HD
ATOM     58  C   UNL     1      -1.289  15.185   8.914  1.00  0.00     0.074 A 
ATOM     59  C   UNL     1      -1.787  16.127   7.931  1.00  0.00     0.031 C 
ATOM     60  C   UNL     1      -1.561  15.250  10.242  1.00  0.00     0.037 A 
BRANCH  47  61
ATOM     61  C   UNL     1       0.968  10.673  13.557  1.00  0.00     0.058 A 
ATOM     62  C   UNL     1       2.200  10.609  14.229  1.00  0.00     0.135 A 
ATOM     63  C   UNL     1      -0.148  10.101  14.191  1.00  0.00     0.135 A 
ATOM     64  F   UNL     1       3.304  11.129  13.669  1.00  0.00    -0.206 F 
ATOM     65  C   UNL     1       2.330   9.965  15.456  1.00  0.00     0.059 A 
ATOM     66  C   UNL     1      -0.048   9.482  15.434  1.00  0.00     0.059 A 
ATOM     67  F   UNL     1      -1.353  10.135  13.600  1.00  0.00    -0.206 F 
ATOM     68  C   UNL     1       1.200   9.401  16.049  1.00  0.00     0.060 A 
BRANCH  68  69
ATOM     69  S   UNL     1       1.388   8.554  17.632  1.00  0.00     0.124 S 
ATOM     70  O   UNL     1       2.097   7.342  17.230  1.00  0.00    -0.237 OA
ATOM     71  O   UNL     1       2.166   9.514  18.409  1.00  0.00    -0.237 OA
ATOM     72  O   UNL     1       0.013   8.357  18.079  1.00  0.00    -0.744 OA
ENDBRANCH  68  69
ENDBRANCH  47  61
BRANCH  48  73
ATOM     73  C   UNL     1      -0.068  14.562   4.407  1.00  0.00     0.058 A 
ATOM     74  C   UNL     1       0.508  15.799   4.078  1.00  0.00     0.135 A 
ATOM     75  C   UNL     1      -0.767  13.879   3.399  1.00  0.00     0.135 A 
ATOM     76  F   UNL     1       1.179  16.494   5.008  1.00  0.00    -0.206 F 
ATOM     77  C   UNL     1       0.392  16.341   2.802  1.00  0.00     0.059 A 
ATOM     78  C   UNL     1      -0.873  14.388   2.108  1.00  0.00     0.059 A 
ATOM     79  F   UNL     1      -1.323  12.685   3.658  1.00  0.00    -0.206 F 
ATOM     80  C   UNL     1      -0.294  15.623   1.821  1.00  0.00     0.060 A 
BRANCH  80  81
ATOM     81  S   UNL     1      -0.375  16.304   0.150  1.00  0.00     0.124 S 
ATOM     82  O   UNL     1      -1.292  17.423   0.332  1.00  0.00    -0.237 OA
ATOM     83  O   UNL     1       1.019  16.653  -0.104  1.00  0.00    -0.237 OA
ATOM     84  O   UNL     1      -0.888  15.189  -0.641  1.00  0.00    -0.744 OA
ENDBRANCH  80  81
ENDBRANCH  48  73
BRANCH  60  85
ATOM     85  C   UNL     1      -2.427  16.389  10.711  1.00  0.00     0.058 A 
ATOM     86  C   UNL     1      -3.795  16.456  10.401  1.00  0.00     0.135 A 
ATOM     87  C   UNL     1      -1.886  17.418  11.500  1.00  0.00     0.135 A 
ATOM     88  F   UNL     1      -4.363  15.503   9.646  1.00  0.00    -0.206 F 
ATOM     89  C   UNL     1      -4.586  17.521  10.821  1.00  0.00     0.059 A 
ATOM     90  C   UNL     1      -2.666  18.475  11.960  1.00  0.00     0.059 A 
ATOM     91  F   UNL     1      -0.587  17.400  11.838  1.00  0.00    -0.206 F 
ATOM     92  C   UNL     1      -4.011  18.527  11.600  1.00  0.00     0.060 A 
BRANCH  92  93
ATOM     93  S   UNL     1      -5.050  19.899  12.144  1.00  0.00     0.124 S 
ATOM     94  O   UNL     1      -5.227  20.644  10.902  1.00  0.00    -0.237 OA
ATOM     95  O   UNL     1      -6.236  19.212  12.646  1.00  0.00    -0.237 OA
ATOM     96  O   UNL     1      -4.237  20.559  13.162  1.00  0.00    -0.744 OA
ENDBRANCH  92  93
ENDBRANCH  60  85
ENDBRANCH  34  35
ENDBRANCH  26  29
ENDBRANCH  24  25
ENDBRANCH  23  24
ENDBRANCH  22  23
ENDBRANCH  21  22
ENDBRANCH   1  21
TORSDOF 21
