REMARK SMILES [NH3+][C@@H](CC(=O)NCCCCCCNC(=O)c1ccc(-c2c3nc(c(-c4c(F)cc(S(=O)(=O)[O-])cc4F)c4ccc([nH]4)c(-c4c(F)cc(S(=O)(=O)[O-])cc4F)c4nc(c(-c5c(F)cc(S(=O)(=O)[O-])cc5F)c5ccc2[nH]5)C=C4)C=C3)cc1)Cc1ccc(F)cc1
REMARK SMILES IDX 9 1 8 2 7 3 6 4 4 5 5 6 3 8 2 9 1 10 82 14 83 15 84 16 89 17
REMARK SMILES IDX 85 18 88 19 86 20 87 21 10 22 11 23 12 24 13 25 14 26 15 28
REMARK SMILES IDX 16 29 17 30 81 31 18 32 80 33 19 34 20 35 21 36 74 37 22 38
REMARK SMILES IDX 79 39 73 40 75 41 23 42 78 43 72 44 71 45 24 47 58 48 37 49
REMARK SMILES IDX 57 50 38 51 41 52 56 53 76 54 39 55 40 56 55 58 77 59 42 60
REMARK SMILES IDX 25 61 26 62 35 63 27 64 28 65 34 66 36 67 29 68 30 69 31 70
REMARK SMILES IDX 32 71 33 72 59 73 60 74 69 75 61 76 62 77 68 78 70 79 63 80
REMARK SMILES IDX 64 81 65 82 66 83 67 84 43 85 44 86 53 87 45 88 46 89 52 90
REMARK SMILES IDX 54 91 47 92 48 93 49 94 50 95 51 96
REMARK H PARENT 6 7 1 11 1 12 1 13 13 27 75 46 41 57
REMARK Flexibility Score: inf
ROOT
ATOM      1  C   UNL     1       0.635   3.691   1.480  1.00  0.00     0.002 C 
ENDROOT
BRANCH   1   2
ATOM      2  C   UNL     1       1.018   2.367   0.810  1.00  0.00     0.021 C 
BRANCH   2   3
ATOM      3  C   UNL     1       1.819   1.424   1.710  1.00  0.00     0.116 C 
BRANCH   3   4
ATOM      4  N   UNL     1       0.949   0.781   2.675  1.00  0.00    -0.356 N 
ATOM      5  C   UNL     1       0.504  -0.503   2.720  1.00  0.00     0.225 C 
ATOM      6  O   UNL     1      -0.326  -0.806   3.579  1.00  0.00    -0.275 OA
ATOM      7  H   UNL     1       0.634   1.360   3.406  1.00  0.00     0.163 HD
BRANCH   5   8
ATOM      8  C   UNL     1       1.028  -1.541   1.745  1.00  0.00     0.165 C 
BRANCH   8   9
ATOM      9  C   UNL     1       0.361  -1.595   0.356  1.00  0.00     0.194 C 
BRANCH   9  10
ATOM     10  N   UNL     1       1.134  -0.876  -0.665  1.00  0.00    -0.354 N 
ATOM     11  H   UNL     1       2.110  -1.169  -0.622  1.00  0.00     0.344 HD
ATOM     12  H   UNL     1       1.072   0.128  -0.493  1.00  0.00     0.344 HD
ATOM     13  H   UNL     1       0.756  -1.087  -1.589  1.00  0.00     0.344 HD
ENDBRANCH   9  10
BRANCH   9  14
ATOM     14  C   UNL     1      -1.144  -1.218   0.373  1.00  0.00     0.101 C 
BRANCH  14  15
ATOM     15  C   UNL     1      -1.765  -1.062  -1.000  1.00  0.00    -0.042 A 
ATOM     16  C   UNL     1      -1.944   0.223  -1.542  1.00  0.00     0.007 A 
ATOM     17  C   UNL     1      -2.119  -2.182  -1.766  1.00  0.00     0.007 A 
ATOM     18  C   UNL     1      -2.449   0.385  -2.831  1.00  0.00     0.039 A 
ATOM     19  C   UNL     1      -2.633  -2.017  -3.054  1.00  0.00     0.039 A 
ATOM     20  C   UNL     1      -2.788  -0.737  -3.575  1.00  0.00     0.123 A 
ATOM     21  F   UNL     1      -3.271  -0.584  -4.815  1.00  0.00    -0.207 F 
ENDBRANCH  14  15
ENDBRANCH   9  14
ENDBRANCH   8   9
ENDBRANCH   5   8
ENDBRANCH   3   4
ENDBRANCH   2   3
ENDBRANCH   1   2
BRANCH   1  22
ATOM     22  C   UNL     1       1.818   4.576   1.886  1.00  0.00     0.002 C 
BRANCH  22  23
ATOM     23  C   UNL     1       2.797   4.909   0.757  1.00  0.00     0.021 C 
BRANCH  23  24
ATOM     24  C   UNL     1       2.171   5.625  -0.437  1.00  0.00     0.116 C 
BRANCH  24  25
ATOM     25  N   UNL     1       1.632   6.925  -0.066  1.00  0.00    -0.352 N 
ATOM     26  C   UNL     1       1.956   8.166  -0.548  1.00  0.00     0.251 C 
ATOM     27  H   UNL     1       0.937   6.910   0.631  1.00  0.00     0.163 HD
ATOM     28  O   UNL     1       1.570   9.174   0.045  1.00  0.00    -0.269 OA
BRANCH  26  29
ATOM     29  C   UNL     1       2.777   8.293  -1.770  1.00  0.00     0.039 A 
ATOM     30  C   UNL     1       3.823   9.219  -1.795  1.00  0.00     0.014 A 
ATOM     31  C   UNL     1       2.508   7.506  -2.894  1.00  0.00     0.014 A 
ATOM     32  C   UNL     1       4.635   9.314  -2.927  1.00  0.00     0.010 A 
ATOM     33  C   UNL     1       3.361   7.551  -3.993  1.00  0.00     0.010 A 
ATOM     34  C   UNL     1       4.431   8.459  -4.024  1.00  0.00    -0.014 A 
BRANCH  34  35
ATOM     35  C   UNL     1       5.324   8.500  -5.210  1.00  0.00     0.031 A 
ATOM     36  C   UNL     1       4.775   8.892  -6.556  1.00  0.00     0.074 A 
ATOM     37  C   UNL     1       6.614   8.128  -5.086  1.00  0.00     0.049 A 
ATOM     38  N   UNL     1       5.378   8.921  -7.717  1.00  0.00    -0.248 NA
ATOM     39  C   UNL     1       3.356   9.278  -6.609  1.00  0.00     0.031 C 
ATOM     40  C   UNL     1       7.251   7.686  -3.844  1.00  0.00     0.029 A 
ATOM     41  N   UNL     1       7.619   8.051  -6.018  1.00  0.00    -0.354 N 
ATOM     42  C   UNL     1       4.413   9.318  -8.636  1.00  0.00     0.074 A 
ATOM     43  C   UNL     1       3.172   9.464  -7.908  1.00  0.00     0.031 C 
ATOM     44  C   UNL     1       8.542   7.406  -4.085  1.00  0.00     0.029 A 
ATOM     45  C   UNL     1       8.816   7.608  -5.505  1.00  0.00     0.049 A 
ATOM     46  H   UNL     1       7.495   8.291  -6.964  1.00  0.00     0.167 HD
ATOM     47  C   UNL     1       4.555   9.562  -9.960  1.00  0.00     0.037 A 
ATOM     48  C   UNL     1       9.998   7.381  -6.111  1.00  0.00     0.037 A 
ATOM     49  C   UNL     1       5.800   9.435 -10.674  1.00  0.00     0.049 A 
ATOM     50  C   UNL     1      10.126   7.648  -7.587  1.00  0.00     0.074 A 
ATOM     51  C   UNL     1       6.059   9.707 -12.006  1.00  0.00     0.029 A 
ATOM     52  N   UNL     1       6.993   8.999 -10.116  1.00  0.00    -0.354 N 
ATOM     53  N   UNL     1       9.218   8.080  -8.428  1.00  0.00    -0.248 NA
ATOM     54  C   UNL     1      11.441   7.403  -8.195  1.00  0.00     0.031 C 
ATOM     55  C   UNL     1       7.397   9.391 -12.265  1.00  0.00     0.029 A 
ATOM     56  C   UNL     1       7.986   8.975 -11.082  1.00  0.00     0.049 A 
ATOM     57  H   UNL     1       7.116   8.745  -9.173  1.00  0.00     0.167 HD
ATOM     58  C   UNL     1       9.859   8.188  -9.658  1.00  0.00     0.074 A 
ATOM     59  C   UNL     1      11.235   7.788  -9.447  1.00  0.00     0.031 C 
ATOM     60  C   UNL     1       9.355   8.584 -10.853  1.00  0.00     0.037 A 
BRANCH  47  61
ATOM     61  C   UNL     1       3.336  10.002 -10.726  1.00  0.00     0.058 A 
ATOM     62  C   UNL     1       2.762  11.269 -10.532  1.00  0.00     0.135 A 
ATOM     63  C   UNL     1       2.761   9.166 -11.698  1.00  0.00     0.135 A 
ATOM     64  F   UNL     1       3.261  12.103  -9.605  1.00  0.00    -0.206 F 
ATOM     65  C   UNL     1       1.647  11.682 -11.254  1.00  0.00     0.059 A 
ATOM     66  C   UNL     1       1.664   9.571 -12.453  1.00  0.00     0.059 A 
ATOM     67  F   UNL     1       3.268   7.945 -11.925  1.00  0.00    -0.206 F 
ATOM     68  C   UNL     1       1.106  10.826 -12.215  1.00  0.00     0.060 A 
BRANCH  68  69
ATOM     69  S   UNL     1      -0.332  11.385 -13.152  1.00  0.00     0.124 S 
ATOM     70  O   UNL     1      -1.381  11.322 -12.140  1.00  0.00    -0.237 OA
ATOM     71  O   UNL     1       0.069  12.725 -13.567  1.00  0.00    -0.237 OA
ATOM     72  O   UNL     1      -0.439  10.405 -14.228  1.00  0.00    -0.744 OA
ENDBRANCH  68  69
ENDBRANCH  47  61
BRANCH  48  73
ATOM     73  C   UNL     1      11.160   6.891  -5.321  1.00  0.00     0.058 A 
ATOM     74  C   UNL     1      12.273   7.712  -5.087  1.00  0.00     0.135 A 
ATOM     75  C   UNL     1      11.182   5.593  -4.785  1.00  0.00     0.135 A 
ATOM     76  F   UNL     1      12.302   8.959  -5.583  1.00  0.00    -0.206 F 
ATOM     77  C   UNL     1      13.376   7.260  -4.370  1.00  0.00     0.059 A 
ATOM     78  C   UNL     1      12.262   5.128  -4.041  1.00  0.00     0.059 A 
ATOM     79  F   UNL     1      10.135   4.773  -4.963  1.00  0.00    -0.206 F 
ATOM     80  C   UNL     1      13.360   5.965  -3.850  1.00  0.00     0.060 A 
BRANCH  80  81
ATOM     81  S   UNL     1      14.782   5.399  -2.891  1.00  0.00     0.124 S 
ATOM     82  O   UNL     1      15.783   5.210  -3.934  1.00  0.00    -0.237 OA
ATOM     83  O   UNL     1      15.006   6.521  -1.985  1.00  0.00    -0.237 OA
ATOM     84  O   UNL     1      14.293   4.179  -2.255  1.00  0.00    -0.744 OA
ENDBRANCH  80  81
ENDBRANCH  48  73
BRANCH  60  85
ATOM     85  C   UNL     1      10.303   8.645 -12.020  1.00  0.00     0.058 A 
ATOM     86  C   UNL     1      10.793   7.483 -12.636  1.00  0.00     0.135 A 
ATOM     87  C   UNL     1      10.682   9.884 -12.561  1.00  0.00     0.135 A 
ATOM     88  F   UNL     1      10.467   6.273 -12.154  1.00  0.00    -0.206 F 
ATOM     89  C   UNL     1      11.646   7.548 -13.733  1.00  0.00     0.059 A 
ATOM     90  C   UNL     1      11.510   9.973 -13.675  1.00  0.00     0.059 A 
ATOM     91  F   UNL     1      10.233  11.026 -12.016  1.00  0.00    -0.206 F 
ATOM     92  C   UNL     1      11.996   8.798 -14.248  1.00  0.00     0.060 A 
BRANCH  92  93
ATOM     93  S   UNL     1      13.075   8.867 -15.693  1.00  0.00     0.124 S 
ATOM     94  O   UNL     1      14.364   8.501 -15.116  1.00  0.00    -0.237 OA
ATOM     95  O   UNL     1      12.473   7.876 -16.579  1.00  0.00    -0.237 OA
ATOM     96  O   UNL     1      12.958  10.252 -16.140  1.00  0.00    -0.744 OA
ENDBRANCH  92  93
ENDBRANCH  60  85
ENDBRANCH  34  35
ENDBRANCH  26  29
ENDBRANCH  24  25
ENDBRANCH  23  24
ENDBRANCH  22  23
ENDBRANCH   1  22
TORSDOF 20
