REMARK SMILES Cc1ccc(S(=O)(=O)n2cc(C(=O)C(=O)NCC(=O)NCC(=O)NCCCCCCNC(=O)c3ccc(-c4c5nc(c(-c6c(F)cc(S(=O)(=O)[O-])cc6F)c6ccc([nH]6)c(-c6c(F)cc(S(=O)(=O)[O-])cc6F)c6nc(c(-c7c(F)cc(S(=O)(=O)[O-])cc7F)c7ccc4[nH]7)C=C6)C=C5)cc3)c3ccccc32)cc1
REMARK SMILES IDX 25 1 24 2 22 3 23 4 21 6 20 7 18 8 19 9 17 11 16 12 14 13
REMARK SMILES IDX 15 14 12 16 13 17 11 18 9 19 10 20 105 21 100 22 104 23
REMARK SMILES IDX 101 24 103 25 102 26 6 27 7 28 8 29 5 30 1 31 2 32 3 33
REMARK SMILES IDX 107 34 4 35 106 36 26 37 27 38 28 39 29 40 30 41 31 42 32 43
REMARK SMILES IDX 33 45 34 46 35 47 99 48 36 49 98 50 37 51 38 52 39 53 92 54
REMARK SMILES IDX 40 55 97 56 91 57 93 58 41 59 96 60 90 61 89 62 42 64 76 65
REMARK SMILES IDX 55 66 75 67 56 68 59 69 74 70 94 71 57 72 58 73 73 75 95 76
REMARK SMILES IDX 60 77 43 78 44 79 53 80 45 81 46 82 52 83 54 84 47 85 48 86
REMARK SMILES IDX 49 87 50 88 51 89 77 90 78 91 87 92 79 93 80 94 86 95 88 96
REMARK SMILES IDX 81 97 82 98 83 99 84 100 85 101 61 102 62 103 71 104 63 105
REMARK SMILES IDX 64 106 70 107 72 108 65 109 66 110 67 111 68 112 69 113
REMARK H PARENT 24 5 20 10 16 15 31 44 93 63 59 74
REMARK Flexibility Score: inf
ROOT
ATOM      1  C   UNL     1      -9.763   3.332   3.620  1.00  0.00     0.116 C 
ENDROOT
BRANCH   1   2
ATOM      2  N   UNL     1     -10.279   2.882   2.348  1.00  0.00    -0.355 N 
ATOM      3  C   UNL     1     -10.122   3.440   1.113  1.00  0.00     0.239 C 
ATOM      4  O   UNL     1     -10.421   2.759   0.128  1.00  0.00    -0.273 OA
ATOM      5  H   UNL     1     -10.819   2.059   2.377  1.00  0.00     0.163 HD
BRANCH   3   6
ATOM      6  C   UNL     1      -9.427   4.802   0.931  1.00  0.00     0.216 C 
BRANCH   6   7
ATOM      7  N   UNL     1      -9.888   5.862   1.811  1.00  0.00    -0.346 N 
ATOM      8  C   UNL     1      -9.207   6.676   2.664  1.00  0.00     0.239 C 
ATOM      9  O   UNL     1      -9.854   7.537   3.265  1.00  0.00    -0.273 OA
ATOM     10  H   UNL     1     -10.860   6.019   1.786  1.00  0.00     0.164 HD
BRANCH   8  11
ATOM     11  C   UNL     1      -7.678   6.602   2.824  1.00  0.00     0.216 C 
BRANCH  11  12
ATOM     12  N   UNL     1      -7.138   5.332   3.314  1.00  0.00    -0.340 N 
ATOM     13  C   UNL     1      -6.299   4.401   2.737  1.00  0.00     0.292 C 
ATOM     14  O   UNL     1      -6.021   3.384   3.363  1.00  0.00    -0.265 OA
ATOM     15  H   UNL     1      -7.429   5.099   4.226  1.00  0.00     0.164 HD
BRANCH  13  16
ATOM     16  C   UNL     1      -5.714   4.630   1.328  1.00  0.00     0.252 C 
ATOM     17  O   UNL     1      -5.814   5.757   0.850  1.00  0.00    -0.283 OA
BRANCH  16  18
ATOM     18  C   UNL     1      -5.049   3.574   0.551  1.00  0.00     0.054 A 
ATOM     19  N   UNL     1      -4.156   1.648  -0.145  1.00  0.00    -0.240 N 
ATOM     20  C   UNL     1      -4.846   2.245   0.883  1.00  0.00     0.117 A 
ATOM     21  C   UNL     1      -3.897   2.543  -1.162  1.00  0.00     0.065 A 
ATOM     22  C   UNL     1      -4.447   3.761  -0.746  1.00  0.00     0.012 A 
ATOM     23  C   UNL     1      -3.211   2.422  -2.385  1.00  0.00     0.028 A 
ATOM     24  C   UNL     1      -4.312   4.883  -1.594  1.00  0.00     0.011 A 
ATOM     25  C   UNL     1      -3.072   3.559  -3.186  1.00  0.00     0.002 A 
ATOM     26  C   UNL     1      -3.619   4.775  -2.800  1.00  0.00     0.001 A 
BRANCH  19  27
ATOM     27  S   UNL     1      -3.588   0.040  -0.108  1.00  0.00     0.268 S 
ATOM     28  O   UNL     1      -3.915  -0.511  -1.407  1.00  0.00    -0.201 OA
ATOM     29  O   UNL     1      -4.097  -0.536   1.125  1.00  0.00    -0.201 OA
BRANCH  27  30
ATOM     30  C   UNL     1      -1.818   0.084   0.023  1.00  0.00     0.088 A 
ATOM     31  C   UNL     1       2.484  -0.044   0.028  1.00  0.00     0.044 C 
ATOM     32  C   UNL     1       0.984   0.005   0.044  1.00  0.00    -0.051 A 
ATOM     33  C   UNL     1       0.246  -1.182  -0.036  1.00  0.00     0.005 A 
ATOM     34  C   UNL     1       0.306   1.226   0.145  1.00  0.00     0.005 A 
ATOM     35  C   UNL     1      -1.150  -1.144  -0.053  1.00  0.00     0.022 A 
ATOM     36  C   UNL     1      -1.091   1.269   0.147  1.00  0.00     0.022 A 
ENDBRANCH  27  30
ENDBRANCH  19  27
ENDBRANCH  16  18
ENDBRANCH  13  16
ENDBRANCH  11  12
ENDBRANCH   8  11
ENDBRANCH   6   7
ENDBRANCH   3   6
ENDBRANCH   1   2
BRANCH   1  37
ATOM     37  C   UNL     1     -10.823   3.462   4.704  1.00  0.00     0.021 C 
BRANCH  37  38
ATOM     38  C   UNL     1     -11.233   2.139   5.353  1.00  0.00     0.002 C 
BRANCH  38  39
ATOM     39  C   UNL     1     -10.089   1.258   5.886  1.00  0.00     0.002 C 
BRANCH  39  40
ATOM     40  C   UNL     1      -9.016   1.962   6.719  1.00  0.00     0.021 C 
BRANCH  40  41
ATOM     41  C   UNL     1      -9.518   2.502   8.046  1.00  0.00     0.116 C 
BRANCH  41  42
ATOM     42  N   UNL     1      -9.290   1.606   9.170  1.00  0.00    -0.352 N 
ATOM     43  C   UNL     1      -9.226   1.979  10.506  1.00  0.00     0.251 C 
ATOM     44  H   UNL     1      -9.172   0.651   8.964  1.00  0.00     0.163 HD
ATOM     45  O   UNL     1      -8.488   1.449  11.326  1.00  0.00    -0.269 OA
BRANCH  43  46
ATOM     46  C   UNL     1     -10.243   2.955  10.944  1.00  0.00     0.039 A 
ATOM     47  C   UNL     1     -11.286   2.484  11.755  1.00  0.00     0.014 A 
ATOM     48  C   UNL     1     -10.338   4.164  10.267  1.00  0.00     0.014 A 
ATOM     49  C   UNL     1     -12.517   3.119  11.707  1.00  0.00     0.010 A 
ATOM     50  C   UNL     1     -11.585   4.697  10.095  1.00  0.00     0.010 A 
ATOM     51  C   UNL     1     -12.669   4.151  10.791  1.00  0.00    -0.014 A 
BRANCH  51  52
ATOM     52  C   UNL     1     -13.915   4.822  10.508  1.00  0.00     0.031 A 
ATOM     53  C   UNL     1     -14.145   6.096  11.206  1.00  0.00     0.074 A 
ATOM     54  C   UNL     1     -14.647   4.365   9.472  1.00  0.00     0.049 A 
ATOM     55  N   UNL     1     -15.294   6.638  11.375  1.00  0.00    -0.248 NA
ATOM     56  C   UNL     1     -13.062   6.853  11.837  1.00  0.00     0.031 C 
ATOM     57  C   UNL     1     -15.688   5.051   8.721  1.00  0.00     0.029 A 
ATOM     58  N   UNL     1     -14.678   3.057   8.983  1.00  0.00    -0.354 N 
ATOM     59  C   UNL     1     -15.075   7.931  11.810  1.00  0.00     0.074 A 
ATOM     60  C   UNL     1     -13.692   7.970  12.206  1.00  0.00     0.031 C 
ATOM     61  C   UNL     1     -16.426   4.136   8.066  1.00  0.00     0.029 A 
ATOM     62  C   UNL     1     -15.979   2.822   8.509  1.00  0.00     0.049 A 
ATOM     63  H   UNL     1     -13.928   2.419   8.973  1.00  0.00     0.167 HD
ATOM     64  C   UNL     1     -16.054   8.855  11.596  1.00  0.00     0.037 A 
ATOM     65  C   UNL     1     -16.775   1.918   9.159  1.00  0.00     0.037 A 
ATOM     66  C   UNL     1     -17.196   8.200  10.959  1.00  0.00     0.049 A 
ATOM     67  C   UNL     1     -17.946   2.582   9.849  1.00  0.00     0.074 A 
ATOM     68  C   UNL     1     -17.543   8.063   9.625  1.00  0.00     0.029 A 
ATOM     69  N   UNL     1     -17.915   7.241  11.659  1.00  0.00    -0.354 N 
ATOM     70  N   UNL     1     -17.949   3.823  10.255  1.00  0.00    -0.248 NA
ATOM     71  C   UNL     1     -19.225   1.915  10.076  1.00  0.00     0.031 C 
ATOM     72  C   UNL     1     -18.433   6.967   9.518  1.00  0.00     0.029 A 
ATOM     73  C   UNL     1     -18.636   6.448  10.787  1.00  0.00     0.049 A 
ATOM     74  H   UNL     1     -17.913   7.140  12.639  1.00  0.00     0.167 HD
ATOM     75  C   UNL     1     -19.178   4.130  10.781  1.00  0.00     0.074 A 
ATOM     76  C   UNL     1     -19.943   2.905  10.636  1.00  0.00     0.031 C 
ATOM     77  C   UNL     1     -19.476   5.368  11.280  1.00  0.00     0.037 A 
BRANCH  64  78
ATOM     78  C   UNL     1     -15.883  10.361  11.636  1.00  0.00     0.058 A 
ATOM     79  C   UNL     1     -16.764  11.184  10.896  1.00  0.00     0.135 A 
ATOM     80  C   UNL     1     -14.882  11.064  12.336  1.00  0.00     0.135 A 
ATOM     81  F   UNL     1     -17.812  10.677  10.233  1.00  0.00    -0.206 F 
ATOM     82  C   UNL     1     -16.619  12.566  10.794  1.00  0.00     0.059 A 
ATOM     83  C   UNL     1     -14.694  12.448  12.222  1.00  0.00     0.059 A 
ATOM     84  F   UNL     1     -14.069  10.455  13.206  1.00  0.00    -0.206 F 
ATOM     85  C   UNL     1     -15.569  13.192  11.445  1.00  0.00     0.060 A 
BRANCH  85  86
ATOM     86  S   UNL     1     -15.407  14.979  11.293  1.00  0.00     0.124 S 
ATOM     87  O   UNL     1     -15.259  15.150   9.850  1.00  0.00    -0.237 OA
ATOM     88  O   UNL     1     -16.665  15.447  11.863  1.00  0.00    -0.237 OA
ATOM     89  O   UNL     1     -14.214  15.281  12.078  1.00  0.00    -0.744 OA
ENDBRANCH  85  86
ENDBRANCH  64  78
BRANCH  65  90
ATOM     90  C   UNL     1     -16.000   0.749   9.679  1.00  0.00     0.058 A 
ATOM     91  C   UNL     1     -15.427  -0.119   8.726  1.00  0.00     0.135 A 
ATOM     92  C   UNL     1     -15.436   0.753  10.964  1.00  0.00     0.135 A 
ATOM     93  F   UNL     1     -15.941  -0.184   7.486  1.00  0.00    -0.206 F 
ATOM     94  C   UNL     1     -14.243  -0.807   8.975  1.00  0.00     0.059 A 
ATOM     95  C   UNL     1     -14.252   0.060  11.238  1.00  0.00     0.059 A 
ATOM     96  F   UNL     1     -15.939   1.544  11.922  1.00  0.00    -0.206 F 
ATOM     97  C   UNL     1     -13.627  -0.655  10.214  1.00  0.00     0.060 A 
BRANCH  97  98
ATOM     98  S   UNL     1     -11.929  -1.262  10.396  1.00  0.00     0.124 S 
ATOM     99  O   UNL     1     -12.106  -2.700  10.235  1.00  0.00    -0.237 OA
ATOM    100  O   UNL     1     -11.239  -0.580   9.298  1.00  0.00    -0.237 OA
ATOM    101  O   UNL     1     -11.558  -0.819  11.733  1.00  0.00    -0.744 OA
ENDBRANCH  97  98
ENDBRANCH  65  90
BRANCH  77 102
ATOM    102  C   UNL     1     -20.648   5.709  12.177  1.00  0.00     0.058 A 
ATOM    103  C   UNL     1     -21.344   4.766  12.950  1.00  0.00     0.135 A 
ATOM    104  C   UNL     1     -21.025   7.061  12.395  1.00  0.00     0.135 A 
ATOM    105  F   UNL     1     -20.999   3.471  12.963  1.00  0.00    -0.206 F 
ATOM    106  C   UNL     1     -22.404   5.118  13.785  1.00  0.00     0.059 A 
ATOM    107  C   UNL     1     -22.025   7.440  13.283  1.00  0.00     0.059 A 
ATOM    108  F   UNL     1     -20.424   8.078  11.761  1.00  0.00    -0.206 F 
ATOM    109  C   UNL     1     -22.743   6.457  13.940  1.00  0.00     0.060 A 
BRANCH 109 110
ATOM    110  S   UNL     1     -24.110   6.904  15.017  1.00  0.00     0.124 S 
ATOM    111  O   UNL     1     -25.253   6.684  14.136  1.00  0.00    -0.237 OA
ATOM    112  O   UNL     1     -23.970   5.956  16.119  1.00  0.00    -0.237 OA
ATOM    113  O   UNL     1     -23.833   8.295  15.358  1.00  0.00    -0.744 OA
ENDBRANCH 109 110
ENDBRANCH  77 102
ENDBRANCH  51  52
ENDBRANCH  43  46
ENDBRANCH  41  42
ENDBRANCH  40  41
ENDBRANCH  39  40
ENDBRANCH  38  39
ENDBRANCH  37  38
ENDBRANCH   1  37
TORSDOF 23
