REMARK SMILES COc1ccc2[nH]c(/C(C#N)=C/c3ccc(-c4cc(C(=O)NCCCCCCNC(=O)c5ccc(-c6c7nc(c(-c8c(F)cc(S(=O)(=O)[O-])cc8F)c8ccc([nH]8)c(-c8c(F)cc(S(=O)(=O)[O-])cc8F)c8nc(c(-c9c(F)cc(S(=O)(=O)[O-])cc9F)c9ccc6[nH]9)C=C8)C=C7)cc5)ccc4Cl)o3)nc2c1
REMARK SMILES IDX 25 1 24 2 23 3 22 4 20 5 21 6 19 8 17 9 18 10 100 11 99 12
REMARK SMILES IDX 101 13 98 14 16 15 13 16 14 17 102 18 15 19 12 20 9 21 8 22
REMARK SMILES IDX 3 23 4 24 105 25 5 26 104 27 6 28 103 29 7 30 2 32 1 33
REMARK SMILES IDX 10 34 11 35 26 36 27 37 28 38 29 39 30 40 31 42 32 43 33 44
REMARK SMILES IDX 97 45 34 46 96 47 35 48 36 49 37 50 90 51 38 52 95 53 89 54
REMARK SMILES IDX 91 55 39 56 94 57 88 58 87 59 40 61 74 62 53 63 73 64 54 65
REMARK SMILES IDX 57 66 72 67 92 68 55 69 56 70 71 72 93 73 58 74 41 75 42 76
REMARK SMILES IDX 51 77 43 78 44 79 50 80 52 81 45 82 46 83 47 84 48 85 49 86
REMARK SMILES IDX 75 87 76 88 85 89 77 90 78 91 84 92 86 93 79 94 80 95 81 96
REMARK SMILES IDX 82 97 83 98 59 99 60 100 69 101 61 102 62 103 68 104 70 105
REMARK SMILES IDX 63 106 64 107 65 108 66 109 67 110
REMARK H PARENT 22 7 7 31 29 41 91 60 57 71
REMARK Flexibility Score: inf
ROOT
ATOM      1  C   UNL     1       2.396 -15.652 -13.149  1.00  0.00     0.002 C 
ENDROOT
BRANCH   1   2
ATOM      2  C   UNL     1       2.202 -14.147 -13.389  1.00  0.00     0.021 C 
BRANCH   2   3
ATOM      3  C   UNL     1       0.783 -13.673 -13.064  1.00  0.00     0.116 C 
BRANCH   3   4
ATOM      4  N   UNL     1       0.667 -13.371 -11.652  1.00  0.00    -0.352 N 
ATOM      5  C   UNL     1       0.622 -12.223 -10.909  1.00  0.00     0.251 C 
ATOM      6  O   UNL     1       0.528 -12.373  -9.688  1.00  0.00    -0.269 OA
ATOM      7  H   UNL     1       0.606 -14.182 -11.097  1.00  0.00     0.163 HD
BRANCH   5   8
ATOM      8  C   UNL     1       0.641 -10.832 -11.457  1.00  0.00     0.040 A 
ATOM      9  C   UNL     1       0.200  -8.457 -10.977  1.00  0.00     0.037 A 
ATOM     10  C   UNL     1       0.279  -9.799 -10.564  1.00  0.00     0.027 A 
ATOM     11  C   UNL     1       0.506  -8.144 -12.310  1.00  0.00     0.052 A 
ATOM     12  C   UNL     1       0.888  -9.148 -13.195  1.00  0.00     0.022 A 
ATOM     13  Cl  UNL     1       0.457  -6.526 -12.925  1.00  0.00    -0.084 Cl
ATOM     14  C   UNL     1       0.980 -10.475 -12.764  1.00  0.00     0.015 A 
BRANCH   9  15
ATOM     15  C   UNL     1      -0.306  -7.444 -10.068  1.00  0.00     0.136 A 
ATOM     16  C   UNL     1      -0.200  -6.113  -8.291  1.00  0.00     0.129 A 
ATOM     17  C   UNL     1      -1.318  -5.756  -9.042  1.00  0.00     0.051 A 
ATOM     18  O   UNL     1       0.431  -7.147  -8.960  1.00  0.00    -0.457 OA
ATOM     19  C   UNL     1      -1.414  -6.635 -10.134  1.00  0.00     0.051 A 
BRANCH  16  20
ATOM     20  C   UNL     1       0.302  -5.527  -7.087  1.00  0.00     0.070 C 
ATOM     21  C   UNL     1      -0.499  -5.145  -6.068  1.00  0.00     0.098 C 
BRANCH  21  22
ATOM     22  C   UNL     1      -0.027  -4.438  -4.918  1.00  0.00     0.149 A 
ATOM     23  C   UNL     1       0.868  -2.049  -1.192  1.00  0.00     0.121 A 
ATOM     24  C   UNL     1       2.171  -2.091  -1.700  1.00  0.00     0.049 A 
ATOM     25  C   UNL     1      -0.181  -2.689  -1.854  1.00  0.00     0.077 A 
ATOM     26  C   UNL     1       2.460  -2.739  -2.911  1.00  0.00     0.032 A 
ATOM     27  C   UNL     1       0.095  -3.336  -3.064  1.00  0.00     0.093 A 
ATOM     28  C   UNL     1       1.387  -3.347  -3.567  1.00  0.00     0.066 A 
ATOM     29  N   UNL     1      -0.751  -4.009  -3.899  1.00  0.00    -0.228 NA
ATOM     30  N   UNL     1       1.288  -4.054  -4.744  1.00  0.00    -0.337 N 
ATOM     31  H   UNL     1       2.030  -4.253  -5.359  1.00  0.00     0.168 HD
BRANCH  23  32
ATOM     32  O   UNL     1       0.559  -1.458   0.005  1.00  0.00    -0.497 OA
ATOM     33  C   UNL     1       0.963  -0.092   0.061  1.00  0.00     0.278 C 
ENDBRANCH  23  32
ENDBRANCH  21  22
BRANCH  21  34
ATOM     34  C   UNL     1      -1.912  -5.430  -6.080  1.00  0.00     0.103 C 
ATOM     35  N   UNL     1      -3.046  -5.664  -6.129  1.00  0.00    -0.192 NA
ENDBRANCH  21  34
ENDBRANCH  16  20
ENDBRANCH   9  15
ENDBRANCH   5   8
ENDBRANCH   3   4
ENDBRANCH   2   3
ENDBRANCH   1   2
BRANCH   1  36
ATOM     36  C   UNL     1       1.450 -16.554 -13.954  1.00  0.00     0.002 C 
BRANCH  36  37
ATOM     37  C   UNL     1       1.443 -16.283 -15.460  1.00  0.00     0.021 C 
BRANCH  37  38
ATOM     38  C   UNL     1       2.793 -16.510 -16.129  1.00  0.00     0.116 C 
BRANCH  38  39
ATOM     39  N   UNL     1       3.221 -17.894 -15.997  1.00  0.00    -0.352 N 
ATOM     40  C   UNL     1       3.491 -18.814 -16.977  1.00  0.00     0.251 C 
ATOM     41  H   UNL     1       3.331 -18.216 -15.073  1.00  0.00     0.163 HD
ATOM     42  O   UNL     1       3.567 -20.006 -16.697  1.00  0.00    -0.269 OA
BRANCH  40  43
ATOM     43  C   UNL     1       3.683 -18.357 -18.369  1.00  0.00     0.039 A 
ATOM     44  C   UNL     1       3.105 -19.085 -19.409  1.00  0.00     0.014 A 
ATOM     45  C   UNL     1       4.439 -17.212 -18.641  1.00  0.00     0.014 A 
ATOM     46  C   UNL     1       3.243 -18.633 -20.722  1.00  0.00     0.010 A 
ATOM     47  C   UNL     1       4.501 -16.718 -19.939  1.00  0.00     0.010 A 
ATOM     48  C   UNL     1       3.912 -17.427 -20.995  1.00  0.00    -0.014 A 
BRANCH  48  49
ATOM     49  C   UNL     1       4.004 -16.897 -22.378  1.00  0.00     0.031 A 
ATOM     50  C   UNL     1       5.349 -16.722 -23.033  1.00  0.00     0.074 A 
ATOM     51  C   UNL     1       2.880 -16.525 -23.023  1.00  0.00     0.049 A 
ATOM     52  N   UNL     1       5.634 -16.226 -24.209  1.00  0.00    -0.248 NA
ATOM     53  C   UNL     1       6.530 -17.137 -22.257  1.00  0.00     0.031 C 
ATOM     54  C   UNL     1       1.524 -16.607 -22.474  1.00  0.00     0.029 A 
ATOM     55  N   UNL     1       2.695 -15.998 -24.277  1.00  0.00    -0.354 N 
ATOM     56  C   UNL     1       7.020 -16.260 -24.310  1.00  0.00     0.074 A 
ATOM     57  C   UNL     1       7.524 -16.772 -23.055  1.00  0.00     0.031 C 
ATOM     58  C   UNL     1       0.648 -16.174 -23.394  1.00  0.00     0.029 A 
ATOM     59  C   UNL     1       1.379 -15.735 -24.578  1.00  0.00     0.049 A 
ATOM     60  H   UNL     1       3.436 -15.824 -24.902  1.00  0.00     0.167 HD
ATOM     61  C   UNL     1       7.799 -15.916 -25.362  1.00  0.00     0.037 A 
ATOM     62  C   UNL     1       0.825 -15.187 -25.677  1.00  0.00     0.037 A 
ATOM     63  C   UNL     1       7.285 -15.425 -26.615  1.00  0.00     0.049 A 
ATOM     64  C   UNL     1       1.719 -14.790 -26.823  1.00  0.00     0.074 A 
ATOM     65  C   UNL     1       7.988 -15.103 -27.762  1.00  0.00     0.029 A 
ATOM     66  N   UNL     1       5.947 -15.178 -26.884  1.00  0.00    -0.354 N 
ATOM     67  N   UNL     1       3.023 -14.896 -26.927  1.00  0.00    -0.248 NA
ATOM     68  C   UNL     1       1.069 -14.203 -28.002  1.00  0.00     0.031 C 
ATOM     69  C   UNL     1       7.085 -14.596 -28.700  1.00  0.00     0.029 A 
ATOM     70  C   UNL     1       5.809 -14.675 -28.167  1.00  0.00     0.049 A 
ATOM     71  H   UNL     1       5.205 -15.336 -26.256  1.00  0.00     0.167 HD
ATOM     72  C   UNL     1       3.342 -14.426 -28.197  1.00  0.00     0.074 A 
ATOM     73  C   UNL     1       2.094 -14.049 -28.827  1.00  0.00     0.031 C 
ATOM     74  C   UNL     1       4.557 -14.318 -28.788  1.00  0.00     0.037 A 
BRANCH  61  75
ATOM     75  C   UNL     1       9.291 -16.054 -25.216  1.00  0.00     0.058 A 
ATOM     76  C   UNL     1       9.915 -17.310 -25.144  1.00  0.00     0.135 A 
ATOM     77  C   UNL     1      10.114 -14.916 -25.229  1.00  0.00     0.135 A 
ATOM     78  F   UNL     1       9.179 -18.432 -25.110  1.00  0.00    -0.206 F 
ATOM     79  C   UNL     1      11.300 -17.431 -25.075  1.00  0.00     0.059 A 
ATOM     80  C   UNL     1      11.501 -15.014 -25.194  1.00  0.00     0.059 A 
ATOM     81  F   UNL     1       9.570 -13.690 -25.292  1.00  0.00    -0.206 F 
ATOM     82  C   UNL     1      12.085 -16.277 -25.111  1.00  0.00     0.060 A 
BRANCH  82  83
ATOM     83  S   UNL     1      13.880 -16.457 -25.064  1.00  0.00     0.124 S 
ATOM     84  O   UNL     1      14.090 -16.931 -23.699  1.00  0.00    -0.237 OA
ATOM     85  O   UNL     1      14.120 -17.437 -26.118  1.00  0.00    -0.237 OA
ATOM     86  O   UNL     1      14.366 -15.109 -25.340  1.00  0.00    -0.744 OA
ENDBRANCH  82  83
ENDBRANCH  61  75
BRANCH  62  87
ATOM     87  C   UNL     1      -0.648 -14.978 -25.755  1.00  0.00     0.058 A 
ATOM     88  C   UNL     1      -1.434 -15.675 -26.686  1.00  0.00     0.135 A 
ATOM     89  C   UNL     1      -1.298 -14.059 -24.916  1.00  0.00     0.135 A 
ATOM     90  F   UNL     1      -0.862 -16.563 -27.514  1.00  0.00    -0.206 F 
ATOM     91  C   UNL     1      -2.800 -15.441 -26.810  1.00  0.00     0.059 A 
ATOM     92  C   UNL     1      -2.668 -13.834 -24.996  1.00  0.00     0.059 A 
ATOM     93  F   UNL     1      -0.599 -13.378 -23.993  1.00  0.00    -0.206 F 
ATOM     94  C   UNL     1      -3.407 -14.516 -25.960  1.00  0.00     0.060 A 
BRANCH  94  95
ATOM     95  S   UNL     1      -5.183 -14.229 -26.120  1.00  0.00     0.124 S 
ATOM     96  O   UNL     1      -5.252 -13.522 -27.393  1.00  0.00    -0.237 OA
ATOM     97  O   UNL     1      -5.713 -15.589 -26.113  1.00  0.00    -0.237 OA
ATOM     98  O   UNL     1      -5.501 -13.433 -24.938  1.00  0.00    -0.744 OA
ENDBRANCH  94  95
ENDBRANCH  62  87
BRANCH  74  99
ATOM     99  C   UNL     1       4.600 -13.821 -30.209  1.00  0.00     0.058 A 
ATOM    100  C   UNL     1       4.307 -12.489 -30.542  1.00  0.00     0.135 A 
ATOM    101  C   UNL     1       4.997 -14.682 -31.246  1.00  0.00     0.135 A 
ATOM    102  F   UNL     1       3.917 -11.624 -29.592  1.00  0.00    -0.206 F 
ATOM    103  C   UNL     1       4.378 -12.036 -31.856  1.00  0.00     0.059 A 
ATOM    104  C   UNL     1       5.112 -14.241 -32.560  1.00  0.00     0.059 A 
ATOM    105  F   UNL     1       5.301 -15.963 -30.984  1.00  0.00    -0.206 F 
ATOM    106  C   UNL     1       4.787 -12.919 -32.857  1.00  0.00     0.060 A 
BRANCH 106 107
ATOM    107  S   UNL     1       4.910 -12.306 -34.550  1.00  0.00     0.124 S 
ATOM    108  O   UNL     1       3.506 -12.124 -34.901  1.00  0.00    -0.237 OA
ATOM    109  O   UNL     1       5.686 -11.081 -34.380  1.00  0.00    -0.237 OA
ATOM    110  O   UNL     1       5.598 -13.384 -35.254  1.00  0.00    -0.744 OA
ENDBRANCH 106 107
ENDBRANCH  74  99
ENDBRANCH  48  49
ENDBRANCH  40  43
ENDBRANCH  38  39
ENDBRANCH  37  38
ENDBRANCH  36  37
ENDBRANCH   1  36
TORSDOF 21
