REMARK SMILES CCOc1ccc2c(=O)cc(-c3ccccc3C(=O)NCCCCCCNC(=O)c3ccc(-c4c5nc(c(-c6c(F)cc(S(=O)(=O)[O-])cc6F)c6ccc([nH]6)c(-c6c(F)cc(S(=O)(=O)[O-])cc6F)c6nc(c(-c7c(F)cc(S(=O)(=O)[O-])cc7F)c7ccc4[nH]7)C=C6)C=C5)cc3)oc2c1OCC
REMARK SMILES IDX 23 1 22 2 21 3 20 4 18 5 19 6 17 8 12 9 13 10 14 11 16 12
REMARK SMILES IDX 15 13 11 14 4 15 5 16 98 17 6 18 97 19 7 20 96 21 8 22 9 23
REMARK SMILES IDX 10 24 3 25 2 26 1 27 99 28 100 29 101 30 24 31 25 32 26 33
REMARK SMILES IDX 27 34 28 35 29 37 30 38 31 39 95 40 32 41 94 42 33 43 34 44
REMARK SMILES IDX 35 45 88 46 36 47 93 48 87 49 89 50 37 51 92 52 86 53 85 54
REMARK SMILES IDX 38 56 72 57 51 58 71 59 52 60 55 61 70 62 90 63 53 64 54 65
REMARK SMILES IDX 69 67 91 68 56 69 39 70 40 71 49 72 41 73 42 74 48 75 50 76
REMARK SMILES IDX 43 77 44 78 45 79 46 80 47 81 73 82 74 83 83 84 75 85 76 86
REMARK SMILES IDX 82 87 84 88 77 89 78 90 79 91 80 92 81 93 57 94 58 95 67 96
REMARK SMILES IDX 59 97 60 98 66 99 68 100 61 101 62 102 63 103 64 104 65 105
REMARK H PARENT 20 7 27 36 89 55 55 66
REMARK Flexibility Score: inf
ROOT
ATOM      1  C   UNL     1       5.698   2.993  -3.537  1.00  0.00     0.002 C 
ENDROOT
BRANCH   1   2
ATOM      2  C   UNL     1       5.138   4.079  -2.617  1.00  0.00     0.021 C 
BRANCH   2   3
ATOM      3  C   UNL     1       6.071   4.824  -1.668  1.00  0.00     0.116 C 
BRANCH   3   4
ATOM      4  N   UNL     1       6.963   5.818  -2.199  1.00  0.00    -0.352 N 
ATOM      5  C   UNL     1       7.491   6.964  -1.639  1.00  0.00     0.252 C 
ATOM      6  O   UNL     1       8.329   7.538  -2.348  1.00  0.00    -0.269 OA
ATOM      7  H   UNL     1       7.248   5.652  -3.126  1.00  0.00     0.163 HD
BRANCH   5   8
ATOM      8  C   UNL     1       7.138   7.625  -0.316  1.00  0.00     0.050 A 
ATOM      9  C   UNL     1       6.672   7.091   0.906  1.00  0.00     0.030 A 
ATOM     10  C   UNL     1       6.452   7.953   2.016  1.00  0.00     0.013 A 
ATOM     11  C   UNL     1       6.680   9.322   1.949  1.00  0.00     0.001 A 
ATOM     12  C   UNL     1       7.370   9.030  -0.337  1.00  0.00     0.014 A 
ATOM     13  C   UNL     1       7.142   9.864   0.765  1.00  0.00     0.001 A 
BRANCH   9  14
ATOM     14  C   UNL     1       6.250   5.718   1.196  1.00  0.00     0.139 A 
ATOM     15  C   UNL     1       2.283   3.056   0.954  1.00  0.00     0.165 A 
ATOM     16  C   UNL     1       3.039   1.901   1.174  1.00  0.00     0.051 A 
ATOM     17  C   UNL     1       2.886   4.324   1.071  1.00  0.00     0.205 A 
ATOM     18  C   UNL     1       4.402   1.995   1.469  1.00  0.00     0.020 A 
ATOM     19  C   UNL     1       4.270   4.400   1.293  1.00  0.00     0.184 A 
ATOM     20  C   UNL     1       5.021   3.245   1.495  1.00  0.00     0.069 A 
ATOM     21  O   UNL     1       4.873   5.625   1.236  1.00  0.00    -0.452 OA
ATOM     22  C   UNL     1       6.490   3.361   1.641  1.00  0.00     0.193 A 
ATOM     23  O   UNL     1       7.203   2.388   1.820  1.00  0.00    -0.289 OA
ATOM     24  C   UNL     1       7.081   4.703   1.449  1.00  0.00     0.100 A 
BRANCH  15  25
ATOM     25  O   UNL     1       0.984   3.038   0.515  1.00  0.00    -0.490 OA
BRANCH  25  26
ATOM     26  C   UNL     1       0.111   2.035   1.032  1.00  0.00     0.226 C 
ATOM     27  C   UNL     1      -0.161   0.982  -0.026  1.00  0.00     0.049 C 
ENDBRANCH  25  26
ENDBRANCH  15  25
BRANCH  17  28
ATOM     28  O   UNL     1       2.029   5.385   0.922  1.00  0.00    -0.487 OA
BRANCH  28  29
ATOM     29  C   UNL     1       2.349   6.670   1.454  1.00  0.00     0.226 C 
ATOM     30  C   UNL     1       2.593   6.689   2.958  1.00  0.00     0.049 C 
ENDBRANCH  28  29
ENDBRANCH  17  28
ENDBRANCH   9  14
ENDBRANCH   5   8
ENDBRANCH   3   4
ENDBRANCH   2   3
ENDBRANCH   1   2
BRANCH   1  31
ATOM     31  C   UNL     1       6.598   1.897  -2.953  1.00  0.00     0.002 C 
BRANCH  31  32
ATOM     32  C   UNL     1       6.127   1.128  -1.714  1.00  0.00     0.021 C 
BRANCH  32  33
ATOM     33  C   UNL     1       4.785   0.394  -1.774  1.00  0.00     0.116 C 
BRANCH  33  34
ATOM     34  N   UNL     1       4.792  -0.780  -2.631  1.00  0.00    -0.352 N 
ATOM     35  C   UNL     1       4.373  -2.074  -2.400  1.00  0.00     0.251 C 
ATOM     36  H   UNL     1       5.160  -0.625  -3.531  1.00  0.00     0.163 HD
ATOM     37  O   UNL     1       4.616  -2.925  -3.256  1.00  0.00    -0.269 OA
BRANCH  35  38
ATOM     38  C   UNL     1       3.636  -2.486  -1.167  1.00  0.00     0.039 A 
ATOM     39  C   UNL     1       3.817  -3.782  -0.664  1.00  0.00     0.014 A 
ATOM     40  C   UNL     1       2.693  -1.666  -0.551  1.00  0.00     0.014 A 
ATOM     41  C   UNL     1       3.087  -4.231   0.452  1.00  0.00     0.010 A 
ATOM     42  C   UNL     1       2.012  -2.090   0.603  1.00  0.00     0.010 A 
ATOM     43  C   UNL     1       2.180  -3.384   1.111  1.00  0.00    -0.014 A 
BRANCH  43  44
ATOM     44  C   UNL     1       1.421  -3.833   2.321  1.00  0.00     0.031 A 
ATOM     45  C   UNL     1      -0.091  -3.917   2.322  1.00  0.00     0.074 A 
ATOM     46  C   UNL     1       2.084  -4.110   3.463  1.00  0.00     0.049 A 
ATOM     47  N   UNL     1      -0.898  -4.318   3.275  1.00  0.00    -0.248 NA
ATOM     48  C   UNL     1      -0.789  -3.463   1.110  1.00  0.00     0.031 C 
ATOM     49  C   UNL     1       3.530  -3.979   3.650  1.00  0.00     0.029 A 
ATOM     50  N   UNL     1       1.631  -4.548   4.685  1.00  0.00    -0.354 N 
ATOM     51  C   UNL     1      -2.190  -4.168   2.780  1.00  0.00     0.074 A 
ATOM     52  C   UNL     1      -2.062  -3.573   1.467  1.00  0.00     0.031 C 
ATOM     53  C   UNL     1       3.847  -4.352   4.901  1.00  0.00     0.029 A 
ATOM     54  C   UNL     1       2.631  -4.735   5.612  1.00  0.00     0.049 A 
ATOM     55  H   UNL     1       0.680  -4.713   4.879  1.00  0.00     0.167 HD
ATOM     56  C   UNL     1      -3.373  -4.518   3.348  1.00  0.00     0.037 A 
ATOM     57  C   UNL     1       2.584  -5.177   6.886  1.00  0.00     0.037 A 
ATOM     58  C   UNL     1      -3.505  -5.128   4.650  1.00  0.00     0.049 A 
ATOM     59  C   UNL     1       1.268  -5.600   7.483  1.00  0.00     0.074 A 
ATOM     60  C   UNL     1      -4.653  -5.597   5.269  1.00  0.00     0.029 A 
ATOM     61  N   UNL     1      -2.462  -5.346   5.537  1.00  0.00    -0.354 N 
ATOM     62  N   UNL     1       0.069  -5.559   6.952  1.00  0.00    -0.248 NA
ATOM     63  C   UNL     1       1.302  -6.153   8.844  1.00  0.00     0.031 C 
ATOM     64  C   UNL     1      -4.312  -6.050   6.548  1.00  0.00     0.029 A 
ATOM     65  C   UNL     1      -2.942  -5.922   6.704  1.00  0.00     0.049 A 
ATOM     66  H   UNL     1      -1.518  -5.124   5.365  1.00  0.00     0.167 HD
ATOM     67  C   UNL     1      -0.785  -6.117   7.899  1.00  0.00     0.074 A 
ATOM     68  C   UNL     1       0.035  -6.496   9.030  1.00  0.00     0.031 C 
ATOM     69  C   UNL     1      -2.127  -6.304   7.831  1.00  0.00     0.037 A 
BRANCH  56  70
ATOM     70  C   UNL     1      -4.637  -4.279   2.557  1.00  0.00     0.058 A 
ATOM     71  C   UNL     1      -4.926  -5.012   1.393  1.00  0.00     0.135 A 
ATOM     72  C   UNL     1      -5.605  -3.364   3.004  1.00  0.00     0.135 A 
ATOM     73  F   UNL     1      -4.039  -5.899   0.914  1.00  0.00    -0.206 F 
ATOM     74  C   UNL     1      -6.110  -4.824   0.686  1.00  0.00     0.059 A 
ATOM     75  C   UNL     1      -6.811  -3.183   2.330  1.00  0.00     0.059 A 
ATOM     76  F   UNL     1      -5.390  -2.640   4.114  1.00  0.00    -0.206 F 
ATOM     77  C   UNL     1      -7.048  -3.908   1.164  1.00  0.00     0.060 A 
BRANCH  77  78
ATOM     78  S   UNL     1      -8.584  -3.688   0.240  1.00  0.00     0.124 S 
ATOM     79  O   UNL     1      -8.110  -2.978  -0.945  1.00  0.00    -0.237 OA
ATOM     80  O   UNL     1      -9.017  -5.064   0.021  1.00  0.00    -0.237 OA
ATOM     81  O   UNL     1      -9.419  -2.907   1.147  1.00  0.00    -0.744 OA
ENDBRANCH  77  78
ENDBRANCH  56  70
BRANCH  57  82
ATOM     82  C   UNL     1       3.844  -5.303   7.669  1.00  0.00     0.058 A 
ATOM     83  C   UNL     1       4.380  -6.563   7.974  1.00  0.00     0.135 A 
ATOM     84  C   UNL     1       4.543  -4.170   8.113  1.00  0.00     0.135 A 
ATOM     85  F   UNL     1       3.743  -7.676   7.577  1.00  0.00    -0.206 F 
ATOM     86  C   UNL     1       5.553  -6.699   8.707  1.00  0.00     0.059 A 
ATOM     87  C   UNL     1       5.734  -4.280   8.824  1.00  0.00     0.059 A 
ATOM     88  F   UNL     1       4.081  -2.942   7.832  1.00  0.00    -0.206 F 
ATOM     89  C   UNL     1       6.226  -5.549   9.125  1.00  0.00     0.060 A 
BRANCH  89  90
ATOM     90  S   UNL     1       7.776  -5.738  10.032  1.00  0.00     0.124 S 
ATOM     91  O   UNL     1       7.303  -6.216  11.326  1.00  0.00    -0.237 OA
ATOM     92  O   UNL     1       8.492  -6.711   9.214  1.00  0.00    -0.237 OA
ATOM     93  O   UNL     1       8.336  -4.389  10.023  1.00  0.00    -0.744 OA
ENDBRANCH  89  90
ENDBRANCH  57  82
BRANCH  69  94
ATOM     94  C   UNL     1      -2.795  -6.993   8.994  1.00  0.00     0.058 A 
ATOM     95  C   UNL     1      -2.928  -6.379  10.250  1.00  0.00     0.135 A 
ATOM     96  C   UNL     1      -3.329  -8.284   8.841  1.00  0.00     0.135 A 
ATOM     97  F   UNL     1      -2.436  -5.147  10.455  1.00  0.00    -0.206 F 
ATOM     98  C   UNL     1      -3.527  -7.035  11.322  1.00  0.00     0.059 A 
ATOM     99  C   UNL     1      -3.960  -8.946   9.890  1.00  0.00     0.059 A 
ATOM    100  F   UNL     1      -3.244  -8.915   7.659  1.00  0.00    -0.206 F 
ATOM    101  C   UNL     1      -4.037  -8.321  11.133  1.00  0.00     0.060 A 
BRANCH 101 102
ATOM    102  S   UNL     1      -4.811  -9.161  12.531  1.00  0.00     0.124 S 
ATOM    103  O   UNL     1      -3.651  -9.508  13.346  1.00  0.00    -0.237 OA
ATOM    104  O   UNL     1      -5.681  -8.124  13.077  1.00  0.00    -0.237 OA
ATOM    105  O   UNL     1      -5.502 -10.288  11.912  1.00  0.00    -0.744 OA
ENDBRANCH 101 102
ENDBRANCH  69  94
ENDBRANCH  43  44
ENDBRANCH  35  38
ENDBRANCH  33  34
ENDBRANCH  32  33
ENDBRANCH  31  32
ENDBRANCH   1  31
TORSDOF 21
