REMARK SMILES O=C(NCCCCCCNC(=O)c1ccncc1-c1ccc(F)cc1F)c1ccc(-c2c3nc(c(-c4c(F)cc(S(=O)(=O)[O-])cc4F)c4ccc([nH]4)c(-c4c(F)cc(S(=O)(=O)[O-])cc4F)c4nc(c(-c5c(F)cc(S(=O)(=O)[O-])cc5F)c5ccc2[nH]5)C=C4)C=C3)cc1
REMARK SMILES IDX 5 1 4 2 3 3 1 4 2 5 27 7 28 8 92 9 29 10 91 11 30 12 31 13
REMARK SMILES IDX 32 14 85 15 33 16 90 17 84 18 86 19 34 20 89 21 83 22 82 23
REMARK SMILES IDX 35 25 69 26 48 27 68 28 49 29 52 30 67 31 87 32 50 33 51 34
REMARK SMILES IDX 66 36 88 37 53 38 36 39 37 40 46 41 38 42 39 43 45 44 47 45
REMARK SMILES IDX 40 46 41 47 42 48 43 49 44 50 70 51 71 52 80 53 72 54 73 55
REMARK SMILES IDX 79 56 81 57 74 58 75 59 76 60 77 61 78 62 54 63 55 64 64 65
REMARK SMILES IDX 56 66 57 67 63 68 65 69 58 70 59 71 60 72 61 73 62 74 6 75
REMARK SMILES IDX 7 76 8 77 9 78 10 79 11 80 12 82 13 83 14 84 18 85 15 86
REMARK SMILES IDX 17 87 16 88 19 89 20 90 25 91 21 92 24 93 26 94 22 95 23 96
REMARK H PARENT 3 6 86 24 52 35 10 81
REMARK Flexibility Score: inf
ROOT
ATOM      1  C   UNL     1       4.614  -0.648  -2.653  1.00  0.00     0.021 C 
ENDROOT
BRANCH   1   2
ATOM      2  C   UNL     1       4.381   0.077  -1.334  1.00  0.00     0.116 C 
BRANCH   2   3
ATOM      3  N   UNL     1       2.972   0.247  -1.019  1.00  0.00    -0.352 N 
ATOM      4  O   UNL     1       1.075   0.028   0.180  1.00  0.00    -0.269 OA
ATOM      5  C   UNL     1       2.300  -0.062   0.141  1.00  0.00     0.251 C 
ATOM      6  H   UNL     1       2.422   0.638  -1.736  1.00  0.00     0.163 HD
BRANCH   5   7
ATOM      7  C   UNL     1       3.049  -0.529   1.331  1.00  0.00     0.039 A 
ATOM      8  C   UNL     1       4.226   0.106   1.729  1.00  0.00     0.014 A 
ATOM      9  C   UNL     1       2.562  -1.618   2.062  1.00  0.00     0.014 A 
ATOM     10  C   UNL     1       4.986  -0.431   2.764  1.00  0.00     0.010 A 
ATOM     11  C   UNL     1       3.285  -2.106   3.156  1.00  0.00     0.010 A 
ATOM     12  C   UNL     1       4.519  -1.534   3.499  1.00  0.00    -0.014 A 
BRANCH  12  13
ATOM     13  C   UNL     1       5.317  -2.017   4.657  1.00  0.00     0.031 A 
ATOM     14  C   UNL     1       5.963  -3.376   4.653  1.00  0.00     0.074 A 
ATOM     15  C   UNL     1       5.506  -1.180   5.698  1.00  0.00     0.049 A 
ATOM     16  N   UNL     1       6.736  -3.919   5.559  1.00  0.00    -0.248 NA
ATOM     17  C   UNL     1       5.710  -4.240   3.489  1.00  0.00     0.031 C 
ATOM     18  C   UNL     1       4.918   0.158   5.818  1.00  0.00     0.029 A 
ATOM     19  N   UNL     1       6.265  -1.309   6.833  1.00  0.00    -0.354 N 
ATOM     20  C   UNL     1       7.056  -5.186   5.083  1.00  0.00     0.074 A 
ATOM     21  C   UNL     1       6.372  -5.343   3.818  1.00  0.00     0.031 C 
ATOM     22  C   UNL     1       5.388   0.748   6.926  1.00  0.00     0.029 A 
ATOM     23  C   UNL     1       6.262  -0.185   7.626  1.00  0.00     0.049 A 
ATOM     24  H   UNL     1       6.764  -2.127   7.058  1.00  0.00     0.167 HD
ATOM     25  C   UNL     1       7.856  -6.123   5.647  1.00  0.00     0.037 A 
ATOM     26  C   UNL     1       6.889   0.067   8.790  1.00  0.00     0.037 A 
ATOM     27  C   UNL     1       8.545  -5.954   6.902  1.00  0.00     0.049 A 
ATOM     28  C   UNL     1       7.760  -0.996   9.394  1.00  0.00     0.074 A 
ATOM     29  C   UNL     1       9.380  -6.848   7.552  1.00  0.00     0.029 A 
ATOM     30  N   UNL     1       8.489  -4.816   7.693  1.00  0.00    -0.354 N 
ATOM     31  N   UNL     1       8.048  -2.186   8.926  1.00  0.00    -0.248 NA
ATOM     32  C   UNL     1       8.385  -0.686  10.687  1.00  0.00     0.031 C 
ATOM     33  C   UNL     1       9.804  -6.262   8.750  1.00  0.00     0.029 A 
ATOM     34  C   UNL     1       9.265  -4.988   8.827  1.00  0.00     0.049 A 
ATOM     35  H   UNL     1       7.972  -4.006   7.479  1.00  0.00     0.167 HD
ATOM     36  C   UNL     1       8.893  -2.766   9.864  1.00  0.00     0.074 A 
ATOM     37  C   UNL     1       9.090  -1.786  10.913  1.00  0.00     0.031 C 
ATOM     38  C   UNL     1       9.448  -4.002   9.861  1.00  0.00     0.037 A 
BRANCH  25  39
ATOM     39  C   UNL     1       8.042  -7.426   4.918  1.00  0.00     0.058 A 
ATOM     40  C   UNL     1       7.462  -8.608   5.405  1.00  0.00     0.135 A 
ATOM     41  C   UNL     1       8.869  -7.519   3.788  1.00  0.00     0.135 A 
ATOM     42  F   UNL     1       6.662  -8.574   6.482  1.00  0.00    -0.206 F 
ATOM     43  C   UNL     1       7.707  -9.843   4.809  1.00  0.00     0.059 A 
ATOM     44  C   UNL     1       9.113  -8.739   3.164  1.00  0.00     0.059 A 
ATOM     45  F   UNL     1       9.435  -6.416   3.272  1.00  0.00    -0.206 F 
ATOM     46  C   UNL     1       8.532  -9.897   3.686  1.00  0.00     0.060 A 
BRANCH  46  47
ATOM     47  S   UNL     1       8.889 -11.474   2.882  1.00  0.00     0.124 S 
ATOM     48  O   UNL     1       8.165 -11.330   1.623  1.00  0.00    -0.237 OA
ATOM     49  O   UNL     1      10.345 -11.449   2.782  1.00  0.00    -0.237 OA
ATOM     50  O   UNL     1       8.343 -12.461   3.809  1.00  0.00    -0.744 OA
ENDBRANCH  46  47
ENDBRANCH  25  39
BRANCH  26  51
ATOM     51  C   UNL     1       6.712   1.383   9.458  1.00  0.00     0.058 A 
ATOM     52  C   UNL     1       5.481   1.748  10.026  1.00  0.00     0.135 A 
ATOM     53  C   UNL     1       7.764   2.306   9.526  1.00  0.00     0.135 A 
ATOM     54  F   UNL     1       4.438   0.905   9.970  1.00  0.00    -0.206 F 
ATOM     55  C   UNL     1       5.294   2.986  10.630  1.00  0.00     0.059 A 
ATOM     56  C   UNL     1       7.610   3.540  10.148  1.00  0.00     0.059 A 
ATOM     57  F   UNL     1       8.960   2.001   8.999  1.00  0.00    -0.206 F 
ATOM     58  C   UNL     1       6.369   3.871  10.697  1.00  0.00     0.060 A 
BRANCH  58  59
ATOM     59  S   UNL     1       6.164   5.492  11.465  1.00  0.00     0.124 S 
ATOM     60  O   UNL     1       6.871   5.308  12.727  1.00  0.00    -0.237 OA
ATOM     61  O   UNL     1       6.805   6.375  10.496  1.00  0.00    -0.237 OA
ATOM     62  O   UNL     1       4.714   5.633  11.566  1.00  0.00    -0.744 OA
ENDBRANCH  58  59
ENDBRANCH  26  51
BRANCH  38  63
ATOM     63  C   UNL     1      10.331  -4.356  11.023  1.00  0.00     0.058 A 
ATOM     64  C   UNL     1      11.724  -4.426  10.866  1.00  0.00     0.135 A 
ATOM     65  C   UNL     1       9.794  -4.656  12.284  1.00  0.00     0.135 A 
ATOM     66  F   UNL     1      12.284  -4.156   9.676  1.00  0.00    -0.206 F 
ATOM     67  C   UNL     1      12.559  -4.780  11.921  1.00  0.00     0.059 A 
ATOM     68  C   UNL     1      10.611  -4.989  13.359  1.00  0.00     0.059 A 
ATOM     69  F   UNL     1       8.468  -4.595  12.486  1.00  0.00    -0.206 F 
ATOM     70  C   UNL     1      11.993  -5.047  13.167  1.00  0.00     0.060 A 
BRANCH  70  71
ATOM     71  S   UNL     1      13.041  -5.498  14.566  1.00  0.00     0.124 S 
ATOM     72  O   UNL     1      12.998  -4.281  15.370  1.00  0.00    -0.237 OA
ATOM     73  O   UNL     1      12.339  -6.651  15.123  1.00  0.00    -0.237 OA
ATOM     74  O   UNL     1      14.328  -5.795  13.945  1.00  0.00    -0.744 OA
ENDBRANCH  70  71
ENDBRANCH  38  63
ENDBRANCH  12  13
ENDBRANCH   5   7
ENDBRANCH   2   3
ENDBRANCH   1   2
BRANCH   1  75
ATOM     75  C   UNL     1       4.162   0.102  -3.906  1.00  0.00     0.002 C 
BRANCH  75  76
ATOM     76  C   UNL     1       4.738   1.509  -4.091  1.00  0.00     0.002 C 
BRANCH  76  77
ATOM     77  C   UNL     1       6.263   1.635  -4.002  1.00  0.00     0.021 C 
BRANCH  77  78
ATOM     78  C   UNL     1       7.061   0.716  -4.924  1.00  0.00     0.116 C 
BRANCH  78  79
ATOM     79  N   UNL     1       6.765   0.946  -6.328  1.00  0.00    -0.352 N 
ATOM     80  C   UNL     1       7.620   1.204  -7.370  1.00  0.00     0.252 C 
ATOM     81  H   UNL     1       5.811   0.910  -6.567  1.00  0.00     0.163 HD
ATOM     82  O   UNL     1       7.178   1.424  -8.493  1.00  0.00    -0.269 OA
BRANCH  80  83
ATOM     83  C   UNL     1       9.079   1.210  -7.134  1.00  0.00     0.050 A 
ATOM     84  C   UNL     1       9.672   0.022  -6.690  1.00  0.00     0.034 A 
ATOM     85  C   UNL     1       9.855   2.345  -7.417  1.00  0.00     0.016 A 
ATOM     86  C   UNL     1      11.037   0.014  -6.484  1.00  0.00     0.112 A 
ATOM     87  C   UNL     1      11.223   2.205  -7.176  1.00  0.00     0.120 A 
ATOM     88  N   UNL     1      11.824   1.083  -6.708  1.00  0.00    -0.264 NA
BRANCH  85  89
ATOM     89  C   UNL     1       9.322   3.613  -7.937  1.00  0.00     0.020 A 
ATOM     90  C   UNL     1       8.374   4.363  -7.218  1.00  0.00     0.015 A 
ATOM     91  C   UNL     1       9.758   4.126  -9.172  1.00  0.00     0.134 A 
ATOM     92  C   UNL     1       7.883   5.570  -7.727  1.00  0.00     0.040 A 
ATOM     93  C   UNL     1       9.276   5.325  -9.685  1.00  0.00     0.079 A 
ATOM     94  F   UNL     1      10.673   3.455  -9.890  1.00  0.00    -0.206 F 
ATOM     95  C   UNL     1       8.339   6.037  -8.955  1.00  0.00     0.126 A 
ATOM     96  F   UNL     1       7.869   7.196  -9.435  1.00  0.00    -0.207 F 
ENDBRANCH  85  89
ENDBRANCH  80  83
ENDBRANCH  78  79
ENDBRANCH  77  78
ENDBRANCH  76  77
ENDBRANCH  75  76
ENDBRANCH   1  75
TORSDOF 17
