REMARK SMILES O=C(NCCCCCCNC(=O)c1ccc(-n2cc(CSc3nc4ccccc4c(=O)n3-c3ccc(Br)cc3)nn2)cc1)c1ccc(-c2c3nc(c(-c4c(F)cc(S(=O)(=O)[O-])cc4F)c4ccc([nH]4)c(-c4c(F)cc(S(=O)(=O)[O-])cc4F)c4nc(c(-c5c(F)cc(S(=O)(=O)[O-])cc5F)c5ccc2[nH]5)C=C4)C=C3)cc1
REMARK SMILES IDX 7 1 6 2 5 3 4 4 3 5 1 6 2 7 44 9 45 10 109 11 46 12 108 13
REMARK SMILES IDX 47 14 48 15 49 16 102 17 50 18 107 19 101 20 103 21 51 22
REMARK SMILES IDX 106 23 100 24 99 25 52 27 86 28 65 29 85 30 66 31 69 32
REMARK SMILES IDX 84 33 104 34 67 35 68 36 83 38 105 39 70 40 53 41 54 42
REMARK SMILES IDX 63 43 55 44 56 45 62 46 64 47 57 48 58 49 59 50 60 51 61 52
REMARK SMILES IDX 87 53 88 54 97 55 89 56 90 57 96 58 98 59 91 60 92 61 93 62
REMARK SMILES IDX 94 63 95 64 71 65 72 66 81 67 73 68 74 69 80 70 82 71 75 72
REMARK SMILES IDX 76 73 77 74 78 75 79 76 8 77 9 78 10 79 11 80 12 82 13 83
REMARK SMILES IDX 14 84 43 85 15 86 42 87 16 88 17 89 18 90 41 91 19 92 40 93
REMARK SMILES IDX 20 94 21 95 22 96 23 97 32 98 24 99 30 100 25 101 29 102
REMARK SMILES IDX 31 103 26 104 28 105 27 106 33 107 34 108 39 109 35 110
REMARK SMILES IDX 38 111 36 112 37 113
REMARK H PARENT 3 8 103 26 69 37 10 81
REMARK Flexibility Score: inf
ROOT
ATOM      1  C   UNL     1       4.878   2.040   3.598  1.00  0.00     0.002 C 
ENDROOT
BRANCH   1   2
ATOM      2  C   UNL     1       4.332   2.617   2.286  1.00  0.00     0.002 C 
BRANCH   2   3
ATOM      3  C   UNL     1       4.868   1.980   0.997  1.00  0.00     0.021 C 
BRANCH   3   4
ATOM      4  C   UNL     1       4.718   0.463   0.922  1.00  0.00     0.116 C 
BRANCH   4   5
ATOM      5  N   UNL     1       3.347  -0.002   0.951  1.00  0.00    -0.352 N 
ATOM      6  O   UNL     1       1.285  -0.588   0.416  1.00  0.00    -0.269 OA
ATOM      7  C   UNL     1       2.333  -0.057   0.035  1.00  0.00     0.251 C 
ATOM      8  H   UNL     1       3.085  -0.359   1.831  1.00  0.00     0.163 HD
BRANCH   7   9
ATOM      9  C   UNL     1       2.393   0.504  -1.343  1.00  0.00     0.039 A 
ATOM     10  C   UNL     1       3.560   0.790  -2.053  1.00  0.00     0.014 A 
ATOM     11  C   UNL     1       1.154   0.721  -1.976  1.00  0.00     0.014 A 
ATOM     12  C   UNL     1       3.494   1.324  -3.340  1.00  0.00     0.010 A 
ATOM     13  C   UNL     1       1.083   1.233  -3.270  1.00  0.00     0.010 A 
ATOM     14  C   UNL     1       2.258   1.550  -3.949  1.00  0.00    -0.014 A 
BRANCH  14  15
ATOM     15  C   UNL     1       2.250   1.962  -5.355  1.00  0.00     0.031 A 
ATOM     16  C   UNL     1       2.790   0.959  -6.327  1.00  0.00     0.074 A 
ATOM     17  C   UNL     1       1.638   3.073  -5.812  1.00  0.00     0.049 A 
ATOM     18  N   UNL     1       3.743   1.096  -7.194  1.00  0.00    -0.248 NA
ATOM     19  C   UNL     1       2.224  -0.399  -6.275  1.00  0.00     0.031 C 
ATOM     20  C   UNL     1       0.775   3.991  -5.066  1.00  0.00     0.029 A 
ATOM     21  N   UNL     1       1.569   3.549  -7.090  1.00  0.00    -0.354 N 
ATOM     22  C   UNL     1       3.779  -0.095  -7.922  1.00  0.00     0.074 A 
ATOM     23  C   UNL     1       2.908  -1.016  -7.239  1.00  0.00     0.031 C 
ATOM     24  C   UNL     1       0.104   4.774  -5.940  1.00  0.00     0.029 A 
ATOM     25  C   UNL     1       0.578   4.500  -7.287  1.00  0.00     0.049 A 
ATOM     26  H   UNL     1       2.170   3.244  -7.808  1.00  0.00     0.167 HD
ATOM     27  C   UNL     1       4.388  -0.200  -9.137  1.00  0.00     0.037 A 
ATOM     28  C   UNL     1       0.124   4.971  -8.476  1.00  0.00     0.037 A 
ATOM     29  C   UNL     1       5.319   0.870  -9.367  1.00  0.00     0.049 A 
ATOM     30  C   UNL     1       1.157   4.684  -9.504  1.00  0.00     0.074 A 
ATOM     31  C   UNL     1       6.461   1.318  -8.732  1.00  0.00     0.029 A 
ATOM     32  N   UNL     1       4.962   1.872 -10.233  1.00  0.00    -0.354 N 
ATOM     33  N   UNL     1       2.328   5.254  -9.557  1.00  0.00    -0.248 NA
ATOM     34  C   UNL     1       1.022   3.465 -10.286  1.00  0.00     0.031 C 
ATOM     35  C   UNL     1       6.440   2.735  -8.886  1.00  0.00     0.029 A 
ATOM     36  C   UNL     1       5.305   3.056  -9.631  1.00  0.00     0.049 A 
ATOM     37  H   UNL     1       4.540   1.763 -11.116  1.00  0.00     0.167 HD
ATOM     38  C   UNL     1       3.182   4.270 -10.029  1.00  0.00     0.074 A 
ATOM     39  C   UNL     1       2.307   3.234 -10.565  1.00  0.00     0.031 C 
ATOM     40  C   UNL     1       4.507   4.260  -9.700  1.00  0.00     0.037 A 
BRANCH  27  41
ATOM     41  C   UNL     1       3.926  -1.118 -10.247  1.00  0.00     0.058 A 
ATOM     42  C   UNL     1       4.744  -1.326 -11.378  1.00  0.00     0.135 A 
ATOM     43  C   UNL     1       2.596  -1.580 -10.365  1.00  0.00     0.135 A 
ATOM     44  F   UNL     1       6.021  -0.913 -11.384  1.00  0.00    -0.206 F 
ATOM     45  C   UNL     1       4.259  -1.892 -12.559  1.00  0.00     0.059 A 
ATOM     46  C   UNL     1       2.107  -2.196 -11.513  1.00  0.00     0.059 A 
ATOM     47  F   UNL     1       1.684  -1.367  -9.409  1.00  0.00    -0.206 F 
ATOM     48  C   UNL     1       2.932  -2.308 -12.621  1.00  0.00     0.060 A 
BRANCH  48  49
ATOM     49  S   UNL     1       2.268  -2.926 -14.178  1.00  0.00     0.124 S 
ATOM     50  O   UNL     1       2.196  -1.702 -14.968  1.00  0.00    -0.237 OA
ATOM     51  O   UNL     1       3.286  -3.890 -14.584  1.00  0.00    -0.237 OA
ATOM     52  O   UNL     1       0.986  -3.506 -13.789  1.00  0.00    -0.744 OA
ENDBRANCH  48  49
ENDBRANCH  27  41
BRANCH  28  53
ATOM     53  C   UNL     1      -1.259   5.379  -8.836  1.00  0.00     0.058 A 
ATOM     54  C   UNL     1      -1.524   6.094 -10.018  1.00  0.00     0.135 A 
ATOM     55  C   UNL     1      -2.380   4.838  -8.175  1.00  0.00     0.135 A 
ATOM     56  F   UNL     1      -0.515   6.622 -10.729  1.00  0.00    -0.206 F 
ATOM     57  C   UNL     1      -2.816   6.224 -10.538  1.00  0.00     0.059 A 
ATOM     58  C   UNL     1      -3.678   4.968  -8.664  1.00  0.00     0.059 A 
ATOM     59  F   UNL     1      -2.239   4.079  -7.078  1.00  0.00    -0.206 F 
ATOM     60  C   UNL     1      -3.886   5.640  -9.861  1.00  0.00     0.060 A 
BRANCH  60  61
ATOM     61  S   UNL     1      -5.529   5.648 -10.617  1.00  0.00     0.124 S 
ATOM     62  O   UNL     1      -5.905   7.053 -10.504  1.00  0.00    -0.237 OA
ATOM     63  O   UNL     1      -5.249   5.170 -11.967  1.00  0.00    -0.237 OA
ATOM     64  O   UNL     1      -6.292   4.727  -9.779  1.00  0.00    -0.744 OA
ENDBRANCH  60  61
ENDBRANCH  28  53
BRANCH  40  65
ATOM     65  C   UNL     1       5.111   5.507  -9.108  1.00  0.00     0.058 A 
ATOM     66  C   UNL     1       4.720   6.072  -7.882  1.00  0.00     0.135 A 
ATOM     67  C   UNL     1       6.239   6.059  -9.736  1.00  0.00     0.135 A 
ATOM     68  F   UNL     1       3.722   5.538  -7.162  1.00  0.00    -0.206 F 
ATOM     69  C   UNL     1       5.396   7.159  -7.326  1.00  0.00     0.059 A 
ATOM     70  C   UNL     1       6.949   7.121  -9.183  1.00  0.00     0.059 A 
ATOM     71  F   UNL     1       6.702   5.524 -10.879  1.00  0.00    -0.206 F 
ATOM     72  C   UNL     1       6.513   7.675  -7.981  1.00  0.00     0.060 A 
BRANCH  72  73
ATOM     73  S   UNL     1       7.448   9.011  -7.205  1.00  0.00     0.124 S 
ATOM     74  O   UNL     1       6.572  10.159  -7.411  1.00  0.00    -0.237 OA
ATOM     75  O   UNL     1       7.576   8.550  -5.825  1.00  0.00    -0.237 OA
ATOM     76  O   UNL     1       8.699   9.036  -7.960  1.00  0.00    -0.744 OA
ENDBRANCH  72  73
ENDBRANCH  40  65
ENDBRANCH  14  15
ENDBRANCH   7   9
ENDBRANCH   4   5
ENDBRANCH   3   4
ENDBRANCH   2   3
ENDBRANCH   1   2
BRANCH   1  77
ATOM     77  C   UNL     1       6.405   1.988   3.719  1.00  0.00     0.021 C 
BRANCH  77  78
ATOM     78  C   UNL     1       7.107   3.338   3.599  1.00  0.00     0.116 C 
BRANCH  78  79
ATOM     79  N   UNL     1       6.817   4.203   4.730  1.00  0.00    -0.352 N 
ATOM     80  C   UNL     1       7.652   4.636   5.733  1.00  0.00     0.251 C 
ATOM     81  H   UNL     1       5.888   4.527   4.786  1.00  0.00     0.163 HD
ATOM     82  O   UNL     1       7.214   5.227   6.704  1.00  0.00    -0.269 OA
BRANCH  80  83
ATOM     83  C   UNL     1       9.102   4.364   5.634  1.00  0.00     0.039 A 
ATOM     84  C   UNL     1       9.736   3.683   6.677  1.00  0.00     0.016 A 
ATOM     85  C   UNL     1       9.835   4.821   4.537  1.00  0.00     0.016 A 
ATOM     86  C   UNL     1      11.105   3.412   6.603  1.00  0.00     0.029 A 
ATOM     87  C   UNL     1      11.204   4.566   4.466  1.00  0.00     0.029 A 
ATOM     88  C   UNL     1      11.847   3.869   5.505  1.00  0.00     0.066 A 
BRANCH  88  89
ATOM     89  N   UNL     1      13.249   3.675   5.473  1.00  0.00    -0.220 N 
ATOM     90  C   UNL     1      14.156   4.306   4.662  1.00  0.00     0.141 A 
ATOM     91  N   UNL     1      13.910   2.816   6.288  1.00  0.00    -0.062 NA
ATOM     92  C   UNL     1      15.393   3.852   5.060  1.00  0.00     0.093 A 
ATOM     93  N   UNL     1      15.212   2.901   6.025  1.00  0.00    -0.134 NA
BRANCH  92  94
ATOM     94  C   UNL     1      16.709   4.137   4.450  1.00  0.00     0.138 C 
BRANCH  94  95
ATOM     95  S   UNL     1      17.834   5.356   5.139  1.00  0.00    -0.081 SA
BRANCH  95  96
ATOM     96  C   UNL     1      17.061   6.288   6.396  1.00  0.00     0.176 A 
ATOM     97  N   UNL     1      17.826   6.391   7.444  1.00  0.00    -0.223 NA
ATOM     98  N   UNL     1      15.812   6.902   6.319  1.00  0.00    -0.255 N 
ATOM     99  C   UNL     1      17.347   7.070   8.565  1.00  0.00     0.079 A 
ATOM    100  C   UNL     1      15.148   7.004   7.553  1.00  0.00     0.266 A 
ATOM    101  C   UNL     1      18.216   7.465   9.584  1.00  0.00     0.029 A 
ATOM    102  C   UNL     1      15.990   7.286   8.724  1.00  0.00     0.066 A 
ATOM    103  O   UNL     1      13.943   6.856   7.749  1.00  0.00    -0.268 OA
ATOM    104  C   UNL     1      17.713   8.020  10.767  1.00  0.00     0.002 A 
ATOM    105  C   UNL     1      15.466   7.799   9.916  1.00  0.00     0.016 A 
ATOM    106  C   UNL     1      16.336   8.160  10.944  1.00  0.00     0.001 A 
BRANCH  98 107
ATOM    107  C   UNL     1      15.125   7.374   5.123  1.00  0.00     0.051 A 
ATOM    108  C   UNL     1      13.881   8.035   5.226  1.00  0.00     0.028 A 
ATOM    109  C   UNL     1      15.624   7.256   3.818  1.00  0.00     0.028 A 
ATOM    110  C   UNL     1      13.090   8.339   4.111  1.00  0.00     0.018 A 
ATOM    111  C   UNL     1      14.825   7.512   2.690  1.00  0.00     0.018 A 
ATOM    112  C   UNL     1      13.542   8.013   2.846  1.00  0.00     0.018 A 
ATOM    113  Br  UNL     1      12.416   8.234   1.352  1.00  0.00    -0.051 Br
ENDBRANCH  98 107
ENDBRANCH  95  96
ENDBRANCH  94  95
ENDBRANCH  92  94
ENDBRANCH  88  89
ENDBRANCH  80  83
ENDBRANCH  78  79
ENDBRANCH  77  78
ENDBRANCH   1  77
TORSDOF 21
