REMARK SMILES [NH3+]C1(C(=O)N2[C@@H](C(=O)NCCCCCCNC(=O)c3ccc(-c4c5nc(c(-c6c(F)cc(S(=O)(=O)[O-])cc6F)c6ccc([nH]6)c(-c6c(F)cc(S(=O)(=O)[O-])cc6F)c6nc(c(-c7c(F)cc(S(=O)(=O)[O-])cc7F)c7ccc4[nH]7)C=C6)C=C5)cc3)CC[C@@H]3CCCC[C@@H]32)CC1
REMARK SMILES IDX 12 1 11 2 10 3 9 4 7 5 8 6 6 8 5 9 92 10 85 11 87 12 91 13
REMARK SMILES IDX 86 14 88 15 90 16 89 17 3 18 4 19 2 20 93 21 94 22 1 23
REMARK SMILES IDX 13 27 14 28 15 29 16 30 17 31 18 33 19 34 20 35 84 36 21 37
REMARK SMILES IDX 83 38 22 39 23 40 24 41 77 42 25 43 82 44 76 45 78 46 26 47
REMARK SMILES IDX 81 48 75 49 74 50 27 52 61 53 40 54 60 55 41 56 44 57 59 58
REMARK SMILES IDX 79 59 42 60 43 61 58 63 80 64 45 65 28 66 29 67 38 68 30 69
REMARK SMILES IDX 31 70 37 71 39 72 32 73 33 74 34 75 35 76 36 77 62 78 63 79
REMARK SMILES IDX 72 80 64 81 65 82 71 83 73 84 66 85 67 86 68 87 69 88 70 89
REMARK SMILES IDX 46 90 47 91 56 92 48 93 49 94 55 95 57 96 50 97 51 98 52 99
REMARK SMILES IDX 53 100 54 101
REMARK H PARENT 9 7 1 24 1 25 1 26 16 32 78 51 44 62
REMARK Flexibility Score: inf
ROOT
ATOM      1  C   UNL     1       5.643  -1.376   2.868  1.00  0.00     0.002 C 
ENDROOT
BRANCH   1   2
ATOM      2  C   UNL     1       4.370  -1.314   3.725  1.00  0.00     0.021 C 
BRANCH   2   3
ATOM      3  C   UNL     1       3.092  -1.146   2.905  1.00  0.00     0.116 C 
BRANCH   3   4
ATOM      4  N   UNL     1       2.924  -2.294   2.038  1.00  0.00    -0.354 N 
ATOM      5  C   UNL     1       1.985  -3.272   2.082  1.00  0.00     0.242 C 
ATOM      6  O   UNL     1       2.260  -4.354   1.553  1.00  0.00    -0.273 OA
ATOM      7  H   UNL     1       3.585  -2.375   1.312  1.00  0.00     0.163 HD
BRANCH   5   8
ATOM      8  C   UNL     1       0.675  -3.102   2.870  1.00  0.00     0.175 C 
ATOM      9  N   UNL     1      -0.080  -1.829   2.709  1.00  0.00    -0.322 N 
ATOM     10  C   UNL     1      -1.168  -1.597   3.688  1.00  0.00     0.089 C 
ATOM     11  C   UNL     1       1.042  -3.396   4.350  1.00  0.00     0.036 C 
ATOM     12  C   UNL     1      -0.687  -1.752   5.128  1.00  0.00     0.012 C 
ATOM     13  C   UNL     1      -2.383  -2.498   3.362  1.00  0.00     0.025 C 
ATOM     14  C   UNL     1      -0.078  -3.138   5.345  1.00  0.00     0.008 C 
ATOM     15  C   UNL     1      -1.859  -1.459   6.069  1.00  0.00     0.006 C 
ATOM     16  C   UNL     1      -3.408  -2.740   4.475  1.00  0.00     0.002 C 
ATOM     17  C   UNL     1      -2.986  -2.468   5.918  1.00  0.00     0.000 C 
BRANCH   9  18
ATOM     18  C   UNL     1      -0.232  -1.088   1.518  1.00  0.00     0.284 C 
ATOM     19  O   UNL     1      -0.874  -0.037   1.498  1.00  0.00    -0.268 OA
BRANCH  18  20
ATOM     20  C   UNL     1       0.400  -1.498   0.200  1.00  0.00     0.174 C 
ATOM     21  C   UNL     1      -0.599  -1.839  -0.902  1.00  0.00     0.086 C 
ATOM     22  C   UNL     1       0.339  -2.880  -0.395  1.00  0.00     0.086 C 
BRANCH  20  23
ATOM     23  N   UNL     1       1.481  -0.575  -0.241  1.00  0.00    -0.345 N 
ATOM     24  H   UNL     1       1.388   0.315   0.248  1.00  0.00     0.345 HD
ATOM     25  H   UNL     1       1.406  -0.420  -1.246  1.00  0.00     0.345 HD
ATOM     26  H   UNL     1       2.389  -0.988  -0.028  1.00  0.00     0.345 HD
ENDBRANCH  20  23
ENDBRANCH  18  20
ENDBRANCH   9  18
ENDBRANCH   5   8
ENDBRANCH   3   4
ENDBRANCH   2   3
ENDBRANCH   1   2
BRANCH   1  27
ATOM     27  C   UNL     1       5.812  -0.207   1.891  1.00  0.00     0.002 C 
BRANCH  27  28
ATOM     28  C   UNL     1       5.748   1.176   2.542  1.00  0.00     0.021 C 
BRANCH  28  29
ATOM     29  C   UNL     1       6.760   1.384   3.661  1.00  0.00     0.116 C 
BRANCH  29  30
ATOM     30  N   UNL     1       8.126   1.258   3.182  1.00  0.00    -0.352 N 
ATOM     31  C   UNL     1       9.189   2.091   3.399  1.00  0.00     0.251 C 
ATOM     32  H   UNL     1       8.311   0.467   2.627  1.00  0.00     0.163 HD
ATOM     33  O   UNL     1      10.223   1.949   2.742  1.00  0.00    -0.269 OA
BRANCH  31  34
ATOM     34  C   UNL     1       9.088   3.165   4.406  1.00  0.00     0.039 A 
ATOM     35  C   UNL     1       9.594   4.430   4.098  1.00  0.00     0.014 A 
ATOM     36  C   UNL     1       8.508   2.923   5.656  1.00  0.00     0.014 A 
ATOM     37  C   UNL     1       9.489   5.459   5.034  1.00  0.00     0.010 A 
ATOM     38  C   UNL     1       8.332   3.970   6.554  1.00  0.00     0.010 A 
ATOM     39  C   UNL     1       8.840   5.243   6.261  1.00  0.00    -0.014 A 
BRANCH  39  40
ATOM     40  C   UNL     1       8.713   6.336   7.257  1.00  0.00     0.031 A 
ATOM     41  C   UNL     1       9.402   6.226   8.590  1.00  0.00     0.074 A 
ATOM     42  C   UNL     1       7.952   7.410   6.972  1.00  0.00     0.049 A 
ATOM     43  N   UNL     1       9.410   7.072   9.588  1.00  0.00    -0.248 NA
ATOM     44  C   UNL     1      10.162   4.992   8.846  1.00  0.00     0.031 C 
ATOM     45  C   UNL     1       7.198   7.606   5.732  1.00  0.00     0.029 A 
ATOM     46  N   UNL     1       7.690   8.540   7.703  1.00  0.00    -0.354 N 
ATOM     47  C   UNL     1      10.167   6.472  10.588  1.00  0.00     0.074 A 
ATOM     48  C   UNL     1      10.542   5.162  10.103  1.00  0.00     0.031 C 
ATOM     49  C   UNL     1       6.595   8.804   5.770  1.00  0.00     0.029 A 
ATOM     50  C   UNL     1       6.888   9.445   7.048  1.00  0.00     0.049 A 
ATOM     51  H   UNL     1       8.043   8.690   8.609  1.00  0.00     0.167 HD
ATOM     52  C   UNL     1      10.543   6.978  11.787  1.00  0.00     0.037 A 
ATOM     53  C   UNL     1       6.446  10.658   7.433  1.00  0.00     0.037 A 
ATOM     54  C   UNL     1      10.175   8.289  12.255  1.00  0.00     0.049 A 
ATOM     55  C   UNL     1       6.862  11.195   8.775  1.00  0.00     0.074 A 
ATOM     56  C   UNL     1      10.536   8.916  13.434  1.00  0.00     0.029 A 
ATOM     57  N   UNL     1       9.357   9.174  11.566  1.00  0.00    -0.354 N 
ATOM     58  N   UNL     1       7.628  10.641   9.684  1.00  0.00    -0.248 NA
ATOM     59  C   UNL     1       6.359  12.526   9.140  1.00  0.00     0.031 C 
ATOM     60  C   UNL     1       9.899  10.161  13.479  1.00  0.00     0.029 A 
ATOM     61  C   UNL     1       9.185  10.333  12.304  1.00  0.00     0.049 A 
ATOM     62  H   UNL     1       8.958   9.003  10.682  1.00  0.00     0.167 HD
ATOM     63  C   UNL     1       7.726  11.567  10.716  1.00  0.00     0.074 A 
ATOM     64  C   UNL     1       6.946  12.720  10.314  1.00  0.00     0.031 C 
ATOM     65  C   UNL     1       8.405  11.474  11.887  1.00  0.00     0.037 A 
BRANCH  52  66
ATOM     66  C   UNL     1      11.392   6.102  12.670  1.00  0.00     0.058 A 
ATOM     67  C   UNL     1      12.714   5.769  12.326  1.00  0.00     0.135 A 
ATOM     68  C   UNL     1      10.882   5.582  13.870  1.00  0.00     0.135 A 
ATOM     69  F   UNL     1      13.251   6.227  11.184  1.00  0.00    -0.206 F 
ATOM     70  C   UNL     1      13.479   4.913  13.112  1.00  0.00     0.059 A 
ATOM     71  C   UNL     1      11.640   4.750  14.689  1.00  0.00     0.059 A 
ATOM     72  F   UNL     1       9.627   5.869  14.252  1.00  0.00    -0.206 F 
ATOM     73  C   UNL     1      12.930   4.402  14.289  1.00  0.00     0.060 A 
BRANCH  73  74
ATOM     74  S   UNL     1      13.921   3.265  15.280  1.00  0.00     0.124 S 
ATOM     75  O   UNL     1      13.868   2.052  14.470  1.00  0.00    -0.237 OA
ATOM     76  O   UNL     1      15.215   3.938  15.328  1.00  0.00    -0.237 OA
ATOM     77  O   UNL     1      13.202   3.204  16.548  1.00  0.00    -0.744 OA
ENDBRANCH  73  74
ENDBRANCH  52  66
BRANCH  53  78
ATOM     78  C   UNL     1       5.605  11.463   6.508  1.00  0.00     0.058 A 
ATOM     79  C   UNL     1       6.124  12.604   5.878  1.00  0.00     0.135 A 
ATOM     80  C   UNL     1       4.287  11.090   6.204  1.00  0.00     0.135 A 
ATOM     81  F   UNL     1       7.378  13.003   6.141  1.00  0.00    -0.206 F 
ATOM     82  C   UNL     1       5.365  13.352   4.984  1.00  0.00     0.059 A 
ATOM     83  C   UNL     1       3.516  11.808   5.295  1.00  0.00     0.059 A 
ATOM     84  F   UNL     1       3.750   9.997   6.767  1.00  0.00    -0.206 F 
ATOM     85  C   UNL     1       4.063  12.941   4.694  1.00  0.00     0.060 A 
BRANCH  85  86
ATOM     86  S   UNL     1       3.112  13.882   3.481  1.00  0.00     0.124 S 
ATOM     87  O   UNL     1       2.821  15.105   4.219  1.00  0.00    -0.237 OA
ATOM     88  O   UNL     1       4.062  14.009   2.380  1.00  0.00    -0.237 OA
ATOM     89  O   UNL     1       1.965  13.019   3.212  1.00  0.00    -0.744 OA
ENDBRANCH  85  86
ENDBRANCH  53  78
BRANCH  65  90
ATOM     90  C   UNL     1       8.365  12.664  12.806  1.00  0.00     0.058 A 
ATOM     91  C   UNL     1       7.212  13.001  13.531  1.00  0.00     0.135 A 
ATOM     92  C   UNL     1       9.516  13.445  13.004  1.00  0.00     0.135 A 
ATOM     93  F   UNL     1       6.083  12.291  13.373  1.00  0.00    -0.206 F 
ATOM     94  C   UNL     1       7.193  14.085  14.403  1.00  0.00     0.059 A 
ATOM     95  C   UNL     1       9.528  14.516  13.892  1.00  0.00     0.059 A 
ATOM     96  F   UNL     1      10.649  13.160  12.343  1.00  0.00    -0.206 F 
ATOM     97  C   UNL     1       8.358  14.835  14.579  1.00  0.00     0.060 A 
BRANCH  97  98
ATOM     98  S   UNL     1       8.330  16.215  15.742  1.00  0.00     0.124 S 
ATOM     99  O   UNL     1       7.553  17.205  15.004  1.00  0.00    -0.237 OA
ATOM    100  O   UNL     1       7.671  15.630  16.905  1.00  0.00    -0.237 OA
ATOM    101  O   UNL     1       9.743  16.535  15.924  1.00  0.00    -0.744 OA
ENDBRANCH  97  98
ENDBRANCH  65  90
ENDBRANCH  39  40
ENDBRANCH  31  34
ENDBRANCH  29  30
ENDBRANCH  28  29
ENDBRANCH  27  28
ENDBRANCH   1  27
TORSDOF 19
