REMARK SMILES NC(=O)c1cc(NC(=O)/C=C\C(=O)NCCCCCCNC(=O)c2ccc(-c3c4nc(c(-c5c(F)cc(S(=O)(=O)[O-])cc5F)c5ccc([nH]5)c(-c5c(F)cc(S(=O)(=O)[O-])cc5F)c5nc(c(-c6c(F)cc(S(=O)(=O)[O-])cc6F)c6ccc3[nH]6)C=C5)C=C4)cc2)ccc1N1CCOCC1
REMARK SMILES IDX 17 1 16 2 15 3 14 4 12 5 13 6 11 8 10 9 8 10 7 11 9 13 6 14
REMARK SMILES IDX 4 15 5 16 92 17 91 18 90 19 2 20 1 21 3 24 93 25 94 26 98 27
REMARK SMILES IDX 95 28 97 29 96 30 18 31 19 32 20 33 21 34 22 35 23 37 24 38
REMARK SMILES IDX 25 39 89 40 26 41 88 42 27 43 28 44 29 45 82 46 30 47 87 48
REMARK SMILES IDX 81 49 83 50 31 51 86 52 80 53 79 54 32 56 66 57 45 58 65 59
REMARK SMILES IDX 46 60 49 61 64 62 84 63 47 64 48 65 63 67 85 68 50 69 33 70
REMARK SMILES IDX 34 71 43 72 35 73 36 74 42 75 44 76 37 77 38 78 39 79 40 80
REMARK SMILES IDX 41 81 67 82 68 83 77 84 69 85 70 86 76 87 78 88 71 89 72 90
REMARK SMILES IDX 73 91 74 92 75 93 51 94 52 95 61 96 53 97 54 98 60 99 62 100
REMARK SMILES IDX 55 101 56 102 57 103 58 104 59 105
REMARK H PARENT 14 7 7 12 1 22 1 23 21 36 83 55 49 66
REMARK Flexibility Score: inf
ROOT
ATOM      1  C   UNL     1       2.358  -7.181   2.771  1.00  0.00     0.002 C 
ENDROOT
BRANCH   1   2
ATOM      2  C   UNL     1       0.981  -6.846   2.208  1.00  0.00     0.021 C 
BRANCH   2   3
ATOM      3  C   UNL     1       0.494  -5.391   2.473  1.00  0.00     0.116 C 
BRANCH   3   4
ATOM      4  N   UNL     1       1.303  -4.129   1.674  1.00  0.00    -0.353 N 
ATOM      5  C   UNL     1       1.454  -3.212  -0.060  1.00  0.00     0.244 C 
ATOM      6  O   UNL     1       2.299  -2.361  -0.472  1.00  0.00    -0.270 OA
ATOM      7  H   UNL     1       1.921  -3.701   2.310  1.00  0.00     0.163 HD
BRANCH   5   8
ATOM      8  C   UNL     1       0.359  -3.199  -1.402  1.00  0.00     0.077 C 
ATOM      9  C   UNL     1      -0.429  -4.054  -2.089  1.00  0.00     0.077 C 
BRANCH   9  10
ATOM     10  C   UNL     1      -0.522  -5.525  -1.892  1.00  0.00     0.248 C 
ATOM     11  N   UNL     1       0.267  -6.012  -0.903  1.00  0.00    -0.322 N 
ATOM     12  H   UNL     1       0.507  -6.966  -0.872  1.00  0.00     0.170 HD
ATOM     13  O   UNL     1      -1.153  -6.232  -2.664  1.00  0.00    -0.270 OA
BRANCH  11  14
ATOM     14  C   UNL     1       0.728  -5.134   0.060  1.00  0.00     0.042 A 
ATOM     15  C   UNL     1       0.312  -2.353   1.525  1.00  0.00     0.064 A 
ATOM     16  C   UNL     1      -0.412  -3.820   0.718  1.00  0.00     0.042 A 
ATOM     17  C   UNL     1       2.117  -2.203   1.769  1.00  0.00     0.050 A 
ATOM     18  C   UNL     1       3.211  -3.571   1.192  1.00  0.00     0.029 A 
ATOM     19  C   UNL     1       2.527  -5.004   0.312  1.00  0.00     0.028 A 
BRANCH  15  20
ATOM     20  C   UNL     1      -0.512  -1.162   1.248  1.00  0.00     0.250 C 
ATOM     21  N   UNL     1       0.089  -0.278   0.399  1.00  0.00    -0.366 N 
ATOM     22  H   UNL     1      -0.373   0.554   0.145  1.00  0.00     0.159 HD
ATOM     23  H   UNL     1       0.986  -0.471   0.040  1.00  0.00     0.159 HD
ATOM     24  O   UNL     1      -1.673  -1.063   1.606  1.00  0.00    -0.269 OA
ENDBRANCH  15  20
BRANCH  17  25
ATOM     25  N   UNL     1       2.737  -1.013   2.178  1.00  0.00    -0.366 N 
ATOM     26  C   UNL     1       2.076   0.177   2.752  1.00  0.00     0.145 C 
ATOM     27  C   UNL     1       4.169  -0.790   1.910  1.00  0.00     0.145 C 
ATOM     28  C   UNL     1       2.408   1.450   1.927  1.00  0.00     0.181 C 
ATOM     29  C   UNL     1       4.359   0.473   1.060  1.00  0.00     0.181 C 
ATOM     30  O   UNL     1       3.822   1.623   1.728  1.00  0.00    -0.378 OA
ENDBRANCH  17  25
ENDBRANCH  11  14
ENDBRANCH   9  10
ENDBRANCH   5   8
ENDBRANCH   3   4
ENDBRANCH   2   3
ENDBRANCH   1   2
BRANCH   1  31
ATOM     31  C   UNL     1       2.269  -7.807   4.159  1.00  0.00     0.002 C 
BRANCH  31  32
ATOM     32  C   UNL     1       1.521  -9.146   4.201  1.00  0.00     0.021 C 
BRANCH  32  33
ATOM     33  C   UNL     1       2.082 -10.198   3.252  1.00  0.00     0.116 C 
BRANCH  33  34
ATOM     34  N   UNL     1       3.451 -10.528   3.618  1.00  0.00    -0.352 N 
ATOM     35  C   UNL     1       3.886 -11.687   4.213  1.00  0.00     0.251 C 
ATOM     36  H   UNL     1       4.137  -9.851   3.418  1.00  0.00     0.163 HD
ATOM     37  O   UNL     1       4.935 -11.721   4.843  1.00  0.00    -0.269 OA
BRANCH  35  38
ATOM     38  C   UNL     1       3.047 -12.888   4.055  1.00  0.00     0.039 A 
ATOM     39  C   UNL     1       2.701 -13.650   5.169  1.00  0.00     0.014 A 
ATOM     40  C   UNL     1       2.558 -13.204   2.783  1.00  0.00     0.014 A 
ATOM     41  C   UNL     1       1.827 -14.724   5.007  1.00  0.00     0.010 A 
ATOM     42  C   UNL     1       1.617 -14.212   2.643  1.00  0.00     0.010 A 
ATOM     43  C   UNL     1       1.262 -14.999   3.748  1.00  0.00    -0.014 A 
BRANCH  43  44
ATOM     44  C   UNL     1       0.323 -16.130   3.557  1.00  0.00     0.031 A 
ATOM     45  C   UNL     1       0.699 -17.259   2.636  1.00  0.00     0.074 A 
ATOM     46  C   UNL     1      -0.875 -16.115   4.171  1.00  0.00     0.049 A 
ATOM     47  N   UNL     1       0.010 -18.320   2.308  1.00  0.00    -0.248 NA
ATOM     48  C   UNL     1       2.011 -17.169   1.972  1.00  0.00     0.031 C 
ATOM     49  C   UNL     1      -1.363 -15.048   5.048  1.00  0.00     0.029 A 
ATOM     50  N   UNL     1      -1.901 -17.024   4.152  1.00  0.00    -0.354 N 
ATOM     51  C   UNL     1       0.799 -19.017   1.402  1.00  0.00     0.074 A 
ATOM     52  C   UNL     1       1.984 -18.222   1.171  1.00  0.00     0.031 C 
ATOM     53  C   UNL     1      -2.577 -15.383   5.513  1.00  0.00     0.029 A 
ATOM     54  C   UNL     1      -2.974 -16.661   4.932  1.00  0.00     0.049 A 
ATOM     55  H   UNL     1      -1.872 -17.858   3.630  1.00  0.00     0.167 HD
ATOM     56  C   UNL     1       0.572 -20.226   0.837  1.00  0.00     0.037 A 
ATOM     57  C   UNL     1      -4.146 -17.288   5.147  1.00  0.00     0.037 A 
ATOM     58  C   UNL     1      -0.610 -21.010   1.082  1.00  0.00     0.049 A 
ATOM     59  C   UNL     1      -4.393 -18.615   4.481  1.00  0.00     0.074 A 
ATOM     60  C   UNL     1      -0.924 -22.266   0.597  1.00  0.00     0.029 A 
ATOM     61  N   UNL     1      -1.678 -20.607   1.872  1.00  0.00    -0.354 N 
ATOM     62  N   UNL     1      -3.607 -19.296   3.681  1.00  0.00    -0.248 NA
ATOM     63  C   UNL     1      -5.682 -19.264   4.753  1.00  0.00     0.031 C 
ATOM     64  C   UNL     1      -2.210 -22.594   1.038  1.00  0.00     0.029 A 
ATOM     65  C   UNL     1      -2.667 -21.576   1.861  1.00  0.00     0.049 A 
ATOM     66  H   UNL     1      -1.726 -19.757   2.366  1.00  0.00     0.167 HD
ATOM     67  C   UNL     1      -4.292 -20.468   3.378  1.00  0.00     0.074 A 
ATOM     68  C   UNL     1      -5.551 -20.407   4.094  1.00  0.00     0.031 C 
ATOM     69  C   UNL     1      -3.914 -21.501   2.584  1.00  0.00     0.037 A 
BRANCH  56  70
ATOM     70  C   UNL     1       1.619 -20.765  -0.103  1.00  0.00     0.058 A 
ATOM     71  C   UNL     1       2.901 -21.130   0.344  1.00  0.00     0.135 A 
ATOM     72  C   UNL     1       1.334 -20.933  -1.467  1.00  0.00     0.135 A 
ATOM     73  F   UNL     1       3.237 -20.976   1.635  1.00  0.00    -0.206 F 
ATOM     74  C   UNL     1       3.871 -21.603  -0.532  1.00  0.00     0.059 A 
ATOM     75  C   UNL     1       2.278 -21.441  -2.356  1.00  0.00     0.059 A 
ATOM     76  F   UNL     1       0.128 -20.600  -1.953  1.00  0.00    -0.206 F 
ATOM     77  C   UNL     1       3.550 -21.756  -1.881  1.00  0.00     0.060 A 
BRANCH  77  78
ATOM     78  S   UNL     1       4.823 -22.368  -3.004  1.00  0.00     0.124 S 
ATOM     79  O   UNL     1       5.744 -21.236  -3.045  1.00  0.00    -0.237 OA
ATOM     80  O   UNL     1       5.308 -23.554  -2.305  1.00  0.00    -0.237 OA
ATOM     81  O   UNL     1       4.093 -22.627  -4.241  1.00  0.00    -0.744 OA
ENDBRANCH  77  78
ENDBRANCH  56  70
BRANCH  57  82
ATOM     82  C   UNL     1      -5.159 -16.680   6.052  1.00  0.00     0.058 A 
ATOM     83  C   UNL     1      -5.474 -17.268   7.286  1.00  0.00     0.135 A 
ATOM     84  C   UNL     1      -5.819 -15.488   5.711  1.00  0.00     0.135 A 
ATOM     85  F   UNL     1      -4.876 -18.411   7.656  1.00  0.00    -0.206 F 
ATOM     86  C   UNL     1      -6.415 -16.707   8.143  1.00  0.00     0.059 A 
ATOM     87  C   UNL     1      -6.741 -14.891   6.565  1.00  0.00     0.059 A 
ATOM     88  F   UNL     1      -5.544 -14.874   4.550  1.00  0.00    -0.206 F 
ATOM     89  C   UNL     1      -7.038 -15.513   7.776  1.00  0.00     0.060 A 
BRANCH  89  90
ATOM     90  S   UNL     1      -8.216 -14.766   8.924  1.00  0.00     0.124 S 
ATOM     91  O   UNL     1      -9.326 -15.710   8.863  1.00  0.00    -0.237 OA
ATOM     92  O   UNL     1      -7.456 -14.751  10.170  1.00  0.00    -0.237 OA
ATOM     93  O   UNL     1      -8.470 -13.454   8.337  1.00  0.00    -0.744 OA
ENDBRANCH  89  90
ENDBRANCH  57  82
BRANCH  69  94
ATOM     94  C   UNL     1      -4.852 -22.674   2.476  1.00  0.00     0.058 A 
ATOM     95  C   UNL     1      -6.079 -22.585   1.801  1.00  0.00     0.135 A 
ATOM     96  C   UNL     1      -4.487 -23.922   3.009  1.00  0.00     0.135 A 
ATOM     97  F   UNL     1      -6.481 -21.416   1.277  1.00  0.00    -0.206 F 
ATOM     98  C   UNL     1      -6.924 -23.685   1.682  1.00  0.00     0.059 A 
ATOM     99  C   UNL     1      -5.298 -25.043   2.869  1.00  0.00     0.059 A 
ATOM    100  F   UNL     1      -3.319 -24.066   3.655  1.00  0.00    -0.206 F 
ATOM    101  C   UNL     1      -6.521 -24.911   2.214  1.00  0.00     0.060 A 
BRANCH 101 102
ATOM    102  S   UNL     1      -7.610 -26.336   2.018  1.00  0.00     0.124 S 
ATOM    103  O   UNL     1      -8.710 -25.992   2.914  1.00  0.00    -0.237 OA
ATOM    104  O   UNL     1      -7.917 -26.297   0.592  1.00  0.00    -0.237 OA
ATOM    105  O   UNL     1      -6.782 -27.460   2.446  1.00  0.00    -0.744 OA
ENDBRANCH 101 102
ENDBRANCH  69  94
ENDBRANCH  43  44
ENDBRANCH  35  38
ENDBRANCH  33  34
ENDBRANCH  32  33
ENDBRANCH  31  32
ENDBRANCH   1  31
TORSDOF 20
