REMARK SMILES CC[C@@](C)([NH2+]CC(=O)N[C@@H](C)C(C)C)C(=O)NCCCCCCNC(=O)c1ccc(-c2c3nc(c(-c4c(F)cc(S(=O)(=O)[O-])cc4F)c4ccc([nH]4)c(-c4c(F)cc(S(=O)(=O)[O-])cc4F)c4nc(c(-c5c(F)cc(S(=O)(=O)[O-])cc5F)c5ccc2[nH]5)C=C4)C=C3)cc1
REMARK SMILES IDX 19 1 18 2 17 3 15 4 16 5 3 7 4 8 2 9 1 10 5 11 6 14 7 15
REMARK SMILES IDX 8 16 9 17 10 19 11 20 12 21 13 22 14 23 20 24 21 25 22 26
REMARK SMILES IDX 23 27 24 28 25 29 26 31 27 32 28 33 92 34 29 35 91 36 30 37
REMARK SMILES IDX 31 38 32 39 85 40 33 41 90 42 84 43 86 44 34 45 89 46 83 47
REMARK SMILES IDX 82 48 35 50 69 51 48 52 68 53 49 54 52 55 67 56 87 57 50 58
REMARK SMILES IDX 51 59 66 61 88 62 53 63 36 64 37 65 46 66 38 67 39 68 45 69
REMARK SMILES IDX 47 70 40 71 41 72 42 73 43 74 44 75 70 76 71 77 80 78 72 79
REMARK SMILES IDX 73 80 79 81 81 82 74 83 75 84 76 85 77 86 78 87 54 88 55 89
REMARK SMILES IDX 64 90 56 91 57 92 63 93 65 94 58 95 59 96 60 97 61 98 62 99
REMARK H PARENT 17 6 5 12 5 13 9 18 24 30 86 49 52 60
REMARK Flexibility Score: inf
ROOT
ATOM      1  C   UNL     1       3.751  -5.912   1.248  1.00  0.00     0.021 C 
ENDROOT
BRANCH   1   2
ATOM      2  C   UNL     1       3.358  -4.448   1.459  1.00  0.00     0.116 C 
BRANCH   2   3
ATOM      3  N   UNL     1       3.051  -3.717   0.235  1.00  0.00    -0.351 N 
ATOM      4  C   UNL     1       2.316  -2.547   0.168  1.00  0.00     0.281 C 
ATOM      5  O   UNL     1       2.990  -1.530  -0.035  1.00  0.00    -0.268 OA
ATOM      6  H   UNL     1       3.394  -4.086  -0.611  1.00  0.00     0.163 HD
BRANCH   4   7
ATOM      7  C   UNL     1       0.695  -2.532   0.093  1.00  0.00     0.172 C 
ATOM      8  C   UNL     1      -0.302  -1.744   0.966  1.00  0.00     0.090 C 
BRANCH   7   9
ATOM      9  C   UNL     1       0.470  -1.810  -1.306  1.00  0.00     0.075 C 
ATOM     10  C   UNL     1       0.623  -0.259  -1.216  1.00  0.00     0.011 C 
ENDBRANCH   7   9
BRANCH   7  11
ATOM     11  N   UNL     1       0.234  -3.912   0.176  1.00  0.00    -0.326 N 
ATOM     12  H   UNL     1       0.840  -4.463  -0.433  1.00  0.00     0.347 HD
ATOM     13  H   UNL     1      -0.751  -3.849  -0.081  1.00  0.00     0.347 HD
BRANCH  11  14
ATOM     14  C   UNL     1       0.205  -4.603   1.497  1.00  0.00     0.362 C 
BRANCH  14  15
ATOM     15  C   UNL     1       0.261  -3.999   2.958  1.00  0.00     0.275 C 
ATOM     16  O   UNL     1      -0.465  -4.586   3.788  1.00  0.00    -0.268 OA
ATOM     17  N   UNL     1       1.048  -3.066   3.578  1.00  0.00    -0.349 N 
ATOM     18  H   UNL     1       1.163  -3.299   4.528  1.00  0.00     0.163 HD
BRANCH  17  19
ATOM     19  C   UNL     1       1.781  -1.815   3.269  1.00  0.00     0.081 C 
ATOM     20  C   UNL     1       0.901  -0.601   3.648  1.00  0.00     0.031 C 
BRANCH  19  21
ATOM     21  C   UNL     1       3.159  -1.572   3.973  1.00  0.00     0.005 C 
ATOM     22  C   UNL     1       3.941  -2.788   4.441  1.00  0.00     0.009 C 
ATOM     23  C   UNL     1       4.071  -0.712   3.071  1.00  0.00     0.009 C 
ENDBRANCH  19  21
ENDBRANCH  17  19
ENDBRANCH  14  15
ENDBRANCH  11  14
ENDBRANCH   7  11
ENDBRANCH   4   7
ENDBRANCH   2   3
ENDBRANCH   1   2
BRANCH   1  24
ATOM     24  C   UNL     1       5.166  -6.237   1.749  1.00  0.00     0.002 C 
BRANCH  24  25
ATOM     25  C   UNL     1       5.439  -5.960   3.233  1.00  0.00     0.002 C 
BRANCH  25  26
ATOM     26  C   UNL     1       4.513  -6.656   4.230  1.00  0.00     0.021 C 
BRANCH  26  27
ATOM     27  C   UNL     1       4.553  -8.176   4.151  1.00  0.00     0.116 C 
BRANCH  27  28
ATOM     28  N   UNL     1       5.910  -8.686   4.279  1.00  0.00    -0.352 N 
ATOM     29  C   UNL     1       6.412  -9.644   5.122  1.00  0.00     0.251 C 
ATOM     30  H   UNL     1       6.567  -8.281   3.668  1.00  0.00     0.163 HD
ATOM     31  O   UNL     1       7.622  -9.767   5.254  1.00  0.00    -0.269 OA
BRANCH  29  32
ATOM     32  C   UNL     1       5.482 -10.525   5.858  1.00  0.00     0.039 A 
ATOM     33  C   UNL     1       5.784 -10.879   7.174  1.00  0.00     0.014 A 
ATOM     34  C   UNL     1       4.338 -11.028   5.234  1.00  0.00     0.014 A 
ATOM     35  C   UNL     1       4.917 -11.719   7.873  1.00  0.00     0.010 A 
ATOM     36  C   UNL     1       3.431 -11.788   5.960  1.00  0.00     0.010 A 
ATOM     37  C   UNL     1       3.726 -12.165   7.277  1.00  0.00    -0.014 A 
BRANCH  37  38
ATOM     38  C   UNL     1       2.804 -13.080   7.990  1.00  0.00     0.031 A 
ATOM     39  C   UNL     1       2.557 -14.460   7.439  1.00  0.00     0.074 A 
ATOM     40  C   UNL     1       2.163 -12.655   9.096  1.00  0.00     0.049 A 
ATOM     41  N   UNL     1       1.730 -15.381   7.859  1.00  0.00    -0.248 NA
ATOM     42  C   UNL     1       3.319 -14.845   6.237  1.00  0.00     0.031 C 
ATOM     43  C   UNL     1       2.289 -11.322   9.690  1.00  0.00     0.029 A 
ATOM     44  N   UNL     1       1.268 -13.298   9.912  1.00  0.00    -0.354 N 
ATOM     45  C   UNL     1       1.871 -16.446   6.977  1.00  0.00     0.074 A 
ATOM     46  C   UNL     1       2.804 -16.032   5.954  1.00  0.00     0.031 C 
ATOM     47  C   UNL     1       1.515 -11.253  10.785  1.00  0.00     0.029 A 
ATOM     48  C   UNL     1       0.810 -12.519  10.949  1.00  0.00     0.049 A 
ATOM     49  H   UNL     1       0.981 -14.228   9.770  1.00  0.00     0.167 HD
ATOM     50  C   UNL     1       1.305 -17.674   7.036  1.00  0.00     0.037 A 
ATOM     51  C   UNL     1      -0.087 -12.797  11.915  1.00  0.00     0.037 A 
ATOM     52  C   UNL     1       0.396 -18.085   8.072  1.00  0.00     0.049 A 
ATOM     53  C   UNL     1      -0.708 -14.169  11.954  1.00  0.00     0.074 A 
ATOM     54  C   UNL     1      -0.226 -19.310   8.238  1.00  0.00     0.029 A 
ATOM     55  N   UNL     1      -0.011 -17.283   9.129  1.00  0.00    -0.354 N 
ATOM     56  N   UNL     1      -0.533 -15.178  11.132  1.00  0.00    -0.248 NA
ATOM     57  C   UNL     1      -1.633 -14.449  13.059  1.00  0.00     0.031 C 
ATOM     58  C   UNL     1      -1.034 -19.238   9.377  1.00  0.00     0.029 A 
ATOM     59  C   UNL     1      -0.874 -17.987   9.951  1.00  0.00     0.049 A 
ATOM     60  H   UNL     1       0.272 -16.351   9.273  1.00  0.00     0.167 HD
ATOM     61  C   UNL     1      -1.293 -16.223  11.647  1.00  0.00     0.074 A 
ATOM     62  C   UNL     1      -1.919 -15.727  12.855  1.00  0.00     0.031 C 
ATOM     63  C   UNL     1      -1.459 -17.480  11.166  1.00  0.00     0.037 A 
BRANCH  50  64
ATOM     64  C   UNL     1       1.676 -18.670   5.971  1.00  0.00     0.058 A 
ATOM     65  C   UNL     1       2.962 -19.232   5.914  1.00  0.00     0.135 A 
ATOM     66  C   UNL     1       0.728 -19.112   5.035  1.00  0.00     0.135 A 
ATOM     67  F   UNL     1       3.915 -18.831   6.771  1.00  0.00    -0.206 F 
ATOM     68  C   UNL     1       3.300 -20.184   4.959  1.00  0.00     0.059 A 
ATOM     69  C   UNL     1       1.035 -20.086   4.088  1.00  0.00     0.059 A 
ATOM     70  F   UNL     1      -0.514 -18.604   5.038  1.00  0.00    -0.206 F 
ATOM     71  C   UNL     1       2.327 -20.611   4.054  1.00  0.00     0.060 A 
BRANCH  71  72
ATOM     72  S   UNL     1       2.773 -21.878   2.849  1.00  0.00     0.124 S 
ATOM     73  O   UNL     1       3.666 -21.136   1.963  1.00  0.00    -0.237 OA
ATOM     74  O   UNL     1       3.409 -22.891   3.684  1.00  0.00    -0.237 OA
ATOM     75  O   UNL     1       1.491 -22.262   2.267  1.00  0.00    -0.744 OA
ENDBRANCH  71  72
ENDBRANCH  50  64
BRANCH  51  76
ATOM     76  C   UNL     1      -0.447 -11.768  12.928  1.00  0.00     0.058 A 
ATOM     77  C   UNL     1      -0.107 -11.927  14.280  1.00  0.00     0.135 A 
ATOM     78  C   UNL     1      -1.168 -10.617  12.569  1.00  0.00     0.135 A 
ATOM     79  F   UNL     1       0.583 -13.007  14.676  1.00  0.00    -0.206 F 
ATOM     80  C   UNL     1      -0.509 -11.010  15.247  1.00  0.00     0.059 A 
ATOM     81  C   UNL     1      -1.552  -9.670  13.513  1.00  0.00     0.059 A 
ATOM     82  F   UNL     1      -1.497 -10.402  11.286  1.00  0.00    -0.206 F 
ATOM     83  C   UNL     1      -1.239  -9.888  14.853  1.00  0.00     0.060 A 
BRANCH  83  84
ATOM     84  S   UNL     1      -1.764  -8.707  16.115  1.00  0.00     0.124 S 
ATOM     85  O   UNL     1      -2.832  -9.446  16.779  1.00  0.00    -0.237 OA
ATOM     86  O   UNL     1      -0.540  -8.520  16.889  1.00  0.00    -0.237 OA
ATOM     87  O   UNL     1      -2.187  -7.549  15.335  1.00  0.00    -0.744 OA
ENDBRANCH  83  84
ENDBRANCH  51  76
BRANCH  63  88
ATOM     88  C   UNL     1      -2.290 -18.430  11.985  1.00  0.00     0.058 A 
ATOM     89  C   UNL     1      -3.682 -18.297  12.096  1.00  0.00     0.135 A 
ATOM     90  C   UNL     1      -1.680 -19.516  12.635  1.00  0.00     0.135 A 
ATOM     91  F   UNL     1      -4.314 -17.276  11.496  1.00  0.00    -0.206 F 
ATOM     92  C   UNL     1      -4.437 -19.188  12.852  1.00  0.00     0.059 A 
ATOM     93  C   UNL     1      -2.419 -20.437  13.369  1.00  0.00     0.059 A 
ATOM     94  F   UNL     1      -0.352 -19.697  12.550  1.00  0.00    -0.206 F 
ATOM     95  C   UNL     1      -3.796 -20.254  13.485  1.00  0.00     0.060 A 
BRANCH  95  96
ATOM     96  S   UNL     1      -4.789 -21.413  14.448  1.00  0.00     0.124 S 
ATOM     97  O   UNL     1      -5.106 -20.617  15.629  1.00  0.00    -0.237 OA
ATOM     98  O   UNL     1      -5.907 -21.687  13.550  1.00  0.00    -0.237 OA
ATOM     99  O   UNL     1      -3.883 -22.535  14.671  1.00  0.00    -0.744 OA
ENDBRANCH  95  96
ENDBRANCH  63  88
ENDBRANCH  37  38
ENDBRANCH  29  32
ENDBRANCH  27  28
ENDBRANCH  26  27
ENDBRANCH  25  26
ENDBRANCH  24  25
ENDBRANCH   1  24
TORSDOF 22
