REMARK SMILES COc1ccc([C@H](CC(=O)NCCCCCCNC(=O)c2ccc(-c3c4nc(c(-c5c(F)cc(S(=O)(=O)[O-])cc5F)c5ccc([nH]5)c(-c5c(F)cc(S(=O)(=O)[O-])cc5F)c5nc(c(-c6c(F)cc(S(=O)(=O)[O-])cc6F)c6ccc3[nH]6)C=C5)C=C4)cc2)NC(C)=O)cc1
REMARK SMILES IDX 14 1 13 2 12 3 11 4 9 5 10 6 8 8 7 9 6 10 3 11 4 12 92 13
REMARK SMILES IDX 5 14 91 15 2 16 1 17 87 18 88 19 89 21 90 22 15 23 16 24
REMARK SMILES IDX 17 25 18 26 19 27 20 29 21 30 22 31 86 32 23 33 85 34 24 35
REMARK SMILES IDX 25 36 26 37 79 38 27 39 84 40 78 41 80 42 28 43 83 44 77 45
REMARK SMILES IDX 76 46 29 48 63 49 42 50 62 51 43 52 46 53 61 54 81 55 44 56
REMARK SMILES IDX 45 57 60 59 82 60 47 61 30 62 31 63 40 64 32 65 33 66 39 67
REMARK SMILES IDX 41 68 34 69 35 70 36 71 37 72 38 73 64 74 65 75 74 76 66 77
REMARK SMILES IDX 67 78 73 79 75 80 68 81 69 82 70 83 71 84 72 85 48 86 49 87
REMARK SMILES IDX 58 88 50 89 51 90 57 91 59 92 52 93 53 94 54 95 55 96 56 97
REMARK H PARENT 11 7 87 20 18 28 80 47 46 58
REMARK Flexibility Score: inf
ROOT
ATOM      1  C   UNL     1       6.469  -5.121  -3.421  1.00  0.00     0.002 C 
ENDROOT
BRANCH   1   2
ATOM      2  C   UNL     1       5.031  -5.638  -3.520  1.00  0.00     0.021 C 
BRANCH   2   3
ATOM      3  C   UNL     1       4.124  -5.158  -2.385  1.00  0.00     0.116 C 
BRANCH   3   4
ATOM      4  N   UNL     1       3.710  -3.783  -2.592  1.00  0.00    -0.356 N 
ATOM      5  C   UNL     1       2.488  -3.300  -2.960  1.00  0.00     0.222 C 
ATOM      6  O   UNL     1       2.351  -2.087  -3.128  1.00  0.00    -0.275 OA
ATOM      7  H   UNL     1       4.408  -3.104  -2.447  1.00  0.00     0.163 HD
BRANCH   5   8
ATOM      8  C   UNL     1       1.313  -4.247  -3.080  1.00  0.00     0.129 C 
BRANCH   8   9
ATOM      9  C   UNL     1       1.391  -5.127  -4.333  1.00  0.00     0.121 C 
BRANCH   9  10
ATOM     10  C   UNL     1       0.752  -6.487  -4.070  1.00  0.00    -0.025 A 
ATOM     11  C   UNL     1      -0.358  -9.002  -3.495  1.00  0.00     0.118 A 
ATOM     12  C   UNL     1       1.022  -8.841  -3.492  1.00  0.00     0.047 A 
ATOM     13  C   UNL     1      -1.192  -7.916  -3.752  1.00  0.00     0.047 A 
ATOM     14  C   UNL     1       1.573  -7.597  -3.801  1.00  0.00     0.010 A 
ATOM     15  C   UNL     1      -0.640  -6.662  -4.030  1.00  0.00     0.010 A 
BRANCH  11  16
ATOM     16  O   UNL     1      -0.850 -10.233  -3.165  1.00  0.00    -0.497 OA
ATOM     17  C   UNL     1      -1.608 -10.799  -4.233  1.00  0.00     0.278 C 
ENDBRANCH  11  16
ENDBRANCH   9  10
BRANCH   9  18
ATOM     18  N   UNL     1       0.769  -4.490  -5.487  1.00  0.00    -0.349 N 
ATOM     19  C   UNL     1       1.456  -4.235  -6.649  1.00  0.00     0.217 C 
ATOM     20  H   UNL     1      -0.180  -4.233  -5.431  1.00  0.00     0.164 HD
ATOM     21  C   UNL     1       0.595  -3.702  -7.763  1.00  0.00     0.114 C 
ATOM     22  O   UNL     1       2.660  -4.418  -6.791  1.00  0.00    -0.275 OA
ENDBRANCH   9  18
ENDBRANCH   8   9
ENDBRANCH   5   8
ENDBRANCH   3   4
ENDBRANCH   2   3
ENDBRANCH   1   2
BRANCH   1  23
ATOM     23  C   UNL     1       7.222  -5.565  -2.163  1.00  0.00     0.002 C 
BRANCH  23  24
ATOM     24  C   UNL     1       7.265  -7.079  -1.936  1.00  0.00     0.021 C 
BRANCH  24  25
ATOM     25  C   UNL     1       7.924  -7.867  -3.064  1.00  0.00     0.116 C 
BRANCH  25  26
ATOM     26  N   UNL     1       9.321  -7.499  -3.231  1.00  0.00    -0.352 N 
ATOM     27  C   UNL     1      10.437  -8.293  -3.187  1.00  0.00     0.251 C 
ATOM     28  H   UNL     1       9.490  -6.544  -3.400  1.00  0.00     0.163 HD
ATOM     29  O   UNL     1      11.553  -7.779  -3.108  1.00  0.00    -0.269 OA
BRANCH  27  30
ATOM     30  C   UNL     1      10.297  -9.764  -3.223  1.00  0.00     0.039 A 
ATOM     31  C   UNL     1      11.078 -10.543  -2.366  1.00  0.00     0.014 A 
ATOM     32  C   UNL     1       9.410 -10.373  -4.115  1.00  0.00     0.014 A 
ATOM     33  C   UNL     1      10.935 -11.932  -2.373  1.00  0.00     0.010 A 
ATOM     34  C   UNL     1       9.215 -11.750  -4.067  1.00  0.00     0.010 A 
ATOM     35  C   UNL     1       9.984 -12.546  -3.204  1.00  0.00    -0.014 A 
BRANCH  35  36
ATOM     36  C   UNL     1       9.800 -14.020  -3.210  1.00  0.00     0.031 A 
ATOM     37  C   UNL     1      10.099 -14.807  -4.460  1.00  0.00     0.074 A 
ATOM     38  C   UNL     1       9.328 -14.643  -2.111  1.00  0.00     0.049 A 
ATOM     39  N   UNL     1       9.930 -16.083  -4.693  1.00  0.00    -0.248 NA
ATOM     40  C   UNL     1      10.636 -14.056  -5.607  1.00  0.00     0.031 C 
ATOM     41  C   UNL     1       8.973 -13.985  -0.852  1.00  0.00     0.029 A 
ATOM     42  N   UNL     1       9.059 -15.968  -1.879  1.00  0.00    -0.354 N 
ATOM     43  C   UNL     1      10.340 -16.287  -6.005  1.00  0.00     0.074 A 
ATOM     44  C   UNL     1      10.699 -14.993  -6.542  1.00  0.00     0.031 C 
ATOM     45  C   UNL     1       8.555 -14.911   0.027  1.00  0.00     0.029 A 
ATOM     46  C   UNL     1       8.573 -16.221  -0.617  1.00  0.00     0.049 A 
ATOM     47  H   UNL     1       9.200 -16.672  -2.552  1.00  0.00     0.167 HD
ATOM     48  C   UNL     1      10.443 -17.450  -6.692  1.00  0.00     0.037 A 
ATOM     49  C   UNL     1       8.177 -17.377  -0.048  1.00  0.00     0.037 A 
ATOM     50  C   UNL     1      10.099 -18.738  -6.148  1.00  0.00     0.049 A 
ATOM     51  C   UNL     1       8.266 -18.652  -0.848  1.00  0.00     0.074 A 
ATOM     52  C   UNL     1      10.175 -19.978  -6.758  1.00  0.00     0.029 A 
ATOM     53  N   UNL     1       9.625 -18.953  -4.862  1.00  0.00    -0.354 N 
ATOM     54  N   UNL     1       8.689 -18.828  -2.078  1.00  0.00    -0.248 NA
ATOM     55  C   UNL     1       7.832 -19.887  -0.181  1.00  0.00     0.031 C 
ATOM     56  C   UNL     1       9.714 -20.939  -5.853  1.00  0.00     0.029 A 
ATOM     57  C   UNL     1       9.400 -20.305  -4.662  1.00  0.00     0.049 A 
ATOM     58  H   UNL     1       9.471 -18.249  -4.191  1.00  0.00     0.167 HD
ATOM     59  C   UNL     1       8.614 -20.197  -2.312  1.00  0.00     0.074 A 
ATOM     60  C   UNL     1       8.114 -20.802  -1.096  1.00  0.00     0.031 C 
ATOM     61  C   UNL     1       8.932 -20.893  -3.432  1.00  0.00     0.037 A 
BRANCH  48  62
ATOM     62  C   UNL     1      10.973 -17.387  -8.098  1.00  0.00     0.058 A 
ATOM     63  C   UNL     1      12.321 -17.087  -8.357  1.00  0.00     0.135 A 
ATOM     64  C   UNL     1      10.147 -17.681  -9.195  1.00  0.00     0.135 A 
ATOM     65  F   UNL     1      13.151 -16.780  -7.347  1.00  0.00    -0.206 F 
ATOM     66  C   UNL     1      12.826 -17.061  -9.652  1.00  0.00     0.059 A 
ATOM     67  C   UNL     1      10.639 -17.690 -10.498  1.00  0.00     0.059 A 
ATOM     68  F   UNL     1       8.851 -17.972  -9.007  1.00  0.00    -0.206 F 
ATOM     69  C   UNL     1      11.978 -17.369 -10.717  1.00  0.00     0.060 A 
BRANCH  69  70
ATOM     70  S   UNL     1      12.659 -17.357 -12.388  1.00  0.00     0.124 S 
ATOM     71  O   UNL     1      12.860 -15.928 -12.611  1.00  0.00    -0.237 OA
ATOM     72  O   UNL     1      13.874 -18.151 -12.234  1.00  0.00    -0.237 OA
ATOM     73  O   UNL     1      11.607 -17.975 -13.189  1.00  0.00    -0.744 OA
ENDBRANCH  69  70
ENDBRANCH  48  62
BRANCH  49  74
ATOM     74  C   UNL     1       7.672 -17.400   1.352  1.00  0.00     0.058 A 
ATOM     75  C   UNL     1       8.386 -18.055   2.367  1.00  0.00     0.135 A 
ATOM     76  C   UNL     1       6.447 -16.808   1.696  1.00  0.00     0.135 A 
ATOM     77  F   UNL     1       9.562 -18.639   2.089  1.00  0.00    -0.206 F 
ATOM     78  C   UNL     1       7.884 -18.166   3.660  1.00  0.00     0.059 A 
ATOM     79  C   UNL     1       5.939 -16.877   2.990  1.00  0.00     0.059 A 
ATOM     80  F   UNL     1       5.733 -16.150   0.770  1.00  0.00    -0.206 F 
ATOM     81  C   UNL     1       6.654 -17.579   3.959  1.00  0.00     0.060 A 
BRANCH  81  82
ATOM     82  S   UNL     1       6.003 -17.737   5.636  1.00  0.00     0.124 S 
ATOM     83  O   UNL     1       5.585 -19.134   5.656  1.00  0.00    -0.237 OA
ATOM     84  O   UNL     1       7.168 -17.407   6.451  1.00  0.00    -0.237 OA
ATOM     85  O   UNL     1       4.924 -16.754   5.670  1.00  0.00    -0.744 OA
ENDBRANCH  81  82
ENDBRANCH  49  74
BRANCH  61  86
ATOM     86  C   UNL     1       8.818 -22.392  -3.375  1.00  0.00     0.058 A 
ATOM     87  C   UNL     1       7.575 -23.042  -3.345  1.00  0.00     0.135 A 
ATOM     88  C   UNL     1       9.975 -23.188  -3.397  1.00  0.00     0.135 A 
ATOM     89  F   UNL     1       6.438 -22.328  -3.318  1.00  0.00    -0.206 F 
ATOM     90  C   UNL     1       7.483 -24.430  -3.309  1.00  0.00     0.059 A 
ATOM     91  C   UNL     1       9.906 -24.577  -3.393  1.00  0.00     0.059 A 
ATOM     92  F   UNL     1      11.189 -22.617  -3.437  1.00  0.00    -0.206 F 
ATOM     93  C   UNL     1       8.655 -25.189  -3.336  1.00  0.00     0.060 A 
BRANCH  93  94
ATOM     94  S   UNL     1       8.520 -26.989  -3.321  1.00  0.00     0.124 S 
ATOM     95  O   UNL     1       8.130 -27.243  -1.938  1.00  0.00    -0.237 OA
ATOM     96  O   UNL     1       7.489 -27.233  -4.325  1.00  0.00    -0.237 OA
ATOM     97  O   UNL     1       9.861 -27.434  -3.687  1.00  0.00    -0.744 OA
ENDBRANCH  93  94
ENDBRANCH  61  86
ENDBRANCH  35  36
ENDBRANCH  27  30
ENDBRANCH  25  26
ENDBRANCH  24  25
ENDBRANCH  23  24
ENDBRANCH   1  23
TORSDOF 20
