REMARK SMILES O=C(NCCCCCCNC(=O)[C@H](c1c[nH]c2ccc(Cl)cc12)[NH+]1CCN(c2cccc(Cl)c2)CC1)c1ccc(-c2c3nc(c(-c4c(F)cc(S(=O)(=O)[O-])cc4F)c4ccc([nH]4)c(-c4c(F)cc(S(=O)(=O)[O-])cc4F)c4nc(c(-c5c(F)cc(S(=O)(=O)[O-])cc5F)c5ccc2[nH]5)C=C4)C=C3)cc1
REMARK SMILES IDX 6 1 5 2 4 3 3 4 1 5 2 6 37 8 38 9 102 10 39 11 101 12 40 13
REMARK SMILES IDX 41 14 42 15 95 16 43 17 100 18 94 19 96 20 44 21 99 22 93 23
REMARK SMILES IDX 92 24 45 26 79 27 58 28 78 29 59 30 62 31 77 32 97 33 60 34
REMARK SMILES IDX 61 35 76 37 98 38 63 39 46 40 47 41 56 42 48 43 49 44 55 45
REMARK SMILES IDX 57 46 50 47 51 48 52 49 53 50 54 51 80 52 81 53 90 54 82 55
REMARK SMILES IDX 83 56 89 57 91 58 84 59 85 60 86 61 87 62 88 63 64 64 65 65
REMARK SMILES IDX 74 66 66 67 67 68 73 69 75 70 68 71 69 72 70 73 71 74 72 75
REMARK SMILES IDX 7 76 8 77 9 78 10 79 11 80 12 82 13 83 24 84 25 85 36 86
REMARK SMILES IDX 26 88 35 89 27 90 28 91 29 92 34 93 30 94 32 95 31 96 33 97
REMARK SMILES IDX 14 98 15 99 23 100 16 101 17 102 22 103 18 105 20 106 19 107
REMARK SMILES IDX 21 108
REMARK H PARENT 3 7 96 25 62 36 10 81 24 87 16 104
REMARK Flexibility Score: inf
ROOT
ATOM      1  C   UNL     1       5.494  -4.387   5.128  1.00  0.00     0.002 C 
ENDROOT
BRANCH   1   2
ATOM      2  C   UNL     1       4.228  -4.171   5.960  1.00  0.00     0.021 C 
BRANCH   2   3
ATOM      3  C   UNL     1       3.080  -3.565   5.165  1.00  0.00     0.116 C 
BRANCH   3   4
ATOM      4  N   UNL     1       2.673  -4.448   4.083  1.00  0.00    -0.352 N 
ATOM      5  O   UNL     1       1.432  -6.095   3.169  1.00  0.00    -0.269 OA
ATOM      6  C   UNL     1       1.507  -5.161   3.957  1.00  0.00     0.251 C 
ATOM      7  H   UNL     1       3.318  -4.548   3.346  1.00  0.00     0.163 HD
BRANCH   6   8
ATOM      8  C   UNL     1       0.348  -4.774   4.784  1.00  0.00     0.039 A 
ATOM      9  C   UNL     1       0.025  -3.421   4.929  1.00  0.00     0.014 A 
ATOM     10  C   UNL     1      -0.421  -5.759   5.405  1.00  0.00     0.014 A 
ATOM     11  C   UNL     1      -0.990  -3.046   5.795  1.00  0.00     0.010 A 
ATOM     12  C   UNL     1      -1.507  -5.381   6.198  1.00  0.00     0.010 A 
ATOM     13  C   UNL     1      -1.790  -4.022   6.409  1.00  0.00    -0.014 A 
BRANCH  13  14
ATOM     14  C   UNL     1      -2.979  -3.591   7.182  1.00  0.00     0.031 A 
ATOM     15  C   UNL     1      -3.098  -3.869   8.651  1.00  0.00     0.074 A 
ATOM     16  C   UNL     1      -3.955  -2.931   6.526  1.00  0.00     0.049 A 
ATOM     17  N   UNL     1      -4.075  -3.566   9.466  1.00  0.00    -0.248 NA
ATOM     18  C   UNL     1      -1.984  -4.587   9.290  1.00  0.00     0.031 C 
ATOM     19  C   UNL     1      -3.945  -2.627   5.091  1.00  0.00     0.029 A 
ATOM     20  N   UNL     1      -5.134  -2.393   6.969  1.00  0.00    -0.354 N 
ATOM     21  C   UNL     1      -3.709  -4.071  10.707  1.00  0.00     0.074 A 
ATOM     22  C   UNL     1      -2.428  -4.723  10.533  1.00  0.00     0.031 C 
ATOM     23  C   UNL     1      -5.045  -1.927   4.781  1.00  0.00     0.029 A 
ATOM     24  C   UNL     1      -5.872  -1.799   5.973  1.00  0.00     0.049 A 
ATOM     25  H   UNL     1      -5.424  -2.428   7.909  1.00  0.00     0.167 HD
ATOM     26  C   UNL     1      -4.382  -3.991  11.880  1.00  0.00     0.037 A 
ATOM     27  C   UNL     1      -7.096  -1.242   6.004  1.00  0.00     0.037 A 
ATOM     28  C   UNL     1      -5.658  -3.336  12.031  1.00  0.00     0.049 A 
ATOM     29  C   UNL     1      -7.832  -1.192   7.311  1.00  0.00     0.074 A 
ATOM     30  C   UNL     1      -6.405  -3.164  13.184  1.00  0.00     0.029 A 
ATOM     31  N   UNL     1      -6.384  -2.760  10.997  1.00  0.00    -0.354 N 
ATOM     32  N   UNL     1      -7.449  -1.632   8.486  1.00  0.00    -0.248 NA
ATOM     33  C   UNL     1      -9.162  -0.573   7.299  1.00  0.00     0.031 C 
ATOM     34  C   UNL     1      -7.607  -2.537  12.837  1.00  0.00     0.029 A 
ATOM     35  C   UNL     1      -7.583  -2.259  11.479  1.00  0.00     0.049 A 
ATOM     36  H   UNL     1      -6.090  -2.714  10.059  1.00  0.00     0.167 HD
ATOM     37  C   UNL     1      -8.485  -1.328   9.360  1.00  0.00     0.074 A 
ATOM     38  C   UNL     1      -9.501  -0.649   8.579  1.00  0.00     0.031 C 
ATOM     39  C   UNL     1      -8.586  -1.587  10.687  1.00  0.00     0.037 A 
BRANCH  26  40
ATOM     40  C   UNL     1      -3.770  -4.652  13.087  1.00  0.00     0.058 A 
ATOM     41  C   UNL     1      -2.609  -4.154  13.700  1.00  0.00     0.135 A 
ATOM     42  C   UNL     1      -4.375  -5.784  13.661  1.00  0.00     0.135 A 
ATOM     43  F   UNL     1      -1.980  -3.084  13.190  1.00  0.00    -0.206 F 
ATOM     44  C   UNL     1      -2.052  -4.772  14.817  1.00  0.00     0.059 A 
ATOM     45  C   UNL     1      -3.853  -6.400  14.795  1.00  0.00     0.059 A 
ATOM     46  F   UNL     1      -5.487  -6.303  13.119  1.00  0.00    -0.206 F 
ATOM     47  C   UNL     1      -2.681  -5.896  15.356  1.00  0.00     0.060 A 
BRANCH  47  48
ATOM     48  S   UNL     1      -1.939  -6.690  16.797  1.00  0.00     0.124 S 
ATOM     49  O   UNL     1      -0.751  -7.304  16.211  1.00  0.00    -0.237 OA
ATOM     50  O   UNL     1      -1.693  -5.558  17.684  1.00  0.00    -0.237 OA
ATOM     51  O   UNL     1      -2.971  -7.621  17.243  1.00  0.00    -0.744 OA
ENDBRANCH  47  48
ENDBRANCH  26  40
BRANCH  27  52
ATOM     52  C   UNL     1      -7.693  -0.714   4.750  1.00  0.00     0.058 A 
ATOM     53  C   UNL     1      -7.876   0.662   4.556  1.00  0.00     0.135 A 
ATOM     54  C   UNL     1      -8.048  -1.577   3.700  1.00  0.00     0.135 A 
ATOM     55  F   UNL     1      -7.552   1.526   5.529  1.00  0.00    -0.206 F 
ATOM     56  C   UNL     1      -8.401   1.165   3.370  1.00  0.00     0.059 A 
ATOM     57  C   UNL     1      -8.544  -1.097   2.494  1.00  0.00     0.059 A 
ATOM     58  F   UNL     1      -7.871  -2.901   3.828  1.00  0.00    -0.206 F 
ATOM     59  C   UNL     1      -8.726   0.277   2.342  1.00  0.00     0.060 A 
BRANCH  59  60
ATOM     60  S   UNL     1      -9.351   0.945   0.786  1.00  0.00     0.124 S 
ATOM     61  O   UNL     1     -10.693   1.370   1.168  1.00  0.00    -0.237 OA
ATOM     62  O   UNL     1      -8.396   2.014   0.508  1.00  0.00    -0.237 OA
ATOM     63  O   UNL     1      -9.284  -0.196  -0.121  1.00  0.00    -0.744 OA
ENDBRANCH  59  60
ENDBRANCH  27  52
BRANCH  39  64
ATOM     64  C   UNL     1      -9.827  -1.107  11.387  1.00  0.00     0.058 A 
ATOM     65  C   UNL     1     -11.076  -1.713  11.179  1.00  0.00     0.135 A 
ATOM     66  C   UNL     1      -9.755  -0.052  12.312  1.00  0.00     0.135 A 
ATOM     67  F   UNL     1     -11.202  -2.718  10.297  1.00  0.00    -0.206 F 
ATOM     68  C   UNL     1     -12.215  -1.275  11.846  1.00  0.00     0.059 A 
ATOM     69  C   UNL     1     -10.875   0.381  13.013  1.00  0.00     0.059 A 
ATOM     70  F   UNL     1      -8.584   0.558  12.553  1.00  0.00    -0.206 F 
ATOM     71  C   UNL     1     -12.104  -0.229  12.764  1.00  0.00     0.060 A 
BRANCH  71  72
ATOM     72  S   UNL     1     -13.583   0.306  13.649  1.00  0.00     0.124 S 
ATOM     73  O   UNL     1     -14.321   0.997  12.597  1.00  0.00    -0.237 OA
ATOM     74  O   UNL     1     -14.153  -0.961  14.097  1.00  0.00    -0.237 OA
ATOM     75  O   UNL     1     -13.055   1.159  14.709  1.00  0.00    -0.744 OA
ENDBRANCH  71  72
ENDBRANCH  39  64
ENDBRANCH  13  14
ENDBRANCH   6   8
ENDBRANCH   3   4
ENDBRANCH   2   3
ENDBRANCH   1   2
BRANCH   1  76
ATOM     76  C   UNL     1       6.044  -3.115   4.473  1.00  0.00     0.002 C 
BRANCH  76  77
ATOM     77  C   UNL     1       6.216  -1.941   5.439  1.00  0.00     0.021 C 
BRANCH  77  78
ATOM     78  C   UNL     1       7.208  -2.238   6.563  1.00  0.00     0.116 C 
BRANCH  78  79
ATOM     79  N   UNL     1       8.538  -1.861   6.153  1.00  0.00    -0.351 N 
ATOM     80  C   UNL     1       9.208  -0.679   6.241  1.00  0.00     0.283 C 
ATOM     81  H   UNL     1       9.054  -2.588   5.735  1.00  0.00     0.163 HD
ATOM     82  O   UNL     1      10.244  -0.660   5.556  1.00  0.00    -0.268 OA
BRANCH  80  83
ATOM     83  C   UNL     1       8.837   0.494   7.236  1.00  0.00     0.307 C 
BRANCH  83  84
ATOM     84  N   UNL     1       9.474   1.760   6.747  1.00  0.00    -0.318 N 
ATOM     85  C   UNL     1       8.888   3.034   7.226  1.00  0.00     0.284 C 
ATOM     86  C   UNL     1      10.922   1.785   7.119  1.00  0.00     0.284 C 
ATOM     87  H   UNL     1       9.309   1.724   5.741  1.00  0.00     0.349 HD
ATOM     88  C   UNL     1       9.059   3.324   8.732  1.00  0.00     0.178 C 
ATOM     89  C   UNL     1      11.215   2.059   8.615  1.00  0.00     0.178 C 
ATOM     90  N   UNL     1      10.477   3.235   9.073  1.00  0.00    -0.360 N 
BRANCH  90  91
ATOM     91  C   UNL     1      11.039   4.102   9.980  1.00  0.00     0.038 A 
ATOM     92  C   UNL     1      12.202   4.802   9.635  1.00  0.00     0.026 A 
ATOM     93  C   UNL     1      10.466   4.341  11.233  1.00  0.00     0.046 A 
ATOM     94  C   UNL     1      12.777   5.728  10.504  1.00  0.00     0.004 A 
ATOM     95  C   UNL     1      11.052   5.250  12.113  1.00  0.00     0.043 A 
ATOM     96  C   UNL     1      12.202   5.949  11.752  1.00  0.00     0.020 A 
ATOM     97  Cl  UNL     1      10.352   5.513  13.664  1.00  0.00    -0.084 Cl
ENDBRANCH  90  91
ENDBRANCH  83  84
BRANCH  83  98
ATOM     98  C   UNL     1       7.361   0.666   7.538  1.00  0.00     0.044 A 
ATOM     99  C   UNL     1       6.336   1.074   6.699  1.00  0.00     0.094 A 
ATOM    100  C   UNL     1       6.745   0.413   8.822  1.00  0.00     0.011 A 
ATOM    101  N   UNL     1       5.155   1.032   7.391  1.00  0.00    -0.361 N 
ATOM    102  C   UNL     1       5.370   0.597   8.678  1.00  0.00     0.046 A 
ATOM    103  C   UNL     1       7.237  -0.004  10.079  1.00  0.00     0.031 A 
ATOM    104  H   UNL     1       4.277   1.279   7.020  1.00  0.00     0.166 HD
ATOM    105  C   UNL     1       4.459   0.350   9.713  1.00  0.00     0.028 A 
ATOM    106  C   UNL     1       6.339  -0.242  11.123  1.00  0.00     0.041 A 
ATOM    107  C   UNL     1       4.970  -0.081  10.942  1.00  0.00     0.022 A 
ATOM    108  Cl  UNL     1       6.947  -0.754  12.651  1.00  0.00    -0.084 Cl
ENDBRANCH  83  98
ENDBRANCH  80  83
ENDBRANCH  78  79
ENDBRANCH  77  78
ENDBRANCH  76  77
ENDBRANCH   1  76
TORSDOF 19
