REMARK SMILES O=C(COC1CC[NH+](Cc2nccs2)CC1)NCCCCCCNC(=O)c1ccc(-c2c3nc(c(-c4c(F)cc(S(=O)(=O)[O-])cc4F)c4ccc([nH]4)c(-c4c(F)cc(S(=O)(=O)[O-])cc4F)c4nc(c(-c5c(F)cc(S(=O)(=O)[O-])cc5F)c5ccc2[nH]5)C=C4)C=C3)cc1
REMARK SMILES IDX 20 1 19 2 18 3 17 4 1 5 2 6 3 8 4 9 5 10 6 11 16 12 7 13
REMARK SMILES IDX 15 14 8 15 9 17 10 18 11 19 14 20 12 21 13 22 21 23 22 24
REMARK SMILES IDX 23 25 24 26 25 27 26 29 27 30 28 31 92 32 29 33 91 34 30 35
REMARK SMILES IDX 31 36 32 37 85 38 33 39 90 40 84 41 86 42 34 43 89 44 83 45
REMARK SMILES IDX 82 46 35 48 69 49 48 50 68 51 49 52 52 53 67 54 87 55 50 56
REMARK SMILES IDX 51 57 66 59 88 60 53 61 36 62 37 63 46 64 38 65 39 66 45 67
REMARK SMILES IDX 47 68 40 69 41 70 42 71 43 72 44 73 70 74 71 75 80 76 72 77
REMARK SMILES IDX 73 78 79 79 81 80 74 81 75 82 76 83 77 84 78 85 54 86 55 87
REMARK SMILES IDX 64 88 56 89 57 90 63 91 65 92 58 93 59 94 60 95 61 96 62 97
REMARK H PARENT 17 7 8 16 24 28 86 47 52 58
REMARK Flexibility Score: inf
ROOT
ATOM      1  C   UNL     1       4.143  -3.333   1.640  1.00  0.00     0.002 C 
ENDROOT
BRANCH   1   2
ATOM      2  C   UNL     1       2.641  -3.192   1.362  1.00  0.00     0.021 C 
BRANCH   2   3
ATOM      3  C   UNL     1       2.079  -1.802   1.645  1.00  0.00     0.116 C 
BRANCH   3   4
ATOM      4  N   UNL     1       2.796  -0.769   0.939  1.00  0.00    -0.354 N 
ATOM      5  O   UNL     1       1.718  -1.012  -1.080  1.00  0.00    -0.272 OA
ATOM      6  C   UNL     1       2.532  -0.431  -0.371  1.00  0.00     0.246 C 
ATOM      7  H   UNL     1       3.508  -0.283   1.414  1.00  0.00     0.163 HD
BRANCH   6   8
ATOM      8  C   UNL     1       3.387   0.744  -0.850  1.00  0.00     0.260 C 
BRANCH   8   9
ATOM      9  O   UNL     1       3.712   1.668   0.181  1.00  0.00    -0.368 OA
BRANCH   9  10
ATOM     10  C   UNL     1       2.737   2.622   0.624  1.00  0.00     0.130 C 
ATOM     11  C   UNL     1       1.244   2.300   0.528  1.00  0.00     0.093 C 
ATOM     12  C   UNL     1       3.006   3.994   0.012  1.00  0.00     0.093 C 
ATOM     13  C   UNL     1       0.655   2.498  -0.871  1.00  0.00     0.265 C 
ATOM     14  C   UNL     1       2.459   4.093  -1.406  1.00  0.00     0.265 C 
ATOM     15  N   UNL     1       1.028   3.777  -1.487  1.00  0.00    -0.329 N 
ATOM     16  H   UNL     1       0.568   4.496  -0.930  1.00  0.00     0.348 HD
BRANCH  15  17
ATOM     17  C   UNL     1       0.526   3.861  -2.886  1.00  0.00     0.331 C 
BRANCH  17  18
ATOM     18  C   UNL     1       1.307   3.068  -3.918  1.00  0.00     0.147 A 
ATOM     19  N   UNL     1       1.421   1.754  -3.935  1.00  0.00    -0.244 NA
ATOM     20  S   UNL     1       2.186   3.885  -5.160  1.00  0.00    -0.122 S 
ATOM     21  C   UNL     1       2.284   1.362  -4.936  1.00  0.00     0.123 A 
ATOM     22  C   UNL     1       2.803   2.381  -5.702  1.00  0.00     0.087 A 
ENDBRANCH  17  18
ENDBRANCH  15  17
ENDBRANCH   9  10
ENDBRANCH   8   9
ENDBRANCH   6   8
ENDBRANCH   3   4
ENDBRANCH   2   3
ENDBRANCH   1   2
BRANCH   1  23
ATOM     23  C   UNL     1       4.585  -2.953   3.056  1.00  0.00     0.002 C 
BRANCH  23  24
ATOM     24  C   UNL     1       3.889  -3.718   4.181  1.00  0.00     0.021 C 
BRANCH  24  25
ATOM     25  C   UNL     1       4.026  -5.234   4.101  1.00  0.00     0.116 C 
BRANCH  25  26
ATOM     26  N   UNL     1       5.408  -5.670   4.213  1.00  0.00    -0.352 N 
ATOM     27  C   UNL     1       5.948  -6.641   5.020  1.00  0.00     0.251 C 
ATOM     28  H   UNL     1       6.047  -5.203   3.627  1.00  0.00     0.163 HD
ATOM     29  O   UNL     1       7.165  -6.748   5.116  1.00  0.00    -0.269 OA
BRANCH  27  30
ATOM     30  C   UNL     1       5.056  -7.540   5.788  1.00  0.00     0.039 A 
ATOM     31  C   UNL     1       5.376  -7.836   7.115  1.00  0.00     0.014 A 
ATOM     32  C   UNL     1       3.918  -8.099   5.199  1.00  0.00     0.014 A 
ATOM     33  C   UNL     1       4.530  -8.659   7.863  1.00  0.00     0.010 A 
ATOM     34  C   UNL     1       3.035  -8.850   5.970  1.00  0.00     0.010 A 
ATOM     35  C   UNL     1       3.340  -9.154   7.305  1.00  0.00    -0.014 A 
BRANCH  35  36
ATOM     36  C   UNL     1       2.425 -10.025   8.089  1.00  0.00     0.031 A 
ATOM     37  C   UNL     1       2.174 -11.442   7.641  1.00  0.00     0.074 A 
ATOM     38  C   UNL     1       1.795  -9.537   9.176  1.00  0.00     0.049 A 
ATOM     39  N   UNL     1       1.362 -12.337   8.144  1.00  0.00    -0.248 NA
ATOM     40  C   UNL     1       2.913 -11.908   6.455  1.00  0.00     0.031 C 
ATOM     41  C   UNL     1       1.921  -8.169   9.686  1.00  0.00     0.029 A 
ATOM     42  N   UNL     1       0.914 -10.131  10.045  1.00  0.00    -0.354 N 
ATOM     43  C   UNL     1       1.496 -13.464   7.342  1.00  0.00     0.074 A 
ATOM     44  C   UNL     1       2.409 -13.119   6.275  1.00  0.00     0.031 C 
ATOM     45  C   UNL     1       1.160  -8.035  10.784  1.00  0.00     0.029 A 
ATOM     46  C   UNL     1       0.462  -9.292  11.037  1.00  0.00     0.049 A 
ATOM     47  H   UNL     1       0.631 -11.071   9.965  1.00  0.00     0.167 HD
ATOM     48  C   UNL     1       0.938 -14.689   7.498  1.00  0.00     0.037 A 
ATOM     49  C   UNL     1      -0.422  -9.509  12.031  1.00  0.00     0.037 A 
ATOM     50  C   UNL     1       0.043 -15.034   8.571  1.00  0.00     0.049 A 
ATOM     51  C   UNL     1      -1.041 -10.876  12.173  1.00  0.00     0.074 A 
ATOM     52  C   UNL     1      -0.568 -16.250   8.825  1.00  0.00     0.029 A 
ATOM     53  N   UNL     1      -0.362 -14.167   9.575  1.00  0.00    -0.354 N 
ATOM     54  N   UNL     1      -0.873 -11.941  11.424  1.00  0.00    -0.248 NA
ATOM     55  C   UNL     1      -1.957 -11.078  13.305  1.00  0.00     0.031 C 
ATOM     56  C   UNL     1      -1.369 -16.108   9.963  1.00  0.00     0.029 A 
ATOM     57  C   UNL     1      -1.213 -14.821  10.450  1.00  0.00     0.049 A 
ATOM     58  H   UNL     1      -0.085 -13.225   9.654  1.00  0.00     0.167 HD
ATOM     59  C   UNL     1      -1.626 -12.947  12.021  1.00  0.00     0.074 A 
ATOM     60  C   UNL     1      -2.241 -12.367  13.196  1.00  0.00     0.031 C 
ATOM     61  C   UNL     1      -1.793 -14.236  11.633  1.00  0.00     0.037 A 
BRANCH  48  62
ATOM     62  C   UNL     1       1.304 -15.757   6.503  1.00  0.00     0.058 A 
ATOM     63  C   UNL     1       2.592 -16.316   6.472  1.00  0.00     0.135 A 
ATOM     64  C   UNL     1       0.347 -16.271   5.613  1.00  0.00     0.135 A 
ATOM     65  F   UNL     1       3.552 -15.849   7.287  1.00  0.00    -0.206 F 
ATOM     66  C   UNL     1       2.924 -17.333   5.585  1.00  0.00     0.059 A 
ATOM     67  C   UNL     1       0.649 -17.311   4.737  1.00  0.00     0.059 A 
ATOM     68  F   UNL     1      -0.899 -15.773   5.596  1.00  0.00    -0.206 F 
ATOM     69  C   UNL     1       1.943 -17.829   4.725  1.00  0.00     0.060 A 
BRANCH  69  70
ATOM     70  S   UNL     1       2.385 -19.175   3.606  1.00  0.00     0.124 S 
ATOM     71  O   UNL     1       3.263 -18.493   2.661  1.00  0.00    -0.237 OA
ATOM     72  O   UNL     1       3.035 -20.124   4.504  1.00  0.00    -0.237 OA
ATOM     73  O   UNL     1       1.099 -19.606   3.067  1.00  0.00    -0.744 OA
ENDBRANCH  69  70
ENDBRANCH  48  62
BRANCH  49  74
ATOM     74  C   UNL     1      -0.779  -8.414  12.976  1.00  0.00     0.058 A 
ATOM     75  C   UNL     1      -0.430  -8.481  14.334  1.00  0.00     0.135 A 
ATOM     76  C   UNL     1      -1.510  -7.295  12.547  1.00  0.00     0.135 A 
ATOM     77  F   UNL     1       0.269  -9.529  14.796  1.00  0.00    -0.206 F 
ATOM     78  C   UNL     1      -0.833  -7.505  15.241  1.00  0.00     0.059 A 
ATOM     79  C   UNL     1      -1.896  -6.290  13.428  1.00  0.00     0.059 A 
ATOM     80  F   UNL     1      -1.851  -7.168  11.255  1.00  0.00    -0.206 F 
ATOM     81  C   UNL     1      -1.571  -6.415  14.778  1.00  0.00     0.060 A 
BRANCH  81  82
ATOM     82  S   UNL     1      -2.095  -5.155  15.961  1.00  0.00     0.124 S 
ATOM     83  O   UNL     1      -3.152  -5.853  16.683  1.00  0.00    -0.237 OA
ATOM     84  O   UNL     1      -0.866  -4.907  16.709  1.00  0.00    -0.237 OA
ATOM     85  O   UNL     1      -2.533  -4.055  15.107  1.00  0.00    -0.744 OA
ENDBRANCH  81  82
ENDBRANCH  49  74
BRANCH  61  86
ATOM     86  C   UNL     1      -2.611 -15.130  12.525  1.00  0.00     0.058 A 
ATOM     87  C   UNL     1      -4.002 -14.992  12.650  1.00  0.00     0.135 A 
ATOM     88  C   UNL     1      -1.990 -16.169  13.239  1.00  0.00     0.135 A 
ATOM     89  F   UNL     1      -4.646 -14.014  11.992  1.00  0.00    -0.206 F 
ATOM     90  C   UNL     1      -4.743 -15.826  13.481  1.00  0.00     0.059 A 
ATOM     91  C   UNL     1      -2.716 -17.037  14.049  1.00  0.00     0.059 A 
ATOM     92  F   UNL     1      -0.664 -16.357  13.145  1.00  0.00    -0.206 F 
ATOM     93  C   UNL     1      -4.091 -16.846  14.177  1.00  0.00     0.060 A 
BRANCH  93  94
ATOM     94  S   UNL     1      -5.066 -17.931  15.239  1.00  0.00     0.124 S 
ATOM     95  O   UNL     1      -5.364 -17.051  16.364  1.00  0.00    -0.237 OA
ATOM     96  O   UNL     1      -6.198 -18.271  14.382  1.00  0.00    -0.237 OA
ATOM     97  O   UNL     1      -4.154 -19.034  15.529  1.00  0.00    -0.744 OA
ENDBRANCH  93  94
ENDBRANCH  61  86
ENDBRANCH  35  36
ENDBRANCH  27  30
ENDBRANCH  25  26
ENDBRANCH  24  25
ENDBRANCH  23  24
ENDBRANCH   1  23
TORSDOF 20
