REMARK SMILES CCOC(=O)c1cccc(Nc2c(-c3ccc(C(=O)NCCCCCCNC(=O)c4ccc(-c5c6nc(c(-c7c(F)cc(S(=O)(=O)[O-])cc7F)c7ccc([nH]7)c(-c7c(F)cc(S(=O)(=O)[O-])cc7F)c7nc(c(-c8c(F)cc(S(=O)(=O)[O-])cc8F)c8ccc5[nH]8)C=C7)C=C6)cc4)cc3)nc3cnccn23)c1
REMARK SMILES IDX 22 1 21 2 20 3 18 4 19 5 17 7 14 8 15 9 97 10 16 11 96 12
REMARK SMILES IDX 13 13 12 14 104 15 98 16 99 17 103 18 100 19 102 20 101 21
REMARK SMILES IDX 11 22 10 24 6 25 7 26 105 27 8 28 9 29 4 30 5 31 3 32 2 33
REMARK SMILES IDX 1 34 23 35 24 36 25 37 26 38 27 39 28 40 29 42 30 43 31 44
REMARK SMILES IDX 95 45 32 46 94 47 33 48 34 49 35 50 88 51 36 52 93 53 87 54
REMARK SMILES IDX 89 55 37 56 92 57 86 58 85 59 38 61 72 62 51 63 71 64 52 65
REMARK SMILES IDX 55 66 70 67 90 68 53 69 54 70 69 72 91 73 56 74 39 75 40 76
REMARK SMILES IDX 49 77 41 78 42 79 48 80 50 81 43 82 44 83 45 84 46 85 47 86
REMARK SMILES IDX 73 87 74 88 83 89 75 90 76 91 82 92 84 93 77 94 78 95 79 96
REMARK SMILES IDX 80 97 81 98 57 99 58 100 67 101 59 102 60 103 66 104 68 105
REMARK SMILES IDX 61 106 62 107 63 108 64 109 65 110
REMARK H PARENT 20 6 11 23 27 41 89 60 55 71
REMARK Flexibility Score: inf
ROOT
ATOM      1  C   UNL     1       1.230   8.328  10.617  1.00  0.00     0.021 C 
ENDROOT
BRANCH   1   2
ATOM      2  C   UNL     1       2.728   8.292  10.304  1.00  0.00     0.116 C 
BRANCH   2   3
ATOM      3  N   UNL     1       3.141   6.938   9.983  1.00  0.00    -0.352 N 
ATOM      4  C   UNL     1       3.425   6.324   8.791  1.00  0.00     0.251 C 
ATOM      5  O   UNL     1       3.782   5.146   8.818  1.00  0.00    -0.269 OA
ATOM      6  H   UNL     1       3.234   6.350  10.767  1.00  0.00     0.163 HD
BRANCH   4   7
ATOM      7  C   UNL     1       3.367   7.027   7.480  1.00  0.00     0.039 A 
ATOM      8  C   UNL     1       3.386   8.237   4.941  1.00  0.00     0.004 A 
ATOM      9  C   UNL     1       4.269   7.192   5.224  1.00  0.00     0.011 A 
ATOM     10  C   UNL     1       2.483   8.663   5.918  1.00  0.00     0.011 A 
ATOM     11  C   UNL     1       4.262   6.596   6.488  1.00  0.00     0.014 A 
ATOM     12  C   UNL     1       2.451   8.036   7.168  1.00  0.00     0.014 A 
BRANCH   8  13
ATOM     13  C   UNL     1       3.352   8.844   3.632  1.00  0.00     0.114 A 
ATOM     14  C   UNL     1       2.891   8.208   2.487  1.00  0.00     0.143 A 
ATOM     15  N   UNL     1       2.957   9.183   1.513  1.00  0.00    -0.283 N 
ATOM     16  N   UNL     1       3.764  10.130   3.380  1.00  0.00    -0.225 NA
ATOM     17  C   UNL     1       3.525  10.290   2.098  1.00  0.00     0.157 A 
ATOM     18  C   UNL     1       2.554   9.236   0.189  1.00  0.00     0.115 A 
ATOM     19  C   UNL     1       3.743  11.456   1.287  1.00  0.00     0.158 A 
ATOM     20  C   UNL     1       2.773  10.371  -0.499  1.00  0.00     0.129 A 
ATOM     21  N   UNL     1       3.390  11.494   0.028  1.00  0.00    -0.259 NA
BRANCH  14  22
ATOM     22  N   UNL     1       2.373   6.963   2.300  1.00  0.00    -0.339 N 
ATOM     23  H   UNL     1       1.504   6.767   2.720  1.00  0.00     0.168 HD
BRANCH  22  24
ATOM     24  C   UNL     1       2.985   5.926   1.551  1.00  0.00     0.040 A 
ATOM     25  C   UNL     1       3.036   3.571   0.932  1.00  0.00     0.062 A 
ATOM     26  C   UNL     1       4.173   3.786   0.150  1.00  0.00     0.016 A 
ATOM     27  C   UNL     1       2.429   4.638   1.610  1.00  0.00     0.041 A 
ATOM     28  C   UNL     1       4.697   5.070   0.038  1.00  0.00     0.003 A 
ATOM     29  C   UNL     1       4.109   6.128   0.736  1.00  0.00     0.026 A 
BRANCH  25  30
ATOM     30  C   UNL     1       2.553   2.184   1.088  1.00  0.00     0.338 C 
ATOM     31  O   UNL     1       3.300   1.228   1.205  1.00  0.00    -0.246 OA
BRANCH  30  32
ATOM     32  O   UNL     1       1.200   2.156   1.018  1.00  0.00    -0.462 OA
BRANCH  32  33
ATOM     33  C   UNL     1       0.609   0.852   1.144  1.00  0.00     0.230 C 
ATOM     34  C   UNL     1       0.773   0.036  -0.128  1.00  0.00     0.049 C 
ENDBRANCH  32  33
ENDBRANCH  30  32
ENDBRANCH  25  30
ENDBRANCH  22  24
ENDBRANCH  14  22
ENDBRANCH   8  13
ENDBRANCH   4   7
ENDBRANCH   2   3
ENDBRANCH   1   2
BRANCH   1  35
ATOM     35  C   UNL     1       0.889   7.834  12.029  1.00  0.00     0.002 C 
BRANCH  35  36
ATOM     36  C   UNL     1       1.414   8.721  13.166  1.00  0.00     0.002 C 
BRANCH  36  37
ATOM     37  C   UNL     1       0.968  10.185  13.109  1.00  0.00     0.021 C 
BRANCH  37  38
ATOM     38  C   UNL     1      -0.543  10.394  13.169  1.00  0.00     0.116 C 
BRANCH  38  39
ATOM     39  N   UNL     1      -1.097   9.963  14.444  1.00  0.00    -0.352 N 
ATOM     40  C   UNL     1      -1.822  10.681  15.364  1.00  0.00     0.251 C 
ATOM     41  H   UNL     1      -0.928   9.023  14.681  1.00  0.00     0.163 HD
ATOM     42  O   UNL     1      -2.016  10.220  16.485  1.00  0.00    -0.269 OA
BRANCH  40  43
ATOM     43  C   UNL     1      -2.355  12.012  15.005  1.00  0.00     0.039 A 
ATOM     44  C   UNL     1      -2.193  13.072  15.902  1.00  0.00     0.014 A 
ATOM     45  C   UNL     1      -3.023  12.212  13.793  1.00  0.00     0.014 A 
ATOM     46  C   UNL     1      -2.642  14.348  15.554  1.00  0.00     0.010 A 
ATOM     47  C   UNL     1      -3.421  13.495  13.425  1.00  0.00     0.010 A 
ATOM     48  C   UNL     1      -3.228  14.576  14.298  1.00  0.00    -0.014 A 
BRANCH  48  49
ATOM     49  C   UNL     1      -3.615  15.943  13.868  1.00  0.00     0.031 A 
ATOM     50  C   UNL     1      -5.060  16.291  13.643  1.00  0.00     0.074 A 
ATOM     51  C   UNL     1      -2.651  16.849  13.607  1.00  0.00     0.049 A 
ATOM     52  N   UNL     1      -5.579  17.404  13.193  1.00  0.00    -0.248 NA
ATOM     53  C   UNL     1      -6.049  15.243  13.942  1.00  0.00     0.031 C 
ATOM     54  C   UNL     1      -1.212  16.613  13.741  1.00  0.00     0.029 A 
ATOM     55  N   UNL     1      -2.735  18.143  13.160  1.00  0.00    -0.354 N 
ATOM     56  C   UNL     1      -6.951  17.190  13.143  1.00  0.00     0.074 A 
ATOM     57  C   UNL     1      -7.180  15.825  13.569  1.00  0.00     0.031 C 
ATOM     58  C   UNL     1      -0.549  17.729  13.396  1.00  0.00     0.029 A 
ATOM     59  C   UNL     1      -1.512  18.746  12.984  1.00  0.00     0.049 A 
ATOM     60  H   UNL     1      -3.590  18.598  12.981  1.00  0.00     0.167 HD
ATOM     61  C   UNL     1      -7.931  18.057  12.791  1.00  0.00     0.037 A 
ATOM     62  C   UNL     1      -1.199  19.975  12.530  1.00  0.00     0.037 A 
ATOM     63  C   UNL     1      -7.698  19.421  12.391  1.00  0.00     0.049 A 
ATOM     64  C   UNL     1      -2.303  20.917  12.140  1.00  0.00     0.074 A 
ATOM     65  C   UNL     1      -8.628  20.400  12.088  1.00  0.00     0.029 A 
ATOM     66  N   UNL     1      -6.446  19.998  12.233  1.00  0.00    -0.354 N 
ATOM     67  N   UNL     1      -3.600  20.720  12.163  1.00  0.00    -0.248 NA
ATOM     68  C   UNL     1      -1.904  22.248  11.662  1.00  0.00     0.031 C 
ATOM     69  C   UNL     1      -7.939  21.557  11.709  1.00  0.00     0.029 A 
ATOM     70  C   UNL     1      -6.579  21.311  11.812  1.00  0.00     0.049 A 
ATOM     71  H   UNL     1      -5.589  19.541  12.397  1.00  0.00     0.167 HD
ATOM     72  C   UNL     1      -4.172  21.904  11.713  1.00  0.00     0.074 A 
ATOM     73  C   UNL     1      -3.081  22.819  11.443  1.00  0.00     0.031 C 
ATOM     74  C   UNL     1      -5.482  22.205  11.537  1.00  0.00     0.037 A 
BRANCH  61  75
ATOM     75  C   UNL     1      -9.348  17.558  12.829  1.00  0.00     0.058 A 
ATOM     76  C   UNL     1     -10.012  17.324  14.044  1.00  0.00     0.135 A 
ATOM     77  C   UNL     1     -10.063  17.344  11.640  1.00  0.00     0.135 A 
ATOM     78  F   UNL     1      -9.370  17.500  15.210  1.00  0.00    -0.206 F 
ATOM     79  C   UNL     1     -11.326  16.869  14.079  1.00  0.00     0.059 A 
ATOM     80  C   UNL     1     -11.386  16.912  11.652  1.00  0.00     0.059 A 
ATOM     81  F   UNL     1      -9.476  17.553  10.451  1.00  0.00    -0.206 F 
ATOM     82  C   UNL     1     -12.004  16.662  12.877  1.00  0.00     0.060 A 
BRANCH  82  83
ATOM     83  S   UNL     1     -13.709  16.071  12.938  1.00  0.00     0.124 S 
ATOM     84  O   UNL     1     -13.516  14.666  13.286  1.00  0.00    -0.237 OA
ATOM     85  O   UNL     1     -14.294  16.907  13.980  1.00  0.00    -0.237 OA
ATOM     86  O   UNL     1     -14.203  16.320  11.587  1.00  0.00    -0.744 OA
ENDBRANCH  82  83
ENDBRANCH  61  75
BRANCH  62  87
ATOM     87  C   UNL     1       0.226  20.386  12.431  1.00  0.00     0.058 A 
ATOM     88  C   UNL     1       0.771  21.313  13.331  1.00  0.00     0.135 A 
ATOM     89  C   UNL     1       1.074  19.843  11.453  1.00  0.00     0.135 A 
ATOM     90  F   UNL     1      -0.004  21.863  14.278  1.00  0.00    -0.206 F 
ATOM     91  C   UNL     1       2.106  21.696  13.261  1.00  0.00     0.059 A 
ATOM     92  C   UNL     1       2.417  20.195  11.376  1.00  0.00     0.059 A 
ATOM     93  F   UNL     1       0.602  18.940  10.580  1.00  0.00    -0.206 F 
ATOM     94  C   UNL     1       2.922  21.129  12.281  1.00  0.00     0.060 A 
BRANCH  94  95
ATOM     95  S   UNL     1       4.669  21.586  12.235  1.00  0.00     0.124 S 
ATOM     96  O   UNL     1       4.608  22.914  11.636  1.00  0.00    -0.237 OA
ATOM     97  O   UNL     1       5.038  21.537  13.646  1.00  0.00    -0.237 OA
ATOM     98  O   UNL     1       5.265  20.544  11.404  1.00  0.00    -0.744 OA
ENDBRANCH  94  95
ENDBRANCH  62  87
BRANCH  74  99
ATOM     99  C   UNL     1      -5.808  23.581  11.029  1.00  0.00     0.058 A 
ATOM    100  C   UNL     1      -5.605  23.930   9.685  1.00  0.00     0.135 A 
ATOM    101  C   UNL     1      -6.371  24.543  11.882  1.00  0.00     0.135 A 
ATOM    102  F   UNL     1      -5.061  23.047   8.833  1.00  0.00    -0.206 F 
ATOM    103  C   UNL     1      -5.933  25.194   9.207  1.00  0.00     0.059 A 
ATOM    104  C   UNL     1      -6.727  25.806  11.420  1.00  0.00     0.059 A 
ATOM    105  F   UNL     1      -6.592  24.256  13.174  1.00  0.00    -0.206 F 
ATOM    106  C   UNL     1      -6.495  26.126  10.082  1.00  0.00     0.060 A 
BRANCH 106 107
ATOM    107  S   UNL     1      -6.950  27.751   9.442  1.00  0.00     0.124 S 
ATOM    108  O   UNL     1      -5.647  28.400   9.335  1.00  0.00    -0.237 OA
ATOM    109  O   UNL     1      -7.599  27.420   8.177  1.00  0.00    -0.237 OA
ATOM    110  O   UNL     1      -7.836  28.285  10.472  1.00  0.00    -0.744 OA
ENDBRANCH 106 107
ENDBRANCH  74  99
ENDBRANCH  48  49
ENDBRANCH  40  43
ENDBRANCH  38  39
ENDBRANCH  37  38
ENDBRANCH  36  37
ENDBRANCH  35  36
ENDBRANCH   1  35
TORSDOF 22
