REMARK SMILES O=C(CCCN1C(=O)/C(=C/c2ccccc2Cl)SC1=S)Nc1cccc(C(=O)NCCCCCCNC(=O)c2ccc(-c3c4nc(c(-c5c(F)cc(S(=O)(=O)[O-])cc5F)c5ccc([nH]5)c(-c5c(F)cc(S(=O)(=O)[O-])cc5F)c5nc(c(-c6c(F)cc(S(=O)(=O)[O-])cc6F)c6ccc3[nH]6)C=C5)C=C4)cc2)c1
REMARK SMILES IDX 31 1 30 2 29 3 27 4 28 5 26 7 22 8 23 9 105 10 24 11 25 12
REMARK SMILES IDX 21 13 1 14 2 15 3 17 4 18 5 19 6 20 7 21 19 22 8 23 9 24
REMARK SMILES IDX 18 25 20 26 10 27 11 28 12 29 16 30 13 31 15 32 17 33 14 34
REMARK SMILES IDX 32 35 33 36 34 37 35 38 36 39 37 40 38 42 39 43 40 44 104 45
REMARK SMILES IDX 41 46 103 47 42 48 43 49 44 50 97 51 45 52 102 53 96 54
REMARK SMILES IDX 98 55 46 56 101 57 95 58 94 59 47 61 81 62 60 63 80 64 61 65
REMARK SMILES IDX 64 66 79 67 99 68 62 69 63 70 78 72 100 73 65 74 48 75 49 76
REMARK SMILES IDX 58 77 50 78 51 79 57 80 59 81 52 82 53 83 54 84 55 85 56 86
REMARK SMILES IDX 82 87 83 88 92 89 84 90 85 91 91 92 93 93 86 94 87 95 88 96
REMARK SMILES IDX 89 97 90 98 66 99 67 100 76 101 68 102 69 103 75 104 77 105
REMARK SMILES IDX 70 106 71 107 72 108 73 109 74 110
REMARK H PARENT 29 6 21 16 36 41 98 60 64 71
REMARK Flexibility Score: inf
ROOT
ATOM      1  C   UNL     1       0.060  -0.558   4.636  1.00  0.00     0.021 C 
ENDROOT
BRANCH   1   2
ATOM      2  C   UNL     1      -0.146   0.441   3.501  1.00  0.00     0.116 C 
BRANCH   2   3
ATOM      3  N   UNL     1      -0.757   1.701   3.912  1.00  0.00    -0.352 N 
ATOM      4  C   UNL     1      -0.471   3.001   3.543  1.00  0.00     0.251 C 
ATOM      5  O   UNL     1      -1.107   3.924   4.050  1.00  0.00    -0.269 OA
ATOM      6  H   UNL     1      -1.494   1.609   4.558  1.00  0.00     0.163 HD
BRANCH   4   7
ATOM      7  C   UNL     1       0.645   3.315   2.611  1.00  0.00     0.041 A 
ATOM      8  C   UNL     1       2.205   2.567   0.920  1.00  0.00     0.041 A 
ATOM      9  C   UNL     1       3.018   3.671   1.194  1.00  0.00     0.026 A 
ATOM     10  C   UNL     1       0.965   2.472   1.548  1.00  0.00     0.040 A 
ATOM     11  C   UNL     1       2.611   4.634   2.122  1.00  0.00     0.003 A 
ATOM     12  C   UNL     1       1.440   4.439   2.856  1.00  0.00     0.014 A 
BRANCH   8  13
ATOM     13  N   UNL     1       2.742   1.522   0.135  1.00  0.00    -0.326 N 
ATOM     14  O   UNL     1       0.896   0.125  -0.080  1.00  0.00    -0.275 OA
ATOM     15  C   UNL     1       2.097   0.348  -0.209  1.00  0.00     0.224 C 
ATOM     16  H   UNL     1       3.660   1.642  -0.199  1.00  0.00     0.169 HD
BRANCH  15  17
ATOM     17  C   UNL     1       3.014  -0.772  -0.653  1.00  0.00     0.102 C 
BRANCH  17  18
ATOM     18  C   UNL     1       3.947  -0.454  -1.815  1.00  0.00     0.032 C 
BRANCH  18  19
ATOM     19  C   UNL     1       5.371   0.002  -1.454  1.00  0.00     0.128 C 
BRANCH  19  20
ATOM     20  N   UNL     1       5.979  -0.605  -0.266  1.00  0.00    -0.293 N 
ATOM     21  C   UNL     1       6.496   0.227   0.720  1.00  0.00     0.266 C 
ATOM     22  C   UNL     1       6.201  -1.958  -0.084  1.00  0.00     0.148 C 
ATOM     23  O   UNL     1       6.399   1.446   0.758  1.00  0.00    -0.268 OA
ATOM     24  C   UNL     1       7.218  -0.579   1.743  1.00  0.00     0.081 C 
ATOM     25  S   UNL     1       6.814  -2.236   1.539  1.00  0.00    -0.054 SA
ATOM     26  S   UNL     1       5.968  -3.207  -1.158  1.00  0.00    -0.052 S 
ATOM     27  C   UNL     1       8.097  -0.052   2.609  1.00  0.00     0.031 C 
BRANCH  27  28
ATOM     28  C   UNL     1       8.873  -0.824   3.600  1.00  0.00    -0.006 A 
ATOM     29  C   UNL     1       8.609  -0.578   4.956  1.00  0.00     0.010 A 
ATOM     30  C   UNL     1       9.835  -1.798   3.269  1.00  0.00     0.048 A 
ATOM     31  C   UNL     1       9.242  -1.326   5.954  1.00  0.00     0.001 A 
ATOM     32  C   UNL     1      10.441  -2.565   4.269  1.00  0.00     0.021 A 
ATOM     33  Cl  UNL     1      10.356  -2.066   1.639  1.00  0.00    -0.084 Cl
ATOM     34  C   UNL     1      10.138  -2.334   5.610  1.00  0.00     0.002 A 
ENDBRANCH  27  28
ENDBRANCH  19  20
ENDBRANCH  18  19
ENDBRANCH  17  18
ENDBRANCH  15  17
ENDBRANCH   8  13
ENDBRANCH   4   7
ENDBRANCH   2   3
ENDBRANCH   1   2
BRANCH   1  35
ATOM     35  C   UNL     1      -1.204  -1.108   5.293  1.00  0.00     0.002 C 
BRANCH  35  36
ATOM     36  C   UNL     1      -2.213  -1.782   4.360  1.00  0.00     0.002 C 
BRANCH  36  37
ATOM     37  C   UNL     1      -1.669  -2.898   3.463  1.00  0.00     0.021 C 
BRANCH  37  38
ATOM     38  C   UNL     1      -0.933  -4.028   4.180  1.00  0.00     0.116 C 
BRANCH  38  39
ATOM     39  N   UNL     1      -1.768  -4.723   5.147  1.00  0.00    -0.352 N 
ATOM     40  C   UNL     1      -2.088  -6.058   5.238  1.00  0.00     0.251 C 
ATOM     41  H   UNL     1      -2.164  -4.151   5.843  1.00  0.00     0.163 HD
ATOM     42  O   UNL     1      -2.935  -6.431   6.039  1.00  0.00    -0.269 OA
BRANCH  40  43
ATOM     43  C   UNL     1      -1.428  -7.039   4.347  1.00  0.00     0.039 A 
ATOM     44  C   UNL     1      -2.217  -7.974   3.671  1.00  0.00     0.014 A 
ATOM     45  C   UNL     1      -0.042  -7.030   4.168  1.00  0.00     0.014 A 
ATOM     46  C   UNL     1      -1.626  -8.840   2.747  1.00  0.00     0.010 A 
ATOM     47  C   UNL     1       0.536  -7.849   3.200  1.00  0.00     0.010 A 
ATOM     48  C   UNL     1      -0.253  -8.748   2.466  1.00  0.00    -0.014 A 
BRANCH  48  49
ATOM     49  C   UNL     1       0.367  -9.533   1.367  1.00  0.00     0.031 A 
ATOM     50  C   UNL     1       1.422 -10.561   1.660  1.00  0.00     0.074 A 
ATOM     51  C   UNL     1       0.035  -9.252   0.091  1.00  0.00     0.049 A 
ATOM     52  N   UNL     1       2.135 -11.273   0.826  1.00  0.00    -0.248 NA
ATOM     53  C   UNL     1       1.729 -10.806   3.077  1.00  0.00     0.031 C 
ATOM     54  C   UNL     1      -0.954  -8.253  -0.324  1.00  0.00     0.029 A 
ATOM     55  N   UNL     1       0.500  -9.767  -1.094  1.00  0.00    -0.354 N 
ATOM     56  C   UNL     1       2.980 -12.047   1.613  1.00  0.00     0.074 A 
ATOM     57  C   UNL     1       2.725 -11.676   2.990  1.00  0.00     0.031 C 
ATOM     58  C   UNL     1      -1.037  -8.245  -1.663  1.00  0.00     0.029 A 
ATOM     59  C   UNL     1      -0.074  -9.198  -2.206  1.00  0.00     0.049 A 
ATOM     60  H   UNL     1       1.181 -10.476  -1.142  1.00  0.00     0.167 HD
ATOM     61  C   UNL     1       3.871 -12.991   1.225  1.00  0.00     0.037 A 
ATOM     62  C   UNL     1       0.158  -9.406  -3.517  1.00  0.00     0.037 A 
ATOM     63  C   UNL     1       4.121 -13.348  -0.148  1.00  0.00     0.049 A 
ATOM     64  C   UNL     1       1.198 -10.412  -3.927  1.00  0.00     0.074 A 
ATOM     65  C   UNL     1       4.969 -14.323  -0.644  1.00  0.00     0.029 A 
ATOM     66  N   UNL     1       3.539 -12.731  -1.248  1.00  0.00    -0.354 N 
ATOM     67  N   UNL     1       1.942 -11.182  -3.169  1.00  0.00    -0.248 NA
ATOM     68  C   UNL     1       1.437 -10.572  -5.367  1.00  0.00     0.031 C 
ATOM     69  C   UNL     1       4.942 -14.257  -2.042  1.00  0.00     0.029 A 
ATOM     70  C   UNL     1       4.037 -13.278  -2.420  1.00  0.00     0.049 A 
ATOM     71  H   UNL     1       2.870 -12.010  -1.201  1.00  0.00     0.167 HD
ATOM     72  C   UNL     1       2.724 -11.932  -4.040  1.00  0.00     0.074 A 
ATOM     73  C   UNL     1       2.352 -11.532  -5.383  1.00  0.00     0.031 C 
ATOM     74  C   UNL     1       3.664 -12.866  -3.753  1.00  0.00     0.037 A 
BRANCH  61  75
ATOM     75  C   UNL     1       4.651 -13.692   2.307  1.00  0.00     0.058 A 
ATOM     76  C   UNL     1       4.032 -14.570   3.212  1.00  0.00     0.135 A 
ATOM     77  C   UNL     1       6.034 -13.488   2.441  1.00  0.00     0.135 A 
ATOM     78  F   UNL     1       2.710 -14.797   3.138  1.00  0.00    -0.206 F 
ATOM     79  C   UNL     1       4.744 -15.178   4.242  1.00  0.00     0.059 A 
ATOM     80  C   UNL     1       6.773 -14.111   3.443  1.00  0.00     0.059 A 
ATOM     81  F   UNL     1       6.681 -12.666   1.600  1.00  0.00    -0.206 F 
ATOM     82  C   UNL     1       6.113 -14.935   4.354  1.00  0.00     0.060 A 
BRANCH  82  83
ATOM     83  S   UNL     1       7.014 -15.699   5.719  1.00  0.00     0.124 S 
ATOM     84  O   UNL     1       6.536 -14.918   6.856  1.00  0.00    -0.237 OA
ATOM     85  O   UNL     1       6.554 -17.083   5.663  1.00  0.00    -0.237 OA
ATOM     86  O   UNL     1       8.414 -15.492   5.361  1.00  0.00    -0.744 OA
ENDBRANCH  82  83
ENDBRANCH  61  75
BRANCH  62  87
ATOM     87  C   UNL     1      -0.628  -8.656  -4.533  1.00  0.00     0.058 A 
ATOM     88  C   UNL     1      -1.595  -9.309  -5.312  1.00  0.00     0.135 A 
ATOM     89  C   UNL     1      -0.465  -7.274  -4.715  1.00  0.00     0.135 A 
ATOM     90  F   UNL     1      -1.781 -10.631  -5.181  1.00  0.00    -0.206 F 
ATOM     91  C   UNL     1      -2.373  -8.619  -6.235  1.00  0.00     0.059 A 
ATOM     92  C   UNL     1      -1.249  -6.558  -5.615  1.00  0.00     0.059 A 
ATOM     93  F   UNL     1       0.438  -6.601  -3.986  1.00  0.00    -0.206 F 
ATOM     94  C   UNL     1      -2.198  -7.241  -6.373  1.00  0.00     0.060 A 
BRANCH  94  95
ATOM     95  S   UNL     1      -3.266  -6.347  -7.524  1.00  0.00     0.124 S 
ATOM     96  O   UNL     1      -2.763  -6.809  -8.812  1.00  0.00    -0.237 OA
ATOM     97  O   UNL     1      -4.591  -6.828  -7.146  1.00  0.00    -0.237 OA
ATOM     98  O   UNL     1      -3.002  -4.946  -7.208  1.00  0.00    -0.744 OA
ENDBRANCH  94  95
ENDBRANCH  62  87
BRANCH  74  99
ATOM     99  C   UNL     1       4.356 -13.535  -4.910  1.00  0.00     0.058 A 
ATOM    100  C   UNL     1       5.312 -12.859  -5.684  1.00  0.00     0.135 A 
ATOM    101  C   UNL     1       4.114 -14.887  -5.202  1.00  0.00     0.135 A 
ATOM    102  F   UNL     1       5.573 -11.562  -5.455  1.00  0.00    -0.206 F 
ATOM    103  C   UNL     1       5.997 -13.497  -6.713  1.00  0.00     0.059 A 
ATOM    104  C   UNL     1       4.808 -15.553  -6.208  1.00  0.00     0.059 A 
ATOM    105  F   UNL     1       3.213 -15.582  -4.490  1.00  0.00    -0.206 F 
ATOM    106  C   UNL     1       5.745 -14.847  -6.962  1.00  0.00     0.060 A 
BRANCH 106 107
ATOM    107  S   UNL     1       6.689 -15.678  -8.258  1.00  0.00     0.124 S 
ATOM    108  O   UNL     1       6.114 -15.090  -9.464  1.00  0.00    -0.237 OA
ATOM    109  O   UNL     1       8.058 -15.279  -7.949  1.00  0.00    -0.237 OA
ATOM    110  O   UNL     1       6.391 -17.091  -8.045  1.00  0.00    -0.744 OA
ENDBRANCH 106 107
ENDBRANCH  74  99
ENDBRANCH  48  49
ENDBRANCH  40  43
ENDBRANCH  38  39
ENDBRANCH  37  38
ENDBRANCH  36  37
ENDBRANCH  35  36
ENDBRANCH   1  35
TORSDOF 22
