REMARK SMILES COc1ccc(C(=O)NNC(=O)CCC(=O)NCCCCCCNC(=O)c2ccc(-c3c4nc(c(-c5c(F)cc(S(=O)(=O)[O-])cc5F)c5ccc([nH]5)c(-c5c(F)cc(S(=O)(=O)[O-])cc5F)c5nc(c(-c6c(F)cc(S(=O)(=O)[O-])cc6F)c6ccc3[nH]6)C=C5)C=C4)cc2)cc1Br
REMARK SMILES IDX 19 1 18 2 17 3 15 4 16 5 14 7 13 8 11 9 10 10 12 12 9 13
REMARK SMILES IDX 7 14 8 15 6 17 3 18 4 19 94 20 5 21 93 22 95 23 2 24 1 25
REMARK SMILES IDX 20 26 21 27 22 28 23 29 24 30 25 31 26 33 27 34 28 35 92 36
REMARK SMILES IDX 29 37 91 38 30 39 31 40 32 41 85 42 33 43 90 44 84 45 86 46
REMARK SMILES IDX 34 47 89 48 83 49 82 50 35 52 69 53 48 54 68 55 49 56 52 57
REMARK SMILES IDX 67 58 87 59 50 60 51 61 66 63 88 64 53 65 36 66 37 67 46 68
REMARK SMILES IDX 38 69 39 70 45 71 47 72 40 73 41 74 42 75 43 76 44 77 70 78
REMARK SMILES IDX 71 79 80 80 72 81 73 82 79 83 81 84 74 85 75 86 76 87 77 88
REMARK SMILES IDX 78 89 54 90 55 91 64 92 56 93 57 94 63 95 65 96 58 97 59 98
REMARK SMILES IDX 60 99 61 100 62 101
REMARK H PARENT 17 6 10 11 9 16 24 32 86 51 52 62
REMARK Flexibility Score: inf
ROOT
ATOM      1  C   UNL     1       4.612   3.735  -3.429  1.00  0.00     0.021 C 
ENDROOT
BRANCH   1   2
ATOM      2  C   UNL     1       5.050   4.409  -4.730  1.00  0.00     0.116 C 
BRANCH   2   3
ATOM      3  N   UNL     1       4.233   5.564  -5.079  1.00  0.00    -0.356 N 
ATOM      4  C   UNL     1       4.459   6.897  -4.940  1.00  0.00     0.220 C 
ATOM      5  O   UNL     1       3.575   7.689  -5.273  1.00  0.00    -0.275 OA
ATOM      6  H   UNL     1       3.365   5.340  -5.486  1.00  0.00     0.163 HD
BRANCH   4   7
ATOM      7  C   UNL     1       5.737   7.410  -4.328  1.00  0.00     0.110 C 
BRANCH   7   8
ATOM      8  C   UNL     1       5.455   8.037  -2.968  1.00  0.00     0.112 C 
BRANCH   8   9
ATOM      9  C   UNL     1       5.138   6.976  -1.939  1.00  0.00     0.238 C 
ATOM     10  N   UNL     1       3.838   6.619  -1.678  1.00  0.00    -0.267 N 
ATOM     11  H   UNL     1       3.691   5.932  -0.988  1.00  0.00     0.191 HD
ATOM     12  O   UNL     1       6.048   6.383  -1.357  1.00  0.00    -0.273 OA
BRANCH  10  13
ATOM     13  N   UNL     1       2.714   7.144  -2.301  1.00  0.00    -0.264 N 
ATOM     14  C   UNL     1       1.450   6.589  -2.385  1.00  0.00     0.269 C 
ATOM     15  O   UNL     1       0.632   7.135  -3.130  1.00  0.00    -0.267 OA
ATOM     16  H   UNL     1       2.831   8.019  -2.736  1.00  0.00     0.191 HD
BRANCH  14  17
ATOM     17  C   UNL     1       1.013   5.353  -1.674  1.00  0.00     0.042 A 
ATOM     18  C   UNL     1       0.042   2.950  -0.488  1.00  0.00     0.133 A 
ATOM     19  C   UNL     1      -0.457   3.418  -1.712  1.00  0.00     0.048 A 
ATOM     20  C   UNL     1       1.027   3.715   0.150  1.00  0.00     0.060 A 
ATOM     21  C   UNL     1       0.017   4.593  -2.298  1.00  0.00     0.018 A 
ATOM     22  C   UNL     1       1.480   4.926  -0.430  1.00  0.00     0.033 A 
ATOM     23  Br  UNL     1       1.891   3.271   1.784  1.00  0.00    -0.047 Br
BRANCH  18  24
ATOM     24  O   UNL     1      -0.573   1.784  -0.148  1.00  0.00    -0.496 OA
ATOM     25  C   UNL     1      -0.297   1.098   1.057  1.00  0.00     0.278 C 
ENDBRANCH  18  24
ENDBRANCH  14  17
ENDBRANCH  10  13
ENDBRANCH   8   9
ENDBRANCH   7   8
ENDBRANCH   4   7
ENDBRANCH   2   3
ENDBRANCH   1   2
BRANCH   1  26
ATOM     26  C   UNL     1       3.156   3.261  -3.403  1.00  0.00     0.002 C 
BRANCH  26  27
ATOM     27  C   UNL     1       2.891   1.905  -4.056  1.00  0.00     0.002 C 
BRANCH  27  28
ATOM     28  C   UNL     1       3.554   0.714  -3.358  1.00  0.00     0.021 C 
BRANCH  28  29
ATOM     29  C   UNL     1       3.094   0.450  -1.924  1.00  0.00     0.116 C 
BRANCH  29  30
ATOM     30  N   UNL     1       1.728  -0.038  -1.850  1.00  0.00    -0.352 N 
ATOM     31  C   UNL     1       1.195  -1.060  -1.099  1.00  0.00     0.251 C 
ATOM     32  H   UNL     1       1.084   0.435  -2.426  1.00  0.00     0.163 HD
ATOM     33  O   UNL     1       0.039  -1.417  -1.297  1.00  0.00    -0.269 OA
BRANCH  31  34
ATOM     34  C   UNL     1       2.005  -1.749  -0.063  1.00  0.00     0.039 A 
ATOM     35  C   UNL     1       1.844  -3.130   0.084  1.00  0.00     0.014 A 
ATOM     36  C   UNL     1       2.909  -1.064   0.758  1.00  0.00     0.014 A 
ATOM     37  C   UNL     1       2.666  -3.833   0.963  1.00  0.00     0.010 A 
ATOM     38  C   UNL     1       3.770  -1.771   1.595  1.00  0.00     0.010 A 
ATOM     39  C   UNL     1       3.680  -3.165   1.670  1.00  0.00    -0.014 A 
BRANCH  39  40
ATOM     40  C   UNL     1       4.753  -3.949   2.324  1.00  0.00     0.031 A 
ATOM     41  C   UNL     1       4.900  -4.002   3.811  1.00  0.00     0.074 A 
ATOM     42  C   UNL     1       5.623  -4.591   1.519  1.00  0.00     0.049 A 
ATOM     43  N   UNL     1       5.706  -4.741   4.527  1.00  0.00    -0.248 NA
ATOM     44  C   UNL     1       4.052  -3.096   4.598  1.00  0.00     0.031 C 
ATOM     45  C   UNL     1       5.615  -4.521   0.054  1.00  0.00     0.029 A 
ATOM     46  N   UNL     1       6.663  -5.435   1.803  1.00  0.00    -0.354 N 
ATOM     47  C   UNL     1       5.451  -4.409   5.851  1.00  0.00     0.074 A 
ATOM     48  C   UNL     1       4.460  -3.353   5.834  1.00  0.00     0.031 C 
ATOM     49  C   UNL     1       6.564  -5.333  -0.432  1.00  0.00     0.029 A 
ATOM     50  C   UNL     1       7.265  -5.958   0.682  1.00  0.00     0.049 A 
ATOM     51  H   UNL     1       6.953  -5.646   2.720  1.00  0.00     0.167 HD
ATOM     52  C   UNL     1       5.987  -4.954   6.971  1.00  0.00     0.037 A 
ATOM     53  C   UNL     1       8.257  -6.859   0.566  1.00  0.00     0.037 A 
ATOM     54  C   UNL     1       6.998  -5.983   6.952  1.00  0.00     0.049 A 
ATOM     55  C   UNL     1       8.827  -7.455   1.820  1.00  0.00     0.074 A 
ATOM     56  C   UNL     1       7.579  -6.644   8.019  1.00  0.00     0.029 A 
ATOM     57  N   UNL     1       7.595  -6.486   5.801  1.00  0.00    -0.354 N 
ATOM     58  N   UNL     1       8.499  -7.215   3.068  1.00  0.00    -0.248 NA
ATOM     59  C   UNL     1       9.890  -8.452   1.654  1.00  0.00     0.031 C 
ATOM     60  C   UNL     1       8.566  -7.502   7.517  1.00  0.00     0.029 A 
ATOM     61  C   UNL     1       8.561  -7.423   6.133  1.00  0.00     0.049 A 
ATOM     62  H   UNL     1       7.364  -6.215   4.883  1.00  0.00     0.167 HD
ATOM     63  C   UNL     1       9.306  -8.041   3.839  1.00  0.00     0.074 A 
ATOM     64  C   UNL     1      10.117  -8.807   2.911  1.00  0.00     0.031 C 
ATOM     65  C   UNL     1       9.374  -8.155   5.190  1.00  0.00     0.037 A 
BRANCH  52  66
ATOM     66  C   UNL     1       5.494  -4.438   8.300  1.00  0.00     0.058 A 
ATOM     67  C   UNL     1       4.176  -4.660   8.735  1.00  0.00     0.135 A 
ATOM     68  C   UNL     1       6.347  -3.724   9.157  1.00  0.00     0.135 A 
ATOM     69  F   UNL     1       3.311  -5.330   7.957  1.00  0.00    -0.206 F 
ATOM     70  C   UNL     1       3.710  -4.155   9.945  1.00  0.00     0.059 A 
ATOM     71  C   UNL     1       5.912  -3.235  10.387  1.00  0.00     0.059 A 
ATOM     72  F   UNL     1       7.619  -3.483   8.799  1.00  0.00    -0.206 F 
ATOM     73  C   UNL     1       4.585  -3.438  10.763  1.00  0.00     0.060 A 
BRANCH  73  74
ATOM     74  S   UNL     1       3.956  -2.767  12.316  1.00  0.00     0.124 S 
ATOM     75  O   UNL     1       3.095  -1.689  11.840  1.00  0.00    -0.237 OA
ATOM     76  O   UNL     1       3.269  -3.916  12.898  1.00  0.00    -0.237 OA
ATOM     77  O   UNL     1       5.163  -2.341  13.017  1.00  0.00    -0.744 OA
ENDBRANCH  73  74
ENDBRANCH  52  66
BRANCH  53  78
ATOM     78  C   UNL     1       8.716  -7.279  -0.785  1.00  0.00     0.058 A 
ATOM     79  C   UNL     1       8.436  -8.561  -1.278  1.00  0.00     0.135 A 
ATOM     80  C   UNL     1       9.391  -6.386  -1.633  1.00  0.00     0.135 A 
ATOM     81  F   UNL     1       7.792  -9.450  -0.506  1.00  0.00    -0.206 F 
ATOM     82  C   UNL     1       8.813  -8.948  -2.560  1.00  0.00     0.059 A 
ATOM     83  C   UNL     1       9.754  -6.740  -2.929  1.00  0.00     0.059 A 
ATOM     84  F   UNL     1       9.662  -5.139  -1.219  1.00  0.00    -0.206 F 
ATOM     85  C   UNL     1       9.465  -8.027  -3.381  1.00  0.00     0.060 A 
BRANCH  85  86
ATOM     86  S   UNL     1       9.887  -8.517  -5.068  1.00  0.00     0.124 S 
ATOM     87  O   UNL     1      10.969  -9.466  -4.836  1.00  0.00    -0.237 OA
ATOM     88  O   UNL     1       8.630  -9.084  -5.545  1.00  0.00    -0.237 OA
ATOM     89  O   UNL     1      10.276  -7.257  -5.696  1.00  0.00    -0.744 OA
ENDBRANCH  85  86
ENDBRANCH  53  78
BRANCH  65  90
ATOM     90  C   UNL     1      10.365  -9.148   5.735  1.00  0.00     0.058 A 
ATOM     91  C   UNL     1      11.749  -8.930   5.649  1.00  0.00     0.135 A 
ATOM     92  C   UNL     1       9.924 -10.324   6.363  1.00  0.00     0.135 A 
ATOM     93  F   UNL     1      12.224  -7.826   5.050  1.00  0.00    -0.206 F 
ATOM     94  C   UNL     1      12.662  -9.861   6.131  1.00  0.00     0.059 A 
ATOM     95  C   UNL     1      10.819 -11.253   6.883  1.00  0.00     0.059 A 
ATOM     96  F   UNL     1       8.611 -10.577   6.481  1.00  0.00    -0.206 F 
ATOM     97  C   UNL     1      12.187 -11.021   6.745  1.00  0.00     0.060 A 
BRANCH  97  98
ATOM     98  S   UNL     1      13.383 -12.216   7.374  1.00  0.00     0.124 S 
ATOM     99  O   UNL     1      13.885 -12.808   6.138  1.00  0.00    -0.237 OA
ATOM    100  O   UNL     1      14.324 -11.366   8.097  1.00  0.00    -0.237 OA
ATOM    101  O   UNL     1      12.575 -13.099   8.210  1.00  0.00    -0.744 OA
ENDBRANCH  97  98
ENDBRANCH  65  90
ENDBRANCH  39  40
ENDBRANCH  31  34
ENDBRANCH  29  30
ENDBRANCH  28  29
ENDBRANCH  27  28
ENDBRANCH  26  27
ENDBRANCH   1  26
TORSDOF 21
