REMARK SMILES Cc1cccc(CC(=O)N2CCC3(CCC(=O)N([C@H](C)C(=O)NCCCCCCNC(=O)c4ccc(-c5c6nc(c(-c7c(F)cc(S(=O)(=O)[O-])cc7F)c7ccc([nH]7)c(-c7c(F)cc(S(=O)(=O)[O-])cc7F)c7nc(c(-c8c(F)cc(S(=O)(=O)[O-])cc8F)c8ccc5[nH]8)C=C7)C=C6)cc4)C3)CC2)c1
REMARK SMILES IDX 26 1 25 2 24 3 23 4 21 5 22 6 19 8 20 9 18 10 8 11 9 12
REMARK SMILES IDX 10 13 11 14 101 15 12 16 100 17 13 18 14 19 99 20 15 21
REMARK SMILES IDX 16 22 17 23 7 24 6 25 1 26 2 27 3 28 102 29 4 30 5 31 27 32
REMARK SMILES IDX 28 33 29 34 30 35 31 36 32 38 33 39 34 40 98 41 35 42 97 43
REMARK SMILES IDX 36 44 37 45 38 46 91 47 39 48 96 49 90 50 92 51 40 52 95 53
REMARK SMILES IDX 89 54 88 55 41 57 75 58 54 59 74 60 55 61 58 62 73 63 93 64
REMARK SMILES IDX 56 65 57 66 72 68 94 69 59 70 42 71 43 72 52 73 44 74 45 75
REMARK SMILES IDX 51 76 53 77 46 78 47 79 48 80 49 81 50 82 76 83 77 84 86 85
REMARK SMILES IDX 78 86 79 87 85 88 87 89 80 90 81 91 82 92 83 93 84 94 60 95
REMARK SMILES IDX 61 96 70 97 62 98 63 99 69 100 71 101 64 102 65 103 66 104
REMARK SMILES IDX 67 105 68 106
REMARK H PARENT 23 7 30 37 92 56 58 67
REMARK Flexibility Score: inf
ROOT
ATOM      1  C   UNL     1      -3.946   5.329  -9.328  1.00  0.00     0.002 C 
ENDROOT
BRANCH   1   2
ATOM      2  C   UNL     1      -2.671   4.700  -8.754  1.00  0.00     0.021 C 
BRANCH   2   3
ATOM      3  C   UNL     1      -1.521   5.661  -8.480  1.00  0.00     0.116 C 
BRANCH   3   4
ATOM      4  N   UNL     1      -1.741   6.585  -7.385  1.00  0.00    -0.354 N 
ATOM      5  C   UNL     1      -0.813   7.239  -6.620  1.00  0.00     0.242 C 
ATOM      6  O   UNL     1      -1.186   8.237  -5.990  1.00  0.00    -0.273 OA
ATOM      7  H   UNL     1      -2.683   6.767  -7.163  1.00  0.00     0.163 HD
BRANCH   5   8
ATOM      8  C   UNL     1       0.658   6.749  -6.495  1.00  0.00     0.171 C 
ATOM      9  C   UNL     1       0.783   5.275  -6.104  1.00  0.00     0.042 C 
BRANCH   8  10
ATOM     10  N   UNL     1       1.636   7.125  -7.533  1.00  0.00    -0.330 N 
ATOM     11  C   UNL     1       7.910   5.253  -6.992  1.00  0.00     0.226 C 
ATOM     12  O   UNL     1       8.146   4.058  -6.782  1.00  0.00    -0.275 OA
ATOM     13  N   UNL     1       6.771   5.641  -7.684  1.00  0.00    -0.342 N 
ATOM     14  C   UNL     1       5.646   4.714  -7.801  1.00  0.00     0.120 C 
ATOM     15  C   UNL     1       6.582   6.885  -8.412  1.00  0.00     0.120 C 
ATOM     16  C   UNL     1       4.353   5.393  -7.317  1.00  0.00     0.030 C 
ATOM     17  C   UNL     1       5.393   7.636  -7.838  1.00  0.00     0.030 C 
ATOM     18  C   UNL     1       4.097   6.793  -7.950  1.00  0.00    -0.008 C 
ATOM     19  C   UNL     1       3.707   6.691  -9.450  1.00  0.00     0.019 C 
ATOM     20  C   UNL     1       2.982   7.531  -7.166  1.00  0.00     0.127 C 
ATOM     21  C   UNL     1       2.281   6.228  -9.665  1.00  0.00     0.101 C 
ATOM     22  C   UNL     1       1.335   7.089  -8.876  1.00  0.00     0.223 C 
ATOM     23  O   UNL     1       0.378   7.654  -9.385  1.00  0.00    -0.275 OA
BRANCH  11  24
ATOM     24  C   UNL     1       8.767   6.295  -6.272  1.00  0.00     0.135 C 
BRANCH  24  25
ATOM     25  C   UNL     1       9.335   7.444  -7.061  1.00  0.00    -0.038 A 
ATOM     26  C   UNL     1       8.856  11.226  -7.256  1.00  0.00     0.044 C 
ATOM     27  C   UNL     1       9.351   9.838  -7.540  1.00  0.00    -0.051 A 
ATOM     28  C   UNL     1      10.177   9.595  -8.642  1.00  0.00     0.003 A 
ATOM     29  C   UNL     1       8.956   8.761  -6.740  1.00  0.00     0.007 A 
ATOM     30  C   UNL     1      10.602   8.298  -8.938  1.00  0.00     0.001 A 
ATOM     31  C   UNL     1      10.186   7.224  -8.150  1.00  0.00     0.004 A 
ENDBRANCH  24  25
ENDBRANCH  11  24
ENDBRANCH   8  10
ENDBRANCH   5   8
ENDBRANCH   3   4
ENDBRANCH   2   3
ENDBRANCH   1   2
BRANCH   1  32
ATOM     32  C   UNL     1      -3.800   6.314 -10.499  1.00  0.00     0.002 C 
BRANCH  32  33
ATOM     33  C   UNL     1      -2.924   5.892 -11.681  1.00  0.00     0.021 C 
BRANCH  33  34
ATOM     34  C   UNL     1      -3.419   4.662 -12.432  1.00  0.00     0.116 C 
BRANCH  34  35
ATOM     35  N   UNL     1      -3.718   4.935 -13.833  1.00  0.00    -0.352 N 
ATOM     36  C   UNL     1      -3.936   4.024 -14.855  1.00  0.00     0.251 C 
ATOM     37  H   UNL     1      -3.771   5.886 -14.085  1.00  0.00     0.163 HD
ATOM     38  O   UNL     1      -4.014   4.354 -16.023  1.00  0.00    -0.269 OA
BRANCH  36  39
ATOM     39  C   UNL     1      -4.174   2.626 -14.445  1.00  0.00     0.039 A 
ATOM     40  C   UNL     1      -5.491   2.159 -14.517  1.00  0.00     0.014 A 
ATOM     41  C   UNL     1      -3.200   1.949 -13.719  1.00  0.00     0.014 A 
ATOM     42  C   UNL     1      -5.888   1.113 -13.691  1.00  0.00     0.010 A 
ATOM     43  C   UNL     1      -3.615   0.972 -12.837  1.00  0.00     0.010 A 
ATOM     44  C   UNL     1      -4.968   0.595 -12.784  1.00  0.00    -0.014 A 
BRANCH  44  45
ATOM     45  C   UNL     1      -5.325  -0.289 -11.680  1.00  0.00     0.031 A 
ATOM     46  C   UNL     1      -4.885  -1.701 -11.700  1.00  0.00     0.074 A 
ATOM     47  C   UNL     1      -5.902   0.229 -10.574  1.00  0.00     0.049 A 
ATOM     48  N   UNL     1      -5.268  -2.609 -10.869  1.00  0.00    -0.248 NA
ATOM     49  C   UNL     1      -3.991  -2.214 -12.730  1.00  0.00     0.031 C 
ATOM     50  C   UNL     1      -5.927  -0.355  -9.237  1.00  0.00     0.029 A 
ATOM     51  N   UNL     1      -6.778   1.314 -10.494  1.00  0.00    -0.354 N 
ATOM     52  C   UNL     1      -4.473  -3.720 -11.057  1.00  0.00     0.074 A 
ATOM     53  C   UNL     1      -3.752  -3.446 -12.276  1.00  0.00     0.031 C 
ATOM     54  C   UNL     1      -6.924   0.202  -8.534  1.00  0.00     0.029 A 
ATOM     55  C   UNL     1      -7.681   1.034  -9.451  1.00  0.00     0.049 A 
ATOM     56  H   UNL     1      -6.766   2.120 -11.059  1.00  0.00     0.167 HD
ATOM     57  C   UNL     1      -4.429  -4.670 -10.075  1.00  0.00     0.037 A 
ATOM     58  C   UNL     1      -9.017   0.876  -9.698  1.00  0.00     0.037 A 
ATOM     59  C   UNL     1      -5.473  -4.425  -9.075  1.00  0.00     0.049 A 
ATOM     60  C   UNL     1      -9.553  -0.495  -9.352  1.00  0.00     0.074 A 
ATOM     61  C   UNL     1      -5.466  -3.839  -7.820  1.00  0.00     0.029 A 
ATOM     62  N   UNL     1      -6.811  -4.525  -9.451  1.00  0.00    -0.354 N 
ATOM     63  N   UNL     1      -8.807  -1.551  -9.174  1.00  0.00    -0.248 NA
ATOM     64  C   UNL     1     -10.973  -0.785  -9.174  1.00  0.00     0.031 C 
ATOM     65  C   UNL     1      -6.805  -3.516  -7.476  1.00  0.00     0.029 A 
ATOM     66  C   UNL     1      -7.628  -3.927  -8.510  1.00  0.00     0.049 A 
ATOM     67  H   UNL     1      -7.130  -4.961 -10.274  1.00  0.00     0.167 HD
ATOM     68  C   UNL     1      -9.597  -2.636  -8.889  1.00  0.00     0.074 A 
ATOM     69  C   UNL     1     -10.944  -2.096  -8.873  1.00  0.00     0.031 C 
ATOM     70  C   UNL     1      -9.074  -3.885  -8.695  1.00  0.00     0.037 A 
BRANCH  57  71
ATOM     71  C   UNL     1      -3.258  -5.623  -9.866  1.00  0.00     0.058 A 
ATOM     72  C   UNL     1      -2.948  -6.112  -8.575  1.00  0.00     0.135 A 
ATOM     73  C   UNL     1      -2.344  -6.024 -10.861  1.00  0.00     0.135 A 
ATOM     74  F   UNL     1      -3.768  -5.914  -7.534  1.00  0.00    -0.206 F 
ATOM     75  C   UNL     1      -1.776  -6.820  -8.281  1.00  0.00     0.059 A 
ATOM     76  C   UNL     1      -1.141  -6.684 -10.587  1.00  0.00     0.059 A 
ATOM     77  F   UNL     1      -2.600  -5.851 -12.161  1.00  0.00    -0.206 F 
ATOM     78  C   UNL     1      -0.856  -7.067  -9.288  1.00  0.00     0.060 A 
BRANCH  78  79
ATOM     79  S   UNL     1       0.689  -7.904  -8.887  1.00  0.00     0.124 S 
ATOM     80  O   UNL     1       1.250  -7.035  -7.856  1.00  0.00    -0.237 OA
ATOM     81  O   UNL     1       0.221  -9.209  -8.435  1.00  0.00    -0.237 OA
ATOM     82  O   UNL     1       1.414  -7.905 -10.155  1.00  0.00    -0.744 OA
ENDBRANCH  78  79
ENDBRANCH  57  71
BRANCH  58  83
ATOM     83  C   UNL     1      -9.514   1.766 -10.784  1.00  0.00     0.058 A 
ATOM     84  C   UNL     1      -9.526   3.150 -10.523  1.00  0.00     0.135 A 
ATOM     85  C   UNL     1      -9.497   1.358 -12.125  1.00  0.00     0.135 A 
ATOM     86  F   UNL     1      -9.563   3.593  -9.255  1.00  0.00    -0.206 F 
ATOM     87  C   UNL     1      -9.336   4.085 -11.534  1.00  0.00     0.059 A 
ATOM     88  C   UNL     1      -9.320   2.281 -13.158  1.00  0.00     0.059 A 
ATOM     89  F   UNL     1      -9.492   0.053 -12.434  1.00  0.00    -0.206 F 
ATOM     90  C   UNL     1      -9.160   3.631 -12.839  1.00  0.00     0.060 A 
BRANCH  90  91
ATOM     91  S   UNL     1      -8.516   4.806 -14.055  1.00  0.00     0.124 S 
ATOM     92  O   UNL     1      -9.535   5.849 -14.041  1.00  0.00    -0.237 OA
ATOM     93  O   UNL     1      -7.232   5.167 -13.457  1.00  0.00    -0.237 OA
ATOM     94  O   UNL     1      -8.439   4.015 -15.278  1.00  0.00    -0.744 OA
ENDBRANCH  90  91
ENDBRANCH  58  83
BRANCH  70  95
ATOM     95  C   UNL     1      -9.858  -5.176  -8.572  1.00  0.00     0.058 A 
ATOM     96  C   UNL     1     -11.114  -5.401  -9.162  1.00  0.00     0.135 A 
ATOM     97  C   UNL     1      -9.276  -6.307  -7.944  1.00  0.00     0.135 A 
ATOM     98  F   UNL     1     -11.724  -4.455  -9.888  1.00  0.00    -0.206 F 
ATOM     99  C   UNL     1     -11.775  -6.630  -9.077  1.00  0.00     0.059 A 
ATOM    100  C   UNL     1      -9.891  -7.556  -7.899  1.00  0.00     0.059 A 
ATOM    101  F   UNL     1      -8.069  -6.242  -7.361  1.00  0.00    -0.206 F 
ATOM    102  C   UNL     1     -11.156  -7.703  -8.445  1.00  0.00     0.060 A 
BRANCH 102 103
ATOM    103  S   UNL     1     -11.967  -9.312  -8.394  1.00  0.00     0.124 S 
ATOM    104  O   UNL     1     -12.668  -9.245  -7.116  1.00  0.00    -0.237 OA
ATOM    105  O   UNL     1     -12.818  -9.287  -9.581  1.00  0.00    -0.237 OA
ATOM    106  O   UNL     1     -10.848 -10.248  -8.456  1.00  0.00    -0.744 OA
ENDBRANCH 102 103
ENDBRANCH  70  95
ENDBRANCH  44  45
ENDBRANCH  36  39
ENDBRANCH  34  35
ENDBRANCH  33  34
ENDBRANCH  32  33
ENDBRANCH   1  32
TORSDOF 19
