REMARK SMILES C[C@@H]1CC[C@H]([N@@H+](CC(=O)NCCCCCCNC(=O)c2ccc(-c3c4nc(c(-c5c(F)cc(S(=O)(=O)[O-])cc5F)c5ccc([nH]5)c(-c5c(F)cc(S(=O)(=O)[O-])cc5F)c5nc(c(-c6c(F)cc(S(=O)(=O)[O-])cc6F)c6ccc3[nH]6)C=C5)C=C4)cc2)CC(F)(F)F)C[C@@H]1C
REMARK SMILES IDX 13 1 12 2 11 3 10 4 8 5 9 6 7 8 6 9 5 11 1 12 2 13 3 14
REMARK SMILES IDX 92 15 4 16 91 17 93 18 86 19 87 20 88 21 89 22 90 23 14 24
REMARK SMILES IDX 15 25 16 26 17 27 18 28 19 30 20 31 21 32 85 33 22 34 84 35
REMARK SMILES IDX 23 36 24 37 25 38 78 39 26 40 83 41 77 42 79 43 27 44 82 45
REMARK SMILES IDX 76 46 75 47 28 49 62 50 41 51 61 52 42 53 45 54 60 55 80 56
REMARK SMILES IDX 43 57 44 58 59 60 81 61 46 62 29 63 30 64 39 65 31 66 32 67
REMARK SMILES IDX 38 68 40 69 33 70 34 71 35 72 36 73 37 74 63 75 64 76 73 77
REMARK SMILES IDX 65 78 66 79 72 80 74 81 67 82 68 83 69 84 70 85 71 86 47 87
REMARK SMILES IDX 48 88 57 89 49 90 50 91 56 92 58 93 51 94 52 95 53 96 54 97
REMARK SMILES IDX 55 98
REMARK H PARENT 10 7 6 10 17 29 79 48 45 59
REMARK Flexibility Score: inf
ROOT
ATOM      1  C   UNL     1      -1.580   0.810   3.451  1.00  0.00     0.002 C 
ENDROOT
BRANCH   1   2
ATOM      2  C   UNL     1      -2.104  -0.635   3.365  1.00  0.00     0.021 C 
BRANCH   2   3
ATOM      3  C   UNL     1      -3.526  -0.822   2.799  1.00  0.00     0.116 C 
BRANCH   3   4
ATOM      4  N   UNL     1      -3.841  -0.037   1.612  1.00  0.00    -0.351 N 
ATOM      5  C   UNL     1      -4.207  -0.377   0.339  1.00  0.00     0.275 C 
ATOM      6  O   UNL     1      -4.637   0.538  -0.370  1.00  0.00    -0.269 OA
ATOM      7  H   UNL     1      -3.777   0.935   1.755  1.00  0.00     0.163 HD
BRANCH   5   8
ATOM      8  C   UNL     1      -4.054  -1.806  -0.213  1.00  0.00     0.364 C 
BRANCH   8   9
ATOM      9  N   UNL     1      -2.827  -2.046  -1.019  1.00  0.00    -0.317 N 
ATOM     10  H   UNL     1      -2.657  -3.050  -0.953  1.00  0.00     0.349 HD
BRANCH   9  11
ATOM     11  C   UNL     1      -1.615  -1.500  -0.416  1.00  0.00     0.184 C 
ATOM     12  C   UNL     1       1.985  -0.020  -0.878  1.00  0.00     0.008 C 
ATOM     13  C   UNL     1       1.016  -0.302   0.268  1.00  0.00    -0.011 C 
ATOM     14  C   UNL     1       0.746  -1.825   0.391  1.00  0.00     0.010 C 
ATOM     15  C   UNL     1      -0.295   0.507   0.169  1.00  0.00    -0.006 C 
ATOM     16  C   UNL     1      -0.358  -2.375  -0.537  1.00  0.00     0.065 C 
ATOM     17  C   UNL     1      -1.247  -0.083  -0.861  1.00  0.00     0.068 C 
ATOM     18  C   UNL     1      -0.145   2.011  -0.023  1.00  0.00     0.008 C 
ENDBRANCH   9  11
BRANCH   9  19
ATOM     19  C   UNL     1      -2.979  -1.981  -2.490  1.00  0.00     0.379 C 
BRANCH  19  20
ATOM     20  C   UNL     1      -3.318  -0.717  -3.322  1.00  0.00     0.438 C 
ATOM     21  F   UNL     1      -2.305   0.170  -3.382  1.00  0.00    -0.165 F 
ATOM     22  F   UNL     1      -3.567  -1.089  -4.608  1.00  0.00    -0.165 F 
ATOM     23  F   UNL     1      -4.422  -0.083  -2.890  1.00  0.00    -0.165 F 
ENDBRANCH  19  20
ENDBRANCH   9  19
ENDBRANCH   8   9
ENDBRANCH   5   8
ENDBRANCH   3   4
ENDBRANCH   2   3
ENDBRANCH   1   2
BRANCH   1  24
ATOM     24  C   UNL     1      -1.556   1.441   4.840  1.00  0.00     0.002 C 
BRANCH  24  25
ATOM     25  C   UNL     1      -0.525   0.848   5.805  1.00  0.00     0.021 C 
BRANCH  25  26
ATOM     26  C   UNL     1       0.927   0.833   5.324  1.00  0.00     0.116 C 
BRANCH  26  27
ATOM     27  N   UNL     1       1.481   2.161   5.095  1.00  0.00    -0.352 N 
ATOM     28  C   UNL     1       2.676   2.672   5.552  1.00  0.00     0.251 C 
ATOM     29  H   UNL     1       0.935   2.768   4.545  1.00  0.00     0.163 HD
ATOM     30  O   UNL     1       2.979   3.845   5.361  1.00  0.00    -0.269 OA
BRANCH  28  31
ATOM     31  C   UNL     1       3.575   1.781   6.312  1.00  0.00     0.039 A 
ATOM     32  C   UNL     1       3.888   2.101   7.633  1.00  0.00     0.014 A 
ATOM     33  C   UNL     1       4.010   0.580   5.743  1.00  0.00     0.014 A 
ATOM     34  C   UNL     1       4.577   1.172   8.414  1.00  0.00     0.010 A 
ATOM     35  C   UNL     1       4.639  -0.369   6.544  1.00  0.00     0.010 A 
ATOM     36  C   UNL     1       4.921  -0.087   7.889  1.00  0.00    -0.014 A 
BRANCH  36  37
ATOM     37  C   UNL     1       5.546  -1.116   8.759  1.00  0.00     0.031 A 
ATOM     38  C   UNL     1       6.952  -1.583   8.500  1.00  0.00     0.074 A 
ATOM     39  C   UNL     1       4.830  -1.652   9.769  1.00  0.00     0.049 A 
ATOM     40  N   UNL     1       7.680  -2.425   9.188  1.00  0.00    -0.248 NA
ATOM     41  C   UNL     1       7.617  -1.058   7.298  1.00  0.00     0.031 C 
ATOM     42  C   UNL     1       3.429  -1.343  10.069  1.00  0.00     0.029 A 
ATOM     43  N   UNL     1       5.180  -2.561  10.735  1.00  0.00    -0.354 N 
ATOM     44  C   UNL     1       8.886  -2.527   8.506  1.00  0.00     0.074 A 
ATOM     45  C   UNL     1       8.768  -1.715   7.315  1.00  0.00     0.031 C 
ATOM     46  C   UNL     1       3.054  -2.018  11.167  1.00  0.00     0.029 A 
ATOM     47  C   UNL     1       4.177  -2.821  11.640  1.00  0.00     0.049 A 
ATOM     48  H   UNL     1       6.066  -2.988  10.777  1.00  0.00     0.167 HD
ATOM     49  C   UNL     1      10.003  -3.210   8.857  1.00  0.00     0.037 A 
ATOM     50  C   UNL     1       4.171  -3.601  12.739  1.00  0.00     0.037 A 
ATOM     51  C   UNL     1      10.119  -4.003  10.053  1.00  0.00     0.049 A 
ATOM     52  C   UNL     1       5.435  -4.319  13.129  1.00  0.00     0.074 A 
ATOM     53  C   UNL     1      11.223  -4.685  10.533  1.00  0.00     0.029 A 
ATOM     54  N   UNL     1       9.091  -4.223  10.959  1.00  0.00    -0.354 N 
ATOM     55  N   UNL     1       6.597  -4.332  12.521  1.00  0.00    -0.248 NA
ATOM     56  C   UNL     1       5.392  -5.113  14.364  1.00  0.00     0.031 C 
ATOM     57  C   UNL     1      10.852  -5.349  11.708  1.00  0.00     0.029 A 
ATOM     58  C   UNL     1       9.529  -5.044  11.985  1.00  0.00     0.049 A 
ATOM     59  H   UNL     1       8.182  -3.850  10.883  1.00  0.00     0.167 HD
ATOM     60  C   UNL     1       7.430  -5.119  13.308  1.00  0.00     0.074 A 
ATOM     61  C   UNL     1       6.643  -5.543  14.449  1.00  0.00     0.031 C 
ATOM     62  C   UNL     1       8.726  -5.464  13.106  1.00  0.00     0.037 A 
BRANCH  49  63
ATOM     63  C   UNL     1      11.191  -3.112   7.939  1.00  0.00     0.058 A 
ATOM     64  C   UNL     1      11.921  -1.919   7.807  1.00  0.00     0.135 A 
ATOM     65  C   UNL     1      11.620  -4.225   7.198  1.00  0.00     0.135 A 
ATOM     66  F   UNL     1      11.546  -0.819   8.480  1.00  0.00    -0.206 F 
ATOM     67  C   UNL     1      13.013  -1.823   6.950  1.00  0.00     0.059 A 
ATOM     68  C   UNL     1      12.726  -4.159   6.355  1.00  0.00     0.059 A 
ATOM     69  F   UNL     1      10.959  -5.390   7.283  1.00  0.00    -0.206 F 
ATOM     70  C   UNL     1      13.407  -2.949   6.226  1.00  0.00     0.060 A 
BRANCH  70  71
ATOM     71  S   UNL     1      14.826  -2.808   5.120  1.00  0.00     0.124 S 
ATOM     72  O   UNL     1      14.261  -2.032   4.020  1.00  0.00    -0.237 OA
ATOM     73  O   UNL     1      15.803  -2.112   5.951  1.00  0.00    -0.237 OA
ATOM     74  O   UNL     1      15.151  -4.196   4.806  1.00  0.00    -0.744 OA
ENDBRANCH  70  71
ENDBRANCH  49  63
BRANCH  50  75
ATOM     75  C   UNL     1       2.944  -3.704  13.575  1.00  0.00     0.058 A 
ATOM     76  C   UNL     1       2.884  -3.114  14.847  1.00  0.00     0.135 A 
ATOM     77  C   UNL     1       1.805  -4.382  13.116  1.00  0.00     0.135 A 
ATOM     78  F   UNL     1       3.949  -2.458  15.332  1.00  0.00    -0.206 F 
ATOM     79  C   UNL     1       1.747  -3.208  15.643  1.00  0.00     0.059 A 
ATOM     80  C   UNL     1       0.647  -4.469  13.883  1.00  0.00     0.059 A 
ATOM     81  F   UNL     1       1.803  -4.948  11.899  1.00  0.00    -0.206 F 
ATOM     82  C   UNL     1       0.631  -3.887  15.150  1.00  0.00     0.060 A 
BRANCH  82  83
ATOM     83  S   UNL     1      -0.860  -3.959  16.168  1.00  0.00     0.124 S 
ATOM     84  O   UNL     1      -0.479  -4.938  17.179  1.00  0.00    -0.237 OA
ATOM     85  O   UNL     1      -0.985  -2.580  16.628  1.00  0.00    -0.237 OA
ATOM     86  O   UNL     1      -1.887  -4.392  15.224  1.00  0.00    -0.744 OA
ENDBRANCH  82  83
ENDBRANCH  50  75
BRANCH  62  87
ATOM     87  C   UNL     1       9.370  -6.332  14.152  1.00  0.00     0.058 A 
ATOM     88  C   UNL     1       9.024  -7.685  14.300  1.00  0.00     0.135 A 
ATOM     89  C   UNL     1      10.350  -5.808  15.010  1.00  0.00     0.135 A 
ATOM     90  F   UNL     1       8.091  -8.235  13.507  1.00  0.00    -0.206 F 
ATOM     91  C   UNL     1       9.593  -8.475  15.293  1.00  0.00     0.059 A 
ATOM     92  C   UNL     1      10.954  -6.588  15.991  1.00  0.00     0.059 A 
ATOM     93  F   UNL     1      10.729  -4.525  14.900  1.00  0.00    -0.206 F 
ATOM     94  C   UNL     1      10.552  -7.915  16.139  1.00  0.00     0.060 A 
BRANCH  94  95
ATOM     95  S   UNL     1      11.277  -8.946  17.432  1.00  0.00     0.124 S 
ATOM     96  O   UNL     1      10.201  -8.977  18.417  1.00  0.00    -0.237 OA
ATOM     97  O   UNL     1      11.530 -10.200  16.730  1.00  0.00    -0.237 OA
ATOM     98  O   UNL     1      12.470  -8.204  17.826  1.00  0.00    -0.744 OA
ENDBRANCH  94  95
ENDBRANCH  62  87
ENDBRANCH  36  37
ENDBRANCH  28  31
ENDBRANCH  26  27
ENDBRANCH  25  26
ENDBRANCH  24  25
ENDBRANCH   1  24
TORSDOF 20
