REMARK SMILES CCC[NH2+]CC(=O)N1[C@@H](C(=O)NCCCCCCNC(=O)c2ccc(-c3c4nc(c(-c5c(F)cc(S(=O)(=O)[O-])cc5F)c5ccc([nH]5)c(-c5c(F)cc(S(=O)(=O)[O-])cc5F)c5nc(c(-c6c(F)cc(S(=O)(=O)[O-])cc6F)c6ccc3[nH]6)C=C5)C=C4)cc2)CC[C@@H]2CCCC[C@@H]21
REMARK SMILES IDX 14 1 13 2 12 3 10 4 11 5 9 7 8 8 95 9 88 10 90 11 94 12
REMARK SMILES IDX 89 13 91 14 93 15 92 16 6 17 7 18 5 19 4 20 3 23 2 24 1 25
REMARK SMILES IDX 15 26 16 27 17 28 18 29 19 30 20 31 21 33 22 34 23 35 87 36
REMARK SMILES IDX 24 37 86 38 25 39 26 40 27 41 80 42 28 43 85 44 79 45 81 46
REMARK SMILES IDX 29 47 84 48 78 49 77 50 30 52 64 53 43 54 63 55 44 56 47 57
REMARK SMILES IDX 62 58 82 59 45 60 46 61 61 63 83 64 48 65 31 66 32 67 41 68
REMARK SMILES IDX 33 69 34 70 40 71 42 72 35 73 36 74 37 75 38 76 39 77 65 78
REMARK SMILES IDX 66 79 75 80 67 81 68 82 74 83 76 84 69 85 70 86 71 87 72 88
REMARK SMILES IDX 73 89 49 90 50 91 59 92 51 93 52 94 58 95 60 96 53 97 54 98
REMARK SMILES IDX 55 99 56 100 57 101
REMARK H PARENT 12 6 4 21 4 22 19 32 81 51 47 62
REMARK Flexibility Score: inf
ROOT
ATOM      1  C   UNL     1       5.081  -1.332   0.725  1.00  0.00     0.021 C 
ENDROOT
BRANCH   1   2
ATOM      2  C   UNL     1       4.273  -1.889  -0.448  1.00  0.00     0.116 C 
BRANCH   2   3
ATOM      3  N   UNL     1       3.062  -1.101  -0.564  1.00  0.00    -0.354 N 
ATOM      4  C   UNL     1       2.915  -0.019  -1.379  1.00  0.00     0.242 C 
ATOM      5  O   UNL     1       2.425   1.013  -0.914  1.00  0.00    -0.273 OA
ATOM      6  H   UNL     1       2.290  -1.366  -0.014  1.00  0.00     0.163 HD
BRANCH   4   7
ATOM      7  C   UNL     1       3.425  -0.057  -2.823  1.00  0.00     0.175 C 
ATOM      8  N   UNL     1       3.531  -1.375  -3.484  1.00  0.00    -0.323 N 
ATOM      9  C   UNL     1       4.258  -1.408  -4.769  1.00  0.00     0.089 C 
ATOM     10  C   UNL     1       4.792   0.655  -2.753  1.00  0.00     0.036 C 
ATOM     11  C   UNL     1       5.614  -0.706  -4.680  1.00  0.00     0.012 C 
ATOM     12  C   UNL     1       3.354  -0.880  -5.907  1.00  0.00     0.025 C 
ATOM     13  C   UNL     1       5.485   0.705  -4.097  1.00  0.00     0.008 C 
ATOM     14  C   UNL     1       6.273  -0.700  -6.057  1.00  0.00     0.006 C 
ATOM     15  C   UNL     1       3.993  -0.116  -7.072  1.00  0.00     0.002 C 
ATOM     16  C   UNL     1       5.496   0.142  -7.053  1.00  0.00     0.000 C 
BRANCH   8  17
ATOM     17  C   UNL     1       2.692  -2.465  -3.253  1.00  0.00     0.278 C 
ATOM     18  O   UNL     1       3.183  -3.598  -3.186  1.00  0.00    -0.268 OA
BRANCH  17  19
ATOM     19  C   UNL     1       1.161  -2.305  -3.324  1.00  0.00     0.362 C 
BRANCH  19  20
ATOM     20  N   UNL     1       0.510  -1.776  -2.114  1.00  0.00    -0.338 N 
ATOM     21  H   UNL     1      -0.227  -2.421  -1.829  1.00  0.00     0.346 HD
ATOM     22  H   UNL     1       1.222  -1.685  -1.389  1.00  0.00     0.346 HD
BRANCH  20  23
ATOM     23  C   UNL     1      -0.075  -0.460  -2.337  1.00  0.00     0.260 C 
BRANCH  23  24
ATOM     24  C   UNL     1      -0.773   0.197  -1.135  1.00  0.00     0.058 C 
ATOM     25  C   UNL     1      -0.320  -0.188   0.265  1.00  0.00     0.010 C 
ENDBRANCH  23  24
ENDBRANCH  20  23
ENDBRANCH  19  20
ENDBRANCH  17  19
ENDBRANCH   8  17
ENDBRANCH   4   7
ENDBRANCH   2   3
ENDBRANCH   1   2
BRANCH   1  26
ATOM     26  C   UNL     1       4.373  -1.506   2.079  1.00  0.00     0.002 C 
BRANCH  26  27
ATOM     27  C   UNL     1       4.016  -2.957   2.415  1.00  0.00     0.002 C 
BRANCH  27  28
ATOM     28  C   UNL     1       5.199  -3.921   2.329  1.00  0.00     0.021 C 
BRANCH  28  29
ATOM     29  C   UNL     1       6.389  -3.505   3.183  1.00  0.00     0.116 C 
BRANCH  29  30
ATOM     30  N   UNL     1       6.055  -3.497   4.597  1.00  0.00    -0.352 N 
ATOM     31  C   UNL     1       6.719  -4.107   5.631  1.00  0.00     0.251 C 
ATOM     32  H   UNL     1       5.249  -2.988   4.845  1.00  0.00     0.163 HD
ATOM     33  O   UNL     1       6.199  -4.201   6.734  1.00  0.00    -0.269 OA
BRANCH  31  34
ATOM     34  C   UNL     1       8.063  -4.665   5.379  1.00  0.00     0.039 A 
ATOM     35  C   UNL     1       8.350  -5.959   5.813  1.00  0.00     0.014 A 
ATOM     36  C   UNL     1       9.021  -3.918   4.685  1.00  0.00     0.014 A 
ATOM     37  C   UNL     1       9.589  -6.523   5.510  1.00  0.00     0.010 A 
ATOM     38  C   UNL     1      10.221  -4.511   4.314  1.00  0.00     0.010 A 
ATOM     39  C   UNL     1      10.522  -5.816   4.733  1.00  0.00    -0.014 A 
BRANCH  39  40
ATOM     40  C   UNL     1      11.817  -6.429   4.347  1.00  0.00     0.031 A 
ATOM     41  C   UNL     1      13.111  -5.824   4.816  1.00  0.00     0.074 A 
ATOM     42  C   UNL     1      11.827  -7.491   3.518  1.00  0.00     0.049 A 
ATOM     43  N   UNL     1      14.338  -6.189   4.549  1.00  0.00    -0.248 NA
ATOM     44  C   UNL     1      13.013  -4.631   5.673  1.00  0.00     0.031 C 
ATOM     45  C   UNL     1      10.638  -8.124   2.943  1.00  0.00     0.029 A 
ATOM     46  N   UNL     1      12.871  -8.216   3.001  1.00  0.00    -0.354 N 
ATOM     47  C   UNL     1      15.156  -5.263   5.186  1.00  0.00     0.074 A 
ATOM     48  C   UNL     1      14.286  -4.289   5.807  1.00  0.00     0.031 C 
ATOM     49  C   UNL     1      11.018  -9.150   2.167  1.00  0.00     0.029 A 
ATOM     50  C   UNL     1      12.476  -9.225   2.155  1.00  0.00     0.049 A 
ATOM     51  H   UNL     1      13.814  -8.030   3.216  1.00  0.00     0.167 HD
ATOM     52  C   UNL     1      16.508  -5.239   5.261  1.00  0.00     0.037 A 
ATOM     53  C   UNL     1      13.205 -10.103   1.439  1.00  0.00     0.037 A 
ATOM     54  C   UNL     1      17.362  -6.226   4.652  1.00  0.00     0.049 A 
ATOM     55  C   UNL     1      14.703 -10.073   1.550  1.00  0.00     0.074 A 
ATOM     56  C   UNL     1      18.738  -6.344   4.740  1.00  0.00     0.029 A 
ATOM     57  N   UNL     1      16.925  -7.255   3.828  1.00  0.00    -0.354 N 
ATOM     58  N   UNL     1      15.461  -9.250   2.237  1.00  0.00    -0.248 NA
ATOM     59  C   UNL     1      15.447 -11.093   0.801  1.00  0.00     0.031 C 
ATOM     60  C   UNL     1      19.138  -7.404   3.918  1.00  0.00     0.029 A 
ATOM     61  C   UNL     1      18.007  -7.989   3.370  1.00  0.00     0.049 A 
ATOM     62  H   UNL     1      15.984  -7.436   3.603  1.00  0.00     0.167 HD
ATOM     63  C   UNL     1      16.770  -9.663   2.016  1.00  0.00     0.074 A 
ATOM     64  C   UNL     1      16.699 -10.820   1.146  1.00  0.00     0.031 C 
ATOM     65  C   UNL     1      17.924  -9.133   2.494  1.00  0.00     0.037 A 
BRANCH  52  66
ATOM     66  C   UNL     1      17.144  -4.098   6.011  1.00  0.00     0.058 A 
ATOM     67  C   UNL     1      17.006  -3.949   7.401  1.00  0.00     0.135 A 
ATOM     68  C   UNL     1      17.910  -3.139   5.327  1.00  0.00     0.135 A 
ATOM     69  F   UNL     1      16.276  -4.828   8.107  1.00  0.00    -0.206 F 
ATOM     70  C   UNL     1      17.561  -2.867   8.077  1.00  0.00     0.059 A 
ATOM     71  C   UNL     1      18.504  -2.068   5.988  1.00  0.00     0.059 A 
ATOM     72  F   UNL     1      18.080  -3.231   3.998  1.00  0.00    -0.206 F 
ATOM     73  C   UNL     1      18.304  -1.928   7.360  1.00  0.00     0.060 A 
BRANCH  73  74
ATOM     74  S   UNL     1      18.996  -0.516   8.246  1.00  0.00     0.124 S 
ATOM     75  O   UNL     1      17.797   0.272   8.517  1.00  0.00    -0.237 OA
ATOM     76  O   UNL     1      19.613  -1.148   9.408  1.00  0.00    -0.237 OA
ATOM     77  O   UNL     1      19.926   0.068   7.285  1.00  0.00    -0.744 OA
ENDBRANCH  73  74
ENDBRANCH  52  66
BRANCH  53  78
ATOM     78  C   UNL     1      12.508 -11.086   0.568  1.00  0.00     0.058 A 
ATOM     79  C   UNL     1      12.451 -12.446   0.906  1.00  0.00     0.135 A 
ATOM     80  C   UNL     1      11.830 -10.671  -0.590  1.00  0.00     0.135 A 
ATOM     81  F   UNL     1      13.089 -12.893   1.998  1.00  0.00    -0.206 F 
ATOM     82  C   UNL     1      11.744 -13.360   0.130  1.00  0.00     0.059 A 
ATOM     83  C   UNL     1      11.095 -11.561  -1.367  1.00  0.00     0.059 A 
ATOM     84  F   UNL     1      11.841  -9.377  -0.948  1.00  0.00    -0.206 F 
ATOM     85  C   UNL     1      11.060 -12.905  -0.999  1.00  0.00     0.060 A 
BRANCH  85  86
ATOM     86  S   UNL     1      10.073 -14.084  -1.946  1.00  0.00     0.124 S 
ATOM     87  O   UNL     1      11.108 -14.886  -2.588  1.00  0.00    -0.237 OA
ATOM     88  O   UNL     1       9.306 -14.750  -0.898  1.00  0.00    -0.237 OA
ATOM     89  O   UNL     1       9.292 -13.230  -2.837  1.00  0.00    -0.744 OA
ENDBRANCH  85  86
ENDBRANCH  53  78
BRANCH  65  90
ATOM     90  C   UNL     1      19.212  -9.809   2.103  1.00  0.00     0.058 A 
ATOM     91  C   UNL     1      19.722  -9.729   0.798  1.00  0.00     0.135 A 
ATOM     92  C   UNL     1      19.973 -10.496   3.062  1.00  0.00     0.135 A 
ATOM     93  F   UNL     1      19.033  -9.089  -0.161  1.00  0.00    -0.206 F 
ATOM     94  C   UNL     1      20.931 -10.326   0.452  1.00  0.00     0.059 A 
ATOM     95  C   UNL     1      21.198 -11.074   2.747  1.00  0.00     0.059 A 
ATOM     96  F   UNL     1      19.537 -10.595   4.328  1.00  0.00    -0.206 F 
ATOM     97  C   UNL     1      21.663 -10.994   1.435  1.00  0.00     0.060 A 
BRANCH  97  98
ATOM     98  S   UNL     1      23.246 -11.734   0.981  1.00  0.00     0.124 S 
ATOM     99  O   UNL     1      22.818 -12.879   0.184  1.00  0.00    -0.237 OA
ATOM    100  O   UNL     1      23.895 -10.655   0.244  1.00  0.00    -0.237 OA
ATOM    101  O   UNL     1      23.852 -12.059   2.269  1.00  0.00    -0.744 OA
ENDBRANCH  97  98
ENDBRANCH  65  90
ENDBRANCH  39  40
ENDBRANCH  31  34
ENDBRANCH  29  30
ENDBRANCH  28  29
ENDBRANCH  27  28
ENDBRANCH  26  27
ENDBRANCH   1  26
TORSDOF 21
