REMARK SMILES CN1C(=O)N(CC(=O)NCCCCCCNC(=O)c2ccc(-c3c4nc(c(-c5c(F)cc(S(=O)(=O)[O-])cc5F)c5ccc([nH]5)c(-c5c(F)cc(S(=O)(=O)[O-])cc5F)c5nc(c(-c6c(F)cc(S(=O)(=O)[O-])cc6F)c6ccc3[nH]6)C=C5)C=C4)cc2)C(=O)C12CCCCC2
REMARK SMILES IDX 13 1 12 2 11 3 10 4 9 5 7 6 8 7 6 9 5 10 1 11 2 12 3 13
REMARK SMILES IDX 87 14 4 15 85 16 88 17 92 18 86 19 89 20 91 21 90 22 14 23
REMARK SMILES IDX 15 24 16 25 17 26 18 28 19 29 20 30 84 31 21 32 83 33 22 34
REMARK SMILES IDX 23 35 24 36 77 37 25 38 82 39 76 40 78 41 26 42 81 43 75 44
REMARK SMILES IDX 74 45 27 47 61 48 40 49 60 50 41 51 44 52 59 53 79 54 42 55
REMARK SMILES IDX 43 56 58 58 80 59 45 60 28 61 29 62 38 63 30 64 31 65 37 66
REMARK SMILES IDX 39 67 32 68 33 69 34 70 35 71 36 72 62 73 63 74 72 75 64 76
REMARK SMILES IDX 65 77 71 78 73 79 66 80 67 81 68 82 69 83 70 84 46 85 47 86
REMARK SMILES IDX 56 87 48 88 49 89 55 90 57 91 50 92 51 93 52 94 53 95 54 96
REMARK H PARENT 9 8 16 27 78 46 44 57
REMARK Flexibility Score: inf
ROOT
ATOM      1  C   UNL     1       6.335   1.032   4.041  1.00  0.00     0.002 C 
ENDROOT
BRANCH   1   2
ATOM      2  C   UNL     1       5.383   1.531   2.945  1.00  0.00     0.002 C 
BRANCH   2   3
ATOM      3  C   UNL     1       3.942   1.036   3.064  1.00  0.00     0.021 C 
BRANCH   3   4
ATOM      4  C   UNL     1       3.145   1.543   4.264  1.00  0.00     0.116 C 
BRANCH   4   5
ATOM      5  N   UNL     1       2.573   2.850   4.019  1.00  0.00    -0.355 N 
ATOM      6  C   UNL     1       1.272   3.256   3.950  1.00  0.00     0.240 C 
ATOM      7  O   UNL     1       1.072   4.476   3.989  1.00  0.00    -0.273 OA
ATOM      8  H   UNL     1       3.233   3.567   3.877  1.00  0.00     0.163 HD
BRANCH   6   9
ATOM      9  C   UNL     1       0.089   2.280   4.020  1.00  0.00     0.230 C 
BRANCH   9  10
ATOM     10  N   UNL     1       0.169   1.142   3.130  1.00  0.00    -0.253 N 
ATOM     11  C   UNL     1       0.474  -0.256  -0.168  1.00  0.00     0.150 C 
ATOM     12  N   UNL     1       0.195  -0.027   1.234  1.00  0.00    -0.313 N 
ATOM     13  C   UNL     1       0.189   1.254   1.773  1.00  0.00     0.327 C 
ATOM     14  C   UNL     1       0.250  -1.071   2.264  1.00  0.00     0.124 C 
ATOM     15  O   UNL     1       0.218   2.291   1.140  1.00  0.00    -0.248 OA
ATOM     16  C   UNL     1       0.000  -0.163   3.496  1.00  0.00     0.257 C 
ATOM     17  C   UNL     1      -0.802  -2.171   2.093  1.00  0.00     0.039 C 
ATOM     18  C   UNL     1       1.658  -1.664   2.354  1.00  0.00     0.039 C 
ATOM     19  O   UNL     1      -0.235  -0.548   4.633  1.00  0.00    -0.272 OA
ATOM     20  C   UNL     1      -0.636  -3.336   3.079  1.00  0.00     0.003 C 
ATOM     21  C   UNL     1       1.791  -2.740   3.422  1.00  0.00     0.003 C 
ATOM     22  C   UNL     1       0.797  -3.859   3.162  1.00  0.00     0.000 C 
ENDBRANCH   9  10
ENDBRANCH   6   9
ENDBRANCH   4   5
ENDBRANCH   3   4
ENDBRANCH   2   3
ENDBRANCH   1   2
BRANCH   1  23
ATOM     23  C   UNL     1       6.300  -0.470   4.360  1.00  0.00     0.021 C 
BRANCH  23  24
ATOM     24  C   UNL     1       6.509  -1.423   3.181  1.00  0.00     0.116 C 
BRANCH  24  25
ATOM     25  N   UNL     1       7.804  -1.251   2.551  1.00  0.00    -0.352 N 
ATOM     26  C   UNL     1       8.851  -2.128   2.410  1.00  0.00     0.251 C 
ATOM     27  H   UNL     1       7.958  -0.360   2.162  1.00  0.00     0.163 HD
ATOM     28  O   UNL     1       9.930  -1.705   2.003  1.00  0.00    -0.269 OA
BRANCH  26  29
ATOM     29  C   UNL     1       8.710  -3.565   2.749  1.00  0.00     0.039 A 
ATOM     30  C   UNL     1       9.772  -4.201   3.400  1.00  0.00     0.014 A 
ATOM     31  C   UNL     1       7.588  -4.310   2.370  1.00  0.00     0.014 A 
ATOM     32  C   UNL     1       9.695  -5.564   3.705  1.00  0.00     0.010 A 
ATOM     33  C   UNL     1       7.488  -5.658   2.728  1.00  0.00     0.010 A 
ATOM     34  C   UNL     1       8.544  -6.303   3.389  1.00  0.00    -0.014 A 
BRANCH  34  35
ATOM     35  C   UNL     1       8.448  -7.747   3.735  1.00  0.00     0.031 A 
ATOM     36  C   UNL     1       8.382  -8.791   2.650  1.00  0.00     0.074 A 
ATOM     37  C   UNL     1       8.388  -8.123   5.028  1.00  0.00     0.049 A 
ATOM     38  N   UNL     1       8.270 -10.091   2.759  1.00  0.00    -0.248 NA
ATOM     39  C   UNL     1       8.428  -8.309   1.261  1.00  0.00     0.031 C 
ATOM     40  C   UNL     1       8.402  -7.211   6.174  1.00  0.00     0.029 A 
ATOM     41  N   UNL     1       8.298  -9.369   5.599  1.00  0.00    -0.354 N 
ATOM     42  C   UNL     1       8.220 -10.580   1.458  1.00  0.00     0.074 A 
ATOM     43  C   UNL     1       8.265  -9.433   0.577  1.00  0.00     0.031 C 
ATOM     44  C   UNL     1       8.346  -7.928   7.308  1.00  0.00     0.029 A 
ATOM     45  C   UNL     1       8.261  -9.347   6.973  1.00  0.00     0.049 A 
ATOM     46  H   UNL     1       8.264 -10.200   5.073  1.00  0.00     0.167 HD
ATOM     47  C   UNL     1       8.164 -11.866   1.035  1.00  0.00     0.037 A 
ATOM     48  C   UNL     1       8.167 -10.353   7.865  1.00  0.00     0.037 A 
ATOM     49  C   UNL     1       8.148 -13.008   1.913  1.00  0.00     0.049 A 
ATOM     50  C   UNL     1       8.109 -11.774   7.371  1.00  0.00     0.074 A 
ATOM     51  C   UNL     1       8.153 -14.352   1.578  1.00  0.00     0.029 A 
ATOM     52  N   UNL     1       8.125 -12.944   3.298  1.00  0.00    -0.354 N 
ATOM     53  N   UNL     1       8.125 -12.218   6.137  1.00  0.00    -0.248 NA
ATOM     54  C   UNL     1       8.028 -12.829   8.390  1.00  0.00     0.031 C 
ATOM     55  C   UNL     1       8.091 -15.099   2.759  1.00  0.00     0.029 A 
ATOM     56  C   UNL     1       8.094 -14.222   3.832  1.00  0.00     0.049 A 
ATOM     57  H   UNL     1       8.129 -12.112   3.825  1.00  0.00     0.167 HD
ATOM     58  C   UNL     1       8.081 -13.605   6.233  1.00  0.00     0.074 A 
ATOM     59  C   UNL     1       8.051 -13.926   7.645  1.00  0.00     0.031 C 
ATOM     60  C   UNL     1       8.068 -14.529   5.240  1.00  0.00     0.037 A 
BRANCH  47  61
ATOM     61  C   UNL     1       8.121 -12.111  -0.450  1.00  0.00     0.058 A 
ATOM     62  C   UNL     1       9.242 -11.887  -1.266  1.00  0.00     0.135 A 
ATOM     63  C   UNL     1       6.958 -12.608  -1.059  1.00  0.00     0.135 A 
ATOM     64  F   UNL     1      10.377 -11.401  -0.738  1.00  0.00    -0.206 F 
ATOM     65  C   UNL     1       9.201 -12.116  -2.637  1.00  0.00     0.059 A 
ATOM     66  C   UNL     1       6.903 -12.870  -2.426  1.00  0.00     0.059 A 
ATOM     67  F   UNL     1       5.858 -12.843  -0.327  1.00  0.00    -0.206 F 
ATOM     68  C   UNL     1       8.025 -12.604  -3.209  1.00  0.00     0.060 A 
BRANCH  68  69
ATOM     69  S   UNL     1       7.986 -12.890  -4.991  1.00  0.00     0.124 S 
ATOM     70  O   UNL     1       7.912 -11.525  -5.502  1.00  0.00    -0.237 OA
ATOM     71  O   UNL     1       9.247 -13.586  -5.225  1.00  0.00    -0.237 OA
ATOM     72  O   UNL     1       6.784 -13.696  -5.180  1.00  0.00    -0.744 OA
ENDBRANCH  68  69
ENDBRANCH  47  61
BRANCH  48  73
ATOM     73  C   UNL     1       8.145 -10.054   9.322  1.00  0.00     0.058 A 
ATOM     74  C   UNL     1       9.242 -10.367  10.138  1.00  0.00     0.135 A 
ATOM     75  C   UNL     1       7.035  -9.444   9.924  1.00  0.00     0.135 A 
ATOM     76  F   UNL     1      10.324 -10.958   9.609  1.00  0.00    -0.206 F 
ATOM     77  C   UNL     1       9.235 -10.100  11.503  1.00  0.00     0.059 A 
ATOM     78  C   UNL     1       7.013  -9.145  11.283  1.00  0.00     0.059 A 
ATOM     79  F   UNL     1       5.966  -9.110   9.184  1.00  0.00    -0.206 F 
ATOM     80  C   UNL     1       8.114  -9.487  12.066  1.00  0.00     0.060 A 
BRANCH  80  81
ATOM     81  S   UNL     1       8.133  -9.100  13.831  1.00  0.00     0.124 S 
ATOM     82  O   UNL     1       7.941 -10.419  14.422  1.00  0.00    -0.237 OA
ATOM     83  O   UNL     1       9.456  -8.509  14.002  1.00  0.00    -0.237 OA
ATOM     84  O   UNL     1       7.017  -8.171  13.980  1.00  0.00    -0.744 OA
ENDBRANCH  80  81
ENDBRANCH  48  73
BRANCH  60  85
ATOM     85  C   UNL     1       8.046 -15.977   5.644  1.00  0.00     0.058 A 
ATOM     86  C   UNL     1       6.892 -16.579   6.168  1.00  0.00     0.135 A 
ATOM     87  C   UNL     1       9.181 -16.785   5.460  1.00  0.00     0.135 A 
ATOM     88  F   UNL     1       5.782 -15.850   6.370  1.00  0.00    -0.206 F 
ATOM     89  C   UNL     1       6.869 -17.925   6.518  1.00  0.00     0.059 A 
ATOM     90  C   UNL     1       9.173 -18.139   5.779  1.00  0.00     0.059 A 
ATOM     91  F   UNL     1      10.308 -16.261   4.952  1.00  0.00    -0.206 F 
ATOM     92  C   UNL     1       8.015 -18.698   6.319  1.00  0.00     0.060 A 
BRANCH  92  93
ATOM     93  S   UNL     1       7.964 -20.451   6.747  1.00  0.00     0.124 S 
ATOM     94  O   UNL     1       8.038 -20.401   8.203  1.00  0.00    -0.237 OA
ATOM     95  O   UNL     1       6.681 -20.872   6.191  1.00  0.00    -0.237 OA
ATOM     96  O   UNL     1       9.139 -20.999   6.076  1.00  0.00    -0.744 OA
ENDBRANCH  92  93
ENDBRANCH  60  85
ENDBRANCH  34  35
ENDBRANCH  26  29
ENDBRANCH  24  25
ENDBRANCH  23  24
ENDBRANCH   1  23
TORSDOF 17
