REMARK SMILES Cc1ccccc1C(=O)Nc1ccc(N2CCCCC2)cc1C(=O)NCCCCCCNC(=O)c1ccc(-c2c3nc(c(-c4c(F)cc(S(=O)(=O)[O-])cc4F)c4ccc([nH]4)c(-c4c(F)cc(S(=O)(=O)[O-])cc4F)c4nc(c(-c5c(F)cc(S(=O)(=O)[O-])cc5F)c5ccc2[nH]5)C=C4)C=C3)cc1
REMARK SMILES IDX 29 1 28 2 27 3 26 4 25 5 23 6 24 7 22 9 11 10 12 11 13 12
REMARK SMILES IDX 21 13 14 14 10 15 8 16 9 17 7 19 1 20 2 21 3 22 4 23 6 24
REMARK SMILES IDX 5 25 15 26 16 27 20 28 17 29 19 30 18 31 30 32 31 33 32 34
REMARK SMILES IDX 33 35 34 37 35 38 36 39 100 40 37 41 99 42 38 43 39 44 40 45
REMARK SMILES IDX 93 46 41 47 98 48 92 49 94 50 42 51 97 52 91 53 90 54 43 56
REMARK SMILES IDX 77 57 56 58 76 59 57 60 60 61 75 62 95 63 58 64 59 65 74 67
REMARK SMILES IDX 96 68 61 69 44 70 45 71 54 72 46 73 47 74 53 75 55 76 48 77
REMARK SMILES IDX 49 78 50 79 51 80 52 81 78 82 79 83 88 84 80 85 81 86 87 87
REMARK SMILES IDX 89 88 82 89 83 90 84 91 85 92 86 93 62 94 63 95 72 96 64 97
REMARK SMILES IDX 65 98 71 99 73 100 66 101 67 102 68 103 69 104 70 105
REMARK H PARENT 25 8 10 18 32 36 94 55 60 66
REMARK Flexibility Score: inf
ROOT
ATOM      1  C   UNL     1       0.338  -2.981  -5.155  1.00  0.00     0.002 C 
ENDROOT
BRANCH   1   2
ATOM      2  C   UNL     1      -0.346  -2.916  -3.785  1.00  0.00     0.002 C 
BRANCH   2   3
ATOM      3  C   UNL     1       0.536  -3.016  -2.538  1.00  0.00     0.021 C 
BRANCH   3   4
ATOM      4  C   UNL     1       1.761  -2.109  -2.451  1.00  0.00     0.116 C 
BRANCH   4   5
ATOM      5  N   UNL     1       1.518  -0.700  -2.699  1.00  0.00    -0.352 N 
ATOM      6  C   UNL     1       2.178   0.413  -2.225  1.00  0.00     0.253 C 
ATOM      7  O   UNL     1       1.862   1.520  -2.659  1.00  0.00    -0.269 OA
ATOM      8  H   UNL     1       0.762  -0.509  -3.300  1.00  0.00     0.163 HD
BRANCH   6   9
ATOM      9  C   UNL     1       3.263   0.312  -1.211  1.00  0.00     0.065 A 
ATOM     10  C   UNL     1       3.387   1.250  -0.169  1.00  0.00     0.054 A 
ATOM     11  C   UNL     1       4.528   1.220   0.645  1.00  0.00     0.029 A 
ATOM     12  C   UNL     1       5.431   0.167   0.555  1.00  0.00     0.028 A 
ATOM     13  C   UNL     1       4.264  -0.670  -1.360  1.00  0.00     0.042 A 
ATOM     14  C   UNL     1       5.284  -0.825  -0.416  1.00  0.00     0.038 A 
BRANCH  10  15
ATOM     15  N   UNL     1       2.454   2.222   0.224  1.00  0.00    -0.321 N 
ATOM     16  C   UNL     1       1.086   2.224   0.321  1.00  0.00     0.255 C 
ATOM     17  O   UNL     1       0.539   3.295   0.605  1.00  0.00    -0.269 OA
ATOM     18  H   UNL     1       2.866   3.078   0.483  1.00  0.00     0.170 HD
BRANCH  16  19
ATOM     19  C   UNL     1       0.231   1.007   0.238  1.00  0.00     0.043 A 
ATOM     20  C   UNL     1       1.655  -0.523   1.758  1.00  0.00     0.045 C 
ATOM     21  C   UNL     1       0.462  -0.216   0.901  1.00  0.00    -0.038 A 
ATOM     22  C   UNL     1      -0.501  -1.239   0.780  1.00  0.00     0.004 A 
ATOM     23  C   UNL     1      -1.696  -1.036   0.091  1.00  0.00     0.000 A 
ATOM     24  C   UNL     1      -0.989   1.200  -0.439  1.00  0.00     0.014 A 
ATOM     25  C   UNL     1      -1.947   0.190  -0.508  1.00  0.00     0.001 A 
ENDBRANCH  16  19
ENDBRANCH  10  15
BRANCH  14  26
ATOM     26  N   UNL     1       6.096  -1.952  -0.344  1.00  0.00    -0.372 N 
ATOM     27  C   UNL     1       5.754  -2.859   0.766  1.00  0.00     0.116 C 
ATOM     28  C   UNL     1       6.557  -2.612  -1.563  1.00  0.00     0.116 C 
ATOM     29  C   UNL     1       6.970  -3.703   1.133  1.00  0.00     0.021 C 
ATOM     30  C   UNL     1       7.803  -3.437  -1.232  1.00  0.00     0.021 C 
ATOM     31  C   UNL     1       7.543  -4.418  -0.089  1.00  0.00     0.004 C 
ENDBRANCH  14  26
ENDBRANCH   6   9
ENDBRANCH   4   5
ENDBRANCH   3   4
ENDBRANCH   2   3
ENDBRANCH   1   2
BRANCH   1  32
ATOM     32  C   UNL     1       1.325  -4.123  -5.380  1.00  0.00     0.021 C 
BRANCH  32  33
ATOM     33  C   UNL     1       0.718  -5.520  -5.299  1.00  0.00     0.116 C 
BRANCH  33  34
ATOM     34  N   UNL     1       0.634  -6.184  -6.594  1.00  0.00    -0.352 N 
ATOM     35  C   UNL     1       0.390  -7.527  -6.850  1.00  0.00     0.251 C 
ATOM     36  H   UNL     1       0.767  -5.611  -7.383  1.00  0.00     0.163 HD
ATOM     37  O   UNL     1       0.451  -8.002  -7.963  1.00  0.00    -0.269 OA
BRANCH  35  38
ATOM     38  C   UNL     1      -0.026  -8.353  -5.695  1.00  0.00     0.039 A 
ATOM     39  C   UNL     1      -1.365  -8.750  -5.631  1.00  0.00     0.014 A 
ATOM     40  C   UNL     1       0.818  -8.475  -4.595  1.00  0.00     0.014 A 
ATOM     41  C   UNL     1      -1.914  -9.087  -4.396  1.00  0.00     0.010 A 
ATOM     42  C   UNL     1       0.252  -8.723  -3.358  1.00  0.00     0.010 A 
ATOM     43  C   UNL     1      -1.126  -8.965  -3.250  1.00  0.00    -0.014 A 
BRANCH  43  44
ATOM     44  C   UNL     1      -1.674  -8.965  -1.895  1.00  0.00     0.031 A 
ATOM     45  C   UNL     1      -1.440 -10.127  -0.999  1.00  0.00     0.074 A 
ATOM     46  C   UNL     1      -2.348  -7.885  -1.432  1.00  0.00     0.049 A 
ATOM     47  N   UNL     1      -2.110 -10.359   0.081  1.00  0.00    -0.248 NA
ATOM     48  C   UNL     1      -0.480 -11.186  -1.303  1.00  0.00     0.031 C 
ATOM     49  C   UNL     1      -2.683  -7.599  -0.038  1.00  0.00     0.029 A 
ATOM     50  N   UNL     1      -3.074  -6.925  -2.147  1.00  0.00    -0.354 N 
ATOM     51  C   UNL     1      -1.492 -11.389   0.752  1.00  0.00     0.074 A 
ATOM     52  C   UNL     1      -0.583 -11.952  -0.212  1.00  0.00     0.031 C 
ATOM     53  C   UNL     1      -3.749  -6.787  -0.009  1.00  0.00     0.029 A 
ATOM     54  C   UNL     1      -4.216  -6.647  -1.377  1.00  0.00     0.049 A 
ATOM     55  H   UNL     1      -2.832  -6.525  -3.014  1.00  0.00     0.167 HD
ATOM     56  C   UNL     1      -1.732 -11.547   2.086  1.00  0.00     0.037 A 
ATOM     57  C   UNL     1      -5.506  -6.845  -1.780  1.00  0.00     0.037 A 
ATOM     58  C   UNL     1      -2.916 -10.783   2.487  1.00  0.00     0.049 A 
ATOM     59  C   UNL     1      -6.298  -7.742  -0.853  1.00  0.00     0.074 A 
ATOM     60  C   UNL     1      -3.099  -9.607   3.193  1.00  0.00     0.029 A 
ATOM     61  N   UNL     1      -4.152 -11.106   1.931  1.00  0.00    -0.354 N 
ATOM     62  N   UNL     1      -5.758  -8.493   0.068  1.00  0.00    -0.248 NA
ATOM     63  C   UNL     1      -7.749  -7.902  -0.916  1.00  0.00     0.031 C 
ATOM     64  C   UNL     1      -4.433  -9.169   2.967  1.00  0.00     0.029 A 
ATOM     65  C   UNL     1      -5.070 -10.101   2.163  1.00  0.00     0.049 A 
ATOM     66  H   UNL     1      -4.344 -11.937   1.439  1.00  0.00     0.167 HD
ATOM     67  C   UNL     1      -6.726  -9.251   0.673  1.00  0.00     0.074 A 
ATOM     68  C   UNL     1      -7.961  -8.819   0.045  1.00  0.00     0.031 C 
ATOM     69  C   UNL     1      -6.423 -10.186   1.623  1.00  0.00     0.037 A 
BRANCH  56  70
ATOM     70  C   UNL     1      -0.792 -12.211   3.092  1.00  0.00     0.058 A 
ATOM     71  C   UNL     1      -1.105 -12.204   4.474  1.00  0.00     0.135 A 
ATOM     72  C   UNL     1       0.487 -12.738   2.801  1.00  0.00     0.135 A 
ATOM     73  F   UNL     1      -2.285 -11.745   4.916  1.00  0.00    -0.206 F 
ATOM     74  C   UNL     1      -0.214 -12.629   5.470  1.00  0.00     0.059 A 
ATOM     75  C   UNL     1       1.376 -13.204   3.774  1.00  0.00     0.059 A 
ATOM     76  F   UNL     1       0.986 -12.782   1.564  1.00  0.00    -0.206 F 
ATOM     77  C   UNL     1       1.034 -13.116   5.111  1.00  0.00     0.060 A 
BRANCH  77  78
ATOM     78  S   UNL     1       2.217 -13.598   6.383  1.00  0.00     0.124 S 
ATOM     79  O   UNL     1       2.569 -12.309   6.968  1.00  0.00    -0.237 OA
ATOM     80  O   UNL     1       1.427 -14.488   7.226  1.00  0.00    -0.237 OA
ATOM     81  O   UNL     1       3.284 -14.248   5.626  1.00  0.00    -0.744 OA
ENDBRANCH  77  78
ENDBRANCH  56  70
BRANCH  57  82
ATOM     82  C   UNL     1      -5.729  -6.728  -3.242  1.00  0.00     0.058 A 
ATOM     83  C   UNL     1      -5.669  -5.444  -3.811  1.00  0.00     0.135 A 
ATOM     84  C   UNL     1      -5.551  -7.830  -4.090  1.00  0.00     0.135 A 
ATOM     85  F   UNL     1      -5.874  -4.360  -3.046  1.00  0.00    -0.206 F 
ATOM     86  C   UNL     1      -5.259  -5.253  -5.125  1.00  0.00     0.059 A 
ATOM     87  C   UNL     1      -5.144  -7.661  -5.413  1.00  0.00     0.059 A 
ATOM     88  F   UNL     1      -5.593  -9.076  -3.596  1.00  0.00    -0.206 F 
ATOM     89  C   UNL     1      -4.924  -6.368  -5.890  1.00  0.00     0.060 A 
BRANCH  89  90
ATOM     90  S   UNL     1      -3.989  -6.094  -7.414  1.00  0.00     0.124 S 
ATOM     91  O   UNL     1      -4.886  -5.229  -8.171  1.00  0.00    -0.237 OA
ATOM     92  O   UNL     1      -2.779  -5.460  -6.894  1.00  0.00    -0.237 OA
ATOM     93  O   UNL     1      -3.813  -7.443  -7.939  1.00  0.00    -0.744 OA
ENDBRANCH  89  90
ENDBRANCH  57  82
BRANCH  69  94
ATOM     94  C   UNL     1      -7.385 -11.208   2.187  1.00  0.00     0.058 A 
ATOM     95  C   UNL     1      -8.464 -11.755   1.470  1.00  0.00     0.135 A 
ATOM     96  C   UNL     1      -7.158 -11.774   3.465  1.00  0.00     0.135 A 
ATOM     97  F   UNL     1      -8.710 -11.398   0.201  1.00  0.00    -0.206 F 
ATOM     98  C   UNL     1      -9.309 -12.729   2.010  1.00  0.00     0.059 A 
ATOM     99  C   UNL     1      -7.955 -12.784   4.001  1.00  0.00     0.059 A 
ATOM    100  F   UNL     1      -6.138 -11.368   4.236  1.00  0.00    -0.206 F 
ATOM    101  C   UNL     1      -9.051 -13.234   3.279  1.00  0.00     0.060 A 
BRANCH 101 102
ATOM    102  S   UNL     1     -10.107 -14.522   3.971  1.00  0.00     0.124 S 
ATOM    103  O   UNL     1     -11.066 -13.732   4.737  1.00  0.00    -0.237 OA
ATOM    104  O   UNL     1     -10.642 -15.181   2.783  1.00  0.00    -0.237 OA
ATOM    105  O   UNL     1      -9.175 -15.325   4.757  1.00  0.00    -0.744 OA
ENDBRANCH 101 102
ENDBRANCH  69  94
ENDBRANCH  43  44
ENDBRANCH  35  38
ENDBRANCH  33  34
ENDBRANCH  32  33
ENDBRANCH   1  32
TORSDOF 19
