REMARK SMILES Cc1c(C[NH2+]C[C@@H]2CCCO2)c(C(=O)NCCCCCCNC(=O)c2ccc(-c3c4nc(c(-c5c(F)cc(S(=O)(=O)[O-])cc5F)c5ccc([nH]5)c(-c5c(F)cc(S(=O)(=O)[O-])cc5F)c5nc(c(-c6c(F)cc(S(=O)(=O)[O-])cc6F)c6ccc3[nH]6)C=C5)C=C4)cc2)c(C)n1Cc1ccc(F)cc1
REMARK SMILES IDX 18 1 17 2 16 3 15 4 13 5 14 6 12 8 1 9 2 10 3 11 93 12 91 13
REMARK SMILES IDX 92 14 4 15 5 16 6 19 7 20 8 21 11 22 9 23 10 24 94 25 95 26
REMARK SMILES IDX 96 27 101 28 97 29 100 30 98 31 99 32 19 33 20 34 21 35
REMARK SMILES IDX 22 36 23 37 24 39 25 40 26 41 90 42 27 43 89 44 28 45 29 46
REMARK SMILES IDX 30 47 83 48 31 49 88 50 82 51 84 52 32 53 87 54 81 55 80 56
REMARK SMILES IDX 33 58 67 59 46 60 66 61 47 62 50 63 65 64 85 65 48 66 49 67
REMARK SMILES IDX 64 69 86 70 51 71 34 72 35 73 44 74 36 75 37 76 43 77 45 78
REMARK SMILES IDX 38 79 39 80 40 81 41 82 42 83 68 84 69 85 78 86 70 87 71 88
REMARK SMILES IDX 77 89 79 90 72 91 73 92 74 93 75 94 76 95 52 96 53 97 62 98
REMARK SMILES IDX 54 99 55 100 61 101 63 102 56 103 57 104 58 105 59 106
REMARK SMILES IDX 60 107
REMARK H PARENT 15 7 5 17 5 18 22 38 84 57 50 68
REMARK Flexibility Score: inf
ROOT
ATOM      1  C   UNL     1      -1.984   5.932   6.484  1.00  0.00     0.002 C 
ENDROOT
BRANCH   1   2
ATOM      2  C   UNL     1      -1.867   5.145   5.180  1.00  0.00     0.021 C 
BRANCH   2   3
ATOM      3  C   UNL     1      -0.662   4.233   5.021  1.00  0.00     0.116 C 
BRANCH   3   4
ATOM      4  N   UNL     1      -0.830   2.890   5.510  1.00  0.00    -0.352 N 
ATOM      5  C   UNL     1      -0.552   1.685   4.895  1.00  0.00     0.253 C 
ATOM      6  O   UNL     1      -0.893   0.684   5.528  1.00  0.00    -0.269 OA
ATOM      7  H   UNL     1      -1.198   2.820   6.420  1.00  0.00     0.163 HD
BRANCH   5   8
ATOM      8  C   UNL     1       0.007   1.614   3.524  1.00  0.00     0.069 A 
ATOM      9  C   UNL     1       0.709   0.032   0.183  1.00  0.00     0.065 C 
ATOM     10  C   UNL     1       0.448   0.838   1.409  1.00  0.00     0.025 A 
ATOM     11  C   UNL     1      -0.075   0.456   2.645  1.00  0.00     0.040 A 
ATOM     12  N   UNL     1       0.730   2.191   1.495  1.00  0.00    -0.343 N 
ATOM     13  C   UNL     1       0.870   2.485   2.843  1.00  0.00     0.028 A 
ATOM     14  C   UNL     1       1.827   3.523   3.330  1.00  0.00     0.065 C 
BRANCH  11  15
ATOM     15  C   UNL     1      -0.593  -0.912   3.020  1.00  0.00     0.300 C 
BRANCH  15  16
ATOM     16  N   UNL     1       0.390  -1.547   3.894  1.00  0.00    -0.340 N 
ATOM     17  H   UNL     1       0.558  -0.931   4.689  1.00  0.00     0.346 HD
ATOM     18  H   UNL     1       1.228  -1.702   3.334  1.00  0.00     0.346 HD
BRANCH  16  19
ATOM     19  C   UNL     1      -0.028  -2.855   4.405  1.00  0.00     0.293 C 
BRANCH  19  20
ATOM     20  C   UNL     1       0.080  -4.005   3.386  1.00  0.00     0.173 C 
ATOM     21  C   UNL     1      -1.256  -4.546   2.901  1.00  0.00     0.040 C 
ATOM     22  O   UNL     1       0.762  -5.141   3.963  1.00  0.00    -0.372 OA
ATOM     23  C   UNL     1      -0.863  -5.920   2.416  1.00  0.00     0.031 C 
ATOM     24  C   UNL     1       0.174  -6.339   3.438  1.00  0.00     0.161 C 
ENDBRANCH  19  20
ENDBRANCH  16  19
ENDBRANCH  15  16
ENDBRANCH  11  15
BRANCH  12  25
ATOM     25  C   UNL     1       1.096   3.070   0.372  1.00  0.00     0.157 C 
BRANCH  25  26
ATOM     26  C   UNL     1       0.058   4.119  -0.009  1.00  0.00    -0.028 A 
ATOM     27  C   UNL     1      -0.372   4.221  -1.347  1.00  0.00     0.008 A 
ATOM     28  C   UNL     1      -0.397   5.095   0.894  1.00  0.00     0.008 A 
ATOM     29  C   UNL     1      -1.219   5.259  -1.757  1.00  0.00     0.039 A 
ATOM     30  C   UNL     1      -1.244   6.132   0.486  1.00  0.00     0.039 A 
ATOM     31  C   UNL     1      -1.647   6.205  -0.838  1.00  0.00     0.123 A 
ATOM     32  F   UNL     1      -2.448   7.200  -1.235  1.00  0.00    -0.207 F 
ENDBRANCH  25  26
ENDBRANCH  12  25
ENDBRANCH   5   8
ENDBRANCH   3   4
ENDBRANCH   2   3
ENDBRANCH   1   2
BRANCH   1  33
ATOM     33  C   UNL     1      -0.829   6.865   6.870  1.00  0.00     0.002 C 
BRANCH  33  34
ATOM     34  C   UNL     1      -0.188   7.757   5.788  1.00  0.00     0.021 C 
BRANCH  34  35
ATOM     35  C   UNL     1      -1.075   8.420   4.716  1.00  0.00     0.116 C 
BRANCH  35  36
ATOM     36  N   UNL     1      -1.531   9.755   5.003  1.00  0.00    -0.352 N 
ATOM     37  C   UNL     1      -2.021  10.687   4.096  1.00  0.00     0.251 C 
ATOM     38  H   UNL     1      -1.491  10.039   5.945  1.00  0.00     0.163 HD
ATOM     39  O   UNL     1      -2.326  11.793   4.536  1.00  0.00    -0.269 OA
BRANCH  37  40
ATOM     40  C   UNL     1      -2.041  10.424   2.601  1.00  0.00     0.039 A 
ATOM     41  C   UNL     1      -0.962  10.871   1.862  1.00  0.00     0.014 A 
ATOM     42  C   UNL     1      -3.133   9.940   1.851  1.00  0.00     0.014 A 
ATOM     43  C   UNL     1      -0.958  10.770   0.435  1.00  0.00     0.010 A 
ATOM     44  C   UNL     1      -3.157   9.931   0.376  1.00  0.00     0.010 A 
ATOM     45  C   UNL     1      -2.066  10.359  -0.406  1.00  0.00    -0.014 A 
BRANCH  45  46
ATOM     46  C   UNL     1      -2.034  10.915  -1.972  1.00  0.00     0.031 A 
ATOM     47  C   UNL     1      -1.538  12.307  -1.754  1.00  0.00     0.074 A 
ATOM     48  C   UNL     1      -2.407  10.672  -3.309  1.00  0.00     0.049 A 
ATOM     49  N   UNL     1      -2.203  13.073  -0.933  1.00  0.00    -0.248 NA
ATOM     50  C   UNL     1      -0.159  12.737  -1.999  1.00  0.00     0.031 C 
ATOM     51  C   UNL     1      -3.234   9.575  -3.847  1.00  0.00     0.029 A 
ATOM     52  N   UNL     1      -2.147  11.372  -4.553  1.00  0.00    -0.354 N 
ATOM     53  C   UNL     1      -1.478  14.222  -0.787  1.00  0.00     0.074 A 
ATOM     54  C   UNL     1      -0.146  13.858  -1.264  1.00  0.00     0.031 C 
ATOM     55  C   UNL     1      -3.275   9.570  -5.218  1.00  0.00     0.029 A 
ATOM     56  C   UNL     1      -2.531  10.695  -5.793  1.00  0.00     0.049 A 
ATOM     57  H   UNL     1      -1.731  12.264  -4.563  1.00  0.00     0.167 HD
ATOM     58  C   UNL     1      -2.184  15.364  -1.026  1.00  0.00     0.037 A 
ATOM     59  C   UNL     1      -2.367  11.049  -7.150  1.00  0.00     0.037 A 
ATOM     60  C   UNL     1      -1.973  15.830  -2.371  1.00  0.00     0.049 A 
ATOM     61  C   UNL     1      -2.404  12.516  -7.137  1.00  0.00     0.074 A 
ATOM     62  C   UNL     1      -0.841  15.940  -3.156  1.00  0.00     0.029 A 
ATOM     63  N   UNL     1      -3.048  15.761  -3.232  1.00  0.00    -0.354 N 
ATOM     64  N   UNL     1      -3.511  13.173  -6.977  1.00  0.00    -0.248 NA
ATOM     65  C   UNL     1      -1.217  13.321  -7.401  1.00  0.00     0.031 C 
ATOM     66  C   UNL     1      -1.222  15.380  -4.394  1.00  0.00     0.029 A 
ATOM     67  C   UNL     1      -2.608  15.370  -4.476  1.00  0.00     0.049 A 
ATOM     68  H   UNL     1      -3.983  15.960  -2.994  1.00  0.00     0.167 HD
ATOM     69  C   UNL     1      -3.080  14.403  -6.599  1.00  0.00     0.074 A 
ATOM     70  C   UNL     1      -1.733  14.521  -7.133  1.00  0.00     0.031 C 
ATOM     71  C   UNL     1      -3.574  14.879  -5.431  1.00  0.00     0.037 A 
BRANCH  58  72
ATOM     72  C   UNL     1      -3.513  15.414  -0.311  1.00  0.00     0.058 A 
ATOM     73  C   UNL     1      -3.664  16.280   0.776  1.00  0.00     0.135 A 
ATOM     74  C   UNL     1      -4.596  14.552  -0.604  1.00  0.00     0.135 A 
ATOM     75  F   UNL     1      -2.687  17.148   1.086  1.00  0.00    -0.206 F 
ATOM     76  C   UNL     1      -4.815  16.267   1.562  1.00  0.00     0.059 A 
ATOM     77  C   UNL     1      -5.730  14.484   0.198  1.00  0.00     0.059 A 
ATOM     78  F   UNL     1      -4.567  13.765  -1.693  1.00  0.00    -0.206 F 
ATOM     79  C   UNL     1      -5.832  15.350   1.280  1.00  0.00     0.060 A 
BRANCH  79  80
ATOM     80  S   UNL     1      -7.277  15.312   2.362  1.00  0.00     0.124 S 
ATOM     81  O   UNL     1      -6.676  15.309   3.690  1.00  0.00    -0.237 OA
ATOM     82  O   UNL     1      -7.962  16.539   1.987  1.00  0.00    -0.237 OA
ATOM     83  O   UNL     1      -7.952  14.061   1.994  1.00  0.00    -0.744 OA
ENDBRANCH  79  80
ENDBRANCH  58  72
BRANCH  59  84
ATOM     84  C   UNL     1      -2.381  10.587  -8.679  1.00  0.00     0.058 A 
ATOM     85  C   UNL     1      -2.632  11.527  -9.753  1.00  0.00     0.135 A 
ATOM     86  C   UNL     1      -1.758   9.417  -9.148  1.00  0.00     0.135 A 
ATOM     87  F   UNL     1      -3.275  12.682  -9.532  1.00  0.00    -0.206 F 
ATOM     88  C   UNL     1      -2.177  11.392 -11.086  1.00  0.00     0.059 A 
ATOM     89  C   UNL     1      -1.318   9.245 -10.503  1.00  0.00     0.059 A 
ATOM     90  F   UNL     1      -1.474   8.427  -8.290  1.00  0.00    -0.206 F 
ATOM     91  C   UNL     1      -1.477  10.259 -11.451  1.00  0.00     0.060 A 
BRANCH  91  92
ATOM     92  S   UNL     1      -0.670  10.213 -13.092  1.00  0.00     0.124 S 
ATOM     93  O   UNL     1      -1.802  10.181 -14.012  1.00  0.00    -0.237 OA
ATOM     94  O   UNL     1       0.106  11.451 -13.095  1.00  0.00    -0.237 OA
ATOM     95  O   UNL     1       0.128   8.991 -13.043  1.00  0.00    -0.744 OA
ENDBRANCH  91  92
ENDBRANCH  59  84
BRANCH  71  96
ATOM     96  C   UNL     1      -5.066  14.732  -5.182  1.00  0.00     0.058 A 
ATOM     97  C   UNL     1      -5.847  13.558  -5.301  1.00  0.00     0.135 A 
ATOM     98  C   UNL     1      -5.771  15.904  -4.857  1.00  0.00     0.135 A 
ATOM     99  F   UNL     1      -5.295  12.352  -5.502  1.00  0.00    -0.206 F 
ATOM    100  C   UNL     1      -7.242  13.578  -5.195  1.00  0.00     0.059 A 
ATOM    101  C   UNL     1      -7.153  15.935  -4.690  1.00  0.00     0.059 A 
ATOM    102  F   UNL     1      -5.105  17.060  -4.696  1.00  0.00    -0.206 F 
ATOM    103  C   UNL     1      -7.888  14.775  -4.902  1.00  0.00     0.060 A 
BRANCH 103 104
ATOM    104  S   UNL     1      -9.690  14.806  -4.805  1.00  0.00     0.124 S 
ATOM    105  O   UNL     1     -10.068  14.678  -6.210  1.00  0.00    -0.237 OA
ATOM    106  O   UNL     1      -9.988  13.650  -3.967  1.00  0.00    -0.237 OA
ATOM    107  O   UNL     1      -9.974  16.108  -4.209  1.00  0.00    -0.744 OA
ENDBRANCH 103 104
ENDBRANCH  71  96
ENDBRANCH  45  46
ENDBRANCH  37  40
ENDBRANCH  35  36
ENDBRANCH  34  35
ENDBRANCH  33  34
ENDBRANCH   1  33
TORSDOF 22
