REMARK SMILES O=C(NCCCCCCNC(=O)c1cnc(-c2ccccc2Cl)nc1)c1ccc(-c2c3nc(c(-c4c(F)cc(S(=O)(=O)[O-])cc4F)c4ccc([nH]4)c(-c4c(F)cc(S(=O)(=O)[O-])cc4F)c4nc(c(-c5c(F)cc(S(=O)(=O)[O-])cc5F)c5ccc2[nH]5)C=C4)C=C3)cc1
REMARK SMILES IDX 5 1 4 2 3 3 1 4 2 5 26 7 27 8 91 9 28 10 90 11 29 12 30 13
REMARK SMILES IDX 31 14 84 15 32 16 89 17 83 18 85 19 33 20 88 21 82 22 81 23
REMARK SMILES IDX 34 25 68 26 47 27 67 28 48 29 51 30 66 31 86 32 49 33 50 34
REMARK SMILES IDX 65 36 87 37 52 38 35 39 36 40 45 41 37 42 38 43 44 44 46 45
REMARK SMILES IDX 39 46 40 47 41 48 42 49 43 50 69 51 70 52 79 53 71 54 72 55
REMARK SMILES IDX 78 56 80 57 73 58 74 59 75 60 76 61 77 62 53 63 54 64 63 65
REMARK SMILES IDX 55 66 56 67 62 68 64 69 57 70 58 71 59 72 60 73 61 74 6 75
REMARK SMILES IDX 7 76 8 77 9 78 10 79 11 80 12 82 13 83 14 84 25 85 15 86
REMARK SMILES IDX 24 87 16 88 17 89 18 90 22 91 19 92 21 93 23 94 20 95
REMARK H PARENT 3 6 85 24 51 35 10 81
REMARK Flexibility Score: inf
ROOT
ATOM      1  C   UNL     1       4.667  -0.253   2.513  1.00  0.00     0.021 C 
ENDROOT
BRANCH   1   2
ATOM      2  C   UNL     1       4.397  -0.666   1.070  1.00  0.00     0.116 C 
BRANCH   2   3
ATOM      3  N   UNL     1       2.976  -0.796   0.798  1.00  0.00    -0.352 N 
ATOM      4  O   UNL     1       0.979  -0.209  -0.060  1.00  0.00    -0.269 OA
ATOM      5  C   UNL     1       2.202  -0.121  -0.112  1.00  0.00     0.251 C 
ATOM      6  H   UNL     1       2.500  -1.463   1.344  1.00  0.00     0.163 HD
BRANCH   5   7
ATOM      7  C   UNL     1       2.845   0.722  -1.142  1.00  0.00     0.039 A 
ATOM      8  C   UNL     1       3.944   0.252  -1.868  1.00  0.00     0.014 A 
ATOM      9  C   UNL     1       2.321   1.990  -1.401  1.00  0.00     0.014 A 
ATOM     10  C   UNL     1       4.589   1.091  -2.773  1.00  0.00     0.010 A 
ATOM     11  C   UNL     1       2.925   2.803  -2.362  1.00  0.00     0.010 A 
ATOM     12  C   UNL     1       4.075   2.368  -3.041  1.00  0.00    -0.014 A 
BRANCH  12  13
ATOM     13  C   UNL     1       4.700   3.227  -4.077  1.00  0.00     0.031 A 
ATOM     14  C   UNL     1       5.326   4.542  -3.708  1.00  0.00     0.074 A 
ATOM     15  C   UNL     1       4.651   2.836  -5.364  1.00  0.00     0.049 A 
ATOM     16  N   UNL     1       5.818   5.468  -4.489  1.00  0.00    -0.248 NA
ATOM     17  C   UNL     1       5.397   4.861  -2.275  1.00  0.00     0.031 C 
ATOM     18  C   UNL     1       4.063   1.582  -5.839  1.00  0.00     0.029 A 
ATOM     19  N   UNL     1       5.079   3.458  -6.509  1.00  0.00    -0.354 N 
ATOM     20  C   UNL     1       6.234   6.493  -3.647  1.00  0.00     0.074 A 
ATOM     21  C   UNL     1       5.913   6.082  -2.297  1.00  0.00     0.031 C 
ATOM     22  C   UNL     1       4.162   1.529  -7.175  1.00  0.00     0.029 A 
ATOM     23  C   UNL     1       4.760   2.770  -7.655  1.00  0.00     0.049 A 
ATOM     24  H   UNL     1       5.567   4.313  -6.510  1.00  0.00     0.167 HD
ATOM     25  C   UNL     1       6.827   7.667  -3.976  1.00  0.00     0.037 A 
ATOM     26  C   UNL     1       4.888   3.114  -8.951  1.00  0.00     0.037 A 
ATOM     27  C   UNL     1       7.132   8.061  -5.329  1.00  0.00     0.049 A 
ATOM     28  C   UNL     1       5.510   4.435  -9.299  1.00  0.00     0.074 A 
ATOM     29  C   UNL     1       7.769   9.209  -5.767  1.00  0.00     0.029 A 
ATOM     30  N   UNL     1       6.802   7.330  -6.463  1.00  0.00    -0.354 N 
ATOM     31  N   UNL     1       5.940   5.376  -8.492  1.00  0.00    -0.248 NA
ATOM     32  C   UNL     1       5.669   4.744 -10.726  1.00  0.00     0.031 C 
ATOM     33  C   UNL     1       7.768   9.202  -7.166  1.00  0.00     0.029 A 
ATOM     34  C   UNL     1       7.195   8.017  -7.601  1.00  0.00     0.049 A 
ATOM     35  H   UNL     1       6.355   6.453  -6.459  1.00  0.00     0.167 HD
ATOM     36  C   UNL     1       6.447   6.377  -9.312  1.00  0.00     0.074 A 
ATOM     37  C   UNL     1       6.267   5.928 -10.678  1.00  0.00     0.031 C 
ATOM     38  C   UNL     1       7.019   7.554  -8.958  1.00  0.00     0.037 A 
BRANCH  25  39
ATOM     39  C   UNL     1       7.140   8.626  -2.857  1.00  0.00     0.058 A 
ATOM     40  C   UNL     1       8.119   8.349  -1.888  1.00  0.00     0.135 A 
ATOM     41  C   UNL     1       6.445   9.842  -2.750  1.00  0.00     0.135 A 
ATOM     42  F   UNL     1       8.811   7.199  -1.935  1.00  0.00    -0.206 F 
ATOM     43  C   UNL     1       8.356   9.214  -0.824  1.00  0.00     0.059 A 
ATOM     44  C   UNL     1       6.689  10.738  -1.712  1.00  0.00     0.059 A 
ATOM     45  F   UNL     1       5.505  10.167  -3.651  1.00  0.00    -0.206 F 
ATOM     46  C   UNL     1       7.628  10.401  -0.739  1.00  0.00     0.060 A 
BRANCH  46  47
ATOM     47  S   UNL     1       7.905  11.484   0.679  1.00  0.00     0.124 S 
ATOM     48  O   UNL     1       7.265  10.726   1.750  1.00  0.00    -0.237 OA
ATOM     49  O   UNL     1       9.361  11.556   0.738  1.00  0.00    -0.237 OA
ATOM     50  O   UNL     1       7.232  12.723   0.299  1.00  0.00    -0.744 OA
ENDBRANCH  46  47
ENDBRANCH  25  39
BRANCH  26  51
ATOM     51  C   UNL     1       4.394   2.178  -9.994  1.00  0.00     0.058 A 
ATOM     52  C   UNL     1       5.283   1.435 -10.781  1.00  0.00     0.135 A 
ATOM     53  C   UNL     1       3.019   1.937 -10.152  1.00  0.00     0.135 A 
ATOM     54  F   UNL     1       6.605   1.633 -10.669  1.00  0.00    -0.206 F 
ATOM     55  C   UNL     1       4.829   0.476 -11.681  1.00  0.00     0.059 A 
ATOM     56  C   UNL     1       2.542   0.966 -11.026  1.00  0.00     0.059 A 
ATOM     57  F   UNL     1       2.128   2.611  -9.406  1.00  0.00    -0.206 F 
ATOM     58  C   UNL     1       3.456   0.239 -11.785  1.00  0.00     0.060 A 
BRANCH  58  59
ATOM     59  S   UNL     1       2.888  -1.080 -12.880  1.00  0.00     0.124 S 
ATOM     60  O   UNL     1       3.145  -0.503 -14.194  1.00  0.00    -0.237 OA
ATOM     61  O   UNL     1       3.751  -2.191 -12.490  1.00  0.00    -0.237 OA
ATOM     62  O   UNL     1       1.482  -1.234 -12.521  1.00  0.00    -0.744 OA
ENDBRANCH  58  59
ENDBRANCH  26  51
BRANCH  38  63
ATOM     63  C   UNL     1       7.546   8.438 -10.056  1.00  0.00     0.058 A 
ATOM     64  C   UNL     1       6.694   9.191 -10.877  1.00  0.00     0.135 A 
ATOM     65  C   UNL     1       8.932   8.615 -10.208  1.00  0.00     0.135 A 
ATOM     66  F   UNL     1       5.363   9.049 -10.782  1.00  0.00    -0.206 F 
ATOM     67  C   UNL     1       7.198  10.096 -11.807  1.00  0.00     0.059 A 
ATOM     68  C   UNL     1       9.456   9.533 -11.111  1.00  0.00     0.059 A 
ATOM     69  F   UNL     1       9.790   7.920  -9.444  1.00  0.00    -0.206 F 
ATOM     70  C   UNL     1       8.581  10.271 -11.906  1.00  0.00     0.060 A 
BRANCH  70  71
ATOM     71  S   UNL     1       9.217  11.516 -13.048  1.00  0.00     0.124 S 
ATOM     72  O   UNL     1       8.960  10.890 -14.341  1.00  0.00    -0.237 OA
ATOM     73  O   UNL     1       8.393  12.678 -12.731  1.00  0.00    -0.237 OA
ATOM     74  O   UNL     1      10.624  11.633 -12.676  1.00  0.00    -0.744 OA
ENDBRANCH  70  71
ENDBRANCH  38  63
ENDBRANCH  12  13
ENDBRANCH   5   7
ENDBRANCH   2   3
ENDBRANCH   1   2
BRANCH   1  75
ATOM     75  C   UNL     1       4.188  -1.256   3.566  1.00  0.00     0.002 C 
BRANCH  75  76
ATOM     76  C   UNL     1       4.740  -2.676   3.411  1.00  0.00     0.002 C 
BRANCH  76  77
ATOM     77  C   UNL     1       6.267  -2.781   3.353  1.00  0.00     0.021 C 
BRANCH  77  78
ATOM     78  C   UNL     1       6.994  -2.167   4.547  1.00  0.00     0.116 C 
BRANCH  78  79
ATOM     79  N   UNL     1       6.676  -2.860   5.788  1.00  0.00    -0.352 N 
ATOM     80  C   UNL     1       7.515  -3.522   6.644  1.00  0.00     0.254 C 
ATOM     81  H   UNL     1       5.726  -2.850   6.048  1.00  0.00     0.163 HD
ATOM     82  O   UNL     1       7.071  -4.238   7.538  1.00  0.00    -0.269 OA
BRANCH  80  83
ATOM     83  C   UNL     1       8.960  -3.390   6.484  1.00  0.00     0.076 A 
ATOM     84  C   UNL     1       9.594  -2.171   6.434  1.00  0.00     0.129 A 
ATOM     85  C   UNL     1       9.769  -4.497   6.389  1.00  0.00     0.129 A 
ATOM     86  N   UNL     1      10.917  -2.034   6.214  1.00  0.00    -0.236 NA
ATOM     87  N   UNL     1      11.100  -4.418   6.169  1.00  0.00    -0.236 NA
ATOM     88  C   UNL     1      11.616  -3.177   6.047  1.00  0.00     0.160 A 
BRANCH  88  89
ATOM     89  C   UNL     1      13.039  -3.043   5.735  1.00  0.00     0.038 A 
ATOM     90  C   UNL     1      13.842  -2.207   6.540  1.00  0.00     0.013 A 
ATOM     91  C   UNL     1      13.653  -3.684   4.645  1.00  0.00     0.052 A 
ATOM     92  C   UNL     1      15.205  -2.037   6.284  1.00  0.00     0.001 A 
ATOM     93  C   UNL     1      15.021  -3.512   4.390  1.00  0.00     0.021 A 
ATOM     94  Cl  UNL     1      12.772  -4.661   3.517  1.00  0.00    -0.084 Cl
ATOM     95  C   UNL     1      15.795  -2.693   5.210  1.00  0.00     0.002 A 
ENDBRANCH  88  89
ENDBRANCH  80  83
ENDBRANCH  78  79
ENDBRANCH  77  78
ENDBRANCH  76  77
ENDBRANCH  75  76
ENDBRANCH   1  75
TORSDOF 17
