REMARK SMILES Cc1cc(C)cc(Nc2nc(C)cc(C(=O)NCCCCCCNC(=O)c3ccc(-c4c5nc(c(-c6c(F)cc(S(=O)(=O)[O-])cc6F)c6ccc([nH]6)c(-c6c(F)cc(S(=O)(=O)[O-])cc6F)c6nc(c(-c7c(F)cc(S(=O)(=O)[O-])cc7F)c7ccc4[nH]7)C=C6)C=C5)cc3)n2)c1
REMARK SMILES IDX 21 1 20 2 19 3 18 4 17 5 15 6 16 7 14 9 9 10 10 11 93 12
REMARK SMILES IDX 11 13 12 14 13 15 8 16 7 18 1 19 2 20 3 21 94 22 4 23 5 24
REMARK SMILES IDX 6 25 22 26 23 27 24 28 25 29 26 31 27 32 28 33 92 34 29 35
REMARK SMILES IDX 91 36 30 37 31 38 32 39 85 40 33 41 90 42 84 43 86 44 34 45
REMARK SMILES IDX 89 46 83 47 82 48 35 50 69 51 48 52 68 53 49 54 52 55 67 56
REMARK SMILES IDX 87 57 50 58 51 59 66 61 88 62 53 63 36 64 37 65 46 66 38 67
REMARK SMILES IDX 39 68 45 69 47 70 40 71 41 72 42 73 43 74 44 75 70 76 71 77
REMARK SMILES IDX 80 78 72 79 73 80 79 81 81 82 74 83 75 84 76 85 77 86 78 87
REMARK SMILES IDX 54 88 55 89 64 90 56 91 57 92 63 93 65 94 58 95 59 96 60 97
REMARK SMILES IDX 61 98 62 99
REMARK H PARENT 17 8 8 17 24 30 86 49 52 60
REMARK Flexibility Score: inf
ROOT
ATOM      1  C   UNL     1      -8.902  -6.377  -2.204  1.00  0.00     0.002 C 
ENDROOT
BRANCH   1   2
ATOM      2  C   UNL     1      -8.324  -5.112  -1.556  1.00  0.00     0.002 C 
BRANCH   2   3
ATOM      3  C   UNL     1      -7.085  -5.352  -0.680  1.00  0.00     0.021 C 
BRANCH   3   4
ATOM      4  C   UNL     1      -5.896  -5.897  -1.473  1.00  0.00     0.116 C 
BRANCH   4   5
ATOM      5  N   UNL     1      -5.227  -4.808  -2.150  1.00  0.00    -0.351 N 
ATOM      6  C   UNL     1      -4.115  -4.056  -1.865  1.00  0.00     0.270 C 
ATOM      7  O   UNL     1      -3.894  -3.116  -2.634  1.00  0.00    -0.268 OA
ATOM      8  H   UNL     1      -5.662  -4.551  -2.995  1.00  0.00     0.163 HD
BRANCH   6   9
ATOM      9  C   UNL     1      -3.162  -4.335  -0.734  1.00  0.00     0.134 A 
ATOM     10  C   UNL     1      -1.034  -3.917   0.038  1.00  0.00     0.228 A 
ATOM     11  N   UNL     1      -1.177  -4.757   1.068  1.00  0.00    -0.218 NA
ATOM     12  N   UNL     1      -1.961  -3.748  -0.905  1.00  0.00    -0.208 NA
ATOM     13  C   UNL     1      -2.395  -5.303   1.252  1.00  0.00     0.044 A 
ATOM     14  C   UNL     1      -2.579  -6.134   2.486  1.00  0.00     0.067 C 
ATOM     15  C   UNL     1      -3.451  -5.057   0.399  1.00  0.00     0.058 A 
BRANCH  10  16
ATOM     16  N   UNL     1       0.085  -3.088   0.063  1.00  0.00    -0.324 N 
ATOM     17  H   UNL     1       0.963  -3.529   0.130  1.00  0.00     0.170 HD
BRANCH  16  18
ATOM     18  C   UNL     1       0.086  -1.679   0.001  1.00  0.00     0.041 A 
ATOM     19  C   UNL     1       2.645   1.151  -0.010  1.00  0.00     0.044 C 
ATOM     20  C   UNL     1       1.340   0.414  -0.024  1.00  0.00    -0.049 A 
ATOM     21  C   UNL     1       0.139   1.135  -0.043  1.00  0.00     0.007 A 
ATOM     22  C   UNL     1       1.303  -0.989  -0.006  1.00  0.00     0.029 A 
ATOM     23  C   UNL     1      -1.088   0.470  -0.065  1.00  0.00    -0.049 A 
ATOM     24  C   UNL     1      -2.377   1.237  -0.079  1.00  0.00     0.044 C 
ATOM     25  C   UNL     1      -1.099  -0.929  -0.065  1.00  0.00     0.029 A 
ENDBRANCH  16  18
ENDBRANCH  10  16
ENDBRANCH   6   9
ENDBRANCH   4   5
ENDBRANCH   3   4
ENDBRANCH   2   3
ENDBRANCH   1   2
BRANCH   1  26
ATOM     26  C   UNL     1      -9.219  -7.513  -1.227  1.00  0.00     0.021 C 
BRANCH  26  27
ATOM     27  C   UNL     1     -10.248  -7.153  -0.160  1.00  0.00     0.116 C 
BRANCH  27  28
ATOM     28  N   UNL     1     -11.545  -6.868  -0.749  1.00  0.00    -0.352 N 
ATOM     29  C   UNL     1     -12.760  -7.454  -0.502  1.00  0.00     0.251 C 
ATOM     30  H   UNL     1     -11.553  -6.150  -1.423  1.00  0.00     0.163 HD
ATOM     31  O   UNL     1     -13.695  -7.262  -1.271  1.00  0.00    -0.269 OA
BRANCH  29  32
ATOM     32  C   UNL     1     -12.937  -8.319   0.685  1.00  0.00     0.039 A 
ATOM     33  C   UNL     1     -13.678  -9.496   0.557  1.00  0.00     0.014 A 
ATOM     34  C   UNL     1     -12.414  -7.950   1.929  1.00  0.00     0.014 A 
ATOM     35  C   UNL     1     -13.866 -10.319   1.668  1.00  0.00     0.010 A 
ATOM     36  C   UNL     1     -12.544  -8.806   3.020  1.00  0.00     0.010 A 
ATOM     37  C   UNL     1     -13.286  -9.990   2.905  1.00  0.00    -0.014 A 
BRANCH  37  38
ATOM     38  C   UNL     1     -13.476 -10.865   4.089  1.00  0.00     0.031 A 
ATOM     39  C   UNL     1     -14.264 -10.376   5.274  1.00  0.00     0.074 A 
ATOM     40  C   UNL     1     -12.918 -12.090   4.105  1.00  0.00     0.049 A 
ATOM     41  N   UNL     1     -14.546 -10.996   6.392  1.00  0.00    -0.248 NA
ATOM     42  C   UNL     1     -14.784  -9.002   5.203  1.00  0.00     0.031 C 
ATOM     43  C   UNL     1     -12.094 -12.658   3.036  1.00  0.00     0.029 A 
ATOM     44  N   UNL     1     -12.964 -13.082   5.051  1.00  0.00    -0.354 N 
ATOM     45  C   UNL     1     -15.271 -10.089   7.156  1.00  0.00     0.074 A 
ATOM     46  C   UNL     1     -15.329  -8.855   6.401  1.00  0.00     0.031 C 
ATOM     47  C   UNL     1     -11.749 -13.913   3.368  1.00  0.00     0.029 A 
ATOM     48  C   UNL     1     -12.303 -14.228   4.681  1.00  0.00     0.049 A 
ATOM     49  H   UNL     1     -13.428 -12.982   5.914  1.00  0.00     0.167 HD
ATOM     50  C   UNL     1     -15.860 -10.273   8.363  1.00  0.00     0.037 A 
ATOM     51  C   UNL     1     -12.171 -15.405   5.322  1.00  0.00     0.037 A 
ATOM     52  C   UNL     1     -15.810 -11.507   9.104  1.00  0.00     0.049 A 
ATOM     53  C   UNL     1     -12.837 -15.589   6.657  1.00  0.00     0.074 A 
ATOM     54  C   UNL     1     -16.396 -11.809  10.320  1.00  0.00     0.029 A 
ATOM     55  N   UNL     1     -15.133 -12.647   8.693  1.00  0.00    -0.354 N 
ATOM     56  N   UNL     1     -13.557 -14.736   7.346  1.00  0.00    -0.248 NA
ATOM     57  C   UNL     1     -12.682 -16.903   7.296  1.00  0.00     0.031 C 
ATOM     58  C   UNL     1     -16.048 -13.123  10.660  1.00  0.00     0.029 A 
ATOM     59  C   UNL     1     -15.279 -13.652   9.636  1.00  0.00     0.049 A 
ATOM     60  H   UNL     1     -14.624 -12.730   7.855  1.00  0.00     0.167 HD
ATOM     61  C   UNL     1     -13.966 -15.418   8.486  1.00  0.00     0.074 A 
ATOM     62  C   UNL     1     -13.422 -16.758   8.386  1.00  0.00     0.031 C 
ATOM     63  C   UNL     1     -14.727 -14.979   9.520  1.00  0.00     0.037 A 
BRANCH  50  64
ATOM     64  C   UNL     1     -16.610  -9.104   8.945  1.00  0.00     0.058 A 
ATOM     65  C   UNL     1     -17.812  -8.648   8.379  1.00  0.00     0.135 A 
ATOM     66  C   UNL     1     -16.117  -8.423  10.069  1.00  0.00     0.135 A 
ATOM     67  F   UNL     1     -18.321  -9.253   7.293  1.00  0.00    -0.206 F 
ATOM     68  C   UNL     1     -18.473  -7.529   8.874  1.00  0.00     0.059 A 
ATOM     69  C   UNL     1     -16.778  -7.318  10.600  1.00  0.00     0.059 A 
ATOM     70  F   UNL     1     -14.975  -8.816  10.652  1.00  0.00    -0.206 F 
ATOM     71  C   UNL     1     -17.942  -6.864   9.981  1.00  0.00     0.060 A 
BRANCH  71  72
ATOM     72  S   UNL     1     -18.788  -5.391  10.592  1.00  0.00     0.124 S 
ATOM     73  O   UNL     1     -18.398  -4.399   9.595  1.00  0.00    -0.237 OA
ATOM     74  O   UNL     1     -20.189  -5.798  10.567  1.00  0.00    -0.237 OA
ATOM     75  O   UNL     1     -18.218  -5.201  11.922  1.00  0.00    -0.744 OA
ENDBRANCH  71  72
ENDBRANCH  50  64
BRANCH  51  76
ATOM     76  C   UNL     1     -11.430 -16.519   4.677  1.00  0.00     0.058 A 
ATOM     77  C   UNL     1     -12.114 -17.631   4.164  1.00  0.00     0.135 A 
ATOM     78  C   UNL     1     -10.034 -16.487   4.537  1.00  0.00     0.135 A 
ATOM     79  F   UNL     1     -13.449 -17.707   4.279  1.00  0.00    -0.206 F 
ATOM     80  C   UNL     1     -11.442 -18.678   3.544  1.00  0.00     0.059 A 
ATOM     81  C   UNL     1      -9.341 -17.512   3.901  1.00  0.00     0.059 A 
ATOM     82  F   UNL     1      -9.336 -15.436   4.995  1.00  0.00    -0.206 F 
ATOM     83  C   UNL     1     -10.054 -18.608   3.415  1.00  0.00     0.060 A 
BRANCH  83  84
ATOM     84  S   UNL     1      -9.197 -19.945   2.554  1.00  0.00     0.124 S 
ATOM     85  O   UNL     1      -9.240 -21.009   3.549  1.00  0.00    -0.237 OA
ATOM     86  O   UNL     1     -10.034 -20.137   1.374  1.00  0.00    -0.237 OA
ATOM     87  O   UNL     1      -7.877 -19.379   2.291  1.00  0.00    -0.744 OA
ENDBRANCH  83  84
ENDBRANCH  51  76
BRANCH  63  88
ATOM     88  C   UNL     1     -15.039 -15.973  10.605  1.00  0.00     0.058 A 
ATOM     89  C   UNL     1     -14.063 -16.400  11.518  1.00  0.00     0.135 A 
ATOM     90  C   UNL     1     -16.334 -16.501  10.732  1.00  0.00     0.135 A 
ATOM     91  F   UNL     1     -12.809 -15.929  11.437  1.00  0.00    -0.206 F 
ATOM     92  C   UNL     1     -14.348 -17.351  12.493  1.00  0.00     0.059 A 
ATOM     93  C   UNL     1     -16.648 -17.432  11.717  1.00  0.00     0.059 A 
ATOM     94  F   UNL     1     -17.308 -16.115   9.893  1.00  0.00    -0.206 F 
ATOM     95  C   UNL     1     -15.643 -17.867  12.579  1.00  0.00     0.060 A 
BRANCH  95  96
ATOM     96  S   UNL     1     -16.003 -19.106  13.842  1.00  0.00     0.124 S 
ATOM     97  O   UNL     1     -15.421 -20.305  13.248  1.00  0.00    -0.237 OA
ATOM     98  O   UNL     1     -15.307 -18.576  15.011  1.00  0.00    -0.237 OA
ATOM     99  O   UNL     1     -17.460 -19.089  13.927  1.00  0.00    -0.744 OA
ENDBRANCH  95  96
ENDBRANCH  63  88
ENDBRANCH  37  38
ENDBRANCH  29  32
ENDBRANCH  27  28
ENDBRANCH  26  27
ENDBRANCH   1  26
TORSDOF 18
