REMARK SMILES O=C(NCCCCCCNC(=O)c1ccc(-c2c3nc(c(-c4c(F)cc(S(=O)(=O)[O-])cc4F)c4ccc([nH]4)c(-c4c(F)cc(S(=O)(=O)[O-])cc4F)c4nc(c(-c5c(F)cc(S(=O)(=O)[O-])cc5F)c5ccc2[nH]5)C=C4)C=C3)cc1)C1=Cc2cc(OC(F)(F)F)ccc2O[C@@H]1C(F)(F)F
REMARK SMILES IDX 7 1 6 2 5 3 4 4 3 5 1 6 2 7 79 9 80 10 93 11 81 12 92 13
REMARK SMILES IDX 82 14 91 15 83 16 90 17 89 18 94 19 95 20 96 21 97 22 84 23
REMARK SMILES IDX 85 24 86 25 87 26 88 27 8 28 9 29 10 30 11 31 12 33 13 34
REMARK SMILES IDX 14 35 78 36 15 37 77 38 16 39 17 40 18 41 71 42 19 43 76 44
REMARK SMILES IDX 70 45 72 46 20 47 75 48 69 49 68 50 21 52 55 53 34 54 54 55
REMARK SMILES IDX 35 56 38 57 53 58 73 59 36 60 37 61 52 63 74 64 39 65 22 66
REMARK SMILES IDX 23 67 32 68 24 69 25 70 31 71 33 72 26 73 27 74 28 75 29 76
REMARK SMILES IDX 30 77 56 78 57 79 66 80 58 81 59 82 65 83 67 84 60 85 61 86
REMARK SMILES IDX 62 87 63 88 64 89 40 90 41 91 50 92 42 93 43 94 49 95 51 96
REMARK SMILES IDX 44 97 45 98 46 99 47 100 48 101
REMARK H PARENT 3 8 10 32 72 51 38 62
REMARK Flexibility Score: inf
ROOT
ATOM      1  C   UNL     1       4.495  -4.721  -0.613  1.00  0.00     0.002 C 
ENDROOT
BRANCH   1   2
ATOM      2  C   UNL     1       3.887  -4.413   0.761  1.00  0.00     0.002 C 
BRANCH   2   3
ATOM      3  C   UNL     1       4.261  -3.073   1.391  1.00  0.00     0.021 C 
BRANCH   3   4
ATOM      4  C   UNL     1       3.960  -1.832   0.560  1.00  0.00     0.116 C 
BRANCH   4   5
ATOM      5  N   UNL     1       2.672  -1.208   0.808  1.00  0.00    -0.352 N 
ATOM      6  O   UNL     1       1.100   0.395   0.743  1.00  0.00    -0.270 OA
ATOM      7  C   UNL     1       2.289   0.095   0.639  1.00  0.00     0.251 C 
ATOM      8  H   UNL     1       1.972  -1.811   1.147  1.00  0.00     0.163 HD
BRANCH   7   9
ATOM      9  C   UNL     1       3.250   1.164   0.232  1.00  0.00     0.067 C 
ATOM     10  C   UNL     1       4.443   1.325   0.834  1.00  0.00     0.025 C 
ATOM     11  C   UNL     1       3.107   1.548  -1.223  1.00  0.00     0.314 C 
ATOM     12  C   UNL     1       5.557   0.898  -0.055  1.00  0.00     0.021 A 
ATOM     13  O   UNL     1       4.126   0.907  -2.038  1.00  0.00    -0.475 OA
ATOM     14  C   UNL     1       6.773   0.517   0.529  1.00  0.00     0.058 A 
ATOM     15  C   UNL     1       5.301   0.593  -1.400  1.00  0.00     0.128 A 
ATOM     16  C   UNL     1       7.678  -0.276  -0.184  1.00  0.00     0.130 A 
ATOM     17  C   UNL     1       6.213  -0.175  -2.116  1.00  0.00     0.051 A 
ATOM     18  C   UNL     1       7.387  -0.632  -1.502  1.00  0.00     0.050 A 
BRANCH  11  19
ATOM     19  C   UNL     1       3.081   3.072  -1.425  1.00  0.00     0.429 C 
ATOM     20  F   UNL     1       2.770   3.395  -2.704  1.00  0.00    -0.167 F 
ATOM     21  F   UNL     1       2.149   3.663  -0.637  1.00  0.00    -0.167 F 
ATOM     22  F   UNL     1       4.267   3.658  -1.139  1.00  0.00    -0.167 F 
ENDBRANCH  11  19
BRANCH  16  23
ATOM     23  O   UNL     1       8.822  -0.601   0.487  1.00  0.00    -0.406 OA
BRANCH  23  24
ATOM     24  C   UNL     1       9.322  -1.920   0.313  1.00  0.00     0.573 C 
ATOM     25  F   UNL     1       8.393  -2.826   0.696  1.00  0.00    -0.132 F 
ATOM     26  F   UNL     1       9.683  -2.163  -0.961  1.00  0.00    -0.132 F 
ATOM     27  F   UNL     1      10.405  -2.080   1.102  1.00  0.00    -0.132 F 
ENDBRANCH  23  24
ENDBRANCH  16  23
ENDBRANCH   7   9
ENDBRANCH   4   5
ENDBRANCH   3   4
ENDBRANCH   2   3
ENDBRANCH   1   2
BRANCH   1  28
ATOM     28  C   UNL     1       6.011  -4.554  -0.756  1.00  0.00     0.021 C 
BRANCH  28  29
ATOM     29  C   UNL     1       6.877  -5.337   0.228  1.00  0.00     0.116 C 
BRANCH  29  30
ATOM     30  N   UNL     1       6.664  -6.771   0.168  1.00  0.00    -0.352 N 
ATOM     31  C   UNL     1       7.582  -7.793   0.094  1.00  0.00     0.251 C 
ATOM     32  H   UNL     1       5.721  -7.055   0.183  1.00  0.00     0.163 HD
ATOM     33  O   UNL     1       7.189  -8.942  -0.073  1.00  0.00    -0.269 OA
BRANCH  31  34
ATOM     34  C   UNL     1       9.037  -7.514   0.184  1.00  0.00     0.039 A 
ATOM     35  C   UNL     1       9.898  -8.187  -0.689  1.00  0.00     0.014 A 
ATOM     36  C   UNL     1       9.563  -6.629   1.129  1.00  0.00     0.014 A 
ATOM     37  C   UNL     1      11.273  -7.935  -0.647  1.00  0.00     0.010 A 
ATOM     38  C   UNL     1      10.926  -6.325   1.122  1.00  0.00     0.010 A 
ATOM     39  C   UNL     1      11.798  -6.981   0.239  1.00  0.00    -0.014 A 
BRANCH  39  40
ATOM     40  C   UNL     1      13.254  -6.670   0.253  1.00  0.00     0.031 A 
ATOM     41  C   UNL     1      14.088  -6.965   1.472  1.00  0.00     0.074 A 
ATOM     42  C   UNL     1      13.823  -6.086  -0.822  1.00  0.00     0.049 A 
ATOM     43  N   UNL     1      15.364  -6.751   1.673  1.00  0.00    -0.248 NA
ATOM     44  C   UNL     1      13.394  -7.562   2.624  1.00  0.00     0.031 C 
ATOM     45  C   UNL     1      13.120  -5.714  -2.051  1.00  0.00     0.029 A 
ATOM     46  N   UNL     1      15.121  -5.702  -1.055  1.00  0.00    -0.354 N 
ATOM     47  C   UNL     1      15.621  -7.170   2.974  1.00  0.00     0.074 A 
ATOM     48  C   UNL     1      14.359  -7.605   3.531  1.00  0.00     0.031 C 
ATOM     49  C   UNL     1      13.999  -5.187  -2.919  1.00  0.00     0.029 A 
ATOM     50  C   UNL     1      15.319  -5.143  -2.296  1.00  0.00     0.049 A 
ATOM     51  H   UNL     1      15.843  -5.817  -0.395  1.00  0.00     0.167 HD
ATOM     52  C   UNL     1      16.803  -7.210   3.636  1.00  0.00     0.037 A 
ATOM     53  C   UNL     1      16.433  -4.647  -2.868  1.00  0.00     0.037 A 
ATOM     54  C   UNL     1      18.060  -6.792   3.069  1.00  0.00     0.049 A 
ATOM     55  C   UNL     1      17.731  -4.684  -2.106  1.00  0.00     0.074 A 
ATOM     56  C   UNL     1      19.322  -6.854   3.636  1.00  0.00     0.029 A 
ATOM     57  N   UNL     1      18.217  -6.224   1.813  1.00  0.00    -0.354 N 
ATOM     58  N   UNL     1      17.969  -5.153  -0.905  1.00  0.00    -0.248 NA
ATOM     59  C   UNL     1      18.913  -4.128  -2.780  1.00  0.00     0.031 C 
ATOM     60  C   UNL     1      20.230  -6.269   2.749  1.00  0.00     0.029 A 
ATOM     61  C   UNL     1      19.548  -5.900   1.601  1.00  0.00     0.049 A 
ATOM     62  H   UNL     1      17.490  -6.074   1.167  1.00  0.00     0.167 HD
ATOM     63  C   UNL     1      19.333  -4.977  -0.690  1.00  0.00     0.074 A 
ATOM     64  C   UNL     1      19.868  -4.368  -1.891  1.00  0.00     0.031 C 
ATOM     65  C   UNL     1      20.073  -5.295   0.401  1.00  0.00     0.037 A 
BRANCH  52  66
ATOM     66  C   UNL     1      16.792  -7.710   5.057  1.00  0.00     0.058 A 
ATOM     67  C   UNL     1      16.529  -9.054   5.370  1.00  0.00     0.135 A 
ATOM     68  C   UNL     1      17.078  -6.838   6.121  1.00  0.00     0.135 A 
ATOM     69  F   UNL     1      16.239  -9.931   4.397  1.00  0.00    -0.206 F 
ATOM     70  C   UNL     1      16.511  -9.505   6.686  1.00  0.00     0.059 A 
ATOM     71  C   UNL     1      17.098  -7.275   7.442  1.00  0.00     0.059 A 
ATOM     72  F   UNL     1      17.341  -5.543   5.882  1.00  0.00    -0.206 F 
ATOM     73  C   UNL     1      16.795  -8.607   7.716  1.00  0.00     0.060 A 
BRANCH  73  74
ATOM     74  S   UNL     1      16.756  -9.207   9.418  1.00  0.00     0.124 S 
ATOM     75  O   UNL     1      15.323  -9.395   9.627  1.00  0.00    -0.237 OA
ATOM     76  O   UNL     1      17.550 -10.428   9.337  1.00  0.00    -0.237 OA
ATOM     77  O   UNL     1      17.362  -8.118  10.178  1.00  0.00    -0.744 OA
ENDBRANCH  73  74
ENDBRANCH  52  66
BRANCH  53  78
ATOM     78  C   UNL     1      16.376  -4.098  -4.250  1.00  0.00     0.058 A 
ATOM     79  C   UNL     1      16.995  -4.765  -5.318  1.00  0.00     0.135 A 
ATOM     80  C   UNL     1      15.687  -2.909  -4.536  1.00  0.00     0.135 A 
ATOM     81  F   UNL     1      17.675  -5.900  -5.095  1.00  0.00    -0.206 F 
ATOM     82  C   UNL     1      16.943  -4.269  -6.617  1.00  0.00     0.059 A 
ATOM     83  C   UNL     1      15.597  -2.408  -5.831  1.00  0.00     0.059 A 
ATOM     84  F   UNL     1      15.065  -2.238  -3.554  1.00  0.00    -0.206 F 
ATOM     85  C   UNL     1      16.235  -3.092  -6.865  1.00  0.00     0.060 A 
BRANCH  85  86
ATOM     86  S   UNL     1      16.122  -2.492  -8.564  1.00  0.00     0.124 S 
ATOM     87  O   UNL     1      17.484  -2.028  -8.803  1.00  0.00    -0.237 OA
ATOM     88  O   UNL     1      15.721  -3.696  -9.286  1.00  0.00    -0.237 OA
ATOM     89  O   UNL     1      15.104  -1.449  -8.485  1.00  0.00    -0.744 OA
ENDBRANCH  85  86
ENDBRANCH  53  78
BRANCH  65  90
ATOM     90  C   UNL     1      21.553  -5.027   0.341  1.00  0.00     0.058 A 
ATOM     91  C   UNL     1      22.073  -3.723   0.376  1.00  0.00     0.135 A 
ATOM     92  C   UNL     1      22.467  -6.093   0.301  1.00  0.00     0.135 A 
ATOM     93  F   UNL     1      21.247  -2.666   0.407  1.00  0.00    -0.206 F 
ATOM     94  C   UNL     1      23.445  -3.486   0.349  1.00  0.00     0.059 A 
ATOM     95  C   UNL     1      23.842  -5.881   0.306  1.00  0.00     0.059 A 
ATOM     96  F   UNL     1      22.026  -7.361   0.276  1.00  0.00    -0.206 F 
ATOM     97  C   UNL     1      24.321  -4.572   0.318  1.00  0.00     0.060 A 
BRANCH  97  98
ATOM     98  S   UNL     1      26.098  -4.250   0.319  1.00  0.00     0.124 S 
ATOM     99  O   UNL     1      26.305  -3.738  -1.031  1.00  0.00    -0.237 OA
ATOM    100  O   UNL     1      26.237  -3.275   1.396  1.00  0.00    -0.237 OA
ATOM    101  O   UNL     1      26.681  -5.561   0.590  1.00  0.00    -0.744 OA
ENDBRANCH  97  98
ENDBRANCH  65  90
ENDBRANCH  39  40
ENDBRANCH  31  34
ENDBRANCH  29  30
ENDBRANCH  28  29
ENDBRANCH   1  28
TORSDOF 19
