REMARK SMILES O=C(C[NH+]1CC[NH+](Cc2cc(Cl)ccc2[N+](=O)[O-])CC1)NCCCCCCNC(=O)c1ccc(-c2c3nc(c(-c4c(F)cc(S(=O)(=O)[O-])cc4F)c4ccc([nH]4)c(-c4c(F)cc(S(=O)(=O)[O-])cc4F)c4nc(c(-c5c(F)cc(S(=O)(=O)[O-])cc5F)c5ccc2[nH]5)C=C4)C=C3)cc1
REMARK SMILES IDX 24 1 23 2 22 3 21 4 1 5 2 6 3 8 4 9 5 10 20 11 6 13 19 14
REMARK SMILES IDX 7 15 8 17 9 18 10 19 15 20 11 21 14 22 12 23 13 24 16 25
REMARK SMILES IDX 17 26 18 27 25 28 26 29 27 30 28 31 29 32 30 34 31 35 32 36
REMARK SMILES IDX 96 37 33 38 95 39 34 40 35 41 36 42 89 43 37 44 94 45 88 46
REMARK SMILES IDX 90 47 38 48 93 49 87 50 86 51 39 53 73 54 52 55 72 56 53 57
REMARK SMILES IDX 56 58 71 59 91 60 54 61 55 62 70 64 92 65 57 66 40 67 41 68
REMARK SMILES IDX 50 69 42 70 43 71 49 72 51 73 44 74 45 75 46 76 47 77 48 78
REMARK SMILES IDX 74 79 75 80 84 81 76 82 77 83 83 84 85 85 78 86 79 87 80 88
REMARK SMILES IDX 81 89 82 90 58 91 59 92 68 93 60 94 61 95 67 96 69 97 62 98
REMARK SMILES IDX 63 99 64 100 65 101 66 102
REMARK H PARENT 21 7 4 12 7 16 28 33 90 52 56 63
REMARK Flexibility Score: inf
ROOT
ATOM      1  C   UNL     1       4.248  -3.399   1.544  1.00  0.00     0.002 C 
ENDROOT
BRANCH   1   2
ATOM      2  C   UNL     1       2.732  -3.318   1.329  1.00  0.00     0.021 C 
BRANCH   2   3
ATOM      3  C   UNL     1       2.116  -1.966   1.678  1.00  0.00     0.116 C 
BRANCH   3   4
ATOM      4  N   UNL     1       2.540  -0.937   0.756  1.00  0.00    -0.351 N 
ATOM      5  O   UNL     1       0.482  -0.565  -0.204  1.00  0.00    -0.269 OA
ATOM      6  C   UNL     1       1.677  -0.299  -0.108  1.00  0.00     0.275 C 
ATOM      7  H   UNL     1       3.490  -0.679   0.746  1.00  0.00     0.163 HD
BRANCH   6   8
ATOM      8  C   UNL     1       2.345   0.742  -1.013  1.00  0.00     0.363 C 
BRANCH   8   9
ATOM      9  N   UNL     1       3.487   1.415  -0.352  1.00  0.00    -0.318 N 
ATOM     10  C   UNL     1       4.204   2.258  -1.330  1.00  0.00     0.325 C 
ATOM     11  C   UNL     1       3.076   2.213   0.825  1.00  0.00     0.325 C 
ATOM     12  H   UNL     1       4.111   0.688  -0.004  1.00  0.00     0.348 HD
ATOM     13  C   UNL     1       3.645   3.685  -1.567  1.00  0.00     0.324 C 
ATOM     14  C   UNL     1       2.480   3.611   0.546  1.00  0.00     0.324 C 
ATOM     15  N   UNL     1       3.263   4.440  -0.372  1.00  0.00    -0.322 N 
ATOM     16  H   UNL     1       2.635   5.172  -0.705  1.00  0.00     0.348 HD
BRANCH  15  17
ATOM     17  C   UNL     1       4.275   5.320   0.231  1.00  0.00     0.306 C 
BRANCH  17  18
ATOM     18  C   UNL     1       5.431   4.649   0.952  1.00  0.00     0.085 A 
ATOM     19  C   UNL     1       6.482   4.172   0.135  1.00  0.00     0.037 A 
ATOM     20  C   UNL     1       5.509   4.363   2.336  1.00  0.00     0.278 A 
ATOM     21  C   UNL     1       7.457   3.303   0.626  1.00  0.00     0.042 A 
ATOM     22  C   UNL     1       6.509   3.491   2.824  1.00  0.00     0.088 A 
ATOM     23  Cl  UNL     1       8.614   2.629  -0.452  1.00  0.00    -0.084 Cl
ATOM     24  C   UNL     1       7.456   2.935   1.962  1.00  0.00     0.027 A 
BRANCH  20  25
ATOM     25  N   UNL     1       4.591   4.937   3.342  1.00  0.00     0.063 N 
ATOM     26  O   UNL     1       4.596   4.430   4.473  1.00  0.00    -0.258 OA
ATOM     27  O   UNL     1       3.904   5.915   3.032  1.00  0.00    -0.258 OA
ENDBRANCH  20  25
ENDBRANCH  17  18
ENDBRANCH  15  17
ENDBRANCH   8   9
ENDBRANCH   6   8
ENDBRANCH   3   4
ENDBRANCH   2   3
ENDBRANCH   1   2
BRANCH   1  28
ATOM     28  C   UNL     1       4.727  -3.125   2.974  1.00  0.00     0.002 C 
BRANCH  28  29
ATOM     29  C   UNL     1       4.057  -3.967   4.063  1.00  0.00     0.021 C 
BRANCH  29  30
ATOM     30  C   UNL     1       4.189  -5.475   3.882  1.00  0.00     0.116 C 
BRANCH  30  31
ATOM     31  N   UNL     1       5.569  -5.924   3.979  1.00  0.00    -0.352 N 
ATOM     32  C   UNL     1       6.097  -6.937   4.739  1.00  0.00     0.251 C 
ATOM     33  H   UNL     1       6.214  -5.433   3.422  1.00  0.00     0.163 HD
ATOM     34  O   UNL     1       7.319  -7.053   4.835  1.00  0.00    -0.269 OA
BRANCH  32  35
ATOM     35  C   UNL     1       5.204  -7.873   5.458  1.00  0.00     0.039 A 
ATOM     36  C   UNL     1       5.521  -8.242   6.768  1.00  0.00     0.014 A 
ATOM     37  C   UNL     1       4.066  -8.401   4.840  1.00  0.00     0.014 A 
ATOM     38  C   UNL     1       4.675  -9.104   7.470  1.00  0.00     0.010 A 
ATOM     39  C   UNL     1       3.184  -9.195   5.568  1.00  0.00     0.010 A 
ATOM     40  C   UNL     1       3.486  -9.570   6.886  1.00  0.00    -0.014 A 
BRANCH  40  41
ATOM     41  C   UNL     1       2.569 -10.481   7.622  1.00  0.00     0.031 A 
ATOM     42  C   UNL     1       2.319 -11.873   7.102  1.00  0.00     0.074 A 
ATOM     43  C   UNL     1       1.935 -10.049   8.731  1.00  0.00     0.049 A 
ATOM     44  N   UNL     1       1.502 -12.791   7.554  1.00  0.00    -0.248 NA
ATOM     45  C   UNL     1       3.066 -12.280   5.900  1.00  0.00     0.031 C 
ATOM     46  C   UNL     1       2.060  -8.710   9.312  1.00  0.00     0.029 A 
ATOM     47  N   UNL     1       1.049 -10.687   9.563  1.00  0.00    -0.354 N 
ATOM     48  C   UNL     1       1.639 -13.877   6.697  1.00  0.00     0.074 A 
ATOM     49  C   UNL     1       2.562 -13.480   5.656  1.00  0.00     0.031 C 
ATOM     50  C   UNL     1       1.292  -8.633  10.412  1.00  0.00     0.029 A 
ATOM     51  C   UNL     1       0.591  -9.900  10.595  1.00  0.00     0.049 A 
ATOM     52  H   UNL     1       0.767 -11.622   9.434  1.00  0.00     0.167 HD
ATOM     53  C   UNL     1       1.077 -15.106   6.786  1.00  0.00     0.037 A 
ATOM     54  C   UNL     1      -0.301 -10.165  11.570  1.00  0.00     0.037 A 
ATOM     55  C   UNL     1       0.173 -15.504   7.833  1.00  0.00     0.049 A 
ATOM     56  C   UNL     1      -0.924 -11.536  11.637  1.00  0.00     0.074 A 
ATOM     57  C   UNL     1      -0.442 -16.730   8.020  1.00  0.00     0.029 A 
ATOM     58  N   UNL     1      -0.236 -14.689   8.878  1.00  0.00    -0.354 N 
ATOM     59  N   UNL     1      -0.754 -12.562  10.836  1.00  0.00    -0.248 NA
ATOM     60  C   UNL     1      -1.850 -11.793  12.750  1.00  0.00     0.031 C 
ATOM     61  C   UNL     1      -1.250 -16.646   9.158  1.00  0.00     0.029 A 
ATOM     62  C   UNL     1      -1.094 -15.386   9.712  1.00  0.00     0.049 A 
ATOM     63  H   UNL     1       0.043 -13.754   9.008  1.00  0.00     0.167 HD
ATOM     64  C   UNL     1      -1.515 -13.595  11.375  1.00  0.00     0.074 A 
ATOM     65  C   UNL     1      -2.138 -13.074  12.573  1.00  0.00     0.031 C 
ATOM     66  C   UNL     1      -1.682 -14.862  10.920  1.00  0.00     0.037 A 
BRANCH  53  67
ATOM     67  C   UNL     1       1.445 -16.123   5.739  1.00  0.00     0.058 A 
ATOM     68  C   UNL     1       2.730 -16.688   5.691  1.00  0.00     0.135 A 
ATOM     69  C   UNL     1       0.493 -16.585   4.816  1.00  0.00     0.135 A 
ATOM     70  F   UNL     1       3.686 -16.269   6.536  1.00  0.00    -0.206 F 
ATOM     71  C   UNL     1       3.063 -17.661   4.755  1.00  0.00     0.059 A 
ATOM     72  C   UNL     1       0.796 -17.581   3.891  1.00  0.00     0.059 A 
ATOM     73  F   UNL     1      -0.750 -16.078   4.815  1.00  0.00    -0.206 F 
ATOM     74  C   UNL     1       2.087 -18.107   3.864  1.00  0.00     0.060 A 
BRANCH  74  75
ATOM     75  S   UNL     1       2.529 -19.398   2.683  1.00  0.00     0.124 S 
ATOM     76  O   UNL     1       3.418 -18.675   1.779  1.00  0.00    -0.237 OA
ATOM     77  O   UNL     1       3.167 -20.395   3.537  1.00  0.00    -0.237 OA
ATOM     78  O   UNL     1       1.245 -19.794   2.114  1.00  0.00    -0.744 OA
ENDBRANCH  74  75
ENDBRANCH  53  67
BRANCH  54  79
ATOM     79  C   UNL     1      -0.662  -9.121  12.569  1.00  0.00     0.058 A 
ATOM     80  C   UNL     1      -0.321  -9.258  13.923  1.00  0.00     0.135 A 
ATOM     81  C   UNL     1      -1.390  -7.981  12.194  1.00  0.00     0.135 A 
ATOM     82  F   UNL     1       0.374 -10.331  14.334  1.00  0.00    -0.206 F 
ATOM     83  C   UNL     1      -0.728  -8.331  14.877  1.00  0.00     0.059 A 
ATOM     84  C   UNL     1      -1.780  -7.022  13.124  1.00  0.00     0.059 A 
ATOM     85  F   UNL     1      -1.723  -7.786  10.909  1.00  0.00    -0.206 F 
ATOM     86  C   UNL     1      -1.464  -7.218  14.468  1.00  0.00     0.060 A 
BRANCH  86  87
ATOM     87  S   UNL     1      -1.994  -6.022  15.713  1.00  0.00     0.124 S 
ATOM     88  O   UNL     1      -3.058  -6.755  16.388  1.00  0.00    -0.237 OA
ATOM     89  O   UNL     1      -0.771  -5.817  16.482  1.00  0.00    -0.237 OA
ATOM     90  O   UNL     1      -2.424  -4.877  14.915  1.00  0.00    -0.744 OA
ENDBRANCH  86  87
ENDBRANCH  54  79
BRANCH  66  91
ATOM     91  C   UNL     1      -2.510 -15.798  11.757  1.00  0.00     0.058 A 
ATOM     92  C   UNL     1      -3.902 -15.665  11.873  1.00  0.00     0.135 A 
ATOM     93  C   UNL     1      -1.898 -16.873  12.424  1.00  0.00     0.135 A 
ATOM     94  F   UNL     1      -4.537 -14.654  11.260  1.00  0.00    -0.206 F 
ATOM     95  C   UNL     1      -4.653 -16.541  12.649  1.00  0.00     0.059 A 
ATOM     96  C   UNL     1      -2.633 -17.781  13.178  1.00  0.00     0.059 A 
ATOM     97  F   UNL     1      -0.571 -17.057  12.335  1.00  0.00    -0.206 F 
ATOM     98  C   UNL     1      -4.010 -17.597  13.298  1.00  0.00     0.060 A 
BRANCH  98  99
ATOM     99  S   UNL     1      -4.998 -18.738  14.287  1.00  0.00     0.124 S 
ATOM    100  O   UNL     1      -5.310 -17.921  15.455  1.00  0.00    -0.237 OA
ATOM    101  O   UNL     1      -6.120 -19.030  13.399  1.00  0.00    -0.237 OA
ATOM    102  O   UNL     1      -4.090 -19.856  14.527  1.00  0.00    -0.744 OA
ENDBRANCH  98  99
ENDBRANCH  66  91
ENDBRANCH  40  41
ENDBRANCH  32  35
ENDBRANCH  30  31
ENDBRANCH  29  30
ENDBRANCH  28  29
ENDBRANCH   1  28
TORSDOF 20
