REMARK SMILES CSc1nc(N)cc(Nc2cccc(C(=O)NCCCCCCNC(=O)c3ccc(-c4c5nc(c(-c6c(F)cc(S(=O)(=O)[O-])cc6F)c6ccc([nH]6)c(-c6c(F)cc(S(=O)(=O)[O-])cc6F)c6nc(c(-c7c(F)cc(S(=O)(=O)[O-])cc7F)c7ccc4[nH]7)C=C6)C=C5)cc3)c2)n1
REMARK SMILES IDX 20 1 19 2 18 3 17 4 15 5 16 6 14 8 10 9 11 10 93 11 12 12
REMARK SMILES IDX 13 13 9 14 8 16 3 17 4 18 94 19 5 20 7 21 2 22 1 23 6 24
REMARK SMILES IDX 21 27 22 28 23 29 24 30 25 31 26 33 27 34 28 35 92 36 29 37
REMARK SMILES IDX 91 38 30 39 31 40 32 41 85 42 33 43 90 44 84 45 86 46 34 47
REMARK SMILES IDX 89 48 83 49 82 50 35 52 69 53 48 54 68 55 49 56 52 57 67 58
REMARK SMILES IDX 87 59 50 60 51 61 66 63 88 64 53 65 36 66 37 67 46 68 38 69
REMARK SMILES IDX 39 70 45 71 47 72 40 73 41 74 42 75 43 76 44 77 70 78 71 79
REMARK SMILES IDX 80 80 72 81 73 82 79 83 81 84 74 85 75 86 76 87 77 88 78 89
REMARK SMILES IDX 54 90 55 91 64 92 56 93 57 94 63 95 65 96 58 97 59 98 60 99
REMARK SMILES IDX 61 100 62 101
REMARK H PARENT 17 7 9 15 6 25 6 26 24 32 86 51 52 62
REMARK Flexibility Score: inf
ROOT
ATOM      1  C   UNL     1      -5.771   4.119  -0.196  1.00  0.00     0.002 C 
ENDROOT
BRANCH   1   2
ATOM      2  C   UNL     1      -4.618   5.121  -0.215  1.00  0.00     0.021 C 
BRANCH   2   3
ATOM      3  C   UNL     1      -3.439   4.779  -1.117  1.00  0.00     0.116 C 
BRANCH   3   4
ATOM      4  N   UNL     1      -3.748   4.802  -2.539  1.00  0.00    -0.352 N 
ATOM      5  C   UNL     1      -3.057   5.330  -3.611  1.00  0.00     0.251 C 
ATOM      6  O   UNL     1      -3.560   5.251  -4.732  1.00  0.00    -0.269 OA
ATOM      7  H   UNL     1      -4.597   4.366  -2.778  1.00  0.00     0.163 HD
BRANCH   5   8
ATOM      8  C   UNL     1      -1.762   6.049  -3.449  1.00  0.00     0.041 A 
ATOM      9  C   UNL     1       0.239   6.545  -2.134  1.00  0.00     0.040 A 
ATOM     10  C   UNL     1       0.522   7.602  -3.004  1.00  0.00     0.026 A 
ATOM     11  C   UNL     1      -0.855   5.727  -2.441  1.00  0.00     0.040 A 
ATOM     12  C   UNL     1      -0.289   7.847  -4.118  1.00  0.00     0.003 A 
ATOM     13  C   UNL     1      -1.443   7.088  -4.327  1.00  0.00     0.014 A 
BRANCH   9  14
ATOM     14  N   UNL     1       1.042   6.320  -0.999  1.00  0.00    -0.340 N 
ATOM     15  H   UNL     1       1.550   7.099  -0.676  1.00  0.00     0.168 HD
BRANCH  14  16
ATOM     16  C   UNL     1       1.216   5.132  -0.263  1.00  0.00     0.137 A 
ATOM     17  C   UNL     1       0.956   2.858  -0.069  1.00  0.00     0.191 A 
ATOM     18  N   UNL     1       1.491   2.812   1.154  1.00  0.00    -0.206 NA
ATOM     19  N   UNL     1       0.810   3.972  -0.791  1.00  0.00    -0.205 NA
ATOM     20  C   UNL     1       1.877   3.979   1.679  1.00  0.00     0.130 A 
ATOM     21  C   UNL     1       1.753   5.178   1.007  1.00  0.00     0.093 A 
BRANCH  17  22
ATOM     22  S   UNL     1       0.296   1.391  -0.819  1.00  0.00    -0.090 SA
ATOM     23  C   UNL     1       1.076   0.126   0.204  1.00  0.00     0.094 C 
ENDBRANCH  17  22
BRANCH  20  24
ATOM     24  N   UNL     1       2.484   3.925   2.918  1.00  0.00    -0.383 N 
ATOM     25  H   UNL     1       2.567   3.064   3.388  1.00  0.00     0.158 HD
ATOM     26  H   UNL     1       2.834   4.748   3.331  1.00  0.00     0.158 HD
ENDBRANCH  20  24
ENDBRANCH  14  16
ENDBRANCH   9  14
ENDBRANCH   5   8
ENDBRANCH   3   4
ENDBRANCH   2   3
ENDBRANCH   1   2
BRANCH   1  27
ATOM     27  C   UNL     1      -5.404   2.673   0.147  1.00  0.00     0.002 C 
BRANCH  27  28
ATOM     28  C   UNL     1      -4.592   2.466   1.428  1.00  0.00     0.021 C 
BRANCH  28  29
ATOM     29  C   UNL     1      -5.190   3.068   2.696  1.00  0.00     0.116 C 
BRANCH  29  30
ATOM     30  N   UNL     1      -6.499   2.522   3.012  1.00  0.00    -0.352 N 
ATOM     31  C   UNL     1      -6.950   1.948   4.177  1.00  0.00     0.251 C 
ATOM     32  H   UNL     1      -7.161   2.571   2.285  1.00  0.00     0.163 HD
ATOM     33  O   UNL     1      -8.041   1.389   4.199  1.00  0.00    -0.269 OA
BRANCH  31  34
ATOM     34  C   UNL     1      -6.111   1.984   5.396  1.00  0.00     0.039 A 
ATOM     35  C   UNL     1      -5.990   0.825   6.167  1.00  0.00     0.014 A 
ATOM     36  C   UNL     1      -5.455   3.156   5.785  1.00  0.00     0.014 A 
ATOM     37  C   UNL     1      -5.163   0.825   7.293  1.00  0.00     0.010 A 
ATOM     38  C   UNL     1      -4.573   3.132   6.863  1.00  0.00     0.010 A 
ATOM     39  C   UNL     1      -4.420   1.968   7.631  1.00  0.00    -0.014 A 
BRANCH  39  40
ATOM     40  C   UNL     1      -3.479   1.964   8.782  1.00  0.00     0.031 A 
ATOM     41  C   UNL     1      -3.716   2.872   9.959  1.00  0.00     0.074 A 
ATOM     42  C   UNL     1      -2.382   1.183   8.744  1.00  0.00     0.049 A 
ATOM     43  N   UNL     1      -2.983   3.048  11.029  1.00  0.00    -0.248 NA
ATOM     44  C   UNL     1      -4.923   3.712   9.915  1.00  0.00     0.031 C 
ATOM     45  C   UNL     1      -2.022   0.284   7.644  1.00  0.00     0.029 A 
ATOM     46  N   UNL     1      -1.365   1.018   9.651  1.00  0.00    -0.354 N 
ATOM     47  C   UNL     1      -3.637   4.017  11.781  1.00  0.00     0.074 A 
ATOM     48  C   UNL     1      -4.787   4.441  11.012  1.00  0.00     0.031 C 
ATOM     49  C   UNL     1      -0.888  -0.363   7.957  1.00  0.00     0.029 A 
ATOM     50  C   UNL     1      -0.415   0.105   9.256  1.00  0.00     0.049 A 
ATOM     51  H   UNL     1      -1.320   1.507  10.504  1.00  0.00     0.167 HD
ATOM     52  C   UNL     1      -3.324   4.491  13.012  1.00  0.00     0.037 A 
ATOM     53  C   UNL     1       0.711  -0.307   9.870  1.00  0.00     0.037 A 
ATOM     54  C   UNL     1      -2.179   4.061  13.773  1.00  0.00     0.049 A 
ATOM     55  C   UNL     1       1.062   0.263  11.218  1.00  0.00     0.074 A 
ATOM     56  C   UNL     1      -1.791   4.454  15.042  1.00  0.00     0.029 A 
ATOM     57  N   UNL     1      -1.234   3.144  13.334  1.00  0.00    -0.354 N 
ATOM     58  N   UNL     1       0.407   1.143  11.937  1.00  0.00    -0.248 NA
ATOM     59  C   UNL     1       2.304  -0.216  11.838  1.00  0.00     0.031 C 
ATOM     60  C   UNL     1      -0.584   3.816  15.347  1.00  0.00     0.029 A 
ATOM     61  C   UNL     1      -0.249   2.979  14.295  1.00  0.00     0.049 A 
ATOM     62  H   UNL     1      -1.259   2.680  12.466  1.00  0.00     0.167 HD
ATOM     63  C   UNL     1       1.139   1.296  13.110  1.00  0.00     0.074 A 
ATOM     64  C   UNL     1       2.282   0.413  13.005  1.00  0.00     0.031 C 
ATOM     65  C   UNL     1       0.884   2.093  14.178  1.00  0.00     0.037 A 
BRANCH  52  66
ATOM     66  C   UNL     1      -4.237   5.535  13.603  1.00  0.00     0.058 A 
ATOM     67  C   UNL     1      -5.557   5.234  13.980  1.00  0.00     0.135 A 
ATOM     68  C   UNL     1      -3.789   6.851  13.799  1.00  0.00     0.135 A 
ATOM     69  F   UNL     1      -6.044   3.994  13.805  1.00  0.00    -0.206 F 
ATOM     70  C   UNL     1      -6.414   6.209  14.479  1.00  0.00     0.059 A 
ATOM     71  C   UNL     1      -4.618   7.836  14.331  1.00  0.00     0.059 A 
ATOM     72  F   UNL     1      -2.536   7.198  13.463  1.00  0.00    -0.206 F 
ATOM     73  C   UNL     1      -5.936   7.509  14.646  1.00  0.00     0.060 A 
BRANCH  73  74
ATOM     74  S   UNL     1      -7.070   8.770  15.266  1.00  0.00     0.124 S 
ATOM     75  O   UNL     1      -7.941   8.969  14.112  1.00  0.00    -0.237 OA
ATOM     76  O   UNL     1      -7.680   8.104  16.412  1.00  0.00    -0.237 OA
ATOM     77  O   UNL     1      -6.191   9.889  15.588  1.00  0.00    -0.744 OA
ENDBRANCH  73  74
ENDBRANCH  52  66
BRANCH  53  78
ATOM     78  C   UNL     1       1.567  -1.343   9.232  1.00  0.00     0.058 A 
ATOM     79  C   UNL     1       1.652  -2.635   9.772  1.00  0.00     0.135 A 
ATOM     80  C   UNL     1       2.298  -1.074   8.064  1.00  0.00     0.135 A 
ATOM     81  F   UNL     1       0.979  -2.939  10.892  1.00  0.00    -0.206 F 
ATOM     82  C   UNL     1       2.437  -3.622   9.185  1.00  0.00     0.059 A 
ATOM     83  C   UNL     1       3.069  -2.052   7.443  1.00  0.00     0.059 A 
ATOM     84  F   UNL     1       2.240   0.142   7.498  1.00  0.00    -0.206 F 
ATOM     85  C   UNL     1       3.138  -3.321   8.016  1.00  0.00     0.060 A 
BRANCH  85  86
ATOM     86  S   UNL     1       4.108  -4.626   7.230  1.00  0.00     0.124 S 
ATOM     87  O   UNL     1       5.215  -4.774   8.168  1.00  0.00    -0.237 OA
ATOM     88  O   UNL     1       3.154  -5.730   7.187  1.00  0.00    -0.237 OA
ATOM     89  O   UNL     1       4.452  -4.053   5.933  1.00  0.00    -0.744 OA
ENDBRANCH  85  86
ENDBRANCH  53  78
BRANCH  65  90
ATOM     90  C   UNL     1       1.839   2.022  15.340  1.00  0.00     0.058 A 
ATOM     91  C   UNL     1       3.138   2.549  15.266  1.00  0.00     0.135 A 
ATOM     92  C   UNL     1       1.429   1.461  16.561  1.00  0.00     0.135 A 
ATOM     93  F   UNL     1       3.584   3.088  14.121  1.00  0.00    -0.206 F 
ATOM     94  C   UNL     1       4.004   2.501  16.353  1.00  0.00     0.059 A 
ATOM     95  C   UNL     1       2.267   1.431  17.671  1.00  0.00     0.059 A 
ATOM     96  F   UNL     1       0.194   0.951  16.691  1.00  0.00    -0.206 F 
ATOM     97  C   UNL     1       3.558   1.944  17.553  1.00  0.00     0.060 A 
BRANCH  97  98
ATOM     98  S   UNL     1       4.681   1.923  18.967  1.00  0.00     0.124 S 
ATOM     99  O   UNL     1       5.637   0.895  18.568  1.00  0.00    -0.237 OA
ATOM    100  O   UNL     1       5.190   3.291  18.980  1.00  0.00    -0.237 OA
ATOM    101  O   UNL     1       3.813   1.572  20.087  1.00  0.00    -0.744 OA
ENDBRANCH  97  98
ENDBRANCH  65  90
ENDBRANCH  39  40
ENDBRANCH  31  34
ENDBRANCH  29  30
ENDBRANCH  28  29
ENDBRANCH  27  28
ENDBRANCH   1  27
TORSDOF 20
