REMARK SMILES CCSc1ccc(-c2cc(Cl)cc3c2O[C@H](C(F)(F)F)C(C(=O)NCCCCCCNC(=O)c2ccc(-c4c5nc(c(-c6c(F)cc(S(=O)(=O)[O-])cc6F)c6ccc([nH]6)c(-c6c(F)cc(S(=O)(=O)[O-])cc6F)c6nc(c(-c7c(F)cc(S(=O)(=O)[O-])cc7F)c7ccc4[nH]7)C=C6)C=C5)cc2)=C3)cc1
REMARK SMILES IDX 27 1 26 2 25 3 24 4 22 5 23 6 21 8 8 9 9 10 14 11 10 12
REMARK SMILES IDX 13 13 15 14 11 15 12 16 100 17 16 18 7 19 4 20 5 21 102 22
REMARK SMILES IDX 6 23 101 24 3 25 2 26 1 27 17 28 18 29 19 30 20 31 28 32
REMARK SMILES IDX 29 33 30 34 31 35 32 36 33 38 34 39 35 40 99 41 36 42 98 43
REMARK SMILES IDX 37 44 38 45 39 46 92 47 40 48 97 49 91 50 93 51 41 52 96 53
REMARK SMILES IDX 90 54 89 55 42 57 76 58 55 59 75 60 56 61 59 62 74 63 94 64
REMARK SMILES IDX 57 65 58 66 73 68 95 69 60 70 43 71 44 72 53 73 45 74 46 75
REMARK SMILES IDX 52 76 54 77 47 78 48 79 49 80 50 81 51 82 77 83 78 84 87 85
REMARK SMILES IDX 79 86 80 87 86 88 88 89 81 90 82 91 83 92 84 93 85 94 61 95
REMARK SMILES IDX 62 96 71 97 63 98 64 99 70 100 72 101 65 102 66 103 67 104
REMARK SMILES IDX 68 105 69 106
REMARK H PARENT 24 7 31 37 93 56 59 67
REMARK Flexibility Score: inf
ROOT
ATOM      1  C   UNL     1      16.061  -0.347   5.302  1.00  0.00     0.002 C 
ENDROOT
BRANCH   1   2
ATOM      2  C   UNL     1      14.989   0.248   6.231  1.00  0.00     0.021 C 
BRANCH   2   3
ATOM      3  C   UNL     1      14.135   1.359   5.601  1.00  0.00     0.116 C 
BRANCH   3   4
ATOM      4  N   UNL     1      13.463   0.850   4.421  1.00  0.00    -0.352 N 
ATOM      5  C   UNL     1      12.120   0.759   4.264  1.00  0.00     0.251 C 
ATOM      6  O   UNL     1      11.616  -0.292   3.888  1.00  0.00    -0.270 OA
ATOM      7  H   UNL     1      14.028   0.546   3.675  1.00  0.00     0.163 HD
BRANCH   5   8
ATOM      8  C   UNL     1      11.351   2.032   4.394  1.00  0.00     0.067 C 
ATOM      9  C   UNL     1       7.697   0.672   3.233  1.00  0.00     0.026 A 
ATOM     10  C   UNL     1       7.937  -0.156   2.105  1.00  0.00     0.033 A 
ATOM     11  C   UNL     1       8.773   1.486   3.641  1.00  0.00     0.135 A 
ATOM     12  C   UNL     1       9.072  -0.028   1.306  1.00  0.00     0.042 A 
ATOM     13  C   UNL     1       9.859   1.688   2.750  1.00  0.00     0.019 A 
ATOM     14  O   UNL     1       8.874   2.059   4.906  1.00  0.00    -0.475 OA
ATOM     15  Cl  UNL     1       9.287  -1.070  -0.043  1.00  0.00    -0.084 Cl
ATOM     16  C   UNL     1      10.000   0.956   1.576  1.00  0.00     0.032 A 
ATOM     17  C   UNL     1      10.978   2.541   3.203  1.00  0.00     0.025 C 
ATOM     18  C   UNL     1      10.270   2.032   5.463  1.00  0.00     0.314 C 
BRANCH   9  19
ATOM     19  C   UNL     1       6.259   0.766   3.628  1.00  0.00    -0.015 A 
ATOM     20  C   UNL     1       3.427   0.900   3.195  1.00  0.00     0.007 A 
ATOM     21  C   UNL     1       4.048  -0.321   3.448  1.00  0.00     0.015 A 
ATOM     22  C   UNL     1       4.207   2.060   3.294  1.00  0.00     0.015 A 
ATOM     23  C   UNL     1       5.438  -0.384   3.679  1.00  0.00     0.010 A 
ATOM     24  C   UNL     1       5.597   1.997   3.512  1.00  0.00     0.010 A 
BRANCH  20  25
ATOM     25  S   UNL     1       1.679   1.091   2.853  1.00  0.00    -0.126 SA
BRANCH  25  26
ATOM     26  C   UNL     1       1.266  -0.249   1.669  1.00  0.00     0.071 C 
ATOM     27  C   UNL     1       1.444   0.166   0.216  1.00  0.00     0.016 C 
ENDBRANCH  25  26
ENDBRANCH  20  25
ENDBRANCH   9  19
BRANCH  18  28
ATOM     28  C   UNL     1      10.554   3.223   6.410  1.00  0.00     0.429 C 
ATOM     29  F   UNL     1       9.653   4.221   6.277  1.00  0.00    -0.167 F 
ATOM     30  F   UNL     1      10.550   2.831   7.707  1.00  0.00    -0.167 F 
ATOM     31  F   UNL     1      11.777   3.777   6.191  1.00  0.00    -0.167 F 
ENDBRANCH  18  28
ENDBRANCH   5   8
ENDBRANCH   3   4
ENDBRANCH   2   3
ENDBRANCH   1   2
BRANCH   1  32
ATOM     32  C   UNL     1      17.013   0.677   4.680  1.00  0.00     0.002 C 
BRANCH  32  33
ATOM     33  C   UNL     1      17.802   1.504   5.695  1.00  0.00     0.021 C 
BRANCH  33  34
ATOM     34  C   UNL     1      18.609   0.680   6.691  1.00  0.00     0.116 C 
BRANCH  34  35
ATOM     35  N   UNL     1      19.597  -0.162   6.036  1.00  0.00    -0.352 N 
ATOM     36  C   UNL     1      20.914  -0.353   6.359  1.00  0.00     0.251 C 
ATOM     37  H   UNL     1      19.275  -0.663   5.253  1.00  0.00     0.163 HD
ATOM     38  O   UNL     1      21.651  -0.962   5.580  1.00  0.00    -0.269 OA
BRANCH  36  39
ATOM     39  C   UNL     1      21.452   0.183   7.626  1.00  0.00     0.039 A 
ATOM     40  C   UNL     1      22.715   0.780   7.622  1.00  0.00     0.014 A 
ATOM     41  C   UNL     1      20.727   0.083   8.818  1.00  0.00     0.014 A 
ATOM     42  C   UNL     1      23.236   1.301   8.807  1.00  0.00     0.010 A 
ATOM     43  C   UNL     1      21.211   0.680   9.979  1.00  0.00     0.010 A 
ATOM     44  C   UNL     1      22.481   1.273   9.992  1.00  0.00    -0.014 A 
BRANCH  44  45
ATOM     45  C   UNL     1      23.032   1.822  11.257  1.00  0.00     0.031 A 
ATOM     46  C   UNL     1      23.277   0.913  12.433  1.00  0.00     0.074 A 
ATOM     47  C   UNL     1      23.289   3.141  11.356  1.00  0.00     0.049 A 
ATOM     48  N   UNL     1      23.748   1.204  13.618  1.00  0.00    -0.248 NA
ATOM     49  C   UNL     1      22.920  -0.506  12.264  1.00  0.00     0.031 C 
ATOM     50  C   UNL     1      23.040   4.132  10.306  1.00  0.00     0.029 A 
ATOM     51  N   UNL     1      23.816   3.877  12.387  1.00  0.00    -0.354 N 
ATOM     52  C   UNL     1      23.741   0.011  14.333  1.00  0.00     0.074 A 
ATOM     53  C   UNL     1      23.151  -0.992  13.474  1.00  0.00     0.031 C 
ATOM     54  C   UNL     1      23.442   5.338  10.735  1.00  0.00     0.029 A 
ATOM     55  C   UNL     1      23.944   5.216  12.100  1.00  0.00     0.049 A 
ATOM     56  H   UNL     1      24.078   3.484  13.250  1.00  0.00     0.167 HD
ATOM     57  C   UNL     1      24.212  -0.235  15.579  1.00  0.00     0.037 A 
ATOM     58  C   UNL     1      24.413   6.230  12.853  1.00  0.00     0.037 A 
ATOM     59  C   UNL     1      24.813   0.766  16.421  1.00  0.00     0.049 A 
ATOM     60  C   UNL     1      24.936   5.934  14.232  1.00  0.00     0.074 A 
ATOM     61  C   UNL     1      25.360   0.615  17.683  1.00  0.00     0.029 A 
ATOM     62  N   UNL     1      24.944   2.107  16.088  1.00  0.00    -0.354 N 
ATOM     63  N   UNL     1      24.980   4.787  14.870  1.00  0.00    -0.248 NA
ATOM     64  C   UNL     1      25.490   7.064  14.989  1.00  0.00     0.031 C 
ATOM     65  C   UNL     1      25.778   1.872  18.133  1.00  0.00     0.029 A 
ATOM     66  C   UNL     1      25.549   2.797  17.127  1.00  0.00     0.049 A 
ATOM     67  H   UNL     1      24.651   2.509  15.238  1.00  0.00     0.167 HD
ATOM     68  C   UNL     1      25.593   5.052  16.090  1.00  0.00     0.074 A 
ATOM     69  C   UNL     1      25.916   6.465  16.093  1.00  0.00     0.031 C 
ATOM     70  C   UNL     1      25.866   4.204  17.113  1.00  0.00     0.037 A 
BRANCH  57  71
ATOM     71  C   UNL     1      24.101  -1.644  16.101  1.00  0.00     0.058 A 
ATOM     72  C   UNL     1      24.853  -2.696  15.551  1.00  0.00     0.135 A 
ATOM     73  C   UNL     1      23.253  -1.944  17.179  1.00  0.00     0.135 A 
ATOM     74  F   UNL     1      25.669  -2.473  14.508  1.00  0.00    -0.206 F 
ATOM     75  C   UNL     1      24.741  -3.999  16.026  1.00  0.00     0.059 A 
ATOM     76  C   UNL     1      23.151  -3.234  17.693  1.00  0.00     0.059 A 
ATOM     77  F   UNL     1      22.511  -0.980  17.744  1.00  0.00    -0.206 F 
ATOM     78  C   UNL     1      23.887  -4.258  17.098  1.00  0.00     0.060 A 
BRANCH  78  79
ATOM     79  S   UNL     1      23.755  -5.954  17.703  1.00  0.00     0.124 S 
ATOM     80  O   UNL     1      23.012  -6.592  16.620  1.00  0.00    -0.237 OA
ATOM     81  O   UNL     1      25.154  -6.349  17.831  1.00  0.00    -0.237 OA
ATOM     82  O   UNL     1      23.029  -5.811  18.961  1.00  0.00    -0.744 OA
ENDBRANCH  78  79
ENDBRANCH  57  71
BRANCH  58  83
ATOM     83  C   UNL     1      24.432   7.613  12.304  1.00  0.00     0.058 A 
ATOM     84  C   UNL     1      25.639   8.253  11.985  1.00  0.00     0.135 A 
ATOM     85  C   UNL     1      23.240   8.316  12.070  1.00  0.00     0.135 A 
ATOM     86  F   UNL     1      26.807   7.626  12.194  1.00  0.00    -0.206 F 
ATOM     87  C   UNL     1      25.666   9.546  11.472  1.00  0.00     0.059 A 
ATOM     88  C   UNL     1      23.239   9.598  11.530  1.00  0.00     0.059 A 
ATOM     89  F   UNL     1      22.057   7.743  12.340  1.00  0.00    -0.206 F 
ATOM     90  C   UNL     1      24.459  10.210  11.244  1.00  0.00     0.060 A 
BRANCH  90  91
ATOM     91  S   UNL     1      24.503  11.868  10.530  1.00  0.00     0.124 S 
ATOM     92  O   UNL     1      25.007  12.656  11.649  1.00  0.00    -0.237 OA
ATOM     93  O   UNL     1      25.419  11.693   9.407  1.00  0.00    -0.237 OA
ATOM     94  O   UNL     1      23.111  12.111  10.162  1.00  0.00    -0.744 OA
ENDBRANCH  90  91
ENDBRANCH  58  83
BRANCH  70  95
ATOM     95  C   UNL     1      26.589   4.772  18.306  1.00  0.00     0.058 A 
ATOM     96  C   UNL     1      25.970   5.664  19.195  1.00  0.00     0.135 A 
ATOM     97  C   UNL     1      27.913   4.389  18.579  1.00  0.00     0.135 A 
ATOM     98  F   UNL     1      24.706   6.065  18.981  1.00  0.00    -0.206 F 
ATOM     99  C   UNL     1      26.650   6.188  20.290  1.00  0.00     0.059 A 
ATOM    100  C   UNL     1      28.601   4.873  19.686  1.00  0.00     0.059 A 
ATOM    101  F   UNL     1      28.549   3.527  17.769  1.00  0.00    -0.206 F 
ATOM    102  C   UNL     1      27.967   5.787  20.526  1.00  0.00     0.060 A 
BRANCH 102 103
ATOM    103  S   UNL     1      28.835   6.467  21.955  1.00  0.00     0.124 S 
ATOM    104  O   UNL     1      29.093   7.835  21.518  1.00  0.00    -0.237 OA
ATOM    105  O   UNL     1      27.849   6.316  23.020  1.00  0.00    -0.237 OA
ATOM    106  O   UNL     1      30.014   5.614  22.074  1.00  0.00    -0.744 OA
ENDBRANCH 102 103
ENDBRANCH  70  95
ENDBRANCH  44  45
ENDBRANCH  36  39
ENDBRANCH  34  35
ENDBRANCH  33  34
ENDBRANCH  32  33
ENDBRANCH   1  32
TORSDOF 20
