REMARK SMILES O=C(NCCCCCCNC(=O)c1ccc2c(c1)[C@@H]1C=CC[C@@H]1[C@H](c1ccncc1)N2)c1ccc(-c2c3nc(c(-c4c(F)cc(S(=O)(=O)[O-])cc4F)c4ccc([nH]4)c(-c4c(F)cc(S(=O)(=O)[O-])cc4F)c4nc(c(-c5c(F)cc(S(=O)(=O)[O-])cc5F)c5ccc2[nH]5)C=C4)C=C3)cc1
REMARK SMILES IDX 5 1 4 2 3 3 1 4 2 5 32 7 33 8 97 9 34 10 96 11 35 12 36 13
REMARK SMILES IDX 37 14 90 15 38 16 95 17 89 18 91 19 39 20 94 21 88 22 87 23
REMARK SMILES IDX 40 25 74 26 53 27 73 28 54 29 57 30 72 31 92 32 55 33 56 34
REMARK SMILES IDX 71 36 93 37 58 38 41 39 42 40 51 41 43 42 44 43 50 44 52 45
REMARK SMILES IDX 45 46 46 47 47 48 48 49 49 50 75 51 76 52 85 53 77 54 78 55
REMARK SMILES IDX 84 56 86 57 79 58 80 59 81 60 82 61 83 62 59 63 60 64 69 65
REMARK SMILES IDX 61 66 62 67 68 68 70 69 63 70 64 71 65 72 66 73 67 74 6 75
REMARK SMILES IDX 7 76 8 77 9 78 10 79 11 80 12 82 13 83 14 84 18 85 15 86
REMARK SMILES IDX 17 87 16 88 19 89 31 90 20 91 23 92 24 93 21 95 22 96 25 97
REMARK SMILES IDX 26 98 30 99 27 100 29 101 28 102
REMARK H PARENT 3 6 91 24 57 35 10 81 31 94
REMARK Flexibility Score: inf
ROOT
ATOM      1  C   UNL     1       4.620  -0.649  -2.818  1.00  0.00     0.021 C 
ENDROOT
BRANCH   1   2
ATOM      2  C   UNL     1       4.394   0.056  -1.487  1.00  0.00     0.116 C 
BRANCH   2   3
ATOM      3  N   UNL     1       2.988   0.239  -1.172  1.00  0.00    -0.352 N 
ATOM      4  O   UNL     1       1.093   0.038   0.035  1.00  0.00    -0.269 OA
ATOM      5  C   UNL     1       2.316  -0.061  -0.009  1.00  0.00     0.251 C 
ATOM      6  H   UNL     1       2.440   0.631  -1.889  1.00  0.00     0.163 HD
BRANCH   5   7
ATOM      7  C   UNL     1       3.068  -0.530   1.177  1.00  0.00     0.039 A 
ATOM      8  C   UNL     1       4.250   0.103   1.569  1.00  0.00     0.014 A 
ATOM      9  C   UNL     1       2.585  -1.621   1.906  1.00  0.00     0.014 A 
ATOM     10  C   UNL     1       5.017  -0.439   2.595  1.00  0.00     0.010 A 
ATOM     11  C   UNL     1       3.316  -2.114   2.993  1.00  0.00     0.010 A 
ATOM     12  C   UNL     1       4.554  -1.545   3.328  1.00  0.00    -0.014 A 
BRANCH  12  13
ATOM     13  C   UNL     1       5.361  -2.035   4.476  1.00  0.00     0.031 A 
ATOM     14  C   UNL     1       5.997  -3.399   4.463  1.00  0.00     0.074 A 
ATOM     15  C   UNL     1       5.560  -1.205   5.519  1.00  0.00     0.049 A 
ATOM     16  N   UNL     1       6.773  -3.951   5.361  1.00  0.00    -0.248 NA
ATOM     17  C   UNL     1       5.724  -4.258   3.300  1.00  0.00     0.031 C 
ATOM     18  C   UNL     1       4.972   0.131   5.654  1.00  0.00     0.029 A 
ATOM     19  N   UNL     1       6.325  -1.345   6.648  1.00  0.00    -0.354 N 
ATOM     20  C   UNL     1       7.079  -5.218   4.879  1.00  0.00     0.074 A 
ATOM     21  C   UNL     1       6.377  -5.368   3.622  1.00  0.00     0.031 C 
ATOM     22  C   UNL     1       5.435   0.706   6.773  1.00  0.00     0.029 A 
ATOM     23  C   UNL     1       6.308  -0.237   7.462  1.00  0.00     0.049 A 
ATOM     24  H   UNL     1       6.836  -2.160   6.856  1.00  0.00     0.167 HD
ATOM     25  C   UNL     1       7.880  -6.164   5.429  1.00  0.00     0.037 A 
ATOM     26  C   UNL     1       6.920  -0.005   8.638  1.00  0.00     0.037 A 
ATOM     27  C   UNL     1       8.579  -6.006   6.680  1.00  0.00     0.049 A 
ATOM     28  C   UNL     1       7.805  -1.067   9.221  1.00  0.00     0.074 A 
ATOM     29  C   UNL     1       9.413  -6.907   7.322  1.00  0.00     0.029 A 
ATOM     30  N   UNL     1       8.531  -4.873   7.479  1.00  0.00    -0.354 N 
ATOM     31  N   UNL     1       8.090  -2.254   8.741  1.00  0.00    -0.248 NA
ATOM     32  C   UNL     1       8.452  -0.761  10.503  1.00  0.00     0.031 C 
ATOM     33  C   UNL     1       9.848  -6.329   8.520  1.00  0.00     0.029 A 
ATOM     34  C   UNL     1       9.315  -5.053   8.608  1.00  0.00     0.049 A 
ATOM     35  H   UNL     1       8.016  -4.060   7.274  1.00  0.00     0.167 HD
ATOM     36  C   UNL     1       8.953  -2.836   9.661  1.00  0.00     0.074 A 
ATOM     37  C   UNL     1       9.167  -1.858  10.709  1.00  0.00     0.031 C 
ATOM     38  C   UNL     1       9.511  -4.071   9.644  1.00  0.00     0.037 A 
BRANCH  25  39
ATOM     39  C   UNL     1       8.049  -7.459   4.682  1.00  0.00     0.058 A 
ATOM     40  C   UNL     1       8.829  -7.535   3.517  1.00  0.00     0.135 A 
ATOM     41  C   UNL     1       7.473  -8.646   5.162  1.00  0.00     0.135 A 
ATOM     42  F   UNL     1       9.391  -6.428   3.006  1.00  0.00    -0.206 F 
ATOM     43  C   UNL     1       9.018  -8.739   2.845  1.00  0.00     0.059 A 
ATOM     44  C   UNL     1       7.667  -9.866   4.518  1.00  0.00     0.059 A 
ATOM     45  F   UNL     1       6.719  -8.630   6.272  1.00  0.00    -0.206 F 
ATOM     46  C   UNL     1       8.432  -9.900   3.353  1.00  0.00     0.060 A 
BRANCH  46  47
ATOM     47  S   UNL     1       8.697 -11.456   2.475  1.00  0.00     0.124 S 
ATOM     48  O   UNL     1       7.833 -11.282   1.311  1.00  0.00    -0.237 OA
ATOM     49  O   UNL     1      10.131 -11.425   2.208  1.00  0.00    -0.237 OA
ATOM     50  O   UNL     1       8.262 -12.466   3.434  1.00  0.00    -0.744 OA
ENDBRANCH  46  47
ENDBRANCH  25  39
BRANCH  26  51
ATOM     51  C   UNL     1       6.701   1.286   9.340  1.00  0.00     0.058 A 
ATOM     52  C   UNL     1       7.722   2.242   9.440  1.00  0.00     0.135 A 
ATOM     53  C   UNL     1       5.455   1.595   9.907  1.00  0.00     0.135 A 
ATOM     54  F   UNL     1       8.930   1.991   8.914  1.00  0.00    -0.206 F 
ATOM     55  C   UNL     1       7.521   3.454  10.093  1.00  0.00     0.059 A 
ATOM     56  C   UNL     1       5.222   2.810  10.540  1.00  0.00     0.059 A 
ATOM     57  F   UNL     1       4.440   0.721   9.818  1.00  0.00    -0.206 F 
ATOM     58  C   UNL     1       6.266   3.728  10.640  1.00  0.00     0.060 A 
BRANCH  58  59
ATOM     59  S   UNL     1       5.995   5.320  11.448  1.00  0.00     0.124 S 
ATOM     60  O   UNL     1       6.622   5.099  12.746  1.00  0.00    -0.237 OA
ATOM     61  O   UNL     1       6.685   6.244  10.554  1.00  0.00    -0.237 OA
ATOM     62  O   UNL     1       4.540   5.442  11.460  1.00  0.00    -0.744 OA
ENDBRANCH  58  59
ENDBRANCH  26  51
BRANCH  38  63
ATOM     63  C   UNL     1      10.415  -4.421  10.791  1.00  0.00     0.058 A 
ATOM     64  C   UNL     1       9.903  -4.708  12.066  1.00  0.00     0.135 A 
ATOM     65  C   UNL     1      11.806  -4.482  10.611  1.00  0.00     0.135 A 
ATOM     66  F   UNL     1       8.581  -4.655  12.290  1.00  0.00    -0.206 F 
ATOM     67  C   UNL     1      10.742  -5.010  13.133  1.00  0.00     0.059 A 
ATOM     68  C   UNL     1      12.662  -4.806  11.658  1.00  0.00     0.059 A 
ATOM     69  F   UNL     1      12.344  -4.225   9.408  1.00  0.00    -0.206 F 
ATOM     70  C   UNL     1      12.121  -5.052  12.920  1.00  0.00     0.060 A 
BRANCH  70  71
ATOM     71  S   UNL     1      13.202  -5.452  14.309  1.00  0.00     0.124 S 
ATOM     72  O   UNL     1      13.222  -4.188  15.039  1.00  0.00    -0.237 OA
ATOM     73  O   UNL     1      12.489  -6.548  14.959  1.00  0.00    -0.237 OA
ATOM     74  O   UNL     1      14.457  -5.826  13.664  1.00  0.00    -0.744 OA
ENDBRANCH  70  71
ENDBRANCH  38  63
ENDBRANCH  12  13
ENDBRANCH   5   7
ENDBRANCH   2   3
ENDBRANCH   1   2
BRANCH   1  75
ATOM     75  C   UNL     1       4.150   0.117  -4.054  1.00  0.00     0.002 C 
BRANCH  75  76
ATOM     76  C   UNL     1       4.705   1.535  -4.212  1.00  0.00     0.002 C 
BRANCH  76  77
ATOM     77  C   UNL     1       6.228   1.675  -4.130  1.00  0.00     0.021 C 
BRANCH  77  78
ATOM     78  C   UNL     1       7.023   0.785  -5.081  1.00  0.00     0.116 C 
BRANCH  78  79
ATOM     79  N   UNL     1       6.733   1.067  -6.477  1.00  0.00    -0.352 N 
ATOM     80  C   UNL     1       7.603   1.354  -7.500  1.00  0.00     0.251 C 
ATOM     81  H   UNL     1       5.780   1.050  -6.724  1.00  0.00     0.163 HD
ATOM     82  O   UNL     1       7.179   1.720  -8.592  1.00  0.00    -0.269 OA
BRANCH  80  83
ATOM     83  C   UNL     1       9.059   1.239  -7.280  1.00  0.00     0.040 A 
ATOM     84  C   UNL     1       9.881   2.310  -7.623  1.00  0.00     0.016 A 
ATOM     85  C   UNL     1       9.612   0.080  -6.731  1.00  0.00     0.020 A 
ATOM     86  C   UNL     1      11.255   2.225  -7.389  1.00  0.00     0.027 A 
ATOM     87  C   UNL     1      10.984   0.018  -6.435  1.00  0.00    -0.017 A 
ATOM     88  C   UNL     1      11.824   1.075  -6.821  1.00  0.00     0.038 A 
ATOM     89  C   UNL     1      11.533  -1.181  -5.693  1.00  0.00     0.049 C 
ATOM     90  N   UNL     1      13.191   1.047  -6.574  1.00  0.00    -0.378 N 
ATOM     91  C   UNL     1      10.849  -1.403  -4.365  1.00  0.00    -0.023 C 
ATOM     92  C   UNL     1      12.992  -1.014  -5.231  1.00  0.00     0.031 C 
ATOM     93  C   UNL     1      13.829  -0.218  -6.233  1.00  0.00     0.114 C 
ATOM     94  H   UNL     1      13.723   1.873  -6.630  1.00  0.00     0.161 HD
ATOM     95  C   UNL     1      11.600  -0.989  -3.337  1.00  0.00    -0.030 C 
ATOM     96  C   UNL     1      12.908  -0.437  -3.808  1.00  0.00     0.034 C 
BRANCH  93  97
ATOM     97  C   UNL     1      15.264  -0.028  -5.764  1.00  0.00    -0.022 A 
ATOM     98  C   UNL     1      16.117  -1.139  -5.699  1.00  0.00     0.026 A 
ATOM     99  C   UNL     1      15.784   1.210  -5.367  1.00  0.00     0.026 A 
ATOM    100  C   UNL     1      17.423  -0.966  -5.266  1.00  0.00     0.111 A 
ATOM    101  C   UNL     1      17.110   1.285  -4.964  1.00  0.00     0.111 A 
ATOM    102  N   UNL     1      17.943   0.226  -4.912  1.00  0.00    -0.265 NA
ENDBRANCH  93  97
ENDBRANCH  80  83
ENDBRANCH  78  79
ENDBRANCH  77  78
ENDBRANCH  76  77
ENDBRANCH  75  76
ENDBRANCH   1  75
TORSDOF 17
