REMARK SMILES COC(=O)c1ccc([C@H]2CC(=O)Nc3c(C(=O)NCCCCCCNC(=O)c4ccc(-c5c6nc(c(-c7c(F)cc(S(=O)(=O)[O-])cc7F)c7ccc([nH]7)c(-c7c(F)cc(S(=O)(=O)[O-])cc7F)c7nc(c(-c8c(F)cc(S(=O)(=O)[O-])cc8F)c8ccc5[nH]8)C=C7)C=C6)cc4)cn(-c4cc(OC)ccc4OC)c32)cc1
REMARK SMILES IDX 21 1 20 2 19 3 18 4 16 5 17 6 15 8 9 9 10 10 106 11 11 12
REMARK SMILES IDX 14 13 95 14 12 15 13 16 94 17 8 19 5 20 6 21 108 22 7 23
REMARK SMILES IDX 107 24 3 25 4 26 2 27 1 28 96 29 97 30 103 31 98 32 102 33
REMARK SMILES IDX 101 34 104 35 105 36 99 37 100 38 22 39 23 40 24 41 25 42
REMARK SMILES IDX 26 43 27 45 28 46 29 47 93 48 30 49 92 50 31 51 32 52 33 53
REMARK SMILES IDX 86 54 34 55 91 56 85 57 87 58 35 59 90 60 84 61 83 62 36 64
REMARK SMILES IDX 70 65 49 66 69 67 50 68 53 69 68 70 88 71 51 72 52 73 67 75
REMARK SMILES IDX 89 76 54 77 37 78 38 79 47 80 39 81 40 82 46 83 48 84 41 85
REMARK SMILES IDX 42 86 43 87 44 88 45 89 71 90 72 91 81 92 73 93 74 94 80 95
REMARK SMILES IDX 82 96 75 97 76 98 77 99 78 100 79 101 55 102 56 103 65 104
REMARK SMILES IDX 57 105 58 106 64 107 66 108 59 109 60 110 61 111 62 112
REMARK SMILES IDX 63 113
REMARK H PARENT 18 7 13 18 25 44 87 63 53 74
REMARK Flexibility Score: inf
ROOT
ATOM      1  C   UNL     1      -8.347  -2.767   8.322  1.00  0.00     0.002 C 
ENDROOT
BRANCH   1   2
ATOM      2  C   UNL     1      -6.880  -2.965   7.932  1.00  0.00     0.021 C 
BRANCH   2   3
ATOM      3  C   UNL     1      -6.214  -1.676   7.436  1.00  0.00     0.116 C 
BRANCH   3   4
ATOM      4  N   UNL     1      -5.492  -1.044   8.504  1.00  0.00    -0.352 N 
ATOM      5  C   UNL     1      -4.174  -1.017   8.843  1.00  0.00     0.254 C 
ATOM      6  O   UNL     1      -3.902  -0.262   9.783  1.00  0.00    -0.269 OA
ATOM      7  H   UNL     1      -6.066  -0.524   9.113  1.00  0.00     0.163 HD
BRANCH   5   8
ATOM      8  C   UNL     1      -3.112  -1.789   8.188  1.00  0.00     0.081 A 
ATOM      9  C   UNL     1      -1.093  -4.438   6.430  1.00  0.00     0.078 C 
ATOM     10  C   UNL     1      -2.221  -5.370   5.963  1.00  0.00     0.115 C 
ATOM     11  C   UNL     1      -1.631  -3.260   7.222  1.00  0.00     0.055 A 
ATOM     12  C   UNL     1      -3.582  -4.745   5.853  1.00  0.00     0.225 C 
ATOM     13  C   UNL     1      -2.973  -2.945   7.354  1.00  0.00     0.076 A 
ATOM     14  N   UNL     1      -0.914  -2.316   7.941  1.00  0.00    -0.314 N 
ATOM     15  O   UNL     1      -4.450  -5.193   5.102  1.00  0.00    -0.275 OA
ATOM     16  N   UNL     1      -3.892  -3.724   6.698  1.00  0.00    -0.324 N 
ATOM     17  C   UNL     1      -1.800  -1.380   8.399  1.00  0.00     0.107 A 
ATOM     18  H   UNL     1      -4.845  -3.530   6.850  1.00  0.00     0.170 HD
BRANCH   9  19
ATOM     19  C   UNL     1      -0.035  -5.323   7.090  1.00  0.00    -0.038 A 
ATOM     20  C   UNL     1       2.068  -6.836   8.207  1.00  0.00     0.060 A 
ATOM     21  C   UNL     1       1.815  -6.890   6.833  1.00  0.00     0.016 A 
ATOM     22  C   UNL     1       1.205  -6.112   9.031  1.00  0.00     0.016 A 
ATOM     23  C   UNL     1       0.782  -6.129   6.279  1.00  0.00     0.005 A 
ATOM     24  C   UNL     1       0.137  -5.405   8.477  1.00  0.00     0.005 A 
BRANCH  20  25
ATOM     25  C   UNL     1       3.288  -7.512   8.727  1.00  0.00     0.337 C 
ATOM     26  O   UNL     1       4.136  -8.011   8.014  1.00  0.00    -0.246 OA
BRANCH  25  27
ATOM     27  O   UNL     1       3.338  -7.414  10.081  1.00  0.00    -0.465 OA
ATOM     28  C   UNL     1       4.509  -7.984  10.662  1.00  0.00     0.282 C 
ENDBRANCH  25  27
ENDBRANCH  20  25
ENDBRANCH   9  19
BRANCH  14  29
ATOM     29  C   UNL     1       0.471  -2.276   8.195  1.00  0.00     0.091 A 
ATOM     30  C   UNL     1       1.311  -2.309   7.064  1.00  0.00     0.077 A 
ATOM     31  C   UNL     1       1.018  -2.270   9.488  1.00  0.00     0.143 A 
ATOM     32  C   UNL     1       2.692  -2.419   7.198  1.00  0.00     0.121 A 
ATOM     33  C   UNL     1       2.416  -2.369   9.594  1.00  0.00     0.052 A 
ATOM     34  C   UNL     1       3.245  -2.461   8.471  1.00  0.00     0.050 A 
BRANCH  31  35
ATOM     35  O   UNL     1       0.458  -2.239  10.730  1.00  0.00    -0.495 OA
ATOM     36  C   UNL     1      -0.906  -2.512  10.999  1.00  0.00     0.278 C 
ENDBRANCH  31  35
BRANCH  32  37
ATOM     37  O   UNL     1       3.387  -2.467   6.023  1.00  0.00    -0.497 OA
ATOM     38  C   UNL     1       4.696  -3.020   6.100  1.00  0.00     0.278 C 
ENDBRANCH  32  37
ENDBRANCH  14  29
ENDBRANCH   5   8
ENDBRANCH   3   4
ENDBRANCH   2   3
ENDBRANCH   1   2
BRANCH   1  39
ATOM     39  C   UNL     1      -9.243  -2.256   7.182  1.00  0.00     0.002 C 
BRANCH  39  40
ATOM     40  C   UNL     1      -9.200  -3.079   5.884  1.00  0.00     0.021 C 
BRANCH  40  41
ATOM     41  C   UNL     1      -9.909  -4.417   6.018  1.00  0.00     0.116 C 
BRANCH  41  42
ATOM     42  N   UNL     1     -11.341  -4.222   6.239  1.00  0.00    -0.352 N 
ATOM     43  C   UNL     1     -12.323  -5.157   6.463  1.00  0.00     0.251 C 
ATOM     44  H   UNL     1     -11.645  -3.286   6.225  1.00  0.00     0.163 HD
ATOM     45  O   UNL     1     -13.502  -4.865   6.304  1.00  0.00    -0.269 OA
BRANCH  43  46
ATOM     46  C   UNL     1     -11.935  -6.511   6.888  1.00  0.00     0.039 A 
ATOM     47  C   UNL     1     -12.581  -7.629   6.357  1.00  0.00     0.014 A 
ATOM     48  C   UNL     1     -10.905  -6.652   7.816  1.00  0.00     0.014 A 
ATOM     49  C   UNL     1     -12.132  -8.896   6.713  1.00  0.00     0.010 A 
ATOM     50  C   UNL     1     -10.377  -7.894   8.063  1.00  0.00     0.010 A 
ATOM     51  C   UNL     1     -11.015  -9.021   7.554  1.00  0.00    -0.014 A 
BRANCH  51  52
ATOM     52  C   UNL     1     -10.431 -10.334   7.809  1.00  0.00     0.031 A 
ATOM     53  C   UNL     1     -10.033 -11.081   6.583  1.00  0.00     0.074 A 
ATOM     54  C   UNL     1     -10.065 -10.744   9.042  1.00  0.00     0.049 A 
ATOM     55  N   UNL     1     -10.541 -12.174   6.117  1.00  0.00    -0.248 NA
ATOM     56  C   UNL     1      -9.046 -10.459   5.684  1.00  0.00     0.031 C 
ATOM     57  C   UNL     1     -10.088  -9.982  10.297  1.00  0.00     0.029 A 
ATOM     58  N   UNL     1      -9.474 -11.910   9.417  1.00  0.00    -0.354 N 
ATOM     59  C   UNL     1      -9.779 -12.504   4.997  1.00  0.00     0.074 A 
ATOM     60  C   UNL     1      -9.024 -11.325   4.668  1.00  0.00     0.031 C 
ATOM     61  C   UNL     1      -9.322 -10.605  11.219  1.00  0.00     0.029 A 
ATOM     62  C   UNL     1      -8.901 -11.886  10.684  1.00  0.00     0.049 A 
ATOM     63  H   UNL     1      -9.454 -12.706   8.838  1.00  0.00     0.167 HD
ATOM     64  C   UNL     1      -9.646 -13.798   4.587  1.00  0.00     0.037 A 
ATOM     65  C   UNL     1      -8.108 -12.839  11.237  1.00  0.00     0.037 A 
ATOM     66  C   UNL     1     -10.652 -14.636   5.194  1.00  0.00     0.049 A 
ATOM     67  C   UNL     1      -8.353 -14.095  10.481  1.00  0.00     0.074 A 
ATOM     68  C   UNL     1     -12.033 -14.644   5.207  1.00  0.00     0.029 A 
ATOM     69  N   UNL     1     -10.265 -15.431   6.247  1.00  0.00    -0.354 N 
ATOM     70  N   UNL     1      -9.490 -14.737  10.486  1.00  0.00    -0.248 NA
ATOM     71  C   UNL     1      -7.479 -14.388   9.356  1.00  0.00     0.031 C 
ATOM     72  C   UNL     1     -12.386 -15.022   6.536  1.00  0.00     0.029 A 
ATOM     73  C   UNL     1     -11.207 -15.294   7.233  1.00  0.00     0.049 A 
ATOM     74  H   UNL     1      -9.459 -15.995   6.285  1.00  0.00     0.167 HD
ATOM     75  C   UNL     1      -9.661 -15.166   9.178  1.00  0.00     0.074 A 
ATOM     76  C   UNL     1      -8.350 -15.006   8.553  1.00  0.00     0.031 C 
ATOM     77  C   UNL     1     -10.908 -15.342   8.648  1.00  0.00     0.037 A 
BRANCH  64  78
ATOM     78  C   UNL     1      -8.398 -14.380   3.956  1.00  0.00     0.058 A 
ATOM     79  C   UNL     1      -8.424 -15.710   3.481  1.00  0.00     0.135 A 
ATOM     80  C   UNL     1      -7.112 -13.803   4.061  1.00  0.00     0.135 A 
ATOM     81  F   UNL     1      -9.588 -16.362   3.335  1.00  0.00    -0.206 F 
ATOM     82  C   UNL     1      -7.261 -16.438   3.224  1.00  0.00     0.059 A 
ATOM     83  C   UNL     1      -5.944 -14.493   3.756  1.00  0.00     0.059 A 
ATOM     84  F   UNL     1      -6.911 -12.578   4.558  1.00  0.00    -0.206 F 
ATOM     85  C   UNL     1      -6.024 -15.824   3.385  1.00  0.00     0.060 A 
BRANCH  85  86
ATOM     86  S   UNL     1      -4.520 -16.790   3.171  1.00  0.00     0.124 S 
ATOM     87  O   UNL     1      -4.577 -17.674   4.329  1.00  0.00    -0.237 OA
ATOM     88  O   UNL     1      -4.746 -17.418   1.873  1.00  0.00    -0.237 OA
ATOM     89  O   UNL     1      -3.466 -15.780   3.197  1.00  0.00    -0.744 OA
ENDBRANCH  85  86
ENDBRANCH  64  78
BRANCH  65  90
ATOM     90  C   UNL     1      -6.937 -12.655  12.135  1.00  0.00     0.058 A 
ATOM     91  C   UNL     1      -6.365 -13.743  12.817  1.00  0.00     0.135 A 
ATOM     92  C   UNL     1      -6.178 -11.466  12.119  1.00  0.00     0.135 A 
ATOM     93  F   UNL     1      -7.009 -14.919  12.869  1.00  0.00    -0.206 F 
ATOM     94  C   UNL     1      -5.093 -13.677  13.399  1.00  0.00     0.059 A 
ATOM     95  C   UNL     1      -4.914 -11.373  12.700  1.00  0.00     0.059 A 
ATOM     96  F   UNL     1      -6.603 -10.382  11.453  1.00  0.00    -0.206 F 
ATOM     97  C   UNL     1      -4.364 -12.491  13.315  1.00  0.00     0.060 A 
BRANCH  97  98
ATOM     98  S   UNL     1      -2.652 -12.453  13.899  1.00  0.00     0.124 S 
ATOM     99  O   UNL     1      -2.824 -12.542  15.345  1.00  0.00    -0.237 OA
ATOM    100  O   UNL     1      -2.078 -13.627  13.251  1.00  0.00    -0.237 OA
ATOM    101  O   UNL     1      -2.156 -11.169  13.408  1.00  0.00    -0.744 OA
ENDBRANCH  97  98
ENDBRANCH  65  90
BRANCH  77 102
ATOM    102  C   UNL     1     -12.089 -15.374   9.586  1.00  0.00     0.058 A 
ATOM    103  C   UNL     1     -12.514 -14.295  10.382  1.00  0.00     0.135 A 
ATOM    104  C   UNL     1     -12.917 -16.507   9.556  1.00  0.00     0.135 A 
ATOM    105  F   UNL     1     -11.841 -13.136  10.391  1.00  0.00    -0.206 F 
ATOM    106  C   UNL     1     -13.684 -14.356  11.143  1.00  0.00     0.059 A 
ATOM    107  C   UNL     1     -14.103 -16.578  10.280  1.00  0.00     0.059 A 
ATOM    108  F   UNL     1     -12.601 -17.549   8.769  1.00  0.00    -0.206 F 
ATOM    109  C   UNL     1     -14.474 -15.504  11.084  1.00  0.00     0.060 A 
BRANCH 109 110
ATOM    110  S   UNL     1     -16.022 -15.559  12.012  1.00  0.00     0.124 S 
ATOM    111  O   UNL     1     -15.552 -15.658  13.389  1.00  0.00    -0.237 OA
ATOM    112  O   UNL     1     -16.657 -14.295  11.648  1.00  0.00    -0.237 OA
ATOM    113  O   UNL     1     -16.689 -16.751  11.494  1.00  0.00    -0.744 OA
ENDBRANCH 109 110
ENDBRANCH  77 102
ENDBRANCH  51  52
ENDBRANCH  43  46
ENDBRANCH  41  42
ENDBRANCH  40  41
ENDBRANCH  39  40
ENDBRANCH   1  39
TORSDOF 22
