REMARK SMILES CC(=O)NCCc1c[nH]c2ccc(C(=O)NCCCCCCNC(=O)c3ccc(-c4c5nc(c(-c6c(F)cc(S(=O)(=O)[O-])cc6F)c6ccc([nH]6)c(-c6c(F)cc(S(=O)(=O)[O-])cc6F)c6nc(c(-c7c(F)cc(S(=O)(=O)[O-])cc7F)c7ccc4[nH]7)C=C6)C=C5)cc3)cc12
REMARK SMILES IDX 19 1 18 2 17 3 16 4 14 5 15 6 13 8 7 9 8 10 93 11 9 12 10 13
REMARK SMILES IDX 92 14 11 16 12 17 6 18 5 19 4 20 1 21 2 22 3 23 20 25 21 26
REMARK SMILES IDX 22 27 23 28 24 29 25 31 26 32 27 33 91 34 28 35 90 36 29 37
REMARK SMILES IDX 30 38 31 39 84 40 32 41 89 42 83 43 85 44 33 45 88 46 82 47
REMARK SMILES IDX 81 48 34 50 68 51 47 52 67 53 48 54 51 55 66 56 86 57 49 58
REMARK SMILES IDX 50 59 65 61 87 62 52 63 35 64 36 65 45 66 37 67 38 68 44 69
REMARK SMILES IDX 46 70 39 71 40 72 41 73 42 74 43 75 69 76 70 77 79 78 71 79
REMARK SMILES IDX 72 80 78 81 80 82 73 83 74 84 75 85 76 86 77 87 53 88 54 89
REMARK SMILES IDX 63 90 55 91 56 92 62 93 64 94 57 95 58 96 59 97 60 98 61 99
REMARK H PARENT 16 7 9 15 4 24 23 30 85 49 51 60
REMARK Flexibility Score: inf
ROOT
ATOM      1  C   UNL     1       1.009   1.552  10.412  1.00  0.00     0.002 C 
ENDROOT
BRANCH   1   2
ATOM      2  C   UNL     1       1.254   0.149   9.835  1.00  0.00     0.021 C 
BRANCH   2   3
ATOM      3  C   UNL     1       0.278  -0.210   8.712  1.00  0.00     0.116 C 
BRANCH   3   4
ATOM      4  N   UNL     1       0.720   0.409   7.482  1.00  0.00    -0.352 N 
ATOM      5  C   UNL     1       1.450  -0.032   6.413  1.00  0.00     0.251 C 
ATOM      6  O   UNL     1       1.791   0.823   5.593  1.00  0.00    -0.269 OA
ATOM      7  H   UNL     1       0.434   1.348   7.395  1.00  0.00     0.163 HD
BRANCH   5   8
ATOM      8  C   UNL     1       1.794  -1.460   6.151  1.00  0.00     0.040 A 
ATOM      9  C   UNL     1       2.678  -3.701   3.159  1.00  0.00    -0.021 A 
ATOM     10  C   UNL     1       2.812  -5.055   3.403  1.00  0.00     0.087 A 
ATOM     11  C   UNL     1       2.347  -3.091   4.409  1.00  0.00     0.003 A 
ATOM     12  N   UNL     1       2.594  -5.277   4.738  1.00  0.00    -0.361 N 
ATOM     13  C   UNL     1       2.339  -4.088   5.380  1.00  0.00     0.046 A 
ATOM     14  C   UNL     1       2.062  -1.770   4.804  1.00  0.00     0.024 A 
ATOM     15  H   UNL     1       2.616  -6.159   5.174  1.00  0.00     0.166 HD
ATOM     16  C   UNL     1       2.122  -3.814   6.733  1.00  0.00     0.027 A 
ATOM     17  C   UNL     1       1.887  -2.479   7.102  1.00  0.00     0.016 A 
BRANCH   9  18
ATOM     18  C   UNL     1       2.871  -2.998   1.849  1.00  0.00     0.059 C 
BRANCH  18  19
ATOM     19  C   UNL     1       1.571  -2.799   1.065  1.00  0.00     0.120 C 
BRANCH  19  20
ATOM     20  N   UNL     1       0.674  -1.832   1.679  1.00  0.00    -0.356 N 
ATOM     21  C   UNL     1       0.996  -0.050   0.011  1.00  0.00     0.114 C 
ATOM     22  C   UNL     1       0.357  -0.572   1.268  1.00  0.00     0.216 C 
ATOM     23  O   UNL     1      -0.448   0.098   1.909  1.00  0.00    -0.275 OA
ATOM     24  H   UNL     1       0.235  -2.129   2.508  1.00  0.00     0.163 HD
ENDBRANCH  19  20
ENDBRANCH  18  19
ENDBRANCH   9  18
ENDBRANCH   5   8
ENDBRANCH   3   4
ENDBRANCH   2   3
ENDBRANCH   1   2
BRANCH   1  25
ATOM     25  C   UNL     1      -0.362   1.741  11.074  1.00  0.00     0.002 C 
BRANCH  25  26
ATOM     26  C   UNL     1      -0.707   0.699  12.142  1.00  0.00     0.021 C 
BRANCH  26  27
ATOM     27  C   UNL     1       0.264   0.668  13.317  1.00  0.00     0.116 C 
BRANCH  27  28
ATOM     28  N   UNL     1       0.232   1.914  14.066  1.00  0.00    -0.352 N 
ATOM     29  C   UNL     1      -0.050   2.119  15.393  1.00  0.00     0.251 C 
ATOM     30  H   UNL     1       0.442   2.725  13.547  1.00  0.00     0.163 HD
ATOM     31  O   UNL     1      -0.283   3.252  15.803  1.00  0.00    -0.269 OA
BRANCH  29  32
ATOM     32  C   UNL     1      -0.079   0.969  16.321  1.00  0.00     0.039 A 
ATOM     33  C   UNL     1      -1.110   0.879  17.258  1.00  0.00     0.014 A 
ATOM     34  C   UNL     1       0.921  -0.007  16.276  1.00  0.00     0.014 A 
ATOM     35  C   UNL     1      -1.164  -0.217  18.120  1.00  0.00     0.010 A 
ATOM     36  C   UNL     1       0.825  -1.135  17.087  1.00  0.00     0.010 A 
ATOM     37  C   UNL     1      -0.213  -1.247  18.023  1.00  0.00    -0.014 A 
BRANCH  37  38
ATOM     38  C   UNL     1      -0.287  -2.445  18.896  1.00  0.00     0.031 A 
ATOM     39  C   UNL     1       0.808  -2.728  19.889  1.00  0.00     0.074 A 
ATOM     40  C   UNL     1      -1.313  -3.308  18.753  1.00  0.00     0.049 A 
ATOM     41  N   UNL     1       0.946  -3.746  20.698  1.00  0.00    -0.248 NA
ATOM     42  C   UNL     1       1.907  -1.751  19.961  1.00  0.00     0.031 C 
ATOM     43  C   UNL     1      -2.406  -3.168  17.788  1.00  0.00     0.029 A 
ATOM     44  N   UNL     1      -1.599  -4.477  19.410  1.00  0.00    -0.354 N 
ATOM     45  C   UNL     1       2.148  -3.541  21.364  1.00  0.00     0.074 A 
ATOM     46  C   UNL     1       2.728  -2.330  20.826  1.00  0.00     0.031 C 
ATOM     47  C   UNL     1      -3.254  -4.198  17.932  1.00  0.00     0.029 A 
ATOM     48  C   UNL     1      -2.748  -5.090  18.971  1.00  0.00     0.049 A 
ATOM     49  H   UNL     1      -1.034  -4.844  20.128  1.00  0.00     0.167 HD
ATOM     50  C   UNL     1       2.706  -4.282  22.352  1.00  0.00     0.037 A 
ATOM     51  C   UNL     1      -3.327  -6.244  19.356  1.00  0.00     0.037 A 
ATOM     52  C   UNL     1       2.110  -5.473  22.898  1.00  0.00     0.049 A 
ATOM     53  C   UNL     1      -2.691  -7.048  20.458  1.00  0.00     0.074 A 
ATOM     54  C   UNL     1       2.561  -6.260  23.943  1.00  0.00     0.029 A 
ATOM     55  N   UNL     1       0.934  -6.053  22.441  1.00  0.00    -0.354 N 
ATOM     56  N   UNL     1      -1.589  -6.802  21.127  1.00  0.00    -0.248 NA
ATOM     57  C   UNL     1      -3.379  -8.281  20.862  1.00  0.00     0.031 C 
ATOM     58  C   UNL     1       1.684  -7.341  24.087  1.00  0.00     0.029 A 
ATOM     59  C   UNL     1       0.658  -7.201  23.166  1.00  0.00     0.049 A 
ATOM     60  H   UNL     1       0.379  -5.700  21.709  1.00  0.00     0.167 HD
ATOM     61  C   UNL     1      -1.464  -7.837  22.046  1.00  0.00     0.074 A 
ATOM     62  C   UNL     1      -2.610  -8.703  21.858  1.00  0.00     0.031 C 
ATOM     63  C   UNL     1      -0.488  -8.053  22.963  1.00  0.00     0.037 A 
BRANCH  50  64
ATOM     64  C   UNL     1       4.029  -3.824  22.906  1.00  0.00     0.058 A 
ATOM     65  C   UNL     1       4.141  -2.659  23.682  1.00  0.00     0.135 A 
ATOM     66  C   UNL     1       5.195  -4.575  22.684  1.00  0.00     0.135 A 
ATOM     67  F   UNL     1       3.061  -1.894  23.914  1.00  0.00    -0.206 F 
ATOM     68  C   UNL     1       5.365  -2.236  24.190  1.00  0.00     0.059 A 
ATOM     69  C   UNL     1       6.425  -4.187  23.208  1.00  0.00     0.059 A 
ATOM     70  F   UNL     1       5.147  -5.697  21.950  1.00  0.00    -0.206 F 
ATOM     71  C   UNL     1       6.502  -3.007  23.947  1.00  0.00     0.060 A 
BRANCH  71  72
ATOM     72  S   UNL     1       8.083  -2.446  24.614  1.00  0.00     0.124 S 
ATOM     73  O   UNL     1       8.380  -1.313  23.743  1.00  0.00    -0.237 OA
ATOM     74  O   UNL     1       7.739  -2.112  25.992  1.00  0.00    -0.237 OA
ATOM     75  O   UNL     1       8.953  -3.607  24.451  1.00  0.00    -0.744 OA
ENDBRANCH  71  72
ENDBRANCH  50  64
BRANCH  51  76
ATOM     76  C   UNL     1      -4.588  -6.694  18.709  1.00  0.00     0.058 A 
ATOM     77  C   UNL     1      -5.805  -6.672  19.404  1.00  0.00     0.135 A 
ATOM     78  C   UNL     1      -4.605  -7.133  17.375  1.00  0.00     0.135 A 
ATOM     79  F   UNL     1      -5.839  -6.265  20.683  1.00  0.00    -0.206 F 
ATOM     80  C   UNL     1      -6.993  -7.083  18.809  1.00  0.00     0.059 A 
ATOM     81  C   UNL     1      -5.784  -7.524  16.750  1.00  0.00     0.059 A 
ATOM     82  F   UNL     1      -3.469  -7.156  16.660  1.00  0.00    -0.206 F 
ATOM     83  C   UNL     1      -6.972  -7.504  17.478  1.00  0.00     0.060 A 
BRANCH  83  84
ATOM     84  S   UNL     1      -8.528  -7.986  16.698  1.00  0.00     0.124 S 
ATOM     85  O   UNL     1      -8.788  -9.273  17.331  1.00  0.00    -0.237 OA
ATOM     86  O   UNL     1      -9.415  -6.892  17.083  1.00  0.00    -0.237 OA
ATOM     87  O   UNL     1      -8.189  -8.036  15.278  1.00  0.00    -0.744 OA
ENDBRANCH  83  84
ENDBRANCH  51  76
BRANCH  63  88
ATOM     88  C   UNL     1      -0.628  -9.259  23.850  1.00  0.00     0.058 A 
ATOM     89  C   UNL     1      -0.432 -10.560  23.361  1.00  0.00     0.135 A 
ATOM     90  C   UNL     1      -0.918  -9.109  25.216  1.00  0.00     0.135 A 
ATOM     91  F   UNL     1      -0.159 -10.760  22.061  1.00  0.00    -0.206 F 
ATOM     92  C   UNL     1      -0.544 -11.672  24.189  1.00  0.00     0.059 A 
ATOM     93  C   UNL     1      -1.006 -10.205  26.069  1.00  0.00     0.059 A 
ATOM     94  F   UNL     1      -1.105  -7.886  25.737  1.00  0.00    -0.206 F 
ATOM     95  C   UNL     1      -0.830 -11.484  25.543  1.00  0.00     0.060 A 
BRANCH  95  96
ATOM     96  S   UNL     1      -0.945 -12.933  26.612  1.00  0.00     0.124 S 
ATOM     97  O   UNL     1      -2.228 -13.496  26.207  1.00  0.00    -0.237 OA
ATOM     98  O   UNL     1       0.235 -13.701  26.225  1.00  0.00    -0.237 OA
ATOM     99  O   UNL     1      -0.902 -12.368  27.957  1.00  0.00    -0.744 OA
ENDBRANCH  95  96
ENDBRANCH  63  88
ENDBRANCH  37  38
ENDBRANCH  29  32
ENDBRANCH  27  28
ENDBRANCH  26  27
ENDBRANCH  25  26
ENDBRANCH   1  25
TORSDOF 19
