REMARK SMILES Cc1c(CC(=O)N[C@@H](C)C(=O)NCCCCCCNC(=O)c2ccc(-c3c4nc(c(-c5c(F)cc(S(=O)(=O)[O-])cc5F)c5ccc([nH]5)c(-c5c(F)cc(S(=O)(=O)[O-])cc5F)c5nc(c(-c6c(F)cc(S(=O)(=O)[O-])cc6F)c6ccc3[nH]6)C=C5)C=C4)cc2)c(=O)oc2cc3oc4c(c3cc12)CCCC4
REMARK SMILES IDX 15 1 14 2 13 3 12 4 10 5 11 6 8 8 9 9 7 10 5 11 6 12 4 14
REMARK SMILES IDX 3 15 1 16 2 17 99 18 88 19 91 20 98 21 89 22 90 23 92 24
REMARK SMILES IDX 97 25 93 26 96 27 94 28 95 29 100 30 103 31 101 32 102 33
REMARK SMILES IDX 16 34 17 35 18 36 19 37 20 38 21 40 22 41 23 42 87 43 24 44
REMARK SMILES IDX 86 45 25 46 26 47 27 48 80 49 28 50 85 51 79 52 81 53 29 54
REMARK SMILES IDX 84 55 78 56 77 57 30 59 64 60 43 61 63 62 44 63 47 64 62 65
REMARK SMILES IDX 82 66 45 67 46 68 61 70 83 71 48 72 31 73 32 74 41 75 33 76
REMARK SMILES IDX 34 77 40 78 42 79 35 80 36 81 37 82 38 83 39 84 65 85 66 86
REMARK SMILES IDX 75 87 67 88 68 89 74 90 76 91 69 92 70 93 71 94 72 95 73 96
REMARK SMILES IDX 49 97 50 98 59 99 51 100 52 101 58 102 60 103 53 104 54 105
REMARK SMILES IDX 55 106 56 107 57 108
REMARK H PARENT 12 7 7 13 19 39 81 58 47 69
REMARK Flexibility Score: inf
ROOT
ATOM      1  C   UNL     1      -0.728   5.559   6.487  1.00  0.00     0.002 C 
ENDROOT
BRANCH   1   2
ATOM      2  C   UNL     1      -0.706   4.364   5.525  1.00  0.00     0.021 C 
BRANCH   2   3
ATOM      3  C   UNL     1      -1.449   4.617   4.217  1.00  0.00     0.116 C 
BRANCH   3   4
ATOM      4  N   UNL     1      -0.813   5.689   3.476  1.00  0.00    -0.354 N 
ATOM      5  C   UNL     1      -0.120   5.686   2.308  1.00  0.00     0.242 C 
ATOM      6  O   UNL     1       0.420   6.739   1.957  1.00  0.00    -0.273 OA
ATOM      7  H   UNL     1      -0.899   6.577   3.894  1.00  0.00     0.163 HD
BRANCH   5   8
ATOM      8  C   UNL     1      -0.042   4.432   1.428  1.00  0.00     0.168 C 
ATOM      9  C   UNL     1      -1.421   4.027   0.909  1.00  0.00     0.041 C 
BRANCH   8  10
ATOM     10  N   UNL     1       0.664   3.348   2.112  1.00  0.00    -0.344 N 
ATOM     11  C   UNL     1       1.775   2.664   1.714  1.00  0.00     0.225 C 
ATOM     12  O   UNL     1       2.310   1.899   2.520  1.00  0.00    -0.275 OA
ATOM     13  H   UNL     1       0.286   3.075   2.979  1.00  0.00     0.164 HD
BRANCH  11  14
ATOM     14  C   UNL     1       2.320   2.824   0.298  1.00  0.00     0.143 C 
BRANCH  14  15
ATOM     15  C   UNL     1       1.279   2.447  -0.728  1.00  0.00     0.051 A 
ATOM     16  C   UNL     1       0.957   0.110   0.166  1.00  0.00     0.046 C 
ATOM     17  C   UNL     1       0.588   1.289  -0.706  1.00  0.00    -0.029 A 
ATOM     18  C   UNL     1      -0.550   1.127  -1.621  1.00  0.00     0.022 A 
ATOM     19  C   UNL     1       1.018   3.488  -1.760  1.00  0.00     0.340 A 
ATOM     20  C   UNL     1      -0.751   2.067  -2.634  1.00  0.00     0.142 A 
ATOM     21  C   UNL     1      -1.368  -0.006  -1.572  1.00  0.00     0.024 A 
ATOM     22  O   UNL     1       1.685   4.515  -1.821  1.00  0.00    -0.246 OA
ATOM     23  O   UNL     1       0.003   3.252  -2.669  1.00  0.00    -0.422 OA
ATOM     24  C   UNL     1      -1.611   1.864  -3.719  1.00  0.00     0.095 A 
ATOM     25  C   UNL     1      -2.081  -0.332  -2.731  1.00  0.00     0.025 A 
ATOM     26  C   UNL     1      -2.129   0.580  -3.782  1.00  0.00     0.138 A 
ATOM     27  C   UNL     1      -2.551  -1.562  -3.244  1.00  0.00     0.001 A 
ATOM     28  O   UNL     1      -2.549  -0.038  -4.925  1.00  0.00    -0.461 OA
ATOM     29  C   UNL     1      -2.610  -1.355  -4.607  1.00  0.00     0.108 A 
ATOM     30  C   UNL     1      -2.352  -2.937  -2.717  1.00  0.00     0.040 C 
ATOM     31  C   UNL     1      -2.106  -2.368  -5.573  1.00  0.00     0.076 C 
ATOM     32  C   UNL     1      -1.154  -3.580  -3.452  1.00  0.00     0.005 C 
ATOM     33  C   UNL     1      -0.873  -3.018  -4.879  1.00  0.00     0.008 C 
ENDBRANCH  14  15
ENDBRANCH  11  14
ENDBRANCH   8  10
ENDBRANCH   5   8
ENDBRANCH   3   4
ENDBRANCH   2   3
ENDBRANCH   1   2
BRANCH   1  34
ATOM     34  C   UNL     1      -2.126   6.018   6.925  1.00  0.00     0.002 C 
BRANCH  34  35
ATOM     35  C   UNL     1      -3.045   4.898   7.413  1.00  0.00     0.021 C 
BRANCH  35  36
ATOM     36  C   UNL     1      -2.431   4.051   8.523  1.00  0.00     0.116 C 
BRANCH  36  37
ATOM     37  N   UNL     1      -2.629   4.630   9.840  1.00  0.00    -0.352 N 
ATOM     38  C   UNL     1      -3.685   4.426  10.703  1.00  0.00     0.251 C 
ATOM     39  H   UNL     1      -1.925   5.241  10.154  1.00  0.00     0.163 HD
ATOM     40  O   UNL     1      -3.788   5.055  11.739  1.00  0.00    -0.269 OA
BRANCH  38  41
ATOM     41  C   UNL     1      -4.707   3.440  10.302  1.00  0.00     0.039 A 
ATOM     42  C   UNL     1      -4.337   2.106  10.096  1.00  0.00     0.014 A 
ATOM     43  C   UNL     1      -5.996   3.886  10.018  1.00  0.00     0.014 A 
ATOM     44  C   UNL     1      -5.224   1.238   9.473  1.00  0.00     0.010 A 
ATOM     45  C   UNL     1      -6.898   3.001   9.435  1.00  0.00     0.010 A 
ATOM     46  C   UNL     1      -6.500   1.688   9.127  1.00  0.00    -0.014 A 
BRANCH  46  47
ATOM     47  C   UNL     1      -7.417   0.710   8.524  1.00  0.00     0.031 A 
ATOM     48  C   UNL     1      -8.557   0.355   9.406  1.00  0.00     0.074 A 
ATOM     49  C   UNL     1      -7.708   0.688   7.205  1.00  0.00     0.049 A 
ATOM     50  N   UNL     1      -9.571   1.159   9.501  1.00  0.00    -0.248 NA
ATOM     51  C   UNL     1      -8.544  -0.713  10.398  1.00  0.00     0.031 C 
ATOM     52  C   UNL     1      -7.544   1.830   6.295  1.00  0.00     0.029 A 
ATOM     53  N   UNL     1      -8.426  -0.231   6.477  1.00  0.00    -0.354 N 
ATOM     54  C   UNL     1     -10.313   0.758  10.588  1.00  0.00     0.074 A 
ATOM     55  C   UNL     1      -9.648  -0.421  11.106  1.00  0.00     0.031 C 
ATOM     56  C   UNL     1      -8.310   1.621   5.204  1.00  0.00     0.029 A 
ATOM     57  C   UNL     1      -8.860   0.275   5.262  1.00  0.00     0.049 A 
ATOM     58  H   UNL     1      -8.612  -1.147   6.785  1.00  0.00     0.167 HD
ATOM     59  C   UNL     1     -11.423   1.432  10.985  1.00  0.00     0.037 A 
ATOM     60  C   UNL     1      -9.881  -0.206   4.509  1.00  0.00     0.037 A 
ATOM     61  C   UNL     1     -11.886   2.558  10.194  1.00  0.00     0.049 A 
ATOM     62  C   UNL     1     -11.072   0.413   5.191  1.00  0.00     0.074 A 
ATOM     63  C   UNL     1     -12.723   3.647  10.367  1.00  0.00     0.029 A 
ATOM     64  N   UNL     1     -11.500   2.634   8.880  1.00  0.00    -0.354 N 
ATOM     65  N   UNL     1     -11.482   1.647   5.029  1.00  0.00    -0.248 NA
ATOM     66  C   UNL     1     -11.673  -0.280   6.344  1.00  0.00     0.031 C 
ATOM     67  C   UNL     1     -13.022   4.172   9.065  1.00  0.00     0.029 A 
ATOM     68  C   UNL     1     -12.395   3.361   8.139  1.00  0.00     0.049 A 
ATOM     69  H   UNL     1     -10.684   2.219   8.515  1.00  0.00     0.167 HD
ATOM     70  C   UNL     1     -12.165   1.948   6.200  1.00  0.00     0.074 A 
ATOM     71  C   UNL     1     -12.362   0.703   6.910  1.00  0.00     0.031 C 
ATOM     72  C   UNL     1     -12.316   3.202   6.710  1.00  0.00     0.037 A 
BRANCH  59  73
ATOM     73  C   UNL     1     -12.297   0.909  12.058  1.00  0.00     0.058 A 
ATOM     74  C   UNL     1     -13.472   0.239  11.680  1.00  0.00     0.135 A 
ATOM     75  C   UNL     1     -12.094   1.175  13.416  1.00  0.00     0.135 A 
ATOM     76  F   UNL     1     -13.694  -0.050  10.387  1.00  0.00    -0.206 F 
ATOM     77  C   UNL     1     -14.439  -0.114  12.608  1.00  0.00     0.059 A 
ATOM     78  C   UNL     1     -13.049   0.823  14.369  1.00  0.00     0.059 A 
ATOM     79  F   UNL     1     -10.982   1.808  13.823  1.00  0.00    -0.206 F 
ATOM     80  C   UNL     1     -14.228   0.199  13.950  1.00  0.00     0.060 A 
BRANCH  80  81
ATOM     81  S   UNL     1     -15.538  -0.202  15.125  1.00  0.00     0.124 S 
ATOM     82  O   UNL     1     -16.636   0.632  14.647  1.00  0.00    -0.237 OA
ATOM     83  O   UNL     1     -15.695  -1.639  14.923  1.00  0.00    -0.237 OA
ATOM     84  O   UNL     1     -14.971   0.188  16.412  1.00  0.00    -0.744 OA
ENDBRANCH  80  81
ENDBRANCH  59  73
BRANCH  60  85
ATOM     85  C   UNL     1      -9.739  -1.647   4.132  1.00  0.00     0.058 A 
ATOM     86  C   UNL     1      -8.520  -2.042   3.529  1.00  0.00     0.135 A 
ATOM     87  C   UNL     1     -10.682  -2.663   4.328  1.00  0.00     0.135 A 
ATOM     88  F   UNL     1      -7.609  -1.120   3.173  1.00  0.00    -0.206 F 
ATOM     89  C   UNL     1      -8.191  -3.373   3.304  1.00  0.00     0.059 A 
ATOM     90  C   UNL     1     -10.369  -4.011   4.131  1.00  0.00     0.059 A 
ATOM     91  F   UNL     1     -11.927  -2.384   4.735  1.00  0.00    -0.206 F 
ATOM     92  C   UNL     1      -9.107  -4.357   3.657  1.00  0.00     0.060 A 
BRANCH  92  93
ATOM     93  S   UNL     1      -8.586  -6.080   3.551  1.00  0.00     0.124 S 
ATOM     94  O   UNL     1      -8.367  -6.243   2.118  1.00  0.00    -0.237 OA
ATOM     95  O   UNL     1      -7.384  -6.077   4.380  1.00  0.00    -0.237 OA
ATOM     96  O   UNL     1      -9.721  -6.811   4.104  1.00  0.00    -0.744 OA
ENDBRANCH  92  93
ENDBRANCH  60  85
BRANCH  72  97
ATOM     97  C   UNL     1     -12.217   4.353   5.785  1.00  0.00     0.058 A 
ATOM     98  C   UNL     1     -13.111   4.464   4.708  1.00  0.00     0.135 A 
ATOM     99  C   UNL     1     -11.295   5.389   5.983  1.00  0.00     0.135 A 
ATOM    100  F   UNL     1     -14.046   3.522   4.499  1.00  0.00    -0.206 F 
ATOM    101  C   UNL     1     -13.093   5.562   3.858  1.00  0.00     0.059 A 
ATOM    102  C   UNL     1     -11.267   6.505   5.150  1.00  0.00     0.059 A 
ATOM    103  F   UNL     1     -10.410   5.334   6.992  1.00  0.00    -0.206 F 
ATOM    104  C   UNL     1     -12.171   6.582   4.090  1.00  0.00     0.060 A 
BRANCH 104 105
ATOM    105  S   UNL     1     -12.219   8.037   3.025  1.00  0.00     0.124 S 
ATOM    106  O   UNL     1     -11.722   7.504   1.761  1.00  0.00    -0.237 OA
ATOM    107  O   UNL     1     -13.635   8.393   3.050  1.00  0.00    -0.237 OA
ATOM    108  O   UNL     1     -11.332   8.982   3.698  1.00  0.00    -0.744 OA
ENDBRANCH 104 105
ENDBRANCH  72  97
ENDBRANCH  46  47
ENDBRANCH  38  41
ENDBRANCH  36  37
ENDBRANCH  35  36
ENDBRANCH  34  35
ENDBRANCH   1  34
TORSDOF 19
