REMARK SMILES CC1(C)Cc2c(-c3ccccc3)c(-c3ccc(Cl)cc3)c(CC(=O)NCCCCCCNC(=O)c3ccc(-c4c5nc(c(-c6c(F)cc(S(=O)(=O)[O-])cc6F)c6ccc([nH]6)c(-c6c(F)cc(S(=O)(=O)[O-])cc6F)c6nc(c(-c7c(F)cc(S(=O)(=O)[O-])cc7F)c7ccc4[nH]7)C=C6)C=C5)cc3)n2C1
REMARK SMILES IDX 29 1 28 2 27 3 26 4 25 5 23 6 24 7 22 9 21 10 1 11 2 12 3 13
REMARK SMILES IDX 4 14 102 15 5 16 101 17 6 18 13 19 7 20 8 21 12 22 9 23
REMARK SMILES IDX 11 24 10 25 14 26 15 27 20 28 16 29 19 30 17 31 18 32 30 33
REMARK SMILES IDX 31 34 32 35 33 36 34 38 35 39 36 40 100 41 37 42 99 43 38 44
REMARK SMILES IDX 39 45 40 46 93 47 41 48 98 49 92 50 94 51 42 52 97 53 91 54
REMARK SMILES IDX 90 55 43 57 77 58 56 59 76 60 57 61 60 62 75 63 95 64 58 65
REMARK SMILES IDX 59 66 74 68 96 69 61 70 44 71 45 72 54 73 46 74 47 75 53 76
REMARK SMILES IDX 55 77 48 78 49 79 50 80 51 81 52 82 78 83 79 84 88 85 80 86
REMARK SMILES IDX 81 87 87 88 89 89 82 90 83 91 84 92 85 93 86 94 62 95 63 96
REMARK SMILES IDX 72 97 64 98 65 99 71 100 73 101 66 102 67 103 68 104 69 105
REMARK SMILES IDX 70 106
REMARK H PARENT 25 8 32 37 94 56 60 67
REMARK Flexibility Score: inf
ROOT
ATOM      1  C   UNL     1      -1.998   5.450  -5.003  1.00  0.00     0.002 C 
ENDROOT
BRANCH   1   2
ATOM      2  C   UNL     1      -2.477   5.639  -3.555  1.00  0.00     0.002 C 
BRANCH   2   3
ATOM      3  C   UNL     1      -1.627   4.964  -2.476  1.00  0.00     0.021 C 
BRANCH   3   4
ATOM      4  C   UNL     1      -0.128   5.246  -2.569  1.00  0.00     0.116 C 
BRANCH   4   5
ATOM      5  N   UNL     1       0.218   6.587  -2.154  1.00  0.00    -0.356 N 
ATOM      6  C   UNL     1       0.964   6.992  -1.084  1.00  0.00     0.225 C 
ATOM      7  O   UNL     1       1.213   8.198  -0.992  1.00  0.00    -0.275 OA
ATOM      8  H   UNL     1      -0.134   7.309  -2.723  1.00  0.00     0.163 HD
BRANCH   6   9
ATOM      9  C   UNL     1       1.550   5.986  -0.100  1.00  0.00     0.154 C 
BRANCH   9  10
ATOM     10  C   UNL     1       0.522   5.128   0.572  1.00  0.00     0.036 A 
ATOM     11  C   UNL     1       1.351   0.202   0.158  1.00  0.00     0.013 C 
ATOM     12  C   UNL     1       0.552   1.486  -0.094  1.00  0.00    -0.012 C 
ATOM     13  C   UNL     1      -0.112   1.388  -1.479  1.00  0.00     0.013 C 
ATOM     14  C   UNL     1      -0.532   1.728   1.010  1.00  0.00     0.063 C 
ATOM     15  C   UNL     1       1.457   2.754  -0.022  1.00  0.00     0.129 C 
ATOM     16  C   UNL     1      -0.517   3.204   1.148  1.00  0.00     0.027 A 
ATOM     17  N   UNL     1       0.567   3.762   0.541  1.00  0.00    -0.346 N 
ATOM     18  C   UNL     1      -1.239   4.210   1.726  1.00  0.00     0.011 A 
ATOM     19  C   UNL     1      -0.584   5.441   1.368  1.00  0.00     0.011 A 
BRANCH  18  20
ATOM     20  C   UNL     1      -2.402   4.024   2.564  1.00  0.00    -0.016 A 
ATOM     21  C   UNL     1      -2.282   3.350   3.783  1.00  0.00     0.009 A 
ATOM     22  C   UNL     1      -3.609   4.647   2.223  1.00  0.00     0.009 A 
ATOM     23  C   UNL     1      -3.347   3.351   4.678  1.00  0.00     0.001 A 
ATOM     24  C   UNL     1      -4.677   4.636   3.116  1.00  0.00     0.001 A 
ATOM     25  C   UNL     1      -4.532   4.014   4.353  1.00  0.00     0.000 A 
ENDBRANCH  18  20
BRANCH  19  26
ATOM     26  C   UNL     1      -0.998   6.774   1.792  1.00  0.00    -0.016 A 
ATOM     27  C   UNL     1      -1.021   7.083   3.161  1.00  0.00     0.010 A 
ATOM     28  C   UNL     1      -1.548   7.682   0.882  1.00  0.00     0.010 A 
ATOM     29  C   UNL     1      -1.585   8.281   3.610  1.00  0.00     0.021 A 
ATOM     30  C   UNL     1      -2.094   8.890   1.328  1.00  0.00     0.021 A 
ATOM     31  C   UNL     1      -2.116   9.180   2.690  1.00  0.00     0.041 A 
ATOM     32  Cl  UNL     1      -2.834  10.646   3.238  1.00  0.00    -0.084 Cl
ENDBRANCH  19  26
ENDBRANCH   9  10
ENDBRANCH   6   9
ENDBRANCH   4   5
ENDBRANCH   3   4
ENDBRANCH   2   3
ENDBRANCH   1   2
BRANCH   1  33
ATOM     33  C   UNL     1      -1.685   4.013  -5.451  1.00  0.00     0.021 C 
BRANCH  33  34
ATOM     34  C   UNL     1      -2.893   3.091  -5.489  1.00  0.00     0.116 C 
BRANCH  34  35
ATOM     35  N   UNL     1      -3.861   3.484  -6.510  1.00  0.00    -0.352 N 
ATOM     36  C   UNL     1      -5.093   2.918  -6.787  1.00  0.00     0.251 C 
ATOM     37  H   UNL     1      -3.603   4.249  -7.074  1.00  0.00     0.163 HD
ATOM     38  O   UNL     1      -5.622   3.082  -7.872  1.00  0.00    -0.269 OA
BRANCH  36  39
ATOM     39  C   UNL     1      -5.746   2.107  -5.740  1.00  0.00     0.039 A 
ATOM     40  C   UNL     1      -6.410   0.918  -6.054  1.00  0.00     0.014 A 
ATOM     41  C   UNL     1      -5.654   2.543  -4.422  1.00  0.00     0.014 A 
ATOM     42  C   UNL     1      -6.900   0.129  -5.014  1.00  0.00     0.010 A 
ATOM     43  C   UNL     1      -5.997   1.696  -3.398  1.00  0.00     0.010 A 
ATOM     44  C   UNL     1      -6.667   0.511  -3.682  1.00  0.00    -0.014 A 
BRANCH  44  45
ATOM     45  C   UNL     1      -6.998  -0.386  -2.575  1.00  0.00     0.031 A 
ATOM     46  C   UNL     1      -6.385  -1.737  -2.693  1.00  0.00     0.074 A 
ATOM     47  C   UNL     1      -7.593   0.029  -1.432  1.00  0.00     0.049 A 
ATOM     48  N   UNL     1      -6.969  -2.851  -2.986  1.00  0.00    -0.248 NA
ATOM     49  C   UNL     1      -4.915  -1.837  -2.658  1.00  0.00     0.031 C 
ATOM     50  C   UNL     1      -7.929   1.409  -1.049  1.00  0.00     0.029 A 
ATOM     51  N   UNL     1      -7.929  -0.677  -0.314  1.00  0.00    -0.354 N 
ATOM     52  C   UNL     1      -5.982  -3.832  -2.881  1.00  0.00     0.074 A 
ATOM     53  C   UNL     1      -4.730  -3.130  -2.934  1.00  0.00     0.031 C 
ATOM     54  C   UNL     1      -8.185   1.467   0.276  1.00  0.00     0.029 A 
ATOM     55  C   UNL     1      -8.238   0.113   0.792  1.00  0.00     0.049 A 
ATOM     56  H   UNL     1      -7.952  -1.661  -0.290  1.00  0.00     0.167 HD
ATOM     57  C   UNL     1      -6.295  -5.080  -2.427  1.00  0.00     0.037 A 
ATOM     58  C   UNL     1      -8.535  -0.306   2.046  1.00  0.00     0.037 A 
ATOM     59  C   UNL     1      -7.729  -5.242  -2.388  1.00  0.00     0.049 A 
ATOM     60  C   UNL     1      -8.972  -1.713   1.958  1.00  0.00     0.074 A 
ATOM     61  C   UNL     1      -8.754  -5.416  -3.292  1.00  0.00     0.029 A 
ATOM     62  N   UNL     1      -8.291  -4.841  -1.204  1.00  0.00    -0.354 N 
ATOM     63  N   UNL     1     -10.071  -2.082   1.363  1.00  0.00    -0.248 NA
ATOM     64  C   UNL     1      -8.012  -2.777   2.224  1.00  0.00     0.031 C 
ATOM     65  C   UNL     1      -9.931  -4.919  -2.656  1.00  0.00     0.029 A 
ATOM     66  C   UNL     1      -9.603  -4.497  -1.369  1.00  0.00     0.049 A 
ATOM     67  H   UNL     1      -7.811  -4.805  -0.345  1.00  0.00     0.167 HD
ATOM     68  C   UNL     1      -9.754  -3.299   0.797  1.00  0.00     0.074 A 
ATOM     69  C   UNL     1      -8.565  -3.757   1.504  1.00  0.00     0.031 C 
ATOM     70  C   UNL     1     -10.279  -3.655  -0.409  1.00  0.00     0.037 A 
BRANCH  57  71
ATOM     71  C   UNL     1      -5.417  -5.954  -1.534  1.00  0.00     0.058 A 
ATOM     72  C   UNL     1      -5.929  -7.203  -1.106  1.00  0.00     0.135 A 
ATOM     73  C   UNL     1      -4.278  -5.508  -0.829  1.00  0.00     0.135 A 
ATOM     74  F   UNL     1      -6.986  -7.758  -1.723  1.00  0.00    -0.206 F 
ATOM     75  C   UNL     1      -5.434  -7.883   0.009  1.00  0.00     0.059 A 
ATOM     76  C   UNL     1      -3.742  -6.192   0.259  1.00  0.00     0.059 A 
ATOM     77  F   UNL     1      -3.669  -4.349  -1.093  1.00  0.00    -0.206 F 
ATOM     78  C   UNL     1      -4.354  -7.351   0.703  1.00  0.00     0.060 A 
BRANCH  78  79
ATOM     79  S   UNL     1      -3.783  -8.152   2.211  1.00  0.00     0.124 S 
ATOM     80  O   UNL     1      -4.898  -7.896   3.115  1.00  0.00    -0.237 OA
ATOM     81  O   UNL     1      -3.613  -9.533   1.774  1.00  0.00    -0.237 OA
ATOM     82  O   UNL     1      -2.545  -7.441   2.517  1.00  0.00    -0.744 OA
ENDBRANCH  78  79
ENDBRANCH  57  71
BRANCH  58  83
ATOM     83  C   UNL     1      -8.217   0.321   3.347  1.00  0.00     0.058 A 
ATOM     84  C   UNL     1      -8.942   0.027   4.515  1.00  0.00     0.135 A 
ATOM     85  C   UNL     1      -6.976   0.952   3.519  1.00  0.00     0.135 A 
ATOM     86  F   UNL     1     -10.118  -0.613   4.432  1.00  0.00    -0.206 F 
ATOM     87  C   UNL     1      -8.449   0.316   5.793  1.00  0.00     0.059 A 
ATOM     88  C   UNL     1      -6.452   1.209   4.782  1.00  0.00     0.059 A 
ATOM     89  F   UNL     1      -6.197   1.236   2.463  1.00  0.00    -0.206 F 
ATOM     90  C   UNL     1      -7.187   0.892   5.917  1.00  0.00     0.060 A 
BRANCH  90  91
ATOM     91  S   UNL     1      -6.479   1.170   7.558  1.00  0.00     0.124 S 
ATOM     92  O   UNL     1      -7.463   2.059   8.166  1.00  0.00    -0.237 OA
ATOM     93  O   UNL     1      -6.419  -0.183   8.098  1.00  0.00    -0.237 OA
ATOM     94  O   UNL     1      -5.185   1.786   7.273  1.00  0.00    -0.744 OA
ENDBRANCH  90  91
ENDBRANCH  58  83
BRANCH  70  95
ATOM     95  C   UNL     1     -11.573  -3.015  -0.809  1.00  0.00     0.058 A 
ATOM     96  C   UNL     1     -11.734  -1.666  -1.167  1.00  0.00     0.135 A 
ATOM     97  C   UNL     1     -12.697  -3.847  -0.899  1.00  0.00     0.135 A 
ATOM     98  F   UNL     1     -10.691  -0.825  -1.177  1.00  0.00    -0.206 F 
ATOM     99  C   UNL     1     -12.973  -1.161  -1.568  1.00  0.00     0.059 A 
ATOM    100  C   UNL     1     -13.932  -3.374  -1.323  1.00  0.00     0.059 A 
ATOM    101  F   UNL     1     -12.590  -5.155  -0.609  1.00  0.00    -0.206 F 
ATOM    102  C   UNL     1     -14.066  -2.026  -1.644  1.00  0.00     0.060 A 
BRANCH 102 103
ATOM    103  S   UNL     1     -15.653  -1.394  -2.228  1.00  0.00     0.124 S 
ATOM    104  O   UNL     1     -16.089  -0.572  -1.105  1.00  0.00    -0.237 OA
ATOM    105  O   UNL     1     -15.279  -0.668  -3.438  1.00  0.00    -0.237 OA
ATOM    106  O   UNL     1     -16.438  -2.605  -2.457  1.00  0.00    -0.744 OA
ENDBRANCH 102 103
ENDBRANCH  70  95
ENDBRANCH  44  45
ENDBRANCH  36  39
ENDBRANCH  34  35
ENDBRANCH  33  34
ENDBRANCH   1  33
TORSDOF 19
