REMARK SMILES C[C@@H](Nc1ccc(C(=O)NCCCCCCNC(=O)c2ccc(-c3c4nc(c(-c5c(F)cc(S(=O)(=O)[O-])cc5F)c5ccc([nH]5)c(-c5c(F)cc(S(=O)(=O)[O-])cc5F)c5nc(c(-c6c(F)cc(S(=O)(=O)[O-])cc6F)c6ccc3[nH]6)C=C5)C=C4)cc2)c(F)c1F)C(N)=O
REMARK SMILES IDX 13 1 12 2 11 3 10 4 8 5 9 6 7 8 4 9 5 10 88 11 6 12 86 13
REMARK SMILES IDX 89 14 87 15 3 16 2 18 1 19 90 20 91 21 92 22 14 25 15 26
REMARK SMILES IDX 16 27 17 28 18 29 19 31 20 32 21 33 85 34 22 35 84 36 23 37
REMARK SMILES IDX 24 38 25 39 78 40 26 41 83 42 77 43 79 44 27 45 82 46 76 47
REMARK SMILES IDX 75 48 28 50 62 51 41 52 61 53 42 54 45 55 60 56 80 57 43 58
REMARK SMILES IDX 44 59 59 61 81 62 46 63 29 64 30 65 39 66 31 67 32 68 38 69
REMARK SMILES IDX 40 70 33 71 34 72 35 73 36 74 37 75 63 76 64 77 73 78 65 79
REMARK SMILES IDX 66 80 72 81 74 82 67 83 68 84 69 85 70 86 71 87 47 88 48 89
REMARK SMILES IDX 57 90 49 91 50 92 56 93 58 94 51 95 52 96 53 97 54 98 55 99
REMARK H PARENT 10 7 3 17 91 23 91 24 17 30 79 49 45 60
REMARK Flexibility Score: inf
ROOT
ATOM      1  C   UNL     1      -3.237   6.544  -7.061  1.00  0.00     0.002 C 
ENDROOT
BRANCH   1   2
ATOM      2  C   UNL     1      -2.580   5.374  -6.324  1.00  0.00     0.021 C 
BRANCH   2   3
ATOM      3  C   UNL     1      -1.762   5.718  -5.082  1.00  0.00     0.116 C 
BRANCH   3   4
ATOM      4  N   UNL     1      -2.544   6.312  -4.015  1.00  0.00    -0.352 N 
ATOM      5  C   UNL     1      -2.455   6.186  -2.651  1.00  0.00     0.254 C 
ATOM      6  O   UNL     1      -3.258   6.821  -1.965  1.00  0.00    -0.269 OA
ATOM      7  H   UNL     1      -3.264   6.909  -4.322  1.00  0.00     0.163 HD
BRANCH   5   8
ATOM      8  C   UNL     1      -1.510   5.272  -1.962  1.00  0.00     0.078 A 
ATOM      9  C   UNL     1       0.074   3.373  -0.542  1.00  0.00     0.074 A 
ATOM     10  C   UNL     1      -1.145   3.815  -0.034  1.00  0.00     0.030 A 
ATOM     11  C   UNL     1       0.526   3.995  -1.718  1.00  0.00     0.182 A 
ATOM     12  C   UNL     1      -1.937   4.729  -0.740  1.00  0.00     0.019 A 
ATOM     13  C   UNL     1      -0.230   4.952  -2.397  1.00  0.00     0.173 A 
ATOM     14  F   UNL     1       1.726   3.645  -2.213  1.00  0.00    -0.201 F 
ATOM     15  F   UNL     1       0.329   5.565  -3.450  1.00  0.00    -0.203 F 
BRANCH   9  16
ATOM     16  N   UNL     1       0.838   2.376   0.040  1.00  0.00    -0.371 N 
ATOM     17  H   UNL     1       1.811   2.525   0.042  1.00  0.00     0.161 HD
BRANCH  16  18
ATOM     18  C   UNL     1       0.377   1.117   0.656  1.00  0.00     0.165 C 
ATOM     19  C   UNL     1       1.038  -0.057  -0.069  1.00  0.00     0.041 C 
BRANCH  18  20
ATOM     20  C   UNL     1      -1.145   0.877   0.661  1.00  0.00     0.239 C 
ATOM     21  N   UNL     1      -1.777   1.129   1.852  1.00  0.00    -0.368 N 
ATOM     22  O   UNL     1      -1.800   0.491  -0.303  1.00  0.00    -0.273 OA
ATOM     23  H   UNL     1      -1.257   1.438   2.629  1.00  0.00     0.159 HD
ATOM     24  H   UNL     1      -2.749   1.000   1.931  1.00  0.00     0.159 HD
ENDBRANCH  18  20
ENDBRANCH  16  18
ENDBRANCH   9  16
ENDBRANCH   5   8
ENDBRANCH   3   4
ENDBRANCH   2   3
ENDBRANCH   1   2
BRANCH   1  25
ATOM     25  C   UNL     1      -2.319   7.697  -7.474  1.00  0.00     0.002 C 
BRANCH  25  26
ATOM     26  C   UNL     1      -1.053   7.316  -8.243  1.00  0.00     0.021 C 
BRANCH  26  27
ATOM     27  C   UNL     1      -1.262   6.454  -9.484  1.00  0.00     0.116 C 
BRANCH  27  28
ATOM     28  N   UNL     1      -2.095   7.101 -10.483  1.00  0.00    -0.352 N 
ATOM     29  C   UNL     1      -1.841   7.341 -11.812  1.00  0.00     0.251 C 
ATOM     30  H   UNL     1      -2.971   7.414 -10.160  1.00  0.00     0.163 HD
ATOM     31  O   UNL     1      -2.603   8.050 -12.460  1.00  0.00    -0.269 OA
BRANCH  29  32
ATOM     32  C   UNL     1      -0.637   6.766 -12.455  1.00  0.00     0.039 A 
ATOM     33  C   UNL     1       0.137   7.582 -13.284  1.00  0.00     0.014 A 
ATOM     34  C   UNL     1      -0.275   5.431 -12.254  1.00  0.00     0.014 A 
ATOM     35  C   UNL     1       1.306   7.078 -13.858  1.00  0.00     0.010 A 
ATOM     36  C   UNL     1       0.929   4.952 -12.768  1.00  0.00     0.010 A 
ATOM     37  C   UNL     1       1.734   5.770 -13.576  1.00  0.00    -0.014 A 
BRANCH  37  38
ATOM     38  C   UNL     1       3.027   5.254 -14.100  1.00  0.00     0.031 A 
ATOM     39  C   UNL     1       3.052   4.082 -15.045  1.00  0.00     0.074 A 
ATOM     40  C   UNL     1       4.182   5.801 -13.669  1.00  0.00     0.049 A 
ATOM     41  N   UNL     1       4.083   3.456 -15.553  1.00  0.00    -0.248 NA
ATOM     42  C   UNL     1       1.753   3.524 -15.456  1.00  0.00     0.031 C 
ATOM     43  C   UNL     1       4.289   6.904 -12.710  1.00  0.00     0.029 A 
ATOM     44  N   UNL     1       5.488   5.497 -13.966  1.00  0.00    -0.354 N 
ATOM     45  C   UNL     1       3.560   2.422 -16.322  1.00  0.00     0.074 A 
ATOM     46  C   UNL     1       2.122   2.481 -16.186  1.00  0.00     0.031 C 
ATOM     47  C   UNL     1       5.585   7.188 -12.505  1.00  0.00     0.029 A 
ATOM     48  C   UNL     1       6.404   6.264 -13.283  1.00  0.00     0.049 A 
ATOM     49  H   UNL     1       5.745   4.796 -14.607  1.00  0.00     0.167 HD
ATOM     50  C   UNL     1       4.221   1.518 -17.082  1.00  0.00     0.037 A 
ATOM     51  C   UNL     1       7.752   6.217 -13.267  1.00  0.00     0.037 A 
ATOM     52  C   UNL     1       5.653   1.490 -17.241  1.00  0.00     0.049 A 
ATOM     53  C   UNL     1       8.459   5.209 -14.134  1.00  0.00     0.074 A 
ATOM     54  C   UNL     1       6.408   0.670 -18.062  1.00  0.00     0.029 A 
ATOM     55  N   UNL     1       6.545   2.305 -16.561  1.00  0.00    -0.354 N 
ATOM     56  N   UNL     1       7.944   4.302 -14.930  1.00  0.00    -0.248 NA
ATOM     57  C   UNL     1       9.928   5.221 -14.110  1.00  0.00     0.031 C 
ATOM     58  C   UNL     1       7.759   0.947 -17.833  1.00  0.00     0.029 A 
ATOM     59  C   UNL     1       7.845   1.984 -16.918  1.00  0.00     0.049 A 
ATOM     60  H   UNL     1       6.293   3.008 -15.920  1.00  0.00     0.167 HD
ATOM     61  C   UNL     1       9.025   3.654 -15.519  1.00  0.00     0.074 A 
ATOM     62  C   UNL     1      10.221   4.286 -15.003  1.00  0.00     0.031 C 
ATOM     63  C   UNL     1       9.027   2.628 -16.404  1.00  0.00     0.037 A 
BRANCH  50  64
ATOM     64  C   UNL     1       3.418   0.474 -17.811  1.00  0.00     0.058 A 
ATOM     65  C   UNL     1       2.624   0.793 -18.924  1.00  0.00     0.135 A 
ATOM     66  C   UNL     1       3.522  -0.879 -17.447  1.00  0.00     0.135 A 
ATOM     67  F   UNL     1       2.477   2.071 -19.306  1.00  0.00    -0.206 F 
ATOM     68  C   UNL     1       1.957  -0.191 -19.646  1.00  0.00     0.059 A 
ATOM     69  C   UNL     1       2.885  -1.882 -18.172  1.00  0.00     0.059 A 
ATOM     70  F   UNL     1       4.265  -1.239 -16.389  1.00  0.00    -0.206 F 
ATOM     71  C   UNL     1       2.101  -1.528 -19.268  1.00  0.00     0.060 A 
BRANCH  71  72
ATOM     72  S   UNL     1       1.271  -2.795 -20.250  1.00  0.00     0.124 S 
ATOM     73  O   UNL     1      -0.128  -2.565 -19.901  1.00  0.00    -0.237 OA
ATOM     74  O   UNL     1       1.652  -2.433 -21.611  1.00  0.00    -0.237 OA
ATOM     75  O   UNL     1       1.843  -4.042 -19.752  1.00  0.00    -0.744 OA
ENDBRANCH  71  72
ENDBRANCH  50  64
BRANCH  51  76
ATOM     76  C   UNL     1       8.525   7.141 -12.392  1.00  0.00     0.058 A 
ATOM     77  C   UNL     1       9.342   8.146 -12.931  1.00  0.00     0.135 A 
ATOM     78  C   UNL     1       8.477   7.022 -10.993  1.00  0.00     0.135 A 
ATOM     79  F   UNL     1       9.426   8.299 -14.262  1.00  0.00    -0.206 F 
ATOM     80  C   UNL     1      10.111   8.976 -12.121  1.00  0.00     0.059 A 
ATOM     81  C   UNL     1       9.211   7.861 -10.161  1.00  0.00     0.059 A 
ATOM     82  F   UNL     1       7.697   6.091 -10.422  1.00  0.00    -0.206 F 
ATOM     83  C   UNL     1      10.040   8.823 -10.735  1.00  0.00     0.060 A 
BRANCH  83  84
ATOM     84  S   UNL     1      11.032   9.913  -9.691  1.00  0.00     0.124 S 
ATOM     85  O   UNL     1      12.374   9.387  -9.910  1.00  0.00    -0.237 OA
ATOM     86  O   UNL     1      10.756  11.225 -10.268  1.00  0.00    -0.237 OA
ATOM     87  O   UNL     1      10.478   9.694  -8.357  1.00  0.00    -0.744 OA
ENDBRANCH  83  84
ENDBRANCH  51  76
BRANCH  63  88
ATOM     88  C   UNL     1      10.361   2.143 -16.905  1.00  0.00     0.058 A 
ATOM     89  C   UNL     1      11.243   1.423 -16.085  1.00  0.00     0.135 A 
ATOM     90  C   UNL     1      10.735   2.353 -18.243  1.00  0.00     0.135 A 
ATOM     91  F   UNL     1      10.938   1.200 -14.796  1.00  0.00    -0.206 F 
ATOM     92  C   UNL     1      12.459   0.950 -16.565  1.00  0.00     0.059 A 
ATOM     93  C   UNL     1      11.932   1.861 -18.754  1.00  0.00     0.059 A 
ATOM     94  F   UNL     1       9.924   3.026 -19.075  1.00  0.00    -0.206 F 
ATOM     95  C   UNL     1      12.793   1.170 -17.903  1.00  0.00     0.060 A 
BRANCH  95  96
ATOM     96  S   UNL     1      14.359   0.518 -18.522  1.00  0.00     0.124 S 
ATOM     97  O   UNL     1      15.321   1.414 -17.889  1.00  0.00    -0.237 OA
ATOM     98  O   UNL     1      14.345  -0.853 -18.023  1.00  0.00    -0.237 OA
ATOM     99  O   UNL     1      14.235   0.653 -19.971  1.00  0.00    -0.744 OA
ENDBRANCH  95  96
ENDBRANCH  63  88
ENDBRANCH  37  38
ENDBRANCH  29  32
ENDBRANCH  27  28
ENDBRANCH  26  27
ENDBRANCH  25  26
ENDBRANCH   1  25
TORSDOF 19
