REMARK SMILES Cc1ccc2c(c1)C=C(C(=O)NCCCCCCNC(=O)c1ccc(-c3c4nc(c(-c5c(F)cc(S(=O)(=O)[O-])cc5F)c5ccc([nH]5)c(-c5c(F)cc(S(=O)(=O)[O-])cc5F)c5nc(c(-c6c(F)cc(S(=O)(=O)[O-])cc6F)c6ccc3[nH]6)C=C5)C=C4)cc1)[C@@H](C(F)(F)F)O2
REMARK SMILES IDX 16 1 15 2 14 3 13 4 12 5 10 6 11 7 9 9 1 10 2 11 3 12 7 13
REMARK SMILES IDX 4 14 6 15 5 16 8 17 93 18 88 19 89 20 90 21 91 22 92 23
REMARK SMILES IDX 17 24 18 25 19 26 20 27 21 29 22 30 23 31 87 32 24 33 86 34
REMARK SMILES IDX 25 35 26 36 27 37 80 38 28 39 85 40 79 41 81 42 29 43 84 44
REMARK SMILES IDX 78 45 77 46 30 48 64 49 43 50 63 51 44 52 47 53 62 54 82 55
REMARK SMILES IDX 45 56 46 57 61 59 83 60 48 61 31 62 32 63 41 64 33 65 34 66
REMARK SMILES IDX 40 67 42 68 35 69 36 70 37 71 38 72 39 73 65 74 66 75 75 76
REMARK SMILES IDX 67 77 68 78 74 79 76 80 69 81 70 82 71 83 72 84 73 85 49 86
REMARK SMILES IDX 50 87 59 88 51 89 52 90 58 91 60 92 53 93 54 94 55 95 56 96
REMARK SMILES IDX 57 97
REMARK H PARENT 12 8 19 28 81 47 47 58
REMARK Flexibility Score: inf
ROOT
ATOM      1  C   UNL     1       0.677  12.115   1.356  1.00  0.00     0.002 C 
ENDROOT
BRANCH   1   2
ATOM      2  C   UNL     1       1.751  11.144   1.866  1.00  0.00     0.002 C 
BRANCH   2   3
ATOM      3  C   UNL     1       1.250   9.767   2.315  1.00  0.00     0.021 C 
BRANCH   3   4
ATOM      4  C   UNL     1       0.461   9.000   1.256  1.00  0.00     0.116 C 
BRANCH   4   5
ATOM      5  N   UNL     1       1.333   8.325   0.311  1.00  0.00    -0.352 N 
ATOM      6  C   UNL     1       1.551   7.057  -0.110  1.00  0.00     0.251 C 
ATOM      7  O   UNL     1       2.411   6.943  -0.991  1.00  0.00    -0.270 OA
ATOM      8  H   UNL     1       1.927   8.962  -0.149  1.00  0.00     0.163 HD
BRANCH   6   9
ATOM      9  C   UNL     1       0.854   5.835   0.399  1.00  0.00     0.067 C 
ATOM     10  C   UNL     1       1.037  -0.322  -0.241  1.00  0.00     0.044 C 
ATOM     11  C   UNL     1       0.598   0.990   0.339  1.00  0.00    -0.050 A 
ATOM     12  C   UNL     1      -0.414   1.039   1.304  1.00  0.00     0.007 A 
ATOM     13  C   UNL     1       1.176   2.187  -0.111  1.00  0.00     0.015 A 
ATOM     14  C   UNL     1      -0.829   2.265   1.824  1.00  0.00     0.047 A 
ATOM     15  C   UNL     1       0.758   3.418   0.408  1.00  0.00     0.017 A 
ATOM     16  C   UNL     1      -0.249   3.446   1.369  1.00  0.00     0.128 A 
ATOM     17  C   UNL     1       1.382   4.666  -0.010  1.00  0.00     0.025 C 
ATOM     18  O   UNL     1      -0.689   4.599   1.946  1.00  0.00    -0.475 OA
ATOM     19  C   UNL     1      -0.380   5.845   1.262  1.00  0.00     0.314 C 
BRANCH  19  20
ATOM     20  C   UNL     1      -1.632   6.316   0.502  1.00  0.00     0.429 C 
ATOM     21  F   UNL     1      -2.635   6.602   1.366  1.00  0.00    -0.167 F 
ATOM     22  F   UNL     1      -1.410   7.445  -0.212  1.00  0.00    -0.167 F 
ATOM     23  F   UNL     1      -2.090   5.385  -0.365  1.00  0.00    -0.167 F 
ENDBRANCH  19  20
ENDBRANCH   6   9
ENDBRANCH   4   5
ENDBRANCH   3   4
ENDBRANCH   2   3
ENDBRANCH   1   2
BRANCH   1  24
ATOM     24  C   UNL     1      -0.568  12.261   2.233  1.00  0.00     0.021 C 
BRANCH  24  25
ATOM     25  C   UNL     1      -0.308  12.698   3.670  1.00  0.00     0.116 C 
BRANCH  25  26
ATOM     26  N   UNL     1       0.258  14.034   3.761  1.00  0.00    -0.352 N 
ATOM     27  C   UNL     1      -0.132  15.087   4.555  1.00  0.00     0.251 C 
ATOM     28  H   UNL     1       1.027  14.210   3.171  1.00  0.00     0.163 HD
ATOM     29  O   UNL     1       0.380  16.193   4.405  1.00  0.00    -0.269 OA
BRANCH  27  30
ATOM     30  C   UNL     1      -1.195  14.889   5.565  1.00  0.00     0.039 A 
ATOM     31  C   UNL     1      -1.171  13.785   6.420  1.00  0.00     0.014 A 
ATOM     32  C   UNL     1      -2.244  15.811   5.638  1.00  0.00     0.014 A 
ATOM     33  C   UNL     1      -2.268  13.521   7.235  1.00  0.00     0.010 A 
ATOM     34  C   UNL     1      -3.311  15.581   6.512  1.00  0.00     0.010 A 
ATOM     35  C   UNL     1      -3.355  14.409   7.283  1.00  0.00    -0.014 A 
BRANCH  35  36
ATOM     36  C   UNL     1      -4.530  14.083   8.133  1.00  0.00     0.031 A 
ATOM     37  C   UNL     1      -5.867  13.779   7.511  1.00  0.00     0.074 A 
ATOM     38  C   UNL     1      -4.373  13.997   9.469  1.00  0.00     0.049 A 
ATOM     39  N   UNL     1      -6.991  13.446   8.095  1.00  0.00    -0.248 NA
ATOM     40  C   UNL     1      -5.958  13.859   6.044  1.00  0.00     0.031 C 
ATOM     41  C   UNL     1      -3.124  14.258  10.188  1.00  0.00     0.029 A 
ATOM     42  N   UNL     1      -5.256  13.641  10.456  1.00  0.00    -0.354 N 
ATOM     43  C   UNL     1      -7.922  13.292   7.074  1.00  0.00     0.074 A 
ATOM     44  C   UNL     1      -7.241  13.595   5.834  1.00  0.00     0.031 C 
ATOM     45  C   UNL     1      -3.306  13.998  11.492  1.00  0.00     0.029 A 
ATOM     46  C   UNL     1      -4.695  13.607  11.710  1.00  0.00     0.049 A 
ATOM     47  H   UNL     1      -6.202  13.429  10.283  1.00  0.00     0.167 HD
ATOM     48  C   UNL     1      -9.222  12.918   7.161  1.00  0.00     0.037 A 
ATOM     49  C   UNL     1      -5.236  13.303  12.905  1.00  0.00     0.037 A 
ATOM     50  C   UNL     1      -9.891  12.594   8.394  1.00  0.00     0.049 A 
ATOM     51  C   UNL     1      -6.688  12.927  12.979  1.00  0.00     0.074 A 
ATOM     52  C   UNL     1     -11.201  12.188   8.581  1.00  0.00     0.029 A 
ATOM     53  N   UNL     1      -9.302  12.633   9.649  1.00  0.00    -0.354 N 
ATOM     54  N   UNL     1      -7.553  12.793  12.003  1.00  0.00    -0.248 NA
ATOM     55  C   UNL     1      -7.242  12.675  14.316  1.00  0.00     0.031 C 
ATOM     56  C   UNL     1     -11.414  12.013   9.953  1.00  0.00     0.029 A 
ATOM     57  C   UNL     1     -10.227  12.275  10.617  1.00  0.00     0.049 A 
ATOM     58  H   UNL     1      -8.365  12.878   9.827  1.00  0.00     0.167 HD
ATOM     59  C   UNL     1      -8.754  12.440  12.606  1.00  0.00     0.074 A 
ATOM     60  C   UNL     1      -8.499  12.360  14.030  1.00  0.00     0.031 C 
ATOM     61  C   UNL     1      -9.959  12.210  12.032  1.00  0.00     0.037 A 
BRANCH  48  62
ATOM     62  C   UNL     1     -10.014  12.842   5.886  1.00  0.00     0.058 A 
ATOM     63  C   UNL     1      -9.837  11.790   4.973  1.00  0.00     0.135 A 
ATOM     64  C   UNL     1     -10.997  13.802   5.597  1.00  0.00     0.135 A 
ATOM     65  F   UNL     1      -8.900  10.855   5.194  1.00  0.00    -0.206 F 
ATOM     66  C   UNL     1     -10.595  11.703   3.810  1.00  0.00     0.059 A 
ATOM     67  C   UNL     1     -11.781  13.723   4.449  1.00  0.00     0.059 A 
ATOM     68  F   UNL     1     -11.206  14.829   6.436  1.00  0.00    -0.206 F 
ATOM     69  C   UNL     1     -11.564  12.675   3.556  1.00  0.00     0.060 A 
BRANCH  69  70
ATOM     70  S   UNL     1     -12.543  12.542   2.044  1.00  0.00     0.124 S 
ATOM     71  O   UNL     1     -11.563  12.919   1.030  1.00  0.00    -0.237 OA
ATOM     72  O   UNL     1     -12.938  11.137   2.050  1.00  0.00    -0.237 OA
ATOM     73  O   UNL     1     -13.627  13.496   2.255  1.00  0.00    -0.744 OA
ENDBRANCH  69  70
ENDBRANCH  48  62
BRANCH  49  74
ATOM     74  C   UNL     1      -4.389  13.340  14.125  1.00  0.00     0.058 A 
ATOM     75  C   UNL     1      -3.994  12.155  14.762  1.00  0.00     0.135 A 
ATOM     76  C   UNL     1      -3.921  14.555  14.648  1.00  0.00     0.135 A 
ATOM     77  F   UNL     1      -4.423  10.970  14.302  1.00  0.00    -0.206 F 
ATOM     78  C   UNL     1      -3.161  12.173  15.875  1.00  0.00     0.059 A 
ATOM     79  C   UNL     1      -3.069  14.597  15.747  1.00  0.00     0.059 A 
ATOM     80  F   UNL     1      -4.262  15.714  14.064  1.00  0.00    -0.206 F 
ATOM     81  C   UNL     1      -2.697  13.399  16.356  1.00  0.00     0.060 A 
BRANCH  81  82
ATOM     82  S   UNL     1      -1.553  13.406  17.753  1.00  0.00     0.124 S 
ATOM     83  O   UNL     1      -2.446  13.097  18.864  1.00  0.00    -0.237 OA
ATOM     84  O   UNL     1      -0.608  12.358  17.381  1.00  0.00    -0.237 OA
ATOM     85  O   UNL     1      -1.012  14.762  17.735  1.00  0.00    -0.744 OA
ENDBRANCH  81  82
ENDBRANCH  49  74
BRANCH  61  86
ATOM     86  C   UNL     1     -11.100  11.853  12.941  1.00  0.00     0.058 A 
ATOM     87  C   UNL     1     -11.748  12.829  13.711  1.00  0.00     0.135 A 
ATOM     88  C   UNL     1     -11.591  10.539  12.992  1.00  0.00     0.135 A 
ATOM     89  F   UNL     1     -11.310  14.098  13.702  1.00  0.00    -0.206 F 
ATOM     90  C   UNL     1     -12.842  12.514  14.510  1.00  0.00     0.059 A 
ATOM     91  C   UNL     1     -12.695  10.204  13.768  1.00  0.00     0.059 A 
ATOM     92  F   UNL     1     -11.008   9.571  12.267  1.00  0.00    -0.206 F 
ATOM     93  C   UNL     1     -13.311  11.198  14.529  1.00  0.00     0.060 A 
BRANCH  93  94
ATOM     94  S   UNL     1     -14.761  10.813  15.533  1.00  0.00     0.124 S 
ATOM     95  O   UNL     1     -14.202  10.843  16.881  1.00  0.00    -0.237 OA
ATOM     96  O   UNL     1     -15.671  11.904  15.199  1.00  0.00    -0.237 OA
ATOM     97  O   UNL     1     -15.167   9.496  15.051  1.00  0.00    -0.744 OA
ENDBRANCH  93  94
ENDBRANCH  61  86
ENDBRANCH  35  36
ENDBRANCH  27  30
ENDBRANCH  25  26
ENDBRANCH  24  25
ENDBRANCH   1  24
TORSDOF 17
