REMARK SMILES O=C(NCCCCCCNC(=O)c1cc(-c2cccc(C(F)(F)F)c2)nc2c(F)cccc12)c1ccc(-c2c3nc(c(-c4c(F)cc(S(=O)(=O)[O-])cc4F)c4ccc([nH]4)c(-c4c(F)cc(S(=O)(=O)[O-])cc4F)c4nc(c(-c5c(F)cc(S(=O)(=O)[O-])cc5F)c5ccc2[nH]5)C=C4)C=C3)cc1
REMARK SMILES IDX 6 1 5 2 4 3 3 4 1 5 2 6 34 8 35 9 99 10 36 11 98 12 37 13
REMARK SMILES IDX 38 14 39 15 92 16 40 17 97 18 91 19 93 20 41 21 96 22 90 23
REMARK SMILES IDX 89 24 42 26 76 27 55 28 75 29 56 30 59 31 74 32 94 33 57 34
REMARK SMILES IDX 58 35 73 37 95 38 60 39 43 40 44 41 53 42 45 43 46 44 52 45
REMARK SMILES IDX 54 46 47 47 48 48 49 49 50 50 51 51 77 52 78 53 87 54 79 55
REMARK SMILES IDX 80 56 86 57 88 58 81 59 82 60 83 61 84 62 85 63 61 64 62 65
REMARK SMILES IDX 71 66 63 67 64 68 70 69 72 70 65 71 66 72 67 73 68 74 69 75
REMARK SMILES IDX 7 76 8 77 9 78 10 79 11 80 12 82 13 83 14 84 33 85 15 86
REMARK SMILES IDX 27 87 32 88 26 89 28 90 31 91 29 92 30 93 16 94 17 95 25 96
REMARK SMILES IDX 18 97 20 98 19 99 21 100 22 101 23 102 24 103
REMARK H PARENT 3 7 93 25 59 36 10 81
REMARK Flexibility Score: inf
ROOT
ATOM      1  C   UNL     1       4.287   3.647   1.548  1.00  0.00     0.002 C 
ENDROOT
BRANCH   1   2
ATOM      2  C   UNL     1       4.791   2.746   0.421  1.00  0.00     0.021 C 
BRANCH   2   3
ATOM      3  C   UNL     1       4.505   1.262   0.603  1.00  0.00     0.116 C 
BRANCH   3   4
ATOM      4  N   UNL     1       3.083   0.968   0.614  1.00  0.00    -0.352 N 
ATOM      5  O   UNL     1       1.171   0.019  -0.107  1.00  0.00    -0.269 OA
ATOM      6  C   UNL     1       2.399   0.025  -0.111  1.00  0.00     0.251 C 
ATOM      7  H   UNL     1       2.538   1.519   1.221  1.00  0.00     0.163 HD
BRANCH   6   8
ATOM      8  C   UNL     1       3.148  -0.973  -0.907  1.00  0.00     0.039 A 
ATOM      9  C   UNL     1       4.247  -1.641  -0.359  1.00  0.00     0.014 A 
ATOM     10  C   UNL     1       2.726  -1.262  -2.207  1.00  0.00     0.014 A 
ATOM     11  C   UNL     1       4.980  -2.527  -1.140  1.00  0.00     0.010 A 
ATOM     12  C   UNL     1       3.419  -2.209  -2.966  1.00  0.00     0.010 A 
ATOM     13  C   UNL     1       4.553  -2.846  -2.439  1.00  0.00    -0.014 A 
BRANCH  13  14
ATOM     14  C   UNL     1       5.218  -3.952  -3.171  1.00  0.00     0.031 A 
ATOM     15  C   UNL     1       5.994  -3.706  -4.432  1.00  0.00     0.074 A 
ATOM     16  C   UNL     1       5.088  -5.200  -2.677  1.00  0.00     0.049 A 
ATOM     17  N   UNL     1       6.604  -4.572  -5.199  1.00  0.00    -0.248 NA
ATOM     18  C   UNL     1       6.097  -2.314  -4.901  1.00  0.00     0.031 C 
ATOM     19  C   UNL     1       4.328  -5.552  -1.472  1.00  0.00     0.029 A 
ATOM     20  N   UNL     1       5.580  -6.401  -3.117  1.00  0.00    -0.354 N 
ATOM     21  C   UNL     1       7.144  -3.842  -6.250  1.00  0.00     0.074 A 
ATOM     22  C   UNL     1       6.785  -2.458  -6.029  1.00  0.00     0.031 C 
ATOM     23  C   UNL     1       4.418  -6.873  -1.263  1.00  0.00     0.029 A 
ATOM     24  C   UNL     1       5.187  -7.470  -2.346  1.00  0.00     0.049 A 
ATOM     25  H   UNL     1       6.159  -6.490  -3.909  1.00  0.00     0.167 HD
ATOM     26  C   UNL     1       7.874  -4.295  -7.298  1.00  0.00     0.037 A 
ATOM     27  C   UNL     1       5.388  -8.790  -2.512  1.00  0.00     0.037 A 
ATOM     28  C   UNL     1       8.244  -5.675  -7.488  1.00  0.00     0.049 A 
ATOM     29  C   UNL     1       6.181  -9.259  -3.697  1.00  0.00     0.074 A 
ATOM     30  C   UNL     1       9.057  -6.218  -8.468  1.00  0.00     0.029 A 
ATOM     31  N   UNL     1       7.814  -6.731  -6.697  1.00  0.00    -0.354 N 
ATOM     32  N   UNL     1       6.754  -8.543  -4.636  1.00  0.00    -0.248 NA
ATOM     33  C   UNL     1       6.347 -10.709  -3.855  1.00  0.00     0.031 C 
ATOM     34  C   UNL     1       9.074  -7.607  -8.304  1.00  0.00     0.029 A 
ATOM     35  C   UNL     1       8.310  -7.926  -7.194  1.00  0.00     0.049 A 
ATOM     36  H   UNL     1       7.242  -6.644  -5.901  1.00  0.00     0.167 HD
ATOM     37  C   UNL     1       7.349  -9.457  -5.495  1.00  0.00     0.074 A 
ATOM     38  C   UNL     1       7.094 -10.774  -4.948  1.00  0.00     0.031 C 
ATOM     39  C   UNL     1       8.037  -9.228  -6.640  1.00  0.00     0.037 A 
BRANCH  26  40
ATOM     40  C   UNL     1       8.325  -3.309  -8.339  1.00  0.00     0.058 A 
ATOM     41  C   UNL     1       9.391  -2.428  -8.110  1.00  0.00     0.135 A 
ATOM     42  C   UNL     1       7.758  -3.332  -9.625  1.00  0.00     0.135 A 
ATOM     43  F   UNL     1       9.961  -2.357  -6.896  1.00  0.00    -0.206 F 
ATOM     44  C   UNL     1       9.884  -1.606  -9.119  1.00  0.00     0.059 A 
ATOM     45  C   UNL     1       8.246  -2.532 -10.655  1.00  0.00     0.059 A 
ATOM     46  F   UNL     1       6.733  -4.155  -9.896  1.00  0.00    -0.206 F 
ATOM     47  C   UNL     1       9.310  -1.672 -10.391  1.00  0.00     0.060 A 
BRANCH  47  48
ATOM     48  S   UNL     1      10.000  -0.638 -11.703  1.00  0.00     0.124 S 
ATOM     49  O   UNL     1       9.549   0.689 -11.295  1.00  0.00    -0.237 OA
ATOM     50  O   UNL     1      11.432  -0.887 -11.574  1.00  0.00    -0.237 OA
ATOM     51  O   UNL     1       9.380  -1.166 -12.914  1.00  0.00    -0.744 OA
ENDBRANCH  47  48
ENDBRANCH  26  40
BRANCH  27  52
ATOM     52  C   UNL     1       4.784  -9.759  -1.562  1.00  0.00     0.058 A 
ATOM     53  C   UNL     1       5.579 -10.525  -0.699  1.00  0.00     0.135 A 
ATOM     54  C   UNL     1       3.392  -9.939  -1.503  1.00  0.00     0.135 A 
ATOM     55  F   UNL     1       6.914 -10.390  -0.719  1.00  0.00    -0.206 F 
ATOM     56  C   UNL     1       5.020 -11.456   0.171  1.00  0.00     0.059 A 
ATOM     57  C   UNL     1       2.807 -10.841  -0.622  1.00  0.00     0.059 A 
ATOM     58  F   UNL     1       2.585  -9.214  -2.294  1.00  0.00    -0.206 F 
ATOM     59  C   UNL     1       3.632 -11.609   0.199  1.00  0.00     0.060 A 
BRANCH  59  60
ATOM     60  S   UNL     1       2.910 -12.806   1.340  1.00  0.00     0.124 S 
ATOM     61  O   UNL     1       3.183 -14.063   0.654  1.00  0.00    -0.237 OA
ATOM     62  O   UNL     1       3.672 -12.567   2.562  1.00  0.00    -0.237 OA
ATOM     63  O   UNL     1       1.507 -12.408   1.398  1.00  0.00    -0.744 OA
ENDBRANCH  59  60
ENDBRANCH  27  52
BRANCH  39  64
ATOM     64  C   UNL     1       8.557 -10.428  -7.377  1.00  0.00     0.058 A 
ATOM     65  C   UNL     1       7.697 -11.264  -8.105  1.00  0.00     0.135 A 
ATOM     66  C   UNL     1       9.930 -10.720  -7.393  1.00  0.00     0.135 A 
ATOM     67  F   UNL     1       6.374 -11.034  -8.110  1.00  0.00    -0.206 F 
ATOM     68  C   UNL     1       8.178 -12.361  -8.811  1.00  0.00     0.059 A 
ATOM     69  C   UNL     1      10.436 -11.796  -8.114  1.00  0.00     0.059 A 
ATOM     70  F   UNL     1      10.794  -9.946  -6.716  1.00  0.00    -0.206 F 
ATOM     71  C   UNL     1       9.551 -12.616  -8.812  1.00  0.00     0.060 A 
BRANCH  71  72
ATOM     72  S   UNL     1      10.167 -14.018  -9.767  1.00  0.00     0.124 S 
ATOM     73  O   UNL     1       9.762 -15.144  -8.931  1.00  0.00    -0.237 OA
ATOM     74  O   UNL     1       9.450 -13.876 -11.030  1.00  0.00    -0.237 OA
ATOM     75  O   UNL     1      11.605 -13.774  -9.838  1.00  0.00    -0.744 OA
ENDBRANCH  71  72
ENDBRANCH  39  64
ENDBRANCH  13  14
ENDBRANCH   6   8
ENDBRANCH   3   4
ENDBRANCH   2   3
ENDBRANCH   1   2
BRANCH   1  76
ATOM     76  C   UNL     1       4.744   3.268   2.959  1.00  0.00     0.002 C 
BRANCH  76  77
ATOM     77  C   UNL     1       6.254   3.100   3.153  1.00  0.00     0.021 C 
BRANCH  77  78
ATOM     78  C   UNL     1       7.107   4.269   2.676  1.00  0.00     0.116 C 
BRANCH  78  79
ATOM     79  N   UNL     1       6.784   5.517   3.348  1.00  0.00    -0.352 N 
ATOM     80  C   UNL     1       7.639   6.484   3.809  1.00  0.00     0.252 C 
ATOM     81  H   UNL     1       5.825   5.690   3.489  1.00  0.00     0.163 HD
ATOM     82  O   UNL     1       7.215   7.479   4.388  1.00  0.00    -0.269 OA
BRANCH  80  83
ATOM     83  C   UNL     1       9.093   6.290   3.665  1.00  0.00     0.051 A 
ATOM     84  C   UNL     1       9.800   6.148   4.855  1.00  0.00     0.043 A 
ATOM     85  C   UNL     1       9.735   6.216   2.411  1.00  0.00     0.016 A 
ATOM     86  C   UNL     1      11.155   5.897   4.777  1.00  0.00     0.072 A 
ATOM     87  C   UNL     1      11.105   5.896   2.432  1.00  0.00     0.107 A 
ATOM     88  C   UNL     1       9.084   6.427   1.167  1.00  0.00     0.011 A 
ATOM     89  N   UNL     1      11.792   5.761   3.591  1.00  0.00    -0.245 NA
ATOM     90  C   UNL     1      11.740   5.712   1.201  1.00  0.00     0.149 A 
ATOM     91  C   UNL     1       9.750   6.240  -0.040  1.00  0.00     0.004 A 
ATOM     92  F   UNL     1      13.037   5.363   1.169  1.00  0.00    -0.205 F 
ATOM     93  C   UNL     1      11.083   5.862  -0.021  1.00  0.00     0.041 A 
BRANCH  86  94
ATOM     94  C   UNL     1      11.991   5.805   5.979  1.00  0.00     0.001 A 
ATOM     95  C   UNL     1      11.691   4.907   7.016  1.00  0.00     0.010 A 
ATOM     96  C   UNL     1      13.097   6.659   6.138  1.00  0.00     0.023 A 
ATOM     97  C   UNL     1      12.459   4.874   8.182  1.00  0.00     0.001 A 
ATOM     98  C   UNL     1      13.867   6.650   7.313  1.00  0.00     0.056 A 
ATOM     99  C   UNL     1      13.536   5.746   8.333  1.00  0.00     0.013 A 
BRANCH  98 100
ATOM    100  C   UNL     1      15.014   7.610   7.498  1.00  0.00     0.416 C 
ATOM    101  F   UNL     1      14.806   8.463   8.542  1.00  0.00    -0.166 F 
ATOM    102  F   UNL     1      16.191   6.979   7.769  1.00  0.00    -0.166 F 
ATOM    103  F   UNL     1      15.254   8.403   6.417  1.00  0.00    -0.166 F 
ENDBRANCH  98 100
ENDBRANCH  86  94
ENDBRANCH  80  83
ENDBRANCH  78  79
ENDBRANCH  77  78
ENDBRANCH  76  77
ENDBRANCH   1  76
TORSDOF 18
