REMARK SMILES O=C(NCCCCCCNC(=O)c1cc2n[nH]cc2cc1[N+](=O)[O-])c1ccc(-c2c3nc(c(-c4c(F)cc(S(=O)(=O)[O-])cc4F)c4ccc([nH]4)c(-c4c(F)cc(S(=O)(=O)[O-])cc4F)c4nc(c(-c5c(F)cc(S(=O)(=O)[O-])cc5F)c5ccc2[nH]5)C=C4)C=C3)cc1
REMARK SMILES IDX 5 1 4 2 3 3 1 4 2 5 25 7 26 8 90 9 27 10 89 11 28 12 29 13
REMARK SMILES IDX 30 14 83 15 31 16 88 17 82 18 84 19 32 20 87 21 81 22 80 23
REMARK SMILES IDX 33 25 67 26 46 27 66 28 47 29 50 30 65 31 85 32 48 33 49 34
REMARK SMILES IDX 64 36 86 37 51 38 34 39 35 40 44 41 36 42 37 43 43 44 45 45
REMARK SMILES IDX 38 46 39 47 40 48 41 49 42 50 68 51 69 52 78 53 70 54 71 55
REMARK SMILES IDX 77 56 79 57 72 58 73 59 74 60 75 61 76 62 52 63 53 64 62 65
REMARK SMILES IDX 54 66 55 67 61 68 63 69 56 70 57 71 58 72 59 73 60 74 6 75
REMARK SMILES IDX 7 76 8 77 9 78 10 79 11 80 12 82 13 83 14 84 21 85 15 86
REMARK SMILES IDX 20 87 16 88 19 89 17 90 18 91 22 93 23 94 24 95
REMARK H PARENT 3 6 84 24 50 35 10 81 17 92
REMARK Flexibility Score: inf
ROOT
ATOM      1  C   UNL     1       4.745  -1.792  -2.082  1.00  0.00     0.021 C 
ENDROOT
BRANCH   1   2
ATOM      2  C   UNL     1       4.490  -0.518  -1.286  1.00  0.00     0.116 C 
BRANCH   2   3
ATOM      3  N   UNL     1       3.077  -0.216  -1.133  1.00  0.00    -0.352 N 
ATOM      4  O   UNL     1       1.159   0.220  -0.031  1.00  0.00    -0.269 OA
ATOM      5  C   UNL     1       2.382   0.119   0.005  1.00  0.00     0.251 C 
ATOM      6  H   UNL     1       2.543  -0.257  -1.959  1.00  0.00     0.163 HD
BRANCH   5   7
ATOM      7  C   UNL     1       3.108   0.330   1.279  1.00  0.00     0.039 A 
ATOM      8  C   UNL     1       4.277   1.094   1.321  1.00  0.00     0.014 A 
ATOM      9  C   UNL     1       2.604  -0.243   2.450  1.00  0.00     0.014 A 
ATOM     10  C   UNL     1       5.008   1.176   2.502  1.00  0.00     0.010 A 
ATOM     11  C   UNL     1       3.302  -0.096   3.654  1.00  0.00     0.010 A 
ATOM     12  C   UNL     1       4.524   0.592   3.684  1.00  0.00    -0.014 A 
BRANCH  12  13
ATOM     13  C   UNL     1       5.281   0.773   4.950  1.00  0.00     0.031 A 
ATOM     14  C   UNL     1       5.920  -0.394   5.652  1.00  0.00     0.074 A 
ATOM     15  C   UNL     1       5.407   2.017   5.453  1.00  0.00     0.049 A 
ATOM     16  N   UNL     1       6.630  -0.402   6.752  1.00  0.00    -0.248 NA
ATOM     17  C   UNL     1       5.733  -1.723   5.050  1.00  0.00     0.031 C 
ATOM     18  C   UNL     1       4.811   3.222   4.870  1.00  0.00     0.029 A 
ATOM     19  N   UNL     1       6.082   2.479   6.552  1.00  0.00    -0.354 N 
ATOM     20  C   UNL     1       6.960  -1.732   6.986  1.00  0.00     0.074 A 
ATOM     21  C   UNL     1       6.355  -2.507   5.923  1.00  0.00     0.031 C 
ATOM     22  C   UNL     1       5.180   4.289   5.594  1.00  0.00     0.029 A 
ATOM     23  C   UNL     1       5.992   3.841   6.719  1.00  0.00     0.049 A 
ATOM     24  H   UNL     1       6.584   1.893   7.164  1.00  0.00     0.167 HD
ATOM     25  C   UNL     1       7.703  -2.255   7.991  1.00  0.00     0.037 A 
ATOM     26  C   UNL     1       6.496   4.641   7.677  1.00  0.00     0.037 A 
ATOM     27  C   UNL     1       8.317  -1.474   9.036  1.00  0.00     0.049 A 
ATOM     28  C   UNL     1       7.320   4.037   8.775  1.00  0.00     0.074 A 
ATOM     29  C   UNL     1       9.121  -1.909  10.077  1.00  0.00     0.029 A 
ATOM     30  N   UNL     1       8.194  -0.099   9.177  1.00  0.00    -0.354 N 
ATOM     31  N   UNL     1       7.648   2.781   8.960  1.00  0.00    -0.248 NA
ATOM     32  C   UNL     1       7.842   4.956   9.795  1.00  0.00     0.031 C 
ATOM     33  C   UNL     1       9.455  -0.802  10.866  1.00  0.00     0.029 A 
ATOM     34  C   UNL     1       8.893   0.328  10.295  1.00  0.00     0.049 A 
ATOM     35  H   UNL     1       7.686   0.487   8.571  1.00  0.00     0.167 HD
ATOM     36  C   UNL     1       8.421   2.758  10.114  1.00  0.00     0.074 A 
ATOM     37  C   UNL     1       8.530   4.129  10.571  1.00  0.00     0.031 C 
ATOM     38  C   UNL     1       8.987   1.696  10.739  1.00  0.00     0.037 A 
BRANCH  25  39
ATOM     39  C   UNL     1       7.889  -3.747   8.023  1.00  0.00     0.058 A 
ATOM     40  C   UNL     1       8.743  -4.403   7.122  1.00  0.00     0.135 A 
ATOM     41  C   UNL     1       7.247  -4.525   9.000  1.00  0.00     0.135 A 
ATOM     42  F   UNL     1       9.373  -3.709   6.160  1.00  0.00    -0.206 F 
ATOM     43  C   UNL     1       8.939  -5.780   7.176  1.00  0.00     0.059 A 
ATOM     44  C   UNL     1       7.444  -5.901   9.086  1.00  0.00     0.059 A 
ATOM     45  F   UNL     1       6.421  -3.949   9.886  1.00  0.00    -0.206 F 
ATOM     46  C   UNL     1       8.283  -6.521   8.161  1.00  0.00     0.060 A 
BRANCH  46  47
ATOM     47  S   UNL     1       8.554  -8.305   8.226  1.00  0.00     0.124 S 
ATOM     48  O   UNL     1       7.757  -8.761   7.091  1.00  0.00    -0.237 OA
ATOM     49  O   UNL     1      10.001  -8.409   8.065  1.00  0.00    -0.237 OA
ATOM     50  O   UNL     1       8.044  -8.679   9.541  1.00  0.00    -0.744 OA
ENDBRANCH  46  47
ENDBRANCH  25  39
BRANCH  26  51
ATOM     51  C   UNL     1       6.226   6.101   7.626  1.00  0.00     0.058 A 
ATOM     52  C   UNL     1       7.236   7.011   7.287  1.00  0.00     0.135 A 
ATOM     53  C   UNL     1       4.940   6.607   7.872  1.00  0.00     0.135 A 
ATOM     54  F   UNL     1       8.482   6.573   7.047  1.00  0.00    -0.206 F 
ATOM     55  C   UNL     1       6.984   8.376   7.198  1.00  0.00     0.059 A 
ATOM     56  C   UNL     1       4.658   7.964   7.765  1.00  0.00     0.059 A 
ATOM     57  F   UNL     1       3.937   5.772   8.181  1.00  0.00    -0.206 F 
ATOM     58  C   UNL     1       5.689   8.842   7.434  1.00  0.00     0.060 A 
BRANCH  58  59
ATOM     59  S   UNL     1       5.352  10.607   7.248  1.00  0.00     0.124 S 
ATOM     60  O   UNL     1       5.906  11.142   8.486  1.00  0.00    -0.237 OA
ATOM     61  O   UNL     1       6.082  10.934   6.027  1.00  0.00    -0.237 OA
ATOM     62  O   UNL     1       3.898  10.658   7.131  1.00  0.00    -0.744 OA
ENDBRANCH  58  59
ENDBRANCH  26  51
BRANCH  38  63
ATOM     63  C   UNL     1       9.787   1.982  11.978  1.00  0.00     0.058 A 
ATOM     64  C   UNL     1       9.165   2.300  13.195  1.00  0.00     0.135 A 
ATOM     65  C   UNL     1      11.188   1.907  11.954  1.00  0.00     0.135 A 
ATOM     66  F   UNL     1       7.828   2.391  13.267  1.00  0.00    -0.206 F 
ATOM     67  C   UNL     1       9.907   2.559  14.342  1.00  0.00     0.059 A 
ATOM     68  C   UNL     1      11.949   2.141  13.094  1.00  0.00     0.059 A 
ATOM     69  F   UNL     1      11.830   1.599  10.815  1.00  0.00    -0.206 F 
ATOM     70  C   UNL     1      11.300   2.479  14.281  1.00  0.00     0.060 A 
BRANCH  70  71
ATOM     71  S   UNL     1      12.255   2.796  15.780  1.00  0.00     0.124 S 
ATOM     72  O   UNL     1      12.208   4.252  15.855  1.00  0.00    -0.237 OA
ATOM     73  O   UNL     1      11.489   2.084  16.799  1.00  0.00    -0.237 OA
ATOM     74  O   UNL     1      13.563   2.224  15.475  1.00  0.00    -0.744 OA
ENDBRANCH  70  71
ENDBRANCH  38  63
ENDBRANCH  12  13
ENDBRANCH   5   7
ENDBRANCH   2   3
ENDBRANCH   1   2
BRANCH   1  75
ATOM     75  C   UNL     1       4.277  -1.767  -3.537  1.00  0.00     0.002 C 
BRANCH  75  76
ATOM     76  C   UNL     1       4.793  -0.606  -4.391  1.00  0.00     0.002 C 
BRANCH  76  77
ATOM     77  C   UNL     1       6.312  -0.399  -4.410  1.00  0.00     0.021 C 
BRANCH  77  78
ATOM     78  C   UNL     1       7.144  -1.632  -4.755  1.00  0.00     0.116 C 
BRANCH  78  79
ATOM     79  N   UNL     1       6.838  -2.166  -6.072  1.00  0.00    -0.352 N 
ATOM     80  C   UNL     1       7.681  -2.583  -7.065  1.00  0.00     0.258 C 
ATOM     81  H   UNL     1       5.878  -2.238  -6.280  1.00  0.00     0.163 HD
ATOM     82  O   UNL     1       7.251  -2.926  -8.161  1.00  0.00    -0.269 OA
BRANCH  80  83
ATOM     83  C   UNL     1       9.138  -2.564  -6.843  1.00  0.00     0.119 A 
ATOM     84  C   UNL     1       9.861  -1.659  -7.660  1.00  0.00     0.052 A 
ATOM     85  C   UNL     1       9.765  -3.406  -5.867  1.00  0.00     0.282 A 
ATOM     86  C   UNL     1      11.236  -1.631  -7.383  1.00  0.00     0.093 A 
ATOM     87  C   UNL     1      11.145  -3.392  -5.552  1.00  0.00     0.098 A 
ATOM     88  N   UNL     1      12.213  -0.898  -7.937  1.00  0.00    -0.176 NA
ATOM     89  C   UNL     1      11.805  -2.474  -6.358  1.00  0.00     0.026 A 
ATOM     90  N   UNL     1      13.334  -1.256  -7.280  1.00  0.00    -0.285 N 
ATOM     91  C   UNL     1      13.143  -2.205  -6.317  1.00  0.00     0.114 A 
ATOM     92  H   UNL     1      14.216  -0.866  -7.478  1.00  0.00     0.189 HD
BRANCH  85  93
ATOM     93  N   UNL     1       8.953  -4.367  -5.139  1.00  0.00     0.063 N 
ATOM     94  O   UNL     1       8.985  -4.297  -3.904  1.00  0.00    -0.258 OA
ATOM     95  O   UNL     1       8.321  -5.198  -5.800  1.00  0.00    -0.258 OA
ENDBRANCH  85  93
ENDBRANCH  80  83
ENDBRANCH  78  79
ENDBRANCH  77  78
ENDBRANCH  76  77
ENDBRANCH  75  76
ENDBRANCH   1  75
TORSDOF 17
