REMARK SMILES CCCOc1cc(NC[C@H]2CC[C@@H](C(=O)NCCCCCCNC(=O)c3ccc(-c4c5nc(c(-c6c(F)cc(S(=O)(=O)[O-])cc6F)c6ccc([nH]6)c(-c6c(F)cc(S(=O)(=O)[O-])cc6F)c6nc(c(-c7c(F)cc(S(=O)(=O)[O-])cc7F)c7ccc4[nH]7)C=C6)C=C5)cc3)O2)ncn1
REMARK SMILES IDX 18 1 17 2 16 3 14 4 15 5 13 7 10 8 11 9 92 10 12 11 9 12
REMARK SMILES IDX 8 13 7 15 5 16 6 17 95 18 94 19 93 20 4 21 3 22 2 23 1 24
REMARK SMILES IDX 19 25 20 26 21 27 22 28 23 29 24 30 25 32 26 33 27 34 91 35
REMARK SMILES IDX 28 36 90 37 29 38 30 39 31 40 84 41 32 42 89 43 83 44 85 45
REMARK SMILES IDX 33 46 88 47 82 48 81 49 34 51 68 52 47 53 67 54 48 55 51 56
REMARK SMILES IDX 66 57 86 58 49 59 50 60 65 62 87 63 52 64 35 65 36 66 45 67
REMARK SMILES IDX 37 68 38 69 44 70 46 71 39 72 40 73 41 74 42 75 43 76 69 77
REMARK SMILES IDX 70 78 79 79 71 80 72 81 78 82 80 83 73 84 74 85 75 86 76 87
REMARK SMILES IDX 77 88 53 89 54 90 63 91 55 92 56 93 62 94 64 95 57 96 58 97
REMARK SMILES IDX 59 98 60 99 61 100
REMARK H PARENT 16 6 8 14 23 31 85 50 51 61
REMARK Flexibility Score: inf
ROOT
ATOM      1  C   UNL     1       6.170   2.503   0.193  1.00  0.00     0.021 C 
ENDROOT
BRANCH   1   2
ATOM      2  C   UNL     1       5.434   3.829   0.092  1.00  0.00     0.116 C 
BRANCH   2   3
ATOM      3  N   UNL     1       4.976   4.188  -1.228  1.00  0.00    -0.354 N 
ATOM      4  C   UNL     1       3.788   4.760  -1.593  1.00  0.00     0.249 C 
ATOM      5  O   UNL     1       3.660   5.101  -2.775  1.00  0.00    -0.272 OA
ATOM      6  H   UNL     1       5.601   3.996  -1.964  1.00  0.00     0.163 HD
BRANCH   4   7
ATOM      7  C   UNL     1       2.656   5.060  -0.566  1.00  0.00     0.207 C 
ATOM      8  C   UNL     1       2.077   5.005   1.718  1.00  0.00     0.138 C 
ATOM      9  C   UNL     1       1.933   6.439   1.228  1.00  0.00     0.037 C 
ATOM     10  O   UNL     1       2.520   4.225   0.583  1.00  0.00    -0.363 OA
ATOM     11  C   UNL     1       2.752   6.482  -0.042  1.00  0.00     0.045 C 
BRANCH   8  12
ATOM     12  C   UNL     1       3.020   4.820   2.938  1.00  0.00     0.146 C 
BRANCH  12  13
ATOM     13  N   UNL     1       4.345   5.356   2.677  1.00  0.00    -0.367 N 
ATOM     14  H   UNL     1       4.826   5.025   1.885  1.00  0.00     0.162 HD
BRANCH  13  15
ATOM     15  C   UNL     1       4.978   6.300   3.465  1.00  0.00     0.133 A 
ATOM     16  C   UNL     1       6.801   7.743   3.709  1.00  0.00     0.218 A 
ATOM     17  C   UNL     1       6.264   6.636   3.111  1.00  0.00     0.115 A 
ATOM     18  N   UNL     1       6.217   8.399   4.713  1.00  0.00    -0.202 NA
ATOM     19  C   UNL     1       5.031   7.897   5.088  1.00  0.00     0.228 A 
ATOM     20  N   UNL     1       4.357   6.897   4.486  1.00  0.00    -0.219 NA
BRANCH  16  21
ATOM     21  O   UNL     1       7.995   8.231   3.235  1.00  0.00    -0.478 OA
BRANCH  21  22
ATOM     22  C   UNL     1       7.783   9.042   2.067  1.00  0.00     0.231 C 
BRANCH  22  23
ATOM     23  C   UNL     1       7.989   8.236   0.774  1.00  0.00     0.038 C 
ATOM     24  C   UNL     1       6.692   7.976   0.013  1.00  0.00     0.007 C 
ENDBRANCH  22  23
ENDBRANCH  21  22
ENDBRANCH  16  21
ENDBRANCH  13  15
ENDBRANCH  12  13
ENDBRANCH   8  12
ENDBRANCH   4   7
ENDBRANCH   2   3
ENDBRANCH   1   2
BRANCH   1  25
ATOM     25  C   UNL     1       7.652   2.548  -0.170  1.00  0.00     0.002 C 
BRANCH  25  26
ATOM     26  C   UNL     1       8.497   3.587   0.576  1.00  0.00     0.002 C 
BRANCH  26  27
ATOM     27  C   UNL     1       8.392   3.579   2.104  1.00  0.00     0.021 C 
BRANCH  27  28
ATOM     28  C   UNL     1       8.705   2.253   2.789  1.00  0.00     0.116 C 
BRANCH  28  29
ATOM     29  N   UNL     1      10.017   1.741   2.440  1.00  0.00    -0.352 N 
ATOM     30  C   UNL     1      11.048   1.332   3.249  1.00  0.00     0.251 C 
ATOM     31  H   UNL     1      10.195   1.677   1.474  1.00  0.00     0.163 HD
ATOM     32  O   UNL     1      12.142   1.085   2.752  1.00  0.00    -0.269 OA
BRANCH  30  33
ATOM     33  C   UNL     1      10.852   1.205   4.711  1.00  0.00     0.039 A 
ATOM     34  C   UNL     1      11.864   1.654   5.564  1.00  0.00     0.014 A 
ATOM     35  C   UNL     1       9.697   0.626   5.244  1.00  0.00     0.014 A 
ATOM     36  C   UNL     1      11.695   1.571   6.948  1.00  0.00     0.010 A 
ATOM     37  C   UNL     1       9.498   0.612   6.623  1.00  0.00     0.010 A 
ATOM     38  C   UNL     1      10.497   1.078   7.490  1.00  0.00    -0.014 A 
BRANCH  38  39
ATOM     39  C   UNL     1      10.275   1.047   8.960  1.00  0.00     0.031 A 
ATOM     40  C   UNL     1      10.092  -0.265   9.674  1.00  0.00     0.074 A 
ATOM     41  C   UNL     1      10.184   2.206   9.642  1.00  0.00     0.049 A 
ATOM     42  N   UNL     1       9.841  -0.489  10.938  1.00  0.00    -0.248 NA
ATOM     43  C   UNL     1      10.177  -1.486   8.856  1.00  0.00     0.031 C 
ATOM     44  C   UNL     1      10.297   3.543   9.054  1.00  0.00     0.029 A 
ATOM     45  N   UNL     1       9.969   2.449  10.976  1.00  0.00    -0.354 N 
ATOM     46  C   UNL     1       9.721  -1.869  11.065  1.00  0.00     0.074 A 
ATOM     47  C   UNL     1       9.879  -2.428   9.740  1.00  0.00     0.031 C 
ATOM     48  C   UNL     1      10.178   4.463  10.025  1.00  0.00     0.029 A 
ATOM     49  C   UNL     1       9.939   3.786  11.296  1.00  0.00     0.049 A 
ATOM     50  H   UNL     1       9.848   1.733  11.641  1.00  0.00     0.167 HD
ATOM     51  C   UNL     1       9.518  -2.602  12.185  1.00  0.00     0.037 A 
ATOM     52  C   UNL     1       9.736   4.400  12.479  1.00  0.00     0.037 A 
ATOM     53  C   UNL     1       9.389  -2.038  13.504  1.00  0.00     0.049 A 
ATOM     54  C   UNL     1       9.515   3.563  13.709  1.00  0.00     0.074 A 
ATOM     55  C   UNL     1       9.249  -2.700  14.712  1.00  0.00     0.029 A 
ATOM     56  N   UNL     1       9.378  -0.680  13.790  1.00  0.00    -0.354 N 
ATOM     57  N   UNL     1       9.473   2.257  13.821  1.00  0.00    -0.248 NA
ATOM     58  C   UNL     1       9.322   4.282  14.976  1.00  0.00     0.031 C 
ATOM     59  C   UNL     1       9.101  -1.742  15.721  1.00  0.00     0.029 A 
ATOM     60  C   UNL     1       9.208  -0.484  15.151  1.00  0.00     0.049 A 
ATOM     61  H   UNL     1       9.477   0.038  13.124  1.00  0.00     0.167 HD
ATOM     62  C   UNL     1       9.277   1.996  15.173  1.00  0.00     0.074 A 
ATOM     63  C   UNL     1       9.220   3.281  15.840  1.00  0.00     0.031 C 
ATOM     64  C   UNL     1       9.159   0.802  15.804  1.00  0.00     0.037 A 
BRANCH  51  65
ATOM     65  C   UNL     1       9.421  -4.097  12.039  1.00  0.00     0.058 A 
ATOM     66  C   UNL     1      10.536  -4.883  11.707  1.00  0.00     0.135 A 
ATOM     67  C   UNL     1       8.205  -4.758  12.281  1.00  0.00     0.135 A 
ATOM     68  F   UNL     1      11.720  -4.304  11.450  1.00  0.00    -0.206 F 
ATOM     69  C   UNL     1      10.444  -6.267  11.594  1.00  0.00     0.059 A 
ATOM     70  C   UNL     1       8.097  -6.144  12.204  1.00  0.00     0.059 A 
ATOM     71  F   UNL     1       7.106  -4.058  12.602  1.00  0.00    -0.206 F 
ATOM     72  C   UNL     1       9.220  -6.889  11.846  1.00  0.00     0.060 A 
BRANCH  72  73
ATOM     73  S   UNL     1       9.122  -8.686  11.709  1.00  0.00     0.124 S 
ATOM     74  O   UNL     1       9.204  -8.873  10.264  1.00  0.00    -0.237 OA
ATOM     75  O   UNL     1      10.288  -9.121  12.471  1.00  0.00    -0.237 OA
ATOM     76  O   UNL     1       7.830  -9.004  12.309  1.00  0.00    -0.744 OA
ENDBRANCH  72  73
ENDBRANCH  51  65
BRANCH  52  77
ATOM     77  C   UNL     1       9.761   5.886  12.556  1.00  0.00     0.058 A 
ATOM     78  C   UNL     1      10.814   6.557  13.195  1.00  0.00     0.135 A 
ATOM     79  C   UNL     1       8.747   6.665  11.976  1.00  0.00     0.135 A 
ATOM     80  F   UNL     1      11.803   5.857  13.771  1.00  0.00    -0.206 F 
ATOM     81  C   UNL     1      10.856   7.945  13.269  1.00  0.00     0.059 A 
ATOM     82  C   UNL     1       8.781   8.055  12.013  1.00  0.00     0.059 A 
ATOM     83  F   UNL     1       7.724   6.072  11.341  1.00  0.00    -0.206 F 
ATOM     84  C   UNL     1       9.836   8.687  12.670  1.00  0.00     0.060 A 
BRANCH  84  85
ATOM     85  S   UNL     1       9.929  10.489  12.730  1.00  0.00     0.124 S 
ATOM     86  O   UNL     1       9.638  10.752  14.135  1.00  0.00    -0.237 OA
ATOM     87  O   UNL     1      11.303  10.739  12.305  1.00  0.00    -0.237 OA
ATOM     88  O   UNL     1       8.901  10.911  11.784  1.00  0.00    -0.744 OA
ENDBRANCH  84  85
ENDBRANCH  52  77
BRANCH  64  89
ATOM     89  C   UNL     1       8.992   0.819  17.299  1.00  0.00     0.058 A 
ATOM     90  C   UNL     1       7.798   1.238  17.907  1.00  0.00     0.135 A 
ATOM     91  C   UNL     1      10.025   0.358  18.133  1.00  0.00     0.135 A 
ATOM     92  F   UNL     1       6.782   1.694  17.158  1.00  0.00    -0.206 F 
ATOM     93  C   UNL     1       7.643   1.221  19.290  1.00  0.00     0.059 A 
ATOM     94  C   UNL     1       9.880   0.304  19.515  1.00  0.00     0.059 A 
ATOM     95  F   UNL     1      11.184  -0.065  17.603  1.00  0.00    -0.206 F 
ATOM     96  C   UNL     1       8.689   0.750  20.085  1.00  0.00     0.060 A 
BRANCH  96  97
ATOM     97  S   UNL     1       8.460   0.701  21.875  1.00  0.00     0.124 S 
ATOM     98  O   UNL     1       8.541   2.116  22.221  1.00  0.00    -0.237 OA
ATOM     99  O   UNL     1       7.140   0.091  22.006  1.00  0.00    -0.237 OA
ATOM    100  O   UNL     1       9.573  -0.123  22.339  1.00  0.00    -0.744 OA
ENDBRANCH  96  97
ENDBRANCH  64  89
ENDBRANCH  38  39
ENDBRANCH  30  33
ENDBRANCH  28  29
ENDBRANCH  27  28
ENDBRANCH  26  27
ENDBRANCH  25  26
ENDBRANCH   1  25
TORSDOF 22
