REMARK SMILES O=C1[NH+]=C(S)N(c2cccc(Br)c2)C(=O)/C1=C/c1ccc(-c2ccc(C(=O)NCCCCCCNC(=O)c3ccc(-c4c5nc(c(-c6c(F)cc(S(=O)(=O)[O-])cc6F)c6ccc([nH]6)c(-c6c(F)cc(S(=O)(=O)[O-])cc6F)c6nc(c(-c7c(F)cc(S(=O)(=O)[O-])cc7F)c7ccc4[nH]7)C=C6)C=C5)cc3)cc2)o1
REMARK SMILES IDX 31 1 30 2 29 3 28 4 26 5 27 6 25 8 22 9 23 10 105 11 24 12
REMARK SMILES IDX 104 13 21 14 18 15 19 16 106 17 20 18 17 19 1 20 2 21 3 22
REMARK SMILES IDX 16 23 4 24 14 26 6 27 15 28 5 29 7 31 8 32 13 33 9 34 11 35
REMARK SMILES IDX 10 36 12 37 32 38 33 39 34 40 35 41 36 42 37 44 38 45 39 46
REMARK SMILES IDX 103 47 40 48 102 49 41 50 42 51 43 52 96 53 44 54 101 55
REMARK SMILES IDX 95 56 97 57 45 58 100 59 94 60 93 61 46 63 80 64 59 65 79 66
REMARK SMILES IDX 60 67 63 68 78 69 98 70 61 71 62 72 77 74 99 75 64 76 47 77
REMARK SMILES IDX 48 78 57 79 49 80 50 81 56 82 58 83 51 84 52 85 53 86 54 87
REMARK SMILES IDX 55 88 81 89 82 90 91 91 83 92 84 93 90 94 92 95 85 96 86 97
REMARK SMILES IDX 87 98 88 99 89 100 65 101 66 102 75 103 67 104 68 105 74 106
REMARK SMILES IDX 76 107 69 108 70 109 71 110 72 111 73 112
REMARK H PARENT 28 7 3 25 5 30 35 43 97 62 63 73
REMARK Flexibility Score: inf
ROOT
ATOM      1  C   UNL     1      -7.965  -7.956   2.143  1.00  0.00     0.002 C 
ENDROOT
BRANCH   1   2
ATOM      2  C   UNL     1      -6.754  -7.195   1.589  1.00  0.00     0.021 C 
BRANCH   2   3
ATOM      3  C   UNL     1      -6.899  -5.677   1.724  1.00  0.00     0.116 C 
BRANCH   3   4
ATOM      4  N   UNL     1      -6.579  -5.275   3.081  1.00  0.00    -0.352 N 
ATOM      5  C   UNL     1      -5.456  -4.722   3.641  1.00  0.00     0.251 C 
ATOM      6  O   UNL     1      -5.464  -4.505   4.853  1.00  0.00    -0.269 OA
ATOM      7  H   UNL     1      -7.309  -5.429   3.724  1.00  0.00     0.163 HD
BRANCH   5   8
ATOM      8  C   UNL     1      -4.274  -4.307   2.835  1.00  0.00     0.039 A 
ATOM      9  C   UNL     1      -2.176  -3.238   1.303  1.00  0.00     0.017 A 
ATOM     10  C   UNL     1      -2.470  -2.694   2.555  1.00  0.00     0.013 A 
ATOM     11  C   UNL     1      -2.872  -4.366   0.863  1.00  0.00     0.013 A 
ATOM     12  C   UNL     1      -3.523  -3.220   3.311  1.00  0.00     0.014 A 
ATOM     13  C   UNL     1      -3.882  -4.923   1.646  1.00  0.00     0.014 A 
BRANCH   9  14
ATOM     14  C   UNL     1      -1.194  -2.644   0.426  1.00  0.00     0.134 A 
ATOM     15  C   UNL     1       0.881  -2.190  -0.171  1.00  0.00     0.128 A 
ATOM     16  C   UNL     1       0.045  -1.786  -1.206  1.00  0.00     0.051 A 
ATOM     17  O   UNL     1       0.101  -2.728   0.823  1.00  0.00    -0.457 OA
ATOM     18  C   UNL     1      -1.282  -2.062  -0.816  1.00  0.00     0.051 A 
BRANCH  15  19
ATOM     19  C   UNL     1       2.293  -2.143  -0.098  1.00  0.00     0.071 C 
ATOM     20  O   UNL     1       1.227   0.541   0.332  1.00  0.00    -0.241 OA
ATOM     21  C   UNL     1       2.412   0.350   0.119  1.00  0.00     0.347 C 
ATOM     22  N   UNL     1       3.273   1.399   0.011  1.00  0.00    -0.200 N 
ATOM     23  C   UNL     1       3.006  -1.002  -0.024  1.00  0.00     0.158 C 
ATOM     24  C   UNL     1       4.543   1.238  -0.047  1.00  0.00     0.323 C 
ATOM     25  H   UNL     1       2.907   2.313  -0.024  1.00  0.00     0.316 HD
ATOM     26  C   UNL     1       4.480  -1.158  -0.057  1.00  0.00     0.354 C 
ATOM     27  N   UNL     1       5.205   0.025  -0.041  1.00  0.00    -0.151 N 
ATOM     28  O   UNL     1       4.988  -2.280  -0.083  1.00  0.00    -0.240 OA
BRANCH  24  29
ATOM     29  S   UNL     1       5.434   2.738  -0.236  1.00  0.00    -0.055 SA
ATOM     30  H   UNL     1       4.568   3.787  -0.210  1.00  0.00     0.116 HD
ENDBRANCH  24  29
BRANCH  27  31
ATOM     31  C   UNL     1       6.631  -0.077  -0.039  1.00  0.00     0.138 A 
ATOM     32  C   UNL     1       7.290  -0.778  -1.061  1.00  0.00     0.052 A 
ATOM     33  C   UNL     1       7.385   0.495   0.994  1.00  0.00     0.068 A 
ATOM     34  C   UNL     1       8.683  -0.867  -1.074  1.00  0.00     0.006 A 
ATOM     35  C   UNL     1       8.776   0.393   0.978  1.00  0.00     0.022 A 
ATOM     36  C   UNL     1       9.428  -0.277  -0.055  1.00  0.00     0.016 A 
ATOM     37  Br  UNL     1       9.784   1.167   2.378  1.00  0.00    -0.051 Br
ENDBRANCH  27  31
ENDBRANCH  15  19
ENDBRANCH   9  14
ENDBRANCH   5   8
ENDBRANCH   3   4
ENDBRANCH   2   3
ENDBRANCH   1   2
BRANCH   1  38
ATOM     38  C   UNL     1      -9.280  -7.673   1.406  1.00  0.00     0.002 C 
BRANCH  38  39
ATOM     39  C   UNL     1      -9.234  -7.934  -0.102  1.00  0.00     0.021 C 
BRANCH  39  40
ATOM     40  C   UNL     1      -8.939  -9.384  -0.465  1.00  0.00     0.116 C 
BRANCH  40  41
ATOM     41  N   UNL     1      -9.998 -10.271  -0.006  1.00  0.00    -0.352 N 
ATOM     42  C   UNL     1     -10.810 -11.098  -0.741  1.00  0.00     0.251 C 
ATOM     43  H   UNL     1     -10.153 -10.279   0.966  1.00  0.00     0.163 HD
ATOM     44  O   UNL     1     -11.823 -11.574  -0.238  1.00  0.00    -0.269 OA
BRANCH  42  45
ATOM     45  C   UNL     1     -10.458 -11.398  -2.143  1.00  0.00     0.039 A 
ATOM     46  C   UNL     1     -11.452 -11.356  -3.121  1.00  0.00     0.014 A 
ATOM     47  C   UNL     1      -9.139 -11.712  -2.486  1.00  0.00     0.014 A 
ATOM     48  C   UNL     1     -11.110 -11.570  -4.458  1.00  0.00     0.010 A 
ATOM     49  C   UNL     1      -8.788 -11.844  -3.825  1.00  0.00     0.010 A 
ATOM     50  C   UNL     1      -9.770 -11.779  -4.824  1.00  0.00    -0.014 A 
BRANCH  50  51
ATOM     51  C   UNL     1      -9.372 -11.925  -6.247  1.00  0.00     0.031 A 
ATOM     52  C   UNL     1      -8.750 -13.207  -6.729  1.00  0.00     0.074 A 
ATOM     53  C   UNL     1      -9.512 -10.880  -7.087  1.00  0.00     0.049 A 
ATOM     54  N   UNL     1      -8.275 -13.500  -7.912  1.00  0.00    -0.248 NA
ATOM     55  C   UNL     1      -8.620 -14.293  -5.745  1.00  0.00     0.031 C 
ATOM     56  C   UNL     1     -10.065  -9.572  -6.725  1.00  0.00     0.029 A 
ATOM     57  N   UNL     1      -9.194 -10.747  -8.415  1.00  0.00    -0.354 N 
ATOM     58  C   UNL     1      -7.785 -14.797  -7.813  1.00  0.00     0.074 A 
ATOM     59  C   UNL     1      -7.963 -15.211  -6.438  1.00  0.00     0.031 C 
ATOM     60  C   UNL     1     -10.072  -8.781  -7.809  1.00  0.00     0.029 A 
ATOM     61  C   UNL     1      -9.482  -9.505  -8.931  1.00  0.00     0.049 A 
ATOM     62  H   UNL     1      -8.795 -11.472  -8.948  1.00  0.00     0.167 HD
ATOM     63  C   UNL     1      -7.259 -15.580  -8.785  1.00  0.00     0.037 A 
ATOM     64  C   UNL     1      -9.284  -9.003 -10.165  1.00  0.00     0.037 A 
ATOM     65  C   UNL     1      -7.096 -15.161 -10.153  1.00  0.00     0.049 A 
ATOM     66  C   UNL     1      -8.664  -9.880 -11.220  1.00  0.00     0.074 A 
ATOM     67  C   UNL     1      -6.616 -15.892 -11.225  1.00  0.00     0.029 A 
ATOM     68  N   UNL     1      -7.399 -13.896 -10.637  1.00  0.00    -0.354 N 
ATOM     69  N   UNL     1      -8.265 -11.127 -11.125  1.00  0.00    -0.248 NA
ATOM     70  C   UNL     1      -8.470  -9.286 -12.549  1.00  0.00     0.031 C 
ATOM     71  C   UNL     1      -6.574 -15.053 -12.343  1.00  0.00     0.029 A 
ATOM     72  C   UNL     1      -7.089 -13.817 -11.985  1.00  0.00     0.049 A 
ATOM     73  H   UNL     1      -7.779 -13.162 -10.101  1.00  0.00     0.167 HD
ATOM     74  C   UNL     1      -7.804 -11.475 -12.390  1.00  0.00     0.074 A 
ATOM     75  C   UNL     1      -7.984 -10.312 -13.234  1.00  0.00     0.031 C 
ATOM     76  C   UNL     1      -7.281 -12.653 -12.815  1.00  0.00     0.037 A 
BRANCH  63  77
ATOM     77  C   UNL     1      -6.817 -16.968  -8.401  1.00  0.00     0.058 A 
ATOM     78  C   UNL     1      -7.739 -17.961  -8.029  1.00  0.00     0.135 A 
ATOM     79  C   UNL     1      -5.458 -17.320  -8.433  1.00  0.00     0.135 A 
ATOM     80  F   UNL     1      -9.050 -17.679  -7.966  1.00  0.00    -0.206 F 
ATOM     81  C   UNL     1      -7.326 -19.239  -7.667  1.00  0.00     0.059 A 
ATOM     82  C   UNL     1      -5.026 -18.603  -8.109  1.00  0.00     0.059 A 
ATOM     83  F   UNL     1      -4.532 -16.413  -8.782  1.00  0.00    -0.206 F 
ATOM     84  C   UNL     1      -5.966 -19.551  -7.710  1.00  0.00     0.060 A 
BRANCH  84  85
ATOM     85  S   UNL     1      -5.450 -21.213  -7.235  1.00  0.00     0.124 S 
ATOM     86  O   UNL     1      -5.681 -21.189  -5.794  1.00  0.00    -0.237 OA
ATOM     87  O   UNL     1      -6.358 -22.054  -8.008  1.00  0.00    -0.237 OA
ATOM     88  O   UNL     1      -4.050 -21.266  -7.644  1.00  0.00    -0.744 OA
ENDBRANCH  84  85
ENDBRANCH  63  77
BRANCH  64  89
ATOM     89  C   UNL     1      -9.694  -7.606 -10.476  1.00  0.00     0.058 A 
ATOM     90  C   UNL     1     -10.758  -7.345 -11.352  1.00  0.00     0.135 A 
ATOM     91  C   UNL     1      -9.038  -6.506  -9.901  1.00  0.00     0.135 A 
ATOM     92  F   UNL     1     -11.413  -8.361 -11.933  1.00  0.00    -0.206 F 
ATOM     93  C   UNL     1     -11.146  -6.045 -11.662  1.00  0.00     0.059 A 
ATOM     94  C   UNL     1      -9.427  -5.198 -10.172  1.00  0.00     0.059 A 
ATOM     95  F   UNL     1      -8.023  -6.700  -9.043  1.00  0.00    -0.206 F 
ATOM     96  C   UNL     1     -10.476  -4.978 -11.063  1.00  0.00     0.060 A 
BRANCH  96  97
ATOM     97  S   UNL     1     -11.016  -3.297 -11.440  1.00  0.00     0.124 S 
ATOM     98  O   UNL     1     -10.574  -3.149 -12.822  1.00  0.00    -0.237 OA
ATOM     99  O   UNL     1     -12.458  -3.388 -11.236  1.00  0.00    -0.237 OA
ATOM    100  O   UNL     1     -10.301  -2.486 -10.458  1.00  0.00    -0.744 OA
ENDBRANCH  96  97
ENDBRANCH  64  89
BRANCH  76 101
ATOM    101  C   UNL     1      -6.901 -12.761 -14.267  1.00  0.00     0.058 A 
ATOM    102  C   UNL     1      -5.790 -12.086 -14.796  1.00  0.00     0.135 A 
ATOM    103  C   UNL     1      -7.625 -13.603 -15.128  1.00  0.00     0.135 A 
ATOM    104  F   UNL     1      -5.067 -11.262 -14.020  1.00  0.00    -0.206 F 
ATOM    105  C   UNL     1      -5.423 -12.225 -16.131  1.00  0.00     0.059 A 
ATOM    106  C   UNL     1      -7.256 -13.783 -16.457  1.00  0.00     0.059 A 
ATOM    107  F   UNL     1      -8.691 -14.280 -14.673  1.00  0.00    -0.206 F 
ATOM    108  C   UNL     1      -6.159 -13.081 -16.952  1.00  0.00     0.060 A 
BRANCH 108 109
ATOM    109  S   UNL     1      -5.643 -13.285 -18.670  1.00  0.00     0.124 S 
ATOM    110  O   UNL     1      -6.015 -11.996 -19.245  1.00  0.00    -0.237 OA
ATOM    111  O   UNL     1      -4.210 -13.529 -18.536  1.00  0.00    -0.237 OA
ATOM    112  O   UNL     1      -6.428 -14.427 -19.129  1.00  0.00    -0.744 OA
ENDBRANCH 108 109
ENDBRANCH  76 101
ENDBRANCH  50  51
ENDBRANCH  42  45
ENDBRANCH  40  41
ENDBRANCH  39  40
ENDBRANCH  38  39
ENDBRANCH   1  38
TORSDOF 20
