REMARK SMILES Cc1c(C(=O)NCCCCCCNC(=O)c2ccc(-c3c4nc(c(-c5c(F)cc(S(=O)(=O)[O-])cc5F)c5ccc([nH]5)c(-c5c(F)cc(S(=O)(=O)[O-])cc5F)c5nc(c(-c6c(F)cc(S(=O)(=O)[O-])cc6F)c6ccc3[nH]6)C=C5)C=C4)cc2)nnn1-c1ccc(Cl)cc1[N+](=O)[O-]
REMARK SMILES IDX 10 1 9 2 8 3 7 4 6 5 4 6 5 7 3 9 1 10 2 11 84 12 82 13 83 14
REMARK SMILES IDX 85 15 86 16 91 17 87 18 90 19 88 20 89 21 92 22 93 23 94 24
REMARK SMILES IDX 11 25 12 26 13 27 14 28 15 30 16 31 17 32 81 33 18 34 80 35
REMARK SMILES IDX 19 36 20 37 21 38 74 39 22 40 79 41 73 42 75 43 23 44 78 45
REMARK SMILES IDX 72 46 71 47 24 49 58 50 37 51 57 52 38 53 41 54 56 55 76 56
REMARK SMILES IDX 39 57 40 58 55 60 77 61 42 62 25 63 26 64 35 65 27 66 28 67
REMARK SMILES IDX 34 68 36 69 29 70 30 71 31 72 32 73 33 74 59 75 60 76 69 77
REMARK SMILES IDX 61 78 62 79 68 80 70 81 63 82 64 83 65 84 66 85 67 86 43 87
REMARK SMILES IDX 44 88 53 89 45 90 46 91 52 92 54 93 47 94 48 95 49 96 50 97
REMARK SMILES IDX 51 98
REMARK H PARENT 6 8 13 29 75 48 41 59
REMARK Flexibility Score: inf
ROOT
ATOM      1  C   UNL     1       0.067  -5.418  -0.128  1.00  0.00     0.002 C 
ENDROOT
BRANCH   1   2
ATOM      2  C   UNL     1      -1.126  -4.454  -0.259  1.00  0.00     0.002 C 
BRANCH   2   3
ATOM      3  C   UNL     1      -0.769  -2.964  -0.204  1.00  0.00     0.021 C 
BRANCH   3   4
ATOM      4  C   UNL     1       0.288  -2.561  -1.232  1.00  0.00     0.116 C 
BRANCH   4   5
ATOM      5  N   UNL     1      -0.327  -2.185  -2.474  1.00  0.00    -0.351 N 
ATOM      6  C   UNL     1      -0.538  -0.983  -3.092  1.00  0.00     0.273 C 
ATOM      7  O   UNL     1      -1.075  -1.081  -4.202  1.00  0.00    -0.267 OA
ATOM      8  H   UNL     1      -0.668  -2.953  -2.987  1.00  0.00     0.163 HD
BRANCH   6   9
ATOM      9  C   UNL     1      -0.126   0.327  -2.571  1.00  0.00     0.173 A 
ATOM     10  C   UNL     1       0.439   0.366   0.045  1.00  0.00     0.069 C 
ATOM     11  C   UNL     1       0.328   0.848  -1.356  1.00  0.00     0.075 A 
ATOM     12  N   UNL     1       0.634   2.166  -1.666  1.00  0.00    -0.210 N 
ATOM     13  N   UNL     1      -0.249   1.392  -3.454  1.00  0.00    -0.124 NA
ATOM     14  N   UNL     1       0.124   2.505  -2.857  1.00  0.00    -0.061 NA
BRANCH  12  15
ATOM     15  C   UNL     1       1.292   3.135  -0.882  1.00  0.00     0.144 A 
ATOM     16  C   UNL     1       0.618   4.340  -0.641  1.00  0.00     0.037 A 
ATOM     17  C   UNL     1       2.562   2.926  -0.322  1.00  0.00     0.296 A 
ATOM     18  C   UNL     1       1.192   5.303   0.193  1.00  0.00     0.023 A 
ATOM     19  C   UNL     1       3.146   3.901   0.500  1.00  0.00     0.108 A 
ATOM     20  C   UNL     1       2.449   5.080   0.757  1.00  0.00     0.048 A 
ATOM     21  Cl  UNL     1       3.161   6.284   1.757  1.00  0.00    -0.084 Cl
BRANCH  17  22
ATOM     22  N   UNL     1       3.383   1.767  -0.659  1.00  0.00     0.065 N 
ATOM     23  O   UNL     1       4.047   1.261   0.255  1.00  0.00    -0.258 OA
ATOM     24  O   UNL     1       3.382   1.379  -1.833  1.00  0.00    -0.258 OA
ENDBRANCH  17  22
ENDBRANCH  12  15
ENDBRANCH   6   9
ENDBRANCH   4   5
ENDBRANCH   3   4
ENDBRANCH   2   3
ENDBRANCH   1   2
BRANCH   1  25
ATOM     25  C   UNL     1       1.028  -5.152   1.043  1.00  0.00     0.021 C 
BRANCH  25  26
ATOM     26  C   UNL     1       0.409  -5.459   2.395  1.00  0.00     0.116 C 
BRANCH  26  27
ATOM     27  N   UNL     1       0.115  -6.892   2.545  1.00  0.00    -0.352 N 
ATOM     28  C   UNL     1      -0.487  -7.577   3.591  1.00  0.00     0.251 C 
ATOM     29  H   UNL     1       0.388  -7.453   1.784  1.00  0.00     0.163 HD
ATOM     30  O   UNL     1      -0.334  -8.779   3.718  1.00  0.00    -0.269 OA
BRANCH  28  31
ATOM     31  C   UNL     1      -1.335  -6.820   4.529  1.00  0.00     0.039 A 
ATOM     32  C   UNL     1      -1.473  -7.140   5.885  1.00  0.00     0.014 A 
ATOM     33  C   UNL     1      -1.989  -5.723   4.002  1.00  0.00     0.014 A 
ATOM     34  C   UNL     1      -2.296  -6.333   6.672  1.00  0.00     0.010 A 
ATOM     35  C   UNL     1      -2.424  -4.754   4.841  1.00  0.00     0.010 A 
ATOM     36  C   UNL     1      -2.787  -5.151   6.112  1.00  0.00    -0.014 A 
BRANCH  36  37
ATOM     37  C   UNL     1      -3.671  -4.216   6.779  1.00  0.00     0.031 A 
ATOM     38  C   UNL     1      -2.991  -3.412   7.814  1.00  0.00     0.074 A 
ATOM     39  C   UNL     1      -4.857  -3.880   6.219  1.00  0.00     0.049 A 
ATOM     40  N   UNL     1      -3.101  -3.536   9.093  1.00  0.00    -0.248 NA
ATOM     41  C   UNL     1      -1.883  -2.534   7.395  1.00  0.00     0.031 C 
ATOM     42  C   UNL     1      -5.453  -4.370   4.966  1.00  0.00     0.029 A 
ATOM     43  N   UNL     1      -5.721  -2.895   6.589  1.00  0.00    -0.354 N 
ATOM     44  C   UNL     1      -2.288  -2.540   9.618  1.00  0.00     0.074 A 
ATOM     45  C   UNL     1      -1.357  -2.205   8.577  1.00  0.00     0.031 C 
ATOM     46  C   UNL     1      -6.442  -3.536   4.575  1.00  0.00     0.029 A 
ATOM     47  C   UNL     1      -6.634  -2.525   5.595  1.00  0.00     0.049 A 
ATOM     48  H   UNL     1      -5.705  -2.478   7.481  1.00  0.00     0.167 HD
ATOM     49  C   UNL     1      -2.658  -1.839  10.727  1.00  0.00     0.037 A 
ATOM     50  C   UNL     1      -7.396  -1.398   5.617  1.00  0.00     0.037 A 
ATOM     51  C   UNL     1      -3.793  -2.466  11.370  1.00  0.00     0.049 A 
ATOM     52  C   UNL     1      -7.464  -0.978   7.053  1.00  0.00     0.074 A 
ATOM     53  C   UNL     1      -4.046  -3.742  11.842  1.00  0.00     0.029 A 
ATOM     54  N   UNL     1      -5.028  -1.883  11.190  1.00  0.00    -0.354 N 
ATOM     55  N   UNL     1      -8.028  -1.705   7.987  1.00  0.00    -0.248 NA
ATOM     56  C   UNL     1      -6.447  -0.047   7.528  1.00  0.00     0.031 C 
ATOM     57  C   UNL     1      -5.380  -4.026  11.424  1.00  0.00     0.029 A 
ATOM     58  C   UNL     1      -5.903  -2.878  10.827  1.00  0.00     0.049 A 
ATOM     59  H   UNL     1      -5.244  -0.929  11.302  1.00  0.00     0.167 HD
ATOM     60  C   UNL     1      -7.155  -1.644   9.068  1.00  0.00     0.074 A 
ATOM     61  C   UNL     1      -6.227  -0.560   8.743  1.00  0.00     0.031 C 
ATOM     62  C   UNL     1      -7.054  -2.667   9.972  1.00  0.00     0.037 A 
BRANCH  49  63
ATOM     63  C   UNL     1      -2.271  -0.406  11.012  1.00  0.00     0.058 A 
ATOM     64  C   UNL     1      -2.577   0.136  12.277  1.00  0.00     0.135 A 
ATOM     65  C   UNL     1      -1.852   0.531  10.040  1.00  0.00     0.135 A 
ATOM     66  F   UNL     1      -2.984  -0.658  13.280  1.00  0.00    -0.206 F 
ATOM     67  C   UNL     1      -2.548   1.507  12.532  1.00  0.00     0.059 A 
ATOM     68  C   UNL     1      -1.758   1.894  10.290  1.00  0.00     0.059 A 
ATOM     69  F   UNL     1      -1.603   0.200   8.769  1.00  0.00    -0.206 F 
ATOM     70  C   UNL     1      -2.150   2.379  11.524  1.00  0.00     0.060 A 
BRANCH  70  71
ATOM     71  S   UNL     1      -2.205   4.153  11.813  1.00  0.00     0.124 S 
ATOM     72  O   UNL     1      -3.642   4.387  11.899  1.00  0.00    -0.237 OA
ATOM     73  O   UNL     1      -1.459   4.277  13.061  1.00  0.00    -0.237 OA
ATOM     74  O   UNL     1      -1.544   4.705  10.635  1.00  0.00    -0.744 OA
ENDBRANCH  70  71
ENDBRANCH  49  63
BRANCH  50  75
ATOM     75  C   UNL     1      -7.655  -0.474   4.467  1.00  0.00     0.058 A 
ATOM     76  C   UNL     1      -8.517   0.635   4.586  1.00  0.00     0.135 A 
ATOM     77  C   UNL     1      -6.859  -0.497   3.301  1.00  0.00     0.135 A 
ATOM     78  F   UNL     1      -9.312   0.757   5.660  1.00  0.00    -0.206 F 
ATOM     79  C   UNL     1      -8.535   1.681   3.647  1.00  0.00     0.059 A 
ATOM     80  C   UNL     1      -6.873   0.519   2.348  1.00  0.00     0.059 A 
ATOM     81  F   UNL     1      -5.957  -1.465   3.087  1.00  0.00    -0.206 F 
ATOM     82  C   UNL     1      -7.686   1.624   2.543  1.00  0.00     0.060 A 
BRANCH  82  83
ATOM     83  S   UNL     1      -7.520   3.053   1.444  1.00  0.00     0.124 S 
ATOM     84  O   UNL     1      -8.783   3.025   0.715  1.00  0.00    -0.237 OA
ATOM     85  O   UNL     1      -7.348   4.152   2.388  1.00  0.00    -0.237 OA
ATOM     86  O   UNL     1      -6.333   2.732   0.653  1.00  0.00    -0.744 OA
ENDBRANCH  82  83
ENDBRANCH  50  75
BRANCH  62  87
ATOM     87  C   UNL     1      -8.070  -3.786   9.943  1.00  0.00     0.058 A 
ATOM     88  C   UNL     1      -8.262  -4.667   8.862  1.00  0.00     0.135 A 
ATOM     89  C   UNL     1      -8.732  -4.104  11.139  1.00  0.00     0.135 A 
ATOM     90  F   UNL     1      -7.586  -4.510   7.717  1.00  0.00    -0.206 F 
ATOM     91  C   UNL     1      -9.098  -5.783   8.952  1.00  0.00     0.059 A 
ATOM     92  C   UNL     1      -9.544  -5.228  11.264  1.00  0.00     0.059 A 
ATOM     93  F   UNL     1      -8.541  -3.346  12.232  1.00  0.00    -0.206 F 
ATOM     94  C   UNL     1      -9.734  -6.057  10.161  1.00  0.00     0.060 A 
BRANCH  94  95
ATOM     95  S   UNL     1     -10.766  -7.532  10.301  1.00  0.00     0.124 S 
ATOM     96  O   UNL     1     -11.909  -7.185   9.463  1.00  0.00    -0.237 OA
ATOM     97  O   UNL     1      -9.893  -8.581   9.780  1.00  0.00    -0.237 OA
ATOM     98  O   UNL     1     -11.046  -7.619  11.732  1.00  0.00    -0.744 OA
ENDBRANCH  94  95
ENDBRANCH  62  87
ENDBRANCH  36  37
ENDBRANCH  28  31
ENDBRANCH  26  27
ENDBRANCH  25  26
ENDBRANCH   1  25
TORSDOF 18
