REMARK SMILES NS(=O)(=O)c1ccc(-n2nc(C(=O)NCCCC(=O)NCCCCCCNC(=O)c3ccc(-c4c5nc(c(-c6c(F)cc(S(=O)(=O)[O-])cc6F)c6ccc([nH]6)c(-c6c(F)cc(S(=O)(=O)[O-])cc6F)c6nc(c(-c7c(F)cc(S(=O)(=O)[O-])cc7F)c7ccc4[nH]7)C=C6)C=C5)cc3)cc2-c2ccccc2)cc1
REMARK SMILES IDX 21 1 20 2 18 3 19 4 17 6 16 7 15 8 14 9 12 10 13 11 11 13
REMARK SMILES IDX 9 14 10 15 97 16 96 17 8 18 5 19 6 20 105 21 7 22 104 23
REMARK SMILES IDX 2 24 3 25 4 26 1 27 98 30 99 31 103 32 100 33 102 34 101 35
REMARK SMILES IDX 22 36 23 37 24 38 25 39 26 40 27 41 28 42 29 44 30 45 31 46
REMARK SMILES IDX 95 47 32 48 94 49 33 50 34 51 35 52 88 53 36 54 93 55 87 56
REMARK SMILES IDX 89 57 37 58 92 59 86 60 85 61 38 63 72 64 51 65 71 66 52 67
REMARK SMILES IDX 55 68 70 69 90 70 53 71 54 72 69 74 91 75 56 76 39 77 40 78
REMARK SMILES IDX 49 79 41 80 42 81 48 82 50 83 43 84 44 85 45 86 46 87 47 88
REMARK SMILES IDX 73 89 74 90 83 91 75 92 76 93 82 94 84 95 77 96 78 97 79 98
REMARK SMILES IDX 80 99 81 100 57 101 58 102 67 103 59 104 60 105 66 106
REMARK SMILES IDX 68 107 61 108 62 109 63 110 64 111 65 112
REMARK H PARENT 20 5 14 12 1 28 1 29 27 43 89 62 55 73
REMARK Flexibility Score: inf
ROOT
ATOM      1  C   UNL     1       4.455  -6.644 -11.247  1.00  0.00     0.116 C 
ENDROOT
BRANCH   1   2
ATOM      2  N   UNL     1       3.769  -6.588 -12.523  1.00  0.00    -0.356 N 
ATOM      3  C   UNL     1       3.405  -5.520 -13.282  1.00  0.00     0.220 C 
ATOM      4  O   UNL     1       2.793  -5.731 -14.330  1.00  0.00    -0.275 OA
ATOM      5  H   UNL     1       3.528  -7.465 -12.900  1.00  0.00     0.163 HD
BRANCH   3   6
ATOM      6  C   UNL     1       3.786  -4.110 -12.878  1.00  0.00     0.102 C 
BRANCH   6   7
ATOM      7  C   UNL     1       2.757  -3.387 -12.008  1.00  0.00     0.031 C 
BRANCH   7   8
ATOM      8  C   UNL     1       2.845  -3.663 -10.511  1.00  0.00     0.116 C 
BRANCH   8   9
ATOM      9  N   UNL     1       4.177  -3.468  -9.955  1.00  0.00    -0.351 N 
ATOM     10  C   UNL     1       4.607  -3.536  -8.647  1.00  0.00     0.271 C 
ATOM     11  O   UNL     1       5.818  -3.451  -8.439  1.00  0.00    -0.267 OA
ATOM     12  H   UNL     1       4.878  -3.255 -10.614  1.00  0.00     0.163 HD
BRANCH  10  13
ATOM     13  C   UNL     1       3.611  -3.657  -7.580  1.00  0.00     0.151 A 
ATOM     14  N   UNL     1       2.570  -3.175  -5.779  1.00  0.00    -0.232 N 
ATOM     15  N   UNL     1       3.717  -2.925  -6.452  1.00  0.00    -0.162 NA
ATOM     16  C   UNL     1       1.682  -3.889  -6.559  1.00  0.00     0.075 A 
ATOM     17  C   UNL     1       2.416  -4.413  -7.588  1.00  0.00     0.065 A 
BRANCH  14  18
ATOM     18  C   UNL     1       2.293  -2.620  -4.504  1.00  0.00     0.065 A 
ATOM     19  C   UNL     1       1.384  -1.373  -2.208  1.00  0.00     0.082 A 
ATOM     20  C   UNL     1       1.011  -2.695  -2.453  1.00  0.00     0.024 A 
ATOM     21  C   UNL     1       2.224  -0.677  -3.082  1.00  0.00     0.024 A 
ATOM     22  C   UNL     1       1.478  -3.324  -3.598  1.00  0.00     0.030 A 
ATOM     23  C   UNL     1       2.700  -1.312  -4.229  1.00  0.00     0.030 A 
BRANCH  19  24
ATOM     24  S   UNL     1       0.871  -0.637  -0.693  1.00  0.00     0.238 S 
ATOM     25  O   UNL     1       2.046  -0.614   0.141  1.00  0.00    -0.207 OA
ATOM     26  O   UNL     1      -0.405  -1.219  -0.349  1.00  0.00    -0.207 OA
BRANCH  24  27
ATOM     27  N   UNL     1       0.538   0.972  -1.061  1.00  0.00    -0.225 NA
ATOM     28  H   UNL     1       0.233   1.458  -0.217  1.00  0.00     0.137 HD
ATOM     29  H   UNL     1      -0.200   1.015  -1.763  1.00  0.00     0.137 HD
ENDBRANCH  24  27
ENDBRANCH  19  24
ENDBRANCH  14  18
BRANCH  16  30
ATOM     30  C   UNL     1       0.259  -3.933  -6.313  1.00  0.00     0.000 A 
ATOM     31  C   UNL     1      -0.462  -2.737  -6.133  1.00  0.00     0.010 A 
ATOM     32  C   UNL     1      -0.338  -5.159  -6.094  1.00  0.00     0.010 A 
ATOM     33  C   UNL     1      -1.746  -2.767  -5.616  1.00  0.00     0.001 A 
ATOM     34  C   UNL     1      -1.599  -5.169  -5.542  1.00  0.00     0.001 A 
ATOM     35  C   UNL     1      -2.297  -3.989  -5.284  1.00  0.00     0.000 A 
ENDBRANCH  16  30
ENDBRANCH  10  13
ENDBRANCH   8   9
ENDBRANCH   7   8
ENDBRANCH   6   7
ENDBRANCH   3   6
ENDBRANCH   1   2
BRANCH   1  36
ATOM     36  C   UNL     1       3.594  -7.335 -10.188  1.00  0.00     0.021 C 
BRANCH  36  37
ATOM     37  C   UNL     1       3.653  -8.865 -10.241  1.00  0.00     0.002 C 
BRANCH  37  38
ATOM     38  C   UNL     1       5.048  -9.483 -10.056  1.00  0.00     0.002 C 
BRANCH  38  39
ATOM     39  C   UNL     1       5.829  -9.061  -8.802  1.00  0.00     0.021 C 
BRANCH  39  40
ATOM     40  C   UNL     1       5.200  -9.527  -7.498  1.00  0.00     0.116 C 
BRANCH  40  41
ATOM     41  N   UNL     1       5.146 -10.990  -7.399  1.00  0.00    -0.352 N 
ATOM     42  C   UNL     1       4.553 -11.788  -6.439  1.00  0.00     0.251 C 
ATOM     43  H   UNL     1       5.600 -11.476  -8.124  1.00  0.00     0.163 HD
ATOM     44  O   UNL     1       4.894 -12.959  -6.312  1.00  0.00    -0.269 OA
BRANCH  42  45
ATOM     45  C   UNL     1       3.498 -11.220  -5.580  1.00  0.00     0.039 A 
ATOM     46  C   UNL     1       3.296 -11.637  -4.259  1.00  0.00     0.014 A 
ATOM     47  C   UNL     1       2.672 -10.254  -6.141  1.00  0.00     0.014 A 
ATOM     48  C   UNL     1       2.284 -11.035  -3.511  1.00  0.00     0.010 A 
ATOM     49  C   UNL     1       1.852  -9.507  -5.350  1.00  0.00     0.010 A 
ATOM     50  C   UNL     1       1.568  -9.972  -4.075  1.00  0.00    -0.014 A 
BRANCH  50  51
ATOM     51  C   UNL     1       0.475  -9.291  -3.397  1.00  0.00     0.031 A 
ATOM     52  C   UNL     1       0.885  -8.497  -2.217  1.00  0.00     0.074 A 
ATOM     53  C   UNL     1      -0.742  -9.214  -3.984  1.00  0.00     0.049 A 
ATOM     54  N   UNL     1       0.636  -8.764  -0.981  1.00  0.00    -0.248 NA
ATOM     55  C   UNL     1       1.842  -7.396  -2.401  1.00  0.00     0.031 C 
ATOM     56  C   UNL     1      -1.138  -9.757  -5.287  1.00  0.00     0.029 A 
ATOM     57  N   UNL     1      -1.864  -8.550  -3.595  1.00  0.00    -0.354 N 
ATOM     58  C   UNL     1       1.208  -7.735  -0.235  1.00  0.00     0.074 A 
ATOM     59  C   UNL     1       2.117  -7.074  -1.134  1.00  0.00     0.031 C 
ATOM     60  C   UNL     1      -2.330  -9.243  -5.651  1.00  0.00     0.029 A 
ATOM     61  C   UNL     1      -2.849  -8.409  -4.583  1.00  0.00     0.049 A 
ATOM     62  H   UNL     1      -1.977  -8.194  -2.684  1.00  0.00     0.167 HD
ATOM     63  C   UNL     1       0.700  -7.389   0.984  1.00  0.00     0.037 A 
ATOM     64  C   UNL     1      -3.936  -7.580  -4.527  1.00  0.00     0.037 A 
ATOM     65  C   UNL     1      -0.321  -8.336   1.369  1.00  0.00     0.049 A 
ATOM     66  C   UNL     1      -4.112  -7.269  -3.063  1.00  0.00     0.074 A 
ATOM     67  C   UNL     1      -0.335  -9.684   1.665  1.00  0.00     0.029 A 
ATOM     68  N   UNL     1      -1.627  -7.974   1.114  1.00  0.00    -0.354 N 
ATOM     69  N   UNL     1      -4.527  -8.166  -2.204  1.00  0.00    -0.248 NA
ATOM     70  C   UNL     1      -3.375  -6.161  -2.449  1.00  0.00     0.031 C 
ATOM     71  C   UNL     1      -1.573 -10.160   1.153  1.00  0.00     0.029 A 
ATOM     72  C   UNL     1      -2.287  -9.074   0.639  1.00  0.00     0.049 A 
ATOM     73  H   UNL     1      -2.015  -7.080   1.250  1.00  0.00     0.167 HD
ATOM     74  C   UNL     1      -3.752  -7.972  -1.064  1.00  0.00     0.074 A 
ATOM     75  C   UNL     1      -3.143  -6.659  -1.230  1.00  0.00     0.031 C 
ATOM     76  C   UNL     1      -3.426  -9.018  -0.250  1.00  0.00     0.037 A 
BRANCH  63  77
ATOM     77  C   UNL     1       0.789  -6.046   1.679  1.00  0.00     0.058 A 
ATOM     78  C   UNL     1       0.143  -5.899   2.930  1.00  0.00     0.135 A 
ATOM     79  C   UNL     1       1.216  -4.845   1.090  1.00  0.00     0.135 A 
ATOM     80  F   UNL     1      -0.232  -6.973   3.642  1.00  0.00    -0.206 F 
ATOM     81  C   UNL     1      -0.218  -4.659   3.453  1.00  0.00     0.059 A 
ATOM     82  C   UNL     1       0.932  -3.598   1.641  1.00  0.00     0.059 A 
ATOM     83  F   UNL     1       1.853  -4.799  -0.083  1.00  0.00    -0.206 F 
ATOM     84  C   UNL     1       0.144  -3.507   2.774  1.00  0.00     0.060 A 
BRANCH  84  85
ATOM     85  S   UNL     1      -0.470  -1.917   3.362  1.00  0.00     0.124 S 
ATOM     86  O   UNL     1      -1.878  -1.990   2.989  1.00  0.00    -0.237 OA
ATOM     87  O   UNL     1      -0.191  -1.996   4.793  1.00  0.00    -0.237 OA
ATOM     88  O   UNL     1       0.327  -0.932   2.639  1.00  0.00    -0.744 OA
ENDBRANCH  84  85
ENDBRANCH  63  77
BRANCH  64  89
ATOM     89  C   UNL     1      -4.562  -6.763  -5.651  1.00  0.00     0.058 A 
ATOM     90  C   UNL     1      -5.408  -5.673  -5.341  1.00  0.00     0.135 A 
ATOM     91  C   UNL     1      -4.106  -6.774  -6.992  1.00  0.00     0.135 A 
ATOM     92  F   UNL     1      -5.938  -5.558  -4.114  1.00  0.00    -0.206 F 
ATOM     93  C   UNL     1      -5.611  -4.588  -6.217  1.00  0.00     0.059 A 
ATOM     94  C   UNL     1      -4.286  -5.704  -7.877  1.00  0.00     0.059 A 
ATOM     95  F   UNL     1      -3.341  -7.756  -7.476  1.00  0.00    -0.206 F 
ATOM     96  C   UNL     1      -4.981  -4.581  -7.459  1.00  0.00     0.060 A 
BRANCH  96  97
ATOM     97  S   UNL     1      -4.810  -3.040  -8.405  1.00  0.00     0.124 S 
ATOM     98  O   UNL     1      -5.972  -3.093  -9.283  1.00  0.00    -0.237 OA
ATOM     99  O   UNL     1      -4.843  -2.016  -7.365  1.00  0.00    -0.237 OA
ATOM    100  O   UNL     1      -3.517  -3.199  -9.068  1.00  0.00    -0.744 OA
ENDBRANCH  96  97
ENDBRANCH  64  89
BRANCH  76 101
ATOM    101  C   UNL     1      -4.153 -10.314  -0.456  1.00  0.00     0.058 A 
ATOM    102  C   UNL     1      -4.023 -11.109  -1.608  1.00  0.00     0.135 A 
ATOM    103  C   UNL     1      -4.840 -10.861   0.635  1.00  0.00     0.135 A 
ATOM    104  F   UNL     1      -3.288 -10.701  -2.650  1.00  0.00    -0.206 F 
ATOM    105  C   UNL     1      -4.582 -12.381  -1.685  1.00  0.00     0.059 A 
ATOM    106  C   UNL     1      -5.373 -12.143   0.594  1.00  0.00     0.059 A 
ATOM    107  F   UNL     1      -4.935 -10.172   1.784  1.00  0.00    -0.206 F 
ATOM    108  C   UNL     1      -5.249 -12.892  -0.574  1.00  0.00     0.060 A 
BRANCH 108 109
ATOM    109  S   UNL     1      -5.884 -14.578  -0.642  1.00  0.00     0.124 S 
ATOM    110  O   UNL     1      -7.025 -14.435  -1.540  1.00  0.00    -0.237 OA
ATOM    111  O   UNL     1      -4.747 -15.323  -1.174  1.00  0.00    -0.237 OA
ATOM    112  O   UNL     1      -6.216 -14.873   0.750  1.00  0.00    -0.744 OA
ENDBRANCH 108 109
ENDBRANCH  76 101
ENDBRANCH  50  51
ENDBRANCH  42  45
ENDBRANCH  40  41
ENDBRANCH  39  40
ENDBRANCH  38  39
ENDBRANCH  37  38
ENDBRANCH  36  37
ENDBRANCH   1  36
TORSDOF 24
