REMARK SMILES O=C(Nc1nc(C2CC2)cs1)N[C@@H]1C=C[C@@H](C(=O)NCCCCCCNC(=O)c2ccc(-c3c4nc(c(-c5c(F)cc(S(=O)(=O)[O-])cc5F)c5ccc([nH]5)c(-c5c(F)cc(S(=O)(=O)[O-])cc5F)c5nc(c(-c6c(F)cc(S(=O)(=O)[O-])cc6F)c6ccc3[nH]6)C=C5)C=C4)cc2)C1
REMARK SMILES IDX 22 1 21 2 20 3 19 4 17 5 18 6 16 8 13 9 14 10 95 11 15 12
REMARK SMILES IDX 12 13 1 14 2 15 3 16 4 19 5 20 11 21 6 22 10 23 7 24 8 25
REMARK SMILES IDX 9 26 23 27 24 28 25 29 26 30 27 31 28 33 29 34 30 35 94 36
REMARK SMILES IDX 31 37 93 38 32 39 33 40 34 41 87 42 35 43 92 44 86 45 88 46
REMARK SMILES IDX 36 47 91 48 85 49 84 50 37 52 71 53 50 54 70 55 51 56 54 57
REMARK SMILES IDX 69 58 89 59 52 60 53 61 68 63 90 64 55 65 38 66 39 67 48 68
REMARK SMILES IDX 40 69 41 70 47 71 49 72 42 73 43 74 44 75 45 76 46 77 72 78
REMARK SMILES IDX 73 79 82 80 74 81 75 82 81 83 83 84 76 85 77 86 78 87 79 88
REMARK SMILES IDX 80 89 56 90 57 91 66 92 58 93 59 94 65 95 67 96 60 97 61 98
REMARK SMILES IDX 62 99 63 100 64 101
REMARK H PARENT 19 7 3 17 12 18 26 32 88 51 54 62
REMARK Flexibility Score: inf
ROOT
ATOM      1  C   UNL     1       0.630   3.888   2.207  1.00  0.00     0.002 C 
ENDROOT
BRANCH   1   2
ATOM      2  C   UNL     1       1.304   3.031   1.131  1.00  0.00     0.021 C 
BRANCH   2   3
ATOM      3  C   UNL     1       0.338   2.427   0.114  1.00  0.00     0.116 C 
BRANCH   3   4
ATOM      4  N   UNL     1      -0.243   3.447  -0.738  1.00  0.00    -0.356 N 
ATOM      5  C   UNL     1      -0.164   3.644  -2.081  1.00  0.00     0.227 C 
ATOM      6  O   UNL     1      -0.790   4.602  -2.549  1.00  0.00    -0.274 OA
ATOM      7  H   UNL     1      -0.790   4.112  -0.261  1.00  0.00     0.163 HD
BRANCH   5   8
ATOM      8  C   UNL     1       0.637   2.728  -3.009  1.00  0.00     0.103 C 
ATOM      9  C   UNL     1       2.432   1.091  -2.615  1.00  0.00     0.107 C 
ATOM     10  C   UNL     1       1.103   0.437  -2.833  1.00  0.00    -0.006 C 
ATOM     11  C   UNL     1       2.128   2.595  -2.672  1.00  0.00     0.047 C 
ATOM     12  C   UNL     1       0.123   1.323  -3.035  1.00  0.00    -0.016 C 
BRANCH   9  13
ATOM     13  N   UNL     1       3.297   0.679  -3.684  1.00  0.00    -0.332 N 
ATOM     14  O   UNL     1       4.963  -0.155  -2.372  1.00  0.00    -0.248 OA
ATOM     15  C   UNL     1       4.482   0.041  -3.486  1.00  0.00     0.321 C 
ATOM     16  N   UNL     1       5.096  -0.477  -4.584  1.00  0.00    -0.284 N 
ATOM     17  H   UNL     1       5.879  -1.055  -4.434  1.00  0.00     0.174 HD
ATOM     18  H   UNL     1       3.018   0.868  -4.609  1.00  0.00     0.165 HD
BRANCH  16  19
ATOM     19  C   UNL     1       4.714  -0.263  -5.875  1.00  0.00     0.191 A 
ATOM     20  N   UNL     1       3.918   0.672  -6.334  1.00  0.00    -0.225 NA
ATOM     21  S   UNL     1       5.326  -1.379  -7.006  1.00  0.00    -0.105 S 
ATOM     22  C   UNL     1       3.744   0.481  -7.690  1.00  0.00     0.057 A 
ATOM     23  C   UNL     1       4.359  -0.635  -8.218  1.00  0.00     0.092 A 
BRANCH  22  24
ATOM     24  C   UNL     1       2.939   1.448  -8.547  1.00  0.00     0.039 C 
ATOM     25  C   UNL     1       2.078   2.494  -7.872  1.00  0.00     0.011 C 
ATOM     26  C   UNL     1       3.352   2.905  -8.532  1.00  0.00     0.011 C 
ENDBRANCH  22  24
ENDBRANCH  16  19
ENDBRANCH   9  13
ENDBRANCH   5   8
ENDBRANCH   3   4
ENDBRANCH   2   3
ENDBRANCH   1   2
BRANCH   1  27
ATOM     27  C   UNL     1      -0.441   3.169   3.033  1.00  0.00     0.002 C 
BRANCH  27  28
ATOM     28  C   UNL     1       0.013   1.869   3.704  1.00  0.00     0.021 C 
BRANCH  28  29
ATOM     29  C   UNL     1       1.209   2.014   4.641  1.00  0.00     0.116 C 
BRANCH  29  30
ATOM     30  N   UNL     1       0.928   2.908   5.753  1.00  0.00    -0.352 N 
ATOM     31  C   UNL     1       1.061   2.694   7.101  1.00  0.00     0.251 C 
ATOM     32  H   UNL     1       0.592   3.799   5.501  1.00  0.00     0.163 HD
ATOM     33  O   UNL     1       0.585   3.507   7.895  1.00  0.00    -0.269 OA
BRANCH  31  34
ATOM     34  C   UNL     1       1.752   1.488   7.603  1.00  0.00     0.039 A 
ATOM     35  C   UNL     1       1.194   0.792   8.678  1.00  0.00     0.014 A 
ATOM     36  C   UNL     1       2.951   1.048   7.032  1.00  0.00     0.014 A 
ATOM     37  C   UNL     1       1.804  -0.377   9.139  1.00  0.00     0.010 A 
ATOM     38  C   UNL     1       3.518  -0.156   7.445  1.00  0.00     0.010 A 
ATOM     39  C   UNL     1       2.951  -0.882   8.503  1.00  0.00    -0.014 A 
BRANCH  39  40
ATOM     40  C   UNL     1       3.539  -2.183   8.918  1.00  0.00     0.031 A 
ATOM     41  C   UNL     1       4.925  -2.252   9.498  1.00  0.00     0.074 A 
ATOM     42  C   UNL     1       2.832  -3.314   8.725  1.00  0.00     0.049 A 
ATOM     43  N   UNL     1       5.597  -3.298   9.906  1.00  0.00    -0.248 NA
ATOM     44  C   UNL     1       5.664  -0.984   9.614  1.00  0.00     0.031 C 
ATOM     45  C   UNL     1       1.502  -3.384   8.113  1.00  0.00     0.029 A 
ATOM     46  N   UNL     1       3.129  -4.622   9.018  1.00  0.00    -0.354 N 
ATOM     47  C   UNL     1       6.835  -2.820  10.319  1.00  0.00     0.074 A 
ATOM     48  C   UNL     1       6.841  -1.396  10.062  1.00  0.00     0.031 C 
ATOM     49  C   UNL     1       1.089  -4.661   8.102  1.00  0.00     0.029 A 
ATOM     50  C   UNL     1       2.134  -5.505   8.671  1.00  0.00     0.049 A 
ATOM     51  H   UNL     1       3.975  -4.900   9.437  1.00  0.00     0.167 HD
ATOM     52  C   UNL     1       7.864  -3.502  10.880  1.00  0.00     0.037 A 
ATOM     53  C   UNL     1       2.070  -6.845   8.793  1.00  0.00     0.037 A 
ATOM     54  C   UNL     1       7.844  -4.918  11.145  1.00  0.00     0.049 A 
ATOM     55  C   UNL     1       3.221  -7.578   9.426  1.00  0.00     0.074 A 
ATOM     56  C   UNL     1       8.808  -5.690  11.770  1.00  0.00     0.029 A 
ATOM     57  N   UNL     1       6.814  -5.779  10.792  1.00  0.00    -0.354 N 
ATOM     58  N   UNL     1       4.351  -7.097   9.886  1.00  0.00    -0.248 NA
ATOM     59  C   UNL     1       3.083  -9.033   9.567  1.00  0.00     0.031 C 
ATOM     60  C   UNL     1       8.384  -7.024  11.749  1.00  0.00     0.029 A 
ATOM     61  C   UNL     1       7.131  -7.077  11.161  1.00  0.00     0.049 A 
ATOM     62  H   UNL     1       5.980  -5.507  10.345  1.00  0.00     0.167 HD
ATOM     63  C   UNL     1       5.052  -8.188  10.387  1.00  0.00     0.074 A 
ATOM     64  C   UNL     1       4.207  -9.349  10.195  1.00  0.00     0.031 C 
ATOM     65  C   UNL     1       6.285  -8.227  10.954  1.00  0.00     0.037 A 
BRANCH  52  66
ATOM     66  C   UNL     1       9.101  -2.725  11.246  1.00  0.00     0.058 A 
ATOM     67  C   UNL     1       9.106  -1.797  12.300  1.00  0.00     0.135 A 
ATOM     68  C   UNL     1      10.308  -2.938  10.560  1.00  0.00     0.135 A 
ATOM     69  F   UNL     1       7.978  -1.542  12.983  1.00  0.00    -0.206 F 
ATOM     70  C   UNL     1      10.253  -1.087  12.642  1.00  0.00     0.059 A 
ATOM     71  C   UNL     1      11.476  -2.261  10.904  1.00  0.00     0.059 A 
ATOM     72  F   UNL     1      10.364  -3.814   9.545  1.00  0.00    -0.206 F 
ATOM     73  C   UNL     1      11.434  -1.327  11.938  1.00  0.00     0.060 A 
BRANCH  73  74
ATOM     74  S   UNL     1      12.915  -0.402  12.398  1.00  0.00     0.124 S 
ATOM     75  O   UNL     1      12.594   0.930  11.895  1.00  0.00    -0.237 OA
ATOM     76  O   UNL     1      12.931  -0.542  13.851  1.00  0.00    -0.237 OA
ATOM     77  O   UNL     1      13.985  -1.098  11.691  1.00  0.00    -0.744 OA
ENDBRANCH  73  74
ENDBRANCH  52  66
BRANCH  53  78
ATOM     78  C   UNL     1       0.862  -7.575   8.322  1.00  0.00     0.058 A 
ATOM     79  C   UNL     1      -0.028  -8.165   9.232  1.00  0.00     0.135 A 
ATOM     80  C   UNL     1       0.562  -7.677   6.955  1.00  0.00     0.135 A 
ATOM     81  F   UNL     1       0.218  -8.099  10.549  1.00  0.00    -0.206 F 
ATOM     82  C   UNL     1      -1.164  -8.843   8.804  1.00  0.00     0.059 A 
ATOM     83  C   UNL     1      -0.583  -8.327   6.504  1.00  0.00     0.059 A 
ATOM     84  F   UNL     1       1.372  -7.115   6.044  1.00  0.00    -0.206 F 
ATOM     85  C   UNL     1      -1.435  -8.915   7.436  1.00  0.00     0.060 A 
BRANCH  85  86
ATOM     86  S   UNL     1      -2.942  -9.750   6.894  1.00  0.00     0.124 S 
ATOM     87  O   UNL     1      -2.603 -11.149   7.126  1.00  0.00    -0.237 OA
ATOM     88  O   UNL     1      -3.946  -9.179   7.787  1.00  0.00    -0.237 OA
ATOM     89  O   UNL     1      -3.061  -9.352   5.495  1.00  0.00    -0.744 OA
ENDBRANCH  85  86
ENDBRANCH  53  78
BRANCH  65  90
ATOM     90  C   UNL     1       6.784  -9.568  11.421  1.00  0.00     0.058 A 
ATOM     91  C   UNL     1       7.152 -10.575  10.515  1.00  0.00     0.135 A 
ATOM     92  C   UNL     1       6.913  -9.842  12.792  1.00  0.00     0.135 A 
ATOM     93  F   UNL     1       7.044 -10.368   9.193  1.00  0.00    -0.206 F 
ATOM     94  C   UNL     1       7.593 -11.820  10.952  1.00  0.00     0.059 A 
ATOM     95  C   UNL     1       7.381 -11.069  13.251  1.00  0.00     0.059 A 
ATOM     96  F   UNL     1       6.587  -8.911  13.703  1.00  0.00    -0.206 F 
ATOM     97  C   UNL     1       7.701 -12.059  12.323  1.00  0.00     0.060 A 
BRANCH  97  98
ATOM     98  S   UNL     1       8.278 -13.678  12.877  1.00  0.00     0.124 S 
ATOM     99  O   UNL     1       7.109 -14.511  12.615  1.00  0.00    -0.237 OA
ATOM    100  O   UNL     1       9.430 -13.913  12.012  1.00  0.00    -0.237 OA
ATOM    101  O   UNL     1       8.593 -13.462  14.286  1.00  0.00    -0.744 OA
ENDBRANCH  97  98
ENDBRANCH  65  90
ENDBRANCH  39  40
ENDBRANCH  31  34
ENDBRANCH  29  30
ENDBRANCH  28  29
ENDBRANCH  27  28
ENDBRANCH   1  27
TORSDOF 19
