REMARK SMILES COc1ccc(-n2c(SCc3cn(-c4ccc(C(=O)NCCCCCCNC(=O)c5ccc(-c6c7nc(c(-c8c(F)cc(S(=O)(=O)[O-])cc8F)c8ccc([nH]8)c(-c8c(F)cc(S(=O)(=O)[O-])cc8F)c8nc(c(-c9c(F)cc(S(=O)(=O)[O-])cc9F)c9ccc6[nH]9)C=C8)C=C7)cc5)cc4)nn3)nc3ccccc3c2=O)cc1
REMARK SMILES IDX 22 1 21 2 20 3 18 4 19 5 17 7 14 8 15 9 97 10 16 11 96 12
REMARK SMILES IDX 13 13 11 14 12 15 99 16 98 17 10 18 9 19 8 20 7 21 107 22
REMARK SMILES IDX 100 23 106 24 108 25 101 26 105 27 102 28 104 29 103 30 6 31
REMARK SMILES IDX 3 32 4 33 110 34 5 35 109 36 2 37 1 38 23 39 24 40 25 41
REMARK SMILES IDX 26 42 27 43 28 44 29 46 30 47 31 48 95 49 32 50 94 51 33 52
REMARK SMILES IDX 34 53 35 54 88 55 36 56 93 57 87 58 89 59 37 60 92 61 86 62
REMARK SMILES IDX 85 63 38 65 72 66 51 67 71 68 52 69 55 70 70 71 90 72 53 73
REMARK SMILES IDX 54 74 69 76 91 77 56 78 39 79 40 80 49 81 41 82 42 83 48 84
REMARK SMILES IDX 50 85 43 86 44 87 45 88 46 89 47 90 73 91 74 92 83 93 75 94
REMARK SMILES IDX 76 95 82 96 84 97 77 98 78 99 79 100 80 101 81 102 57 103
REMARK SMILES IDX 58 104 67 105 59 106 60 107 66 108 68 109 61 110 62 111
REMARK SMILES IDX 63 112 64 113 65 114
REMARK H PARENT 20 6 27 45 89 64 55 75
REMARK Flexibility Score: inf
ROOT
ATOM      1  C   UNL     1      -3.841   1.755   2.955  1.00  0.00     0.021 C 
ENDROOT
BRANCH   1   2
ATOM      2  C   UNL     1      -4.132   1.138   1.584  1.00  0.00     0.116 C 
BRANCH   2   3
ATOM      3  N   UNL     1      -4.835   2.084   0.738  1.00  0.00    -0.352 N 
ATOM      4  C   UNL     1      -4.453   2.885  -0.306  1.00  0.00     0.251 C 
ATOM      5  O   UNL     1      -5.333   3.550  -0.855  1.00  0.00    -0.269 OA
ATOM      6  H   UNL     1      -5.790   2.169   0.962  1.00  0.00     0.163 HD
BRANCH   4   7
ATOM      7  C   UNL     1      -3.061   2.957  -0.830  1.00  0.00     0.039 A 
ATOM      8  C   UNL     1      -0.511   3.117  -1.969  1.00  0.00     0.066 A 
ATOM      9  C   UNL     1      -1.601   3.632  -2.668  1.00  0.00     0.029 A 
ATOM     10  C   UNL     1      -0.678   2.557  -0.703  1.00  0.00     0.029 A 
ATOM     11  C   UNL     1      -2.876   3.520  -2.107  1.00  0.00     0.016 A 
ATOM     12  C   UNL     1      -1.937   2.543  -0.118  1.00  0.00     0.016 A 
BRANCH   8  13
ATOM     13  N   UNL     1       0.782   3.185  -2.503  1.00  0.00    -0.220 N 
ATOM     14  C   UNL     1       2.865   2.816  -2.960  1.00  0.00     0.093 A 
ATOM     15  C   UNL     1       1.832   2.371  -2.186  1.00  0.00     0.141 A 
ATOM     16  N   UNL     1       2.451   3.913  -3.662  1.00  0.00    -0.134 NA
ATOM     17  N   UNL     1       1.152   4.071  -3.447  1.00  0.00    -0.062 NA
BRANCH  14  18
ATOM     18  C   UNL     1       4.168   2.169  -3.150  1.00  0.00     0.138 C 
BRANCH  18  19
ATOM     19  S   UNL     1       4.749   2.248  -4.834  1.00  0.00    -0.081 SA
BRANCH  19  20
ATOM     20  C   UNL     1       3.219   2.114  -5.814  1.00  0.00     0.176 A 
ATOM     21  N   UNL     1       2.934   0.795  -6.119  1.00  0.00    -0.255 N 
ATOM     22  C   UNL     1       3.559   0.303  -7.259  1.00  0.00     0.266 A 
ATOM     23  N   UNL     1       3.080   2.988  -6.769  1.00  0.00    -0.223 NA
ATOM     24  C   UNL     1       4.362   1.339  -7.997  1.00  0.00     0.066 A 
ATOM     25  O   UNL     1       3.545  -0.858  -7.654  1.00  0.00    -0.268 OA
ATOM     26  C   UNL     1       3.994   2.685  -7.798  1.00  0.00     0.079 A 
ATOM     27  C   UNL     1       5.589   1.034  -8.578  1.00  0.00     0.016 A 
ATOM     28  C   UNL     1       4.765   3.718  -8.326  1.00  0.00     0.029 A 
ATOM     29  C   UNL     1       6.417   2.081  -9.000  1.00  0.00     0.001 A 
ATOM     30  C   UNL     1       5.990   3.413  -8.914  1.00  0.00     0.002 A 
BRANCH  21  31
ATOM     31  C   UNL     1       2.220  -0.001  -5.194  1.00  0.00     0.052 A 
ATOM     32  C   UNL     1       0.984  -1.049  -2.903  1.00  0.00     0.119 A 
ATOM     33  C   UNL     1       0.239  -0.301  -3.816  1.00  0.00     0.048 A 
ATOM     34  C   UNL     1       2.303  -1.387  -3.207  1.00  0.00     0.048 A 
ATOM     35  C   UNL     1       0.865   0.256  -4.939  1.00  0.00     0.030 A 
ATOM     36  C   UNL     1       2.911  -0.890  -4.368  1.00  0.00     0.030 A 
BRANCH  32  37
ATOM     37  O   UNL     1       0.348  -1.436  -1.754  1.00  0.00    -0.497 OA
ATOM     38  C   UNL     1       1.096  -1.207  -0.556  1.00  0.00     0.278 C 
ENDBRANCH  32  37
ENDBRANCH  21  31
ENDBRANCH  19  20
ENDBRANCH  18  19
ENDBRANCH  14  18
ENDBRANCH   8  13
ENDBRANCH   4   7
ENDBRANCH   2   3
ENDBRANCH   1   2
BRANCH   1  39
ATOM     39  C   UNL     1      -5.066   1.753   3.880  1.00  0.00     0.002 C 
BRANCH  39  40
ATOM     40  C   UNL     1      -5.683   0.368   4.141  1.00  0.00     0.002 C 
BRANCH  40  41
ATOM     41  C   UNL     1      -4.709  -0.720   4.622  1.00  0.00     0.021 C 
BRANCH  41  42
ATOM     42  C   UNL     1      -4.145  -0.442   6.005  1.00  0.00     0.116 C 
BRANCH  42  43
ATOM     43  N   UNL     1      -5.171  -0.533   7.042  1.00  0.00    -0.352 N 
ATOM     44  C   UNL     1      -5.028  -0.417   8.416  1.00  0.00     0.251 C 
ATOM     45  H   UNL     1      -6.087  -0.699   6.721  1.00  0.00     0.163 HD
ATOM     46  O   UNL     1      -5.848  -0.904   9.165  1.00  0.00    -0.269 OA
BRANCH  44  47
ATOM     47  C   UNL     1      -3.866   0.332   8.942  1.00  0.00     0.039 A 
ATOM     48  C   UNL     1      -3.249  -0.021  10.145  1.00  0.00     0.014 A 
ATOM     49  C   UNL     1      -3.402   1.419   8.205  1.00  0.00     0.014 A 
ATOM     50  C   UNL     1      -2.138   0.712  10.563  1.00  0.00     0.010 A 
ATOM     51  C   UNL     1      -2.201   1.999   8.507  1.00  0.00     0.010 A 
ATOM     52  C   UNL     1      -1.615   1.716   9.728  1.00  0.00    -0.014 A 
BRANCH  52  53
ATOM     53  C   UNL     1      -0.332   2.354   9.996  1.00  0.00     0.031 A 
ATOM     54  C   UNL     1       0.752   1.355  10.132  1.00  0.00     0.074 A 
ATOM     55  C   UNL     1      -0.119   3.688   9.904  1.00  0.00     0.049 A 
ATOM     56  N   UNL     1       1.269   0.946  11.242  1.00  0.00    -0.248 NA
ATOM     57  C   UNL     1       1.121   0.525   8.971  1.00  0.00     0.031 C 
ATOM     58  C   UNL     1      -1.077   4.738   9.540  1.00  0.00     0.029 A 
ATOM     59  N   UNL     1       1.043   4.394  10.038  1.00  0.00    -0.354 N 
ATOM     60  C   UNL     1       2.274   0.066  10.869  1.00  0.00     0.074 A 
ATOM     61  C   UNL     1       1.939  -0.367   9.540  1.00  0.00     0.031 C 
ATOM     62  C   UNL     1      -0.417   5.888   9.266  1.00  0.00     0.029 A 
ATOM     63  C   UNL     1       0.993   5.710   9.559  1.00  0.00     0.049 A 
ATOM     64  H   UNL     1       1.854   4.007  10.441  1.00  0.00     0.167 HD
ATOM     65  C   UNL     1       3.458   0.076  11.542  1.00  0.00     0.037 A 
ATOM     66  C   UNL     1       2.040   6.574   9.410  1.00  0.00     0.037 A 
ATOM     67  C   UNL     1       3.322   0.792  12.795  1.00  0.00     0.049 A 
ATOM     68  C   UNL     1       3.117   6.095  10.320  1.00  0.00     0.074 A 
ATOM     69  C   UNL     1       2.458   0.708  13.873  1.00  0.00     0.029 A 
ATOM     70  N   UNL     1       3.887   2.044  12.867  1.00  0.00    -0.354 N 
ATOM     71  N   UNL     1       3.012   6.136  11.621  1.00  0.00    -0.248 NA
ATOM     72  C   UNL     1       4.037   5.094   9.800  1.00  0.00     0.031 C 
ATOM     73  C   UNL     1       2.177   2.060  14.227  1.00  0.00     0.029 A 
ATOM     74  C   UNL     1       2.971   2.890  13.437  1.00  0.00     0.049 A 
ATOM     75  H   UNL     1       4.790   2.290  12.563  1.00  0.00     0.167 HD
ATOM     76  C   UNL     1       3.446   4.888  12.042  1.00  0.00     0.074 A 
ATOM     77  C   UNL     1       4.129   4.312  10.881  1.00  0.00     0.031 C 
ATOM     78  C   UNL     1       2.936   4.309  13.170  1.00  0.00     0.037 A 
BRANCH  65  79
ATOM     79  C   UNL     1       4.808  -0.126  10.889  1.00  0.00     0.058 A 
ATOM     80  C   UNL     1       5.949  -0.175  11.717  1.00  0.00     0.135 A 
ATOM     81  C   UNL     1       5.068   0.030   9.508  1.00  0.00     0.135 A 
ATOM     82  F   UNL     1       5.823  -0.322  13.046  1.00  0.00    -0.206 F 
ATOM     83  C   UNL     1       7.239   0.016  11.225  1.00  0.00     0.059 A 
ATOM     84  C   UNL     1       6.349   0.168   8.991  1.00  0.00     0.059 A 
ATOM     85  F   UNL     1       4.102   0.149   8.593  1.00  0.00    -0.206 F 
ATOM     86  C   UNL     1       7.426   0.198   9.859  1.00  0.00     0.060 A 
BRANCH  86  87
ATOM     87  S   UNL     1       9.081   0.500   9.226  1.00  0.00     0.124 S 
ATOM     88  O   UNL     1       9.367   1.819   9.777  1.00  0.00    -0.237 OA
ATOM     89  O   UNL     1       9.825  -0.614   9.802  1.00  0.00    -0.237 OA
ATOM     90  O   UNL     1       8.899   0.444   7.778  1.00  0.00    -0.744 OA
ENDBRANCH  86  87
ENDBRANCH  65  79
BRANCH  66  91
ATOM     91  C   UNL     1       2.301   7.576   8.329  1.00  0.00     0.058 A 
ATOM     92  C   UNL     1       3.424   8.434   8.364  1.00  0.00     0.135 A 
ATOM     93  C   UNL     1       1.632   7.510   7.092  1.00  0.00     0.135 A 
ATOM     94  F   UNL     1       4.135   8.571   9.495  1.00  0.00    -0.206 F 
ATOM     95  C   UNL     1       3.897   9.111   7.228  1.00  0.00     0.059 A 
ATOM     96  C   UNL     1       2.078   8.181   5.951  1.00  0.00     0.059 A 
ATOM     97  F   UNL     1       0.572   6.709   6.919  1.00  0.00    -0.206 F 
ATOM     98  C   UNL     1       3.233   8.950   6.014  1.00  0.00     0.060 A 
BRANCH  98  99
ATOM     99  S   UNL     1       3.954   9.611   4.488  1.00  0.00     0.124 S 
ATOM    100  O   UNL     1       3.746  11.045   4.646  1.00  0.00    -0.237 OA
ATOM    101  O   UNL     1       5.337   9.152   4.573  1.00  0.00    -0.237 OA
ATOM    102  O   UNL     1       3.159   8.976   3.439  1.00  0.00    -0.744 OA
ENDBRANCH  98  99
ENDBRANCH  66  91
BRANCH  78 103
ATOM    103  C   UNL     1       2.131   5.162  14.117  1.00  0.00     0.058 A 
ATOM    104  C   UNL     1       0.935   5.831  13.796  1.00  0.00     0.135 A 
ATOM    105  C   UNL     1       2.541   5.201  15.458  1.00  0.00     0.135 A 
ATOM    106  F   UNL     1       0.403   5.744  12.568  1.00  0.00    -0.206 F 
ATOM    107  C   UNL     1       0.224   6.565  14.748  1.00  0.00     0.059 A 
ATOM    108  C   UNL     1       1.831   5.894  16.430  1.00  0.00     0.059 A 
ATOM    109  F   UNL     1       3.634   4.524  15.848  1.00  0.00    -0.206 F 
ATOM    110  C   UNL     1       0.688   6.599  16.063  1.00  0.00     0.060 A 
BRANCH 110 111
ATOM    111  S   UNL     1      -0.221   7.548  17.300  1.00  0.00     0.124 S 
ATOM    112  O   UNL     1       0.035   8.921  16.880  1.00  0.00    -0.237 OA
ATOM    113  O   UNL     1      -1.590   7.073  17.122  1.00  0.00    -0.237 OA
ATOM    114  O   UNL     1       0.406   7.155  18.560  1.00  0.00    -0.744 OA
ENDBRANCH 110 111
ENDBRANCH  78 103
ENDBRANCH  52  53
ENDBRANCH  44  47
ENDBRANCH  42  43
ENDBRANCH  41  42
ENDBRANCH  40  41
ENDBRANCH  39  40
ENDBRANCH   1  39
TORSDOF 22
