REMARK SMILES O=C(CCc1nc(-c2ccccc2)c(-c2ccccc2)o1)NCCCCCCNC(=O)c1ccc(-c2c3nc(c(-c4c(F)cc(S(=O)(=O)[O-])cc4F)c4ccc([nH]4)c(-c4c(F)cc(S(=O)(=O)[O-])cc4F)c4nc(c(-c5c(F)cc(S(=O)(=O)[O-])cc5F)c5ccc2[nH]5)C=C4)C=C3)cc1
REMARK SMILES IDX 25 1 24 2 23 3 22 4 1 5 2 6 3 8 4 9 5 10 6 11 21 12 7 13
REMARK SMILES IDX 14 14 8 15 9 16 13 17 10 18 12 19 11 20 15 21 16 22 20 23
REMARK SMILES IDX 17 24 19 25 18 26 26 27 27 28 28 29 29 30 30 31 31 33 32 34
REMARK SMILES IDX 33 35 97 36 34 37 96 38 35 39 36 40 37 41 90 42 38 43 95 44
REMARK SMILES IDX 89 45 91 46 39 47 94 48 88 49 87 50 40 52 74 53 53 54 73 55
REMARK SMILES IDX 54 56 57 57 72 58 92 59 55 60 56 61 71 63 93 64 58 65 41 66
REMARK SMILES IDX 42 67 51 68 43 69 44 70 50 71 52 72 45 73 46 74 47 75 48 76
REMARK SMILES IDX 49 77 75 78 76 79 85 80 77 81 78 82 84 83 86 84 79 85 80 86
REMARK SMILES IDX 81 87 82 88 83 89 59 90 60 91 69 92 61 93 62 94 68 95 70 96
REMARK SMILES IDX 63 97 64 98 65 99 66 100 67 101
REMARK H PARENT 22 7 29 32 91 51 57 62
REMARK Flexibility Score: inf
ROOT
ATOM      1  C   UNL     1       3.606  -2.652   2.841  1.00  0.00     0.002 C 
ENDROOT
BRANCH   1   2
ATOM      2  C   UNL     1       2.140  -2.474   2.436  1.00  0.00     0.021 C 
BRANCH   2   3
ATOM      3  C   UNL     1       1.754  -1.043   2.062  1.00  0.00     0.116 C 
BRANCH   3   4
ATOM      4  N   UNL     1       2.567  -0.537   0.976  1.00  0.00    -0.356 N 
ATOM      5  O   UNL     1       0.914   0.634  -0.104  1.00  0.00    -0.275 OA
ATOM      6  C   UNL     1       2.082   0.268  -0.021  1.00  0.00     0.220 C 
ATOM      7  H   UNL     1       3.519  -0.785   0.952  1.00  0.00     0.163 HD
BRANCH   6   8
ATOM      8  C   UNL     1       3.120   0.677  -1.044  1.00  0.00     0.110 C 
BRANCH   8   9
ATOM      9  C   UNL     1       4.052   1.761  -0.511  1.00  0.00     0.107 C 
BRANCH   9  10
ATOM     10  C   UNL     1       5.101   1.244   0.414  1.00  0.00     0.196 A 
ATOM     11  N   UNL     1       5.434  -0.006   0.685  1.00  0.00    -0.213 NA
ATOM     12  O   UNL     1       5.816   2.187   1.105  1.00  0.00    -0.440 OA
ATOM     13  C   UNL     1       6.435   0.117   1.629  1.00  0.00     0.117 A 
ATOM     14  C   UNL     1       6.682   1.456   1.871  1.00  0.00     0.162 A 
BRANCH  13  15
ATOM     15  C   UNL     1       7.082  -1.009   2.287  1.00  0.00     0.004 A 
ATOM     16  C   UNL     1       7.434  -0.956   3.648  1.00  0.00     0.010 A 
ATOM     17  C   UNL     1       7.327  -2.190   1.579  1.00  0.00     0.010 A 
ATOM     18  C   UNL     1       8.021  -2.051   4.284  1.00  0.00     0.001 A 
ATOM     19  C   UNL     1       7.918  -3.287   2.216  1.00  0.00     0.001 A 
ATOM     20  C   UNL     1       8.262  -3.217   3.567  1.00  0.00     0.000 A 
ENDBRANCH  13  15
BRANCH  14  21
ATOM     21  C   UNL     1       7.595   2.181   2.733  1.00  0.00     0.020 A 
ATOM     22  C   UNL     1       7.111   3.092   3.678  1.00  0.00     0.012 A 
ATOM     23  C   UNL     1       8.957   1.844   2.744  1.00  0.00     0.012 A 
ATOM     24  C   UNL     1       7.966   3.611   4.654  1.00  0.00     0.001 A 
ATOM     25  C   UNL     1       9.809   2.360   3.720  1.00  0.00     0.001 A 
ATOM     26  C   UNL     1       9.309   3.233   4.682  1.00  0.00     0.000 A 
ENDBRANCH  14  21
ENDBRANCH   9  10
ENDBRANCH   8   9
ENDBRANCH   6   8
ENDBRANCH   3   4
ENDBRANCH   2   3
ENDBRANCH   1   2
BRANCH   1  27
ATOM     27  C   UNL     1       4.047  -1.797   4.027  1.00  0.00     0.002 C 
BRANCH  27  28
ATOM     28  C   UNL     1       3.430  -2.165   5.370  1.00  0.00     0.021 C 
BRANCH  28  29
ATOM     29  C   UNL     1       3.742  -3.584   5.831  1.00  0.00     0.116 C 
BRANCH  29  30
ATOM     30  N   UNL     1       5.170  -3.844   5.972  1.00  0.00    -0.352 N 
ATOM     31  C   UNL     1       5.845  -4.468   6.999  1.00  0.00     0.251 C 
ATOM     32  H   UNL     1       5.731  -3.529   5.228  1.00  0.00     0.163 HD
ATOM     33  O   UNL     1       7.064  -4.478   7.024  1.00  0.00    -0.269 OA
BRANCH  31  34
ATOM     34  C   UNL     1       5.062  -5.101   8.087  1.00  0.00     0.039 A 
ATOM     35  C   UNL     1       5.431  -4.874   9.414  1.00  0.00     0.014 A 
ATOM     36  C   UNL     1       3.943  -5.882   7.791  1.00  0.00     0.014 A 
ATOM     37  C   UNL     1       4.629  -5.369  10.446  1.00  0.00     0.010 A 
ATOM     38  C   UNL     1       3.098  -6.292   8.814  1.00  0.00     0.010 A 
ATOM     39  C   UNL     1       3.433  -6.046  10.153  1.00  0.00    -0.014 A 
BRANCH  39  40
ATOM     40  C   UNL     1       2.524  -6.524  11.227  1.00  0.00     0.031 A 
ATOM     41  C   UNL     1       2.235  -7.996  11.360  1.00  0.00     0.074 A 
ATOM     42  C   UNL     1       1.903  -5.635  12.027  1.00  0.00     0.049 A 
ATOM     43  N   UNL     1       1.396  -8.606  12.157  1.00  0.00    -0.248 NA
ATOM     44  C   UNL     1       2.960  -8.900  10.451  1.00  0.00     0.031 C 
ATOM     45  C   UNL     1       2.052  -4.178  11.955  1.00  0.00     0.029 A 
ATOM     46  N   UNL     1       1.008  -5.823  13.050  1.00  0.00    -0.354 N 
ATOM     47  C   UNL     1       1.485  -9.956  11.839  1.00  0.00     0.074 A 
ATOM     48  C   UNL     1       2.405 -10.069  10.729  1.00  0.00     0.031 C 
ATOM     49  C   UNL     1       1.292  -3.610  12.906  1.00  0.00     0.029 A 
ATOM     50  C   UNL     1       0.575  -4.653  13.631  1.00  0.00     0.049 A 
ATOM     51  H   UNL     1       0.704  -6.713  13.342  1.00  0.00     0.167 HD
ATOM     52  C   UNL     1       0.883 -11.011  12.438  1.00  0.00     0.037 A 
ATOM     53  C   UNL     1      -0.305  -4.447  14.630  1.00  0.00     0.037 A 
ATOM     54  C   UNL     1      -0.011 -10.894  13.559  1.00  0.00     0.049 A 
ATOM     55  C   UNL     1      -0.949  -5.637  15.291  1.00  0.00     0.074 A 
ATOM     56  C   UNL     1      -0.652 -11.901  14.260  1.00  0.00     0.029 A 
ATOM     57  N   UNL     1      -0.381  -9.696  14.153  1.00  0.00    -0.354 N 
ATOM     58  N   UNL     1      -0.817  -6.911  15.007  1.00  0.00    -0.248 NA
ATOM     59  C   UNL     1      -1.851  -5.363  16.418  1.00  0.00     0.031 C 
ATOM     60  C   UNL     1      -1.431 -11.309  15.260  1.00  0.00     0.029 A 
ATOM     61  C   UNL     1      -1.241  -9.938  15.211  1.00  0.00     0.049 A 
ATOM     62  H   UNL     1      -0.078  -8.805  13.864  1.00  0.00     0.167 HD
ATOM     63  C   UNL     1      -1.591  -7.591  15.940  1.00  0.00     0.074 A 
ATOM     64  C   UNL     1      -2.178  -6.588  16.805  1.00  0.00     0.031 C 
ATOM     65  C   UNL     1      -1.798  -8.925  16.072  1.00  0.00     0.037 A 
BRANCH  52  66
ATOM     66  C   UNL     1       1.197 -12.383  11.906  1.00  0.00     0.058 A 
ATOM     67  C   UNL     1       2.466 -12.960  12.076  1.00  0.00     0.135 A 
ATOM     68  C   UNL     1       0.218 -13.141  11.242  1.00  0.00     0.135 A 
ATOM     69  F   UNL     1       3.445 -12.273  12.686  1.00  0.00    -0.206 F 
ATOM     70  C   UNL     1       2.764 -14.225  11.581  1.00  0.00     0.059 A 
ATOM     71  C   UNL     1       0.486 -14.421  10.765  1.00  0.00     0.059 A 
ATOM     72  F   UNL     1      -1.012 -12.639  11.050  1.00  0.00    -0.206 F 
ATOM     73  C   UNL     1       1.767 -14.948  10.927  1.00  0.00     0.060 A 
BRANCH  73  74
ATOM     74  S   UNL     1       2.169 -16.592  10.298  1.00  0.00     0.124 S 
ATOM     75  O   UNL     1       3.003 -16.266   9.146  1.00  0.00    -0.237 OA
ATOM     76  O   UNL     1       2.862 -17.198  11.430  1.00  0.00    -0.237 OA
ATOM     77  O   UNL     1       0.864 -17.166   9.986  1.00  0.00    -0.744 OA
ENDBRANCH  73  74
ENDBRANCH  52  66
BRANCH  53  78
ATOM     78  C   UNL     1      -0.612  -3.064  15.086  1.00  0.00     0.058 A 
ATOM     79  C   UNL     1      -0.187  -2.606  16.342  1.00  0.00     0.135 A 
ATOM     80  C   UNL     1      -1.347  -2.178  14.284  1.00  0.00     0.135 A 
ATOM     81  F   UNL     1       0.516  -3.417  17.148  1.00  0.00    -0.206 F 
ATOM     82  C   UNL     1      -0.505  -1.332  16.802  1.00  0.00     0.059 A 
ATOM     83  C   UNL     1      -1.654  -0.889  14.709  1.00  0.00     0.059 A 
ATOM     84  F   UNL     1      -1.759  -2.558  13.064  1.00  0.00    -0.206 F 
ATOM     85  C   UNL     1      -1.243  -0.481  15.977  1.00  0.00     0.060 A 
BRANCH  85  86
ATOM     86  S   UNL     1      -1.634   1.179  16.573  1.00  0.00     0.124 S 
ATOM     87  O   UNL     1      -2.685   0.901  17.545  1.00  0.00    -0.237 OA
ATOM     88  O   UNL     1      -0.355   1.618  17.122  1.00  0.00    -0.237 OA
ATOM     89  O   UNL     1      -2.060   1.876  15.363  1.00  0.00    -0.744 OA
ENDBRANCH  85  86
ENDBRANCH  53  78
BRANCH  65  90
ATOM     90  C   UNL     1      -2.652  -9.380  17.223  1.00  0.00     0.058 A 
ATOM     91  C   UNL     1      -4.042  -9.189  17.235  1.00  0.00     0.135 A 
ATOM     92  C   UNL     1      -2.070 -10.049  18.312  1.00  0.00     0.135 A 
ATOM     93  F   UNL     1      -4.646  -8.552  16.220  1.00  0.00    -0.206 F 
ATOM     94  C   UNL     1      -4.823  -9.618  18.303  1.00  0.00     0.059 A 
ATOM     95  C   UNL     1      -2.836 -10.511  19.377  1.00  0.00     0.059 A 
ATOM     96  F   UNL     1      -0.746 -10.268  18.343  1.00  0.00    -0.206 F 
ATOM     97  C   UNL     1      -4.210 -10.277  19.371  1.00  0.00     0.060 A 
BRANCH  97  98
ATOM     98  S   UNL     1      -5.236 -10.846  20.742  1.00  0.00     0.124 S 
ATOM     99  O   UNL     1      -5.511  -9.595  21.441  1.00  0.00    -0.237 OA
ATOM    100  O   UNL     1      -6.372 -11.452  20.054  1.00  0.00    -0.237 OA
ATOM    101  O   UNL     1      -4.368 -11.783  21.450  1.00  0.00    -0.744 OA
ENDBRANCH  97  98
ENDBRANCH  65  90
ENDBRANCH  39  40
ENDBRANCH  31  34
ENDBRANCH  29  30
ENDBRANCH  28  29
ENDBRANCH  27  28
ENDBRANCH   1  27
TORSDOF 20
