REMARK SMILES CC(=O)Oc1ccc([C@H]2Nc3c(C(=O)NCCCCCCNC(=O)c4ccc(-c5c6nc(c(-c7c(F)cc(S(=O)(=O)[O-])cc7F)c7ccc([nH]7)c(-c7c(F)cc(S(=O)(=O)[O-])cc7F)c7nc(c(-c8c(F)cc(S(=O)(=O)[O-])cc8F)c8ccc5[nH]8)C=C7)C=C6)cc4)ccc([N+](=O)[O-])c3[C@H]3C=CC[C@@H]32)cc1
REMARK SMILES IDX 18 1 17 2 16 3 15 4 13 5 14 6 12 8 9 9 10 10 102 11 11 12
REMARK SMILES IDX 98 14 101 15 97 16 99 17 100 18 91 19 93 20 92 21 8 22 5 23
REMARK SMILES IDX 6 24 104 25 7 26 103 27 4 28 2 29 1 30 3 31 94 32 95 33
REMARK SMILES IDX 96 34 19 35 20 36 21 37 22 38 23 39 24 41 25 42 26 43 90 44
REMARK SMILES IDX 27 45 89 46 28 47 29 48 30 49 83 50 31 51 88 52 82 53 84 54
REMARK SMILES IDX 32 55 87 56 81 57 80 58 33 60 67 61 46 62 66 63 47 64 50 65
REMARK SMILES IDX 65 66 85 67 48 68 49 69 64 71 86 72 51 73 34 74 35 75 44 76
REMARK SMILES IDX 36 77 37 78 43 79 45 80 38 81 39 82 40 83 41 84 42 85 68 86
REMARK SMILES IDX 69 87 78 88 70 89 71 90 77 91 79 92 72 93 73 94 74 95 75 96
REMARK SMILES IDX 76 97 52 98 53 99 62 100 54 101 55 102 61 103 63 104 56 105
REMARK SMILES IDX 57 106 58 107 59 108 60 109
REMARK H PARENT 15 7 10 13 22 40 84 59 50 70
REMARK Flexibility Score: inf
ROOT
ATOM      1  C   UNL     1       2.217 -11.539  11.531  1.00  0.00     0.002 C 
ENDROOT
BRANCH   1   2
ATOM      2  C   UNL     1       1.224 -11.559  10.367  1.00  0.00     0.021 C 
BRANCH   2   3
ATOM      3  C   UNL     1       0.154 -10.467  10.377  1.00  0.00     0.116 C 
BRANCH   3   4
ATOM      4  N   UNL     1       0.645  -9.129  10.019  1.00  0.00    -0.352 N 
ATOM      5  C   UNL     1       0.132  -8.188   9.128  1.00  0.00     0.253 C 
ATOM      6  O   UNL     1       0.759  -7.159   8.894  1.00  0.00    -0.269 OA
ATOM      7  H   UNL     1       1.468  -8.853  10.482  1.00  0.00     0.163 HD
BRANCH   5   8
ATOM      8  C   UNL     1      -1.173  -8.445   8.450  1.00  0.00     0.063 A 
ATOM      9  C   UNL     1      -1.049  -6.932   4.910  1.00  0.00     0.114 C 
ATOM     10  N   UNL     1      -0.635  -7.304   6.289  1.00  0.00    -0.377 N 
ATOM     11  C   UNL     1      -2.569  -7.142   4.838  1.00  0.00     0.031 C 
ATOM     12  C   UNL     1      -1.399  -8.216   7.067  1.00  0.00     0.058 A 
ATOM     13  H   UNL     1       0.183  -6.912   6.670  1.00  0.00     0.161 HD
ATOM     14  C   UNL     1      -2.708  -8.670   4.991  1.00  0.00     0.056 C 
ATOM     15  C   UNL     1      -3.433  -6.741   3.646  1.00  0.00     0.034 C 
ATOM     16  C   UNL     1      -2.530  -8.880   6.473  1.00  0.00     0.061 A 
ATOM     17  C   UNL     1      -3.959  -8.952   4.236  1.00  0.00    -0.022 C 
ATOM     18  C   UNL     1      -4.342  -7.913   3.489  1.00  0.00    -0.030 C 
ATOM     19  C   UNL     1      -2.193  -9.000   9.248  1.00  0.00     0.023 A 
ATOM     20  C   UNL     1      -3.405  -9.618   7.287  1.00  0.00     0.275 A 
ATOM     21  C   UNL     1      -3.294  -9.616   8.673  1.00  0.00     0.087 A 
BRANCH   9  22
ATOM     22  C   UNL     1      -0.504  -5.620   4.342  1.00  0.00    -0.025 A 
ATOM     23  C   UNL     1       0.350  -3.545   2.610  1.00  0.00     0.130 A 
ATOM     24  C   UNL     1       1.207  -4.603   2.908  1.00  0.00     0.047 A 
ATOM     25  C   UNL     1      -0.903  -3.479   3.209  1.00  0.00     0.047 A 
ATOM     26  C   UNL     1       0.787  -5.623   3.774  1.00  0.00     0.010 A 
ATOM     27  C   UNL     1      -1.308  -4.491   4.098  1.00  0.00     0.010 A 
BRANCH  23  28
ATOM     28  O   UNL     1       0.797  -2.649   1.610  1.00  0.00    -0.427 OA
BRANCH  28  29
ATOM     29  C   UNL     1       0.408  -1.310   1.555  1.00  0.00     0.308 C 
ATOM     30  C   UNL     1       1.027  -0.666   0.346  1.00  0.00     0.139 C 
ATOM     31  O   UNL     1      -0.315  -0.722   2.347  1.00  0.00    -0.252 OA
ENDBRANCH  28  29
ENDBRANCH  23  28
ENDBRANCH   9  22
BRANCH  20  32
ATOM     32  N   UNL     1      -4.465 -10.429   6.734  1.00  0.00     0.063 N 
ATOM     33  O   UNL     1      -5.625 -10.028   6.893  1.00  0.00    -0.258 OA
ATOM     34  O   UNL     1      -4.125 -11.478   6.170  1.00  0.00    -0.258 OA
ENDBRANCH  20  32
ENDBRANCH   5   8
ENDBRANCH   3   4
ENDBRANCH   2   3
ENDBRANCH   1   2
BRANCH   1  35
ATOM     35  C   UNL     1       1.645 -11.848  12.920  1.00  0.00     0.002 C 
BRANCH  35  36
ATOM     36  C   UNL     1       0.942 -13.200  13.093  1.00  0.00     0.021 C 
BRANCH  36  37
ATOM     37  C   UNL     1       1.757 -14.440  12.725  1.00  0.00     0.116 C 
BRANCH  37  38
ATOM     38  N   UNL     1       2.949 -14.605  13.542  1.00  0.00    -0.352 N 
ATOM     39  C   UNL     1       3.363 -15.670  14.313  1.00  0.00     0.251 C 
ATOM     40  H   UNL     1       3.558 -13.831  13.545  1.00  0.00     0.163 HD
ATOM     41  O   UNL     1       4.345 -15.552  15.032  1.00  0.00    -0.269 OA
BRANCH  39  42
ATOM     42  C   UNL     1       2.606 -16.946  14.303  1.00  0.00     0.039 A 
ATOM     43  C   UNL     1       2.308 -17.558  15.524  1.00  0.00     0.014 A 
ATOM     44  C   UNL     1       2.188 -17.538  13.108  1.00  0.00     0.014 A 
ATOM     45  C   UNL     1       1.506 -18.703  15.553  1.00  0.00     0.010 A 
ATOM     46  C   UNL     1       1.338 -18.645  13.141  1.00  0.00     0.010 A 
ATOM     47  C   UNL     1       0.965 -19.222  14.364  1.00  0.00    -0.014 A 
BRANCH  47  48
ATOM     48  C   UNL     1      -0.058 -20.303  14.392  1.00  0.00     0.031 A 
ATOM     49  C   UNL     1       0.212 -21.643  13.768  1.00  0.00     0.074 A 
ATOM     50  C   UNL     1      -1.274 -20.038  14.915  1.00  0.00     0.049 A 
ATOM     51  N   UNL     1      -0.594 -22.665  13.627  1.00  0.00    -0.248 NA
ATOM     52  C   UNL     1       1.557 -21.860  13.213  1.00  0.00     0.031 C 
ATOM     53  C   UNL     1      -1.676 -18.762  15.512  1.00  0.00     0.029 A 
ATOM     54  N   UNL     1      -2.401 -20.816  15.015  1.00  0.00    -0.354 N 
ATOM     55  C   UNL     1       0.140 -23.643  12.966  1.00  0.00     0.074 A 
ATOM     56  C   UNL     1       1.444 -23.075  12.694  1.00  0.00     0.031 C 
ATOM     57  C   UNL     1      -2.949 -18.850  15.928  1.00  0.00     0.029 A 
ATOM     58  C   UNL     1      -3.472 -20.167  15.585  1.00  0.00     0.049 A 
ATOM     59  H   UNL     1      -2.439 -21.751  14.708  1.00  0.00     0.167 HD
ATOM     60  C   UNL     1      -0.235 -24.902  12.632  1.00  0.00     0.037 A 
ATOM     61  C   UNL     1      -4.740 -20.575  15.790  1.00  0.00     0.037 A 
ATOM     62  C   UNL     1      -1.534 -25.462  12.912  1.00  0.00     0.049 A 
ATOM     63  C   UNL     1      -5.142 -21.963  15.375  1.00  0.00     0.074 A 
ATOM     64  C   UNL     1      -1.986 -26.748  12.666  1.00  0.00     0.029 A 
ATOM     65  N   UNL     1      -2.592 -24.773  13.487  1.00  0.00    -0.354 N 
ATOM     66  N   UNL     1      -4.412 -22.899  14.817  1.00  0.00    -0.248 NA
ATOM     67  C   UNL     1      -6.539 -22.352  15.614  1.00  0.00     0.031 C 
ATOM     68  C   UNL     1      -3.333 -26.818  13.037  1.00  0.00     0.029 A 
ATOM     69  C   UNL     1      -3.706 -25.594  13.568  1.00  0.00     0.049 A 
ATOM     70  H   UNL     1      -2.557 -23.837  13.792  1.00  0.00     0.167 HD
ATOM     71  C   UNL     1      -5.255 -23.992  14.653  1.00  0.00     0.074 A 
ATOM     72  C   UNL     1      -6.544 -23.609  15.192  1.00  0.00     0.031 C 
ATOM     73  C   UNL     1      -4.988 -25.201  14.100  1.00  0.00     0.037 A 
BRANCH  60  74
ATOM     74  C   UNL     1       0.770 -25.770  11.922  1.00  0.00     0.058 A 
ATOM     75  C   UNL     1       1.904 -26.273  12.579  1.00  0.00     0.135 A 
ATOM     76  C   UNL     1       0.566 -26.153  10.586  1.00  0.00     0.135 A 
ATOM     77  F   UNL     1       2.155 -25.931  13.852  1.00  0.00    -0.206 F 
ATOM     78  C   UNL     1       2.812 -27.104  11.930  1.00  0.00     0.059 A 
ATOM     79  C   UNL     1       1.446 -27.006   9.926  1.00  0.00     0.059 A 
ATOM     80  F   UNL     1      -0.502 -25.703   9.909  1.00  0.00    -0.206 F 
ATOM     81  C   UNL     1       2.574 -27.467  10.604  1.00  0.00     0.060 A 
BRANCH  81  82
ATOM     82  S   UNL     1       3.757 -28.557   9.784  1.00  0.00     0.124 S 
ATOM     83  O   UNL     1       4.904 -27.669   9.618  1.00  0.00    -0.237 OA
ATOM     84  O   UNL     1       3.921 -29.629  10.760  1.00  0.00    -0.237 OA
ATOM     85  O   UNL     1       3.075 -28.935   8.550  1.00  0.00    -0.744 OA
ENDBRANCH  81  82
ENDBRANCH  60  74
BRANCH  61  86
ATOM     86  C   UNL     1      -5.726 -19.651  16.416  1.00  0.00     0.058 A 
ATOM     87  C   UNL     1      -6.228 -19.894  17.703  1.00  0.00     0.135 A 
ATOM     88  C   UNL     1      -6.181 -18.506  15.744  1.00  0.00     0.135 A 
ATOM     89  F   UNL     1      -5.832 -20.981  18.383  1.00  0.00    -0.206 F 
ATOM     90  C   UNL     1      -7.156 -19.044  18.296  1.00  0.00     0.059 A 
ATOM     91  C   UNL     1      -7.086 -17.625  16.327  1.00  0.00     0.059 A 
ATOM     92  F   UNL     1      -5.721 -18.218  14.516  1.00  0.00    -0.206 F 
ATOM     93  C   UNL     1      -7.577 -17.909  17.601  1.00  0.00     0.060 A 
BRANCH  93  94
ATOM     94  S   UNL     1      -8.744 -16.787  18.399  1.00  0.00     0.124 S 
ATOM     95  O   UNL     1      -9.978 -17.562  18.348  1.00  0.00    -0.237 OA
ATOM     96  O   UNL     1      -8.150 -16.617  19.721  1.00  0.00    -0.237 OA
ATOM     97  O   UNL     1      -8.706 -15.602  17.547  1.00  0.00    -0.744 OA
ENDBRANCH  93  94
ENDBRANCH  61  86
BRANCH  73  98
ATOM     98  C   UNL     1      -6.108 -26.206  14.057  1.00  0.00     0.058 A 
ATOM     99  C   UNL     1      -7.196 -26.056  13.183  1.00  0.00     0.135 A 
ATOM    100  C   UNL     1      -6.069 -27.356  14.862  1.00  0.00     0.135 A 
ATOM    101  F   UNL     1      -7.288 -24.970  12.399  1.00  0.00    -0.206 F 
ATOM    102  C   UNL     1      -8.216 -26.999  13.123  1.00  0.00     0.059 A 
ATOM    103  C   UNL     1      -7.063 -28.328  14.797  1.00  0.00     0.059 A 
ATOM    104  F   UNL     1      -5.048 -27.554  15.711  1.00  0.00    -0.206 F 
ATOM    105  C   UNL     1      -8.139 -28.135  13.931  1.00  0.00     0.060 A 
BRANCH 105 106
ATOM    106  S   UNL     1      -9.450 -29.370  13.813  1.00  0.00     0.124 S 
ATOM    107  O   UNL     1     -10.561 -28.684  14.464  1.00  0.00    -0.237 OA
ATOM    108  O   UNL     1      -9.576 -29.553  12.370  1.00  0.00    -0.237 OA
ATOM    109  O   UNL     1      -8.907 -30.515  14.538  1.00  0.00    -0.744 OA
ENDBRANCH 105 106
ENDBRANCH  73  98
ENDBRANCH  47  48
ENDBRANCH  39  42
ENDBRANCH  37  38
ENDBRANCH  36  37
ENDBRANCH  35  36
ENDBRANCH   1  35
TORSDOF 20
