REMARK SMILES Cc1ncc(CC(=O)N2CCC(Cc3cccc(C(=O)NCCCCCCNC(=O)c4ccc(-c5c6nc(c(-c7c(F)cc(S(=O)(=O)[O-])cc7F)c7ccc([nH]7)c(-c7c(F)cc(S(=O)(=O)[O-])cc7F)c7nc(c(-c8c(F)cc(S(=O)(=O)[O-])cc8F)c8ccc5[nH]8)C=C7)C=C6)cc4)c3)CC2)c(=O)[nH]1
REMARK SMILES IDX 24 1 23 2 22 3 21 4 19 5 20 6 18 8 14 9 15 10 97 11 16 12
REMARK SMILES IDX 17 13 13 14 12 15 7 16 8 17 9 18 10 19 99 20 11 21 98 22
REMARK SMILES IDX 6 23 5 24 1 25 2 26 3 27 102 28 4 29 100 30 101 32 25 33
REMARK SMILES IDX 26 34 27 35 28 36 29 37 30 39 31 40 32 41 96 42 33 43 95 44
REMARK SMILES IDX 34 45 35 46 36 47 89 48 37 49 94 50 88 51 90 52 38 53 93 54
REMARK SMILES IDX 87 55 86 56 39 58 73 59 52 60 72 61 53 62 56 63 71 64 91 65
REMARK SMILES IDX 54 66 55 67 70 69 92 70 57 71 40 72 41 73 50 74 42 75 43 76
REMARK SMILES IDX 49 77 51 78 44 79 45 80 46 81 47 82 48 83 74 84 75 85 84 86
REMARK SMILES IDX 76 87 77 88 83 89 85 90 78 91 79 92 80 93 81 94 82 95 58 96
REMARK SMILES IDX 59 97 68 98 60 99 61 100 67 101 69 102 62 103 63 104 64 105
REMARK SMILES IDX 65 106 66 107
REMARK H PARENT 21 7 102 31 28 38 90 57 56 68
REMARK Flexibility Score: inf
ROOT
ATOM      1  C   UNL     1      -2.550   3.691   9.546  1.00  0.00     0.002 C 
ENDROOT
BRANCH   1   2
ATOM      2  C   UNL     1      -1.746   2.449   9.169  1.00  0.00     0.021 C 
BRANCH   2   3
ATOM      3  C   UNL     1      -0.280   2.662   8.812  1.00  0.00     0.116 C 
BRANCH   3   4
ATOM      4  N   UNL     1       0.554   3.144   9.904  1.00  0.00    -0.352 N 
ATOM      5  C   UNL     1       1.835   2.803  10.292  1.00  0.00     0.251 C 
ATOM      6  O   UNL     1       2.318   3.356  11.280  1.00  0.00    -0.269 OA
ATOM      7  H   UNL     1       0.130   3.834  10.464  1.00  0.00     0.163 HD
BRANCH   5   8
ATOM      8  C   UNL     1       2.626   1.748   9.593  1.00  0.00     0.040 A 
ATOM      9  C   UNL     1       3.002   0.334   7.641  1.00  0.00    -0.047 A 
ATOM     10  C   UNL     1       3.876  -0.454   8.395  1.00  0.00     0.004 A 
ATOM     11  C   UNL     1       2.468   1.485   8.235  1.00  0.00     0.017 A 
ATOM     12  C   UNL     1       4.176  -0.109   9.716  1.00  0.00     0.001 A 
ATOM     13  C   UNL     1       3.531   0.973  10.323  1.00  0.00     0.014 A 
BRANCH   9  14
ATOM     14  C   UNL     1       2.518  -0.141   6.285  1.00  0.00     0.039 C 
BRANCH  14  15
ATOM     15  C   UNL     1       2.182   0.968   5.274  1.00  0.00    -0.003 C 
ATOM     16  C   UNL     1       3.013   1.893   1.451  1.00  0.00     0.227 C 
ATOM     17  O   UNL     1       4.249   1.839   1.417  1.00  0.00    -0.275 OA
ATOM     18  N   UNL     1       2.355   2.148   2.651  1.00  0.00    -0.342 N 
ATOM     19  C   UNL     1       3.130   2.727   3.742  1.00  0.00     0.120 C 
ATOM     20  C   UNL     1       1.097   1.543   3.082  1.00  0.00     0.120 C 
ATOM     21  C   UNL     1       3.461   1.670   4.787  1.00  0.00     0.025 C 
ATOM     22  C   UNL     1       1.379   0.421   4.085  1.00  0.00     0.025 C 
BRANCH  16  23
ATOM     23  C   UNL     1       2.235   1.950   0.129  1.00  0.00     0.143 C 
BRANCH  23  24
ATOM     24  C   UNL     1       1.038   1.080  -0.010  1.00  0.00     0.045 A 
ATOM     25  C   UNL     1      -2.384  -1.405  -0.115  1.00  0.00     0.087 C 
ATOM     26  C   UNL     1      -1.195  -0.492  -0.107  1.00  0.00     0.105 A 
ATOM     27  N   UNL     1      -1.349   0.788  -0.046  1.00  0.00    -0.243 NA
ATOM     28  N   UNL     1       0.030  -1.095  -0.127  1.00  0.00    -0.311 N 
ATOM     29  C   UNL     1      -0.216   1.551  -0.049  1.00  0.00     0.123 A 
ATOM     30  C   UNL     1       1.196  -0.387  -0.047  1.00  0.00     0.254 A 
ATOM     31  H   UNL     1       0.074  -2.076  -0.202  1.00  0.00     0.171 HD
ATOM     32  O   UNL     1       2.287  -0.936   0.037  1.00  0.00    -0.269 OA
ENDBRANCH  23  24
ENDBRANCH  16  23
ENDBRANCH  14  15
ENDBRANCH   9  14
ENDBRANCH   5   8
ENDBRANCH   3   4
ENDBRANCH   2   3
ENDBRANCH   1   2
BRANCH   1  33
ATOM     33  C   UNL     1      -2.549   4.842   8.537  1.00  0.00     0.002 C 
BRANCH  33  34
ATOM     34  C   UNL     1      -2.914   4.490   7.093  1.00  0.00     0.021 C 
BRANCH  34  35
ATOM     35  C   UNL     1      -4.235   3.751   6.896  1.00  0.00     0.116 C 
BRANCH  35  36
ATOM     36  N   UNL     1      -5.386   4.515   7.345  1.00  0.00    -0.352 N 
ATOM     37  C   UNL     1      -6.547   4.825   6.672  1.00  0.00     0.251 C 
ATOM     38  H   UNL     1      -5.328   4.861   8.265  1.00  0.00     0.163 HD
ATOM     39  O   UNL     1      -7.355   5.596   7.167  1.00  0.00    -0.269 OA
BRANCH  37  40
ATOM     40  C   UNL     1      -6.798   4.244   5.332  1.00  0.00     0.039 A 
ATOM     41  C   UNL     1      -7.216   5.087   4.299  1.00  0.00     0.014 A 
ATOM     42  C   UNL     1      -6.615   2.879   5.092  1.00  0.00     0.014 A 
ATOM     43  C   UNL     1      -7.378   4.575   3.008  1.00  0.00     0.010 A 
ATOM     44  C   UNL     1      -6.710   2.385   3.792  1.00  0.00     0.010 A 
ATOM     45  C   UNL     1      -7.085   3.229   2.735  1.00  0.00    -0.014 A 
BRANCH  45  46
ATOM     46  C   UNL     1      -7.154   2.685   1.352  1.00  0.00     0.031 A 
ATOM     47  C   UNL     1      -8.133   1.591   1.020  1.00  0.00     0.074 A 
ATOM     48  C   UNL     1      -6.290   3.124   0.414  1.00  0.00     0.049 A 
ATOM     49  N   UNL     1      -8.261   0.903  -0.085  1.00  0.00    -0.248 NA
ATOM     50  C   UNL     1      -9.076   1.202   2.082  1.00  0.00     0.031 C 
ATOM     51  C   UNL     1      -5.271   4.155   0.623  1.00  0.00     0.029 A 
ATOM     52  N   UNL     1      -6.118   2.751  -0.896  1.00  0.00    -0.354 N 
ATOM     53  C   UNL     1      -9.282  -0.010   0.152  1.00  0.00     0.074 A 
ATOM     54  C   UNL     1      -9.707   0.180   1.522  1.00  0.00     0.031 C 
ATOM     55  C   UNL     1      -4.595   4.344  -0.522  1.00  0.00     0.029 A 
ATOM     56  C   UNL     1      -5.093   3.415  -1.532  1.00  0.00     0.049 A 
ATOM     57  H   UNL     1      -6.676   2.071  -1.340  1.00  0.00     0.167 HD
ATOM     58  C   UNL     1      -9.826  -0.911  -0.700  1.00  0.00     0.037 A 
ATOM     59  C   UNL     1      -4.592   3.274  -2.776  1.00  0.00     0.037 A 
ATOM     60  C   UNL     1      -9.416  -1.073  -2.071  1.00  0.00     0.049 A 
ATOM     61  C   UNL     1      -5.187   2.238  -3.690  1.00  0.00     0.074 A 
ATOM     62  C   UNL     1      -9.945  -1.915  -3.033  1.00  0.00     0.029 A 
ATOM     63  N   UNL     1      -8.377  -0.379  -2.676  1.00  0.00    -0.354 N 
ATOM     64  N   UNL     1      -6.178   1.408  -3.461  1.00  0.00    -0.248 NA
ATOM     65  C   UNL     1      -4.595   2.112  -5.029  1.00  0.00     0.031 C 
ATOM     66  C   UNL     1      -9.197  -1.765  -4.206  1.00  0.00     0.029 A 
ATOM     67  C   UNL     1      -8.236  -0.790  -3.991  1.00  0.00     0.049 A 
ATOM     68  H   UNL     1      -7.823   0.305  -2.235  1.00  0.00     0.167 HD
ATOM     69  C   UNL     1      -6.354   0.692  -4.639  1.00  0.00     0.074 A 
ATOM     70  C   UNL     1      -5.365   1.181  -5.577  1.00  0.00     0.031 C 
ATOM     71  C   UNL     1      -7.259  -0.278  -4.920  1.00  0.00     0.037 A 
BRANCH  58  72
ATOM     72  C   UNL     1     -10.925  -1.795  -0.176  1.00  0.00     0.058 A 
ATOM     73  C   UNL     1     -12.199  -1.290   0.128  1.00  0.00     0.135 A 
ATOM     74  C   UNL     1     -10.712  -3.173  -0.007  1.00  0.00     0.135 A 
ATOM     75  F   UNL     1     -12.455   0.022  -0.002  1.00  0.00    -0.206 F 
ATOM     76  C   UNL     1     -13.212  -2.111   0.612  1.00  0.00     0.059 A 
ATOM     77  C   UNL     1     -11.719  -4.019   0.448  1.00  0.00     0.059 A 
ATOM     78  F   UNL     1      -9.513  -3.711  -0.282  1.00  0.00    -0.206 F 
ATOM     79  C   UNL     1     -12.962  -3.475   0.770  1.00  0.00     0.060 A 
BRANCH  79  80
ATOM     80  S   UNL     1     -14.286  -4.528   1.400  1.00  0.00     0.124 S 
ATOM     81  O   UNL     1     -14.318  -4.141   2.807  1.00  0.00    -0.237 OA
ATOM     82  O   UNL     1     -15.430  -4.104   0.600  1.00  0.00    -0.237 OA
ATOM     83  O   UNL     1     -13.803  -5.879   1.132  1.00  0.00    -0.744 OA
ENDBRANCH  79  80
ENDBRANCH  58  72
BRANCH  59  84
ATOM     84  C   UNL     1      -3.438   4.107  -3.216  1.00  0.00     0.058 A 
ATOM     85  C   UNL     1      -3.561   5.095  -4.201  1.00  0.00     0.135 A 
ATOM     86  C   UNL     1      -2.173   3.925  -2.643  1.00  0.00     0.135 A 
ATOM     87  F   UNL     1      -4.746   5.304  -4.795  1.00  0.00    -0.206 F 
ATOM     88  C   UNL     1      -2.470   5.863  -4.603  1.00  0.00     0.059 A 
ATOM     89  C   UNL     1      -1.073   4.690  -3.006  1.00  0.00     0.059 A 
ATOM     90  F   UNL     1      -2.013   3.007  -1.686  1.00  0.00    -0.206 F 
ATOM     91  C   UNL     1      -1.230   5.656  -3.995  1.00  0.00     0.060 A 
BRANCH  91  92
ATOM     92  S   UNL     1       0.168   6.692  -4.474  1.00  0.00     0.124 S 
ATOM     93  O   UNL     1       0.467   6.184  -5.808  1.00  0.00    -0.237 OA
ATOM     94  O   UNL     1      -0.410   8.030  -4.411  1.00  0.00    -0.237 OA
ATOM     95  O   UNL     1       1.166   6.400  -3.448  1.00  0.00    -0.744 OA
ENDBRANCH  91  92
ENDBRANCH  59  84
BRANCH  71  96
ATOM     96  C   UNL     1      -7.271  -0.832  -6.317  1.00  0.00     0.058 A 
ATOM     97  C   UNL     1      -6.279  -1.711  -6.777  1.00  0.00     0.135 A 
ATOM     98  C   UNL     1      -8.331  -0.525  -7.187  1.00  0.00     0.135 A 
ATOM     99  F   UNL     1      -5.241  -2.031  -5.988  1.00  0.00    -0.206 F 
ATOM    100  C   UNL     1      -6.329  -2.255  -8.057  1.00  0.00     0.059 A 
ATOM    101  C   UNL     1      -8.415  -1.077  -8.460  1.00  0.00     0.059 A 
ATOM    102  F   UNL     1      -9.311   0.304  -6.792  1.00  0.00    -0.206 F 
ATOM    103  C   UNL     1      -7.404  -1.935  -8.889  1.00  0.00     0.060 A 
BRANCH 103 104
ATOM    104  S   UNL     1      -7.482  -2.685 -10.530  1.00  0.00     0.124 S 
ATOM    105  O   UNL     1      -6.449  -1.941 -11.242  1.00  0.00    -0.237 OA
ATOM    106  O   UNL     1      -7.176  -4.084 -10.248  1.00  0.00    -0.237 OA
ATOM    107  O   UNL     1      -8.853  -2.423 -10.958  1.00  0.00    -0.744 OA
ENDBRANCH 103 104
ENDBRANCH  71  96
ENDBRANCH  45  46
ENDBRANCH  37  40
ENDBRANCH  35  36
ENDBRANCH  34  35
ENDBRANCH  33  34
ENDBRANCH   1  33
TORSDOF 20
