REMARK SMILES COc1ccc2c(c1)OC[C@@]1(C(=O)NCCCCCCNC(=O)c3ccc(-c4c5nc(c(-c6c(F)cc(S(=O)(=O)[O-])cc6F)c6ccc([nH]6)c(-c6c(F)cc(S(=O)(=O)[O-])cc6F)c6nc(c(-c7c(F)cc(S(=O)(=O)[O-])cc7F)c7ccc4[nH]7)C=C6)C=C5)cc3)C[N@@H+](Cc3cc(C(C)(C)C)n[nH]3)C[C@H]21
REMARK SMILES IDX 17 1 16 2 15 3 14 4 12 5 13 6 11 8 3 9 4 10 8 11 5 12 7 13
REMARK SMILES IDX 6 14 9 15 103 16 10 17 102 18 90 19 91 20 2 22 1 23 92 24
REMARK SMILES IDX 93 25 94 26 101 27 95 28 100 29 96 31 97 32 98 33 99 34
REMARK SMILES IDX 18 35 19 36 20 37 21 38 22 39 23 41 24 42 25 43 89 44 26 45
REMARK SMILES IDX 88 46 27 47 28 48 29 49 82 50 30 51 87 52 81 53 83 54 31 55
REMARK SMILES IDX 86 56 80 57 79 58 32 60 66 61 45 62 65 63 46 64 49 65 64 66
REMARK SMILES IDX 84 67 47 68 48 69 63 71 85 72 50 73 33 74 34 75 43 76 35 77
REMARK SMILES IDX 36 78 42 79 44 80 37 81 38 82 39 83 40 84 41 85 67 86 68 87
REMARK SMILES IDX 77 88 69 89 70 90 76 91 78 92 71 93 72 94 73 95 74 96 75 97
REMARK SMILES IDX 51 98 52 99 61 100 53 101 54 102 60 103 62 104 55 105 56 106
REMARK SMILES IDX 57 107 58 108 59 109
REMARK H PARENT 14 7 91 21 101 30 21 40 83 59 49 70
REMARK Flexibility Score: inf
ROOT
ATOM      1  C   UNL     1       7.531  -4.159  -7.523  1.00  0.00     0.002 C 
ENDROOT
BRANCH   1   2
ATOM      2  C   UNL     1       6.016  -4.051  -7.329  1.00  0.00     0.021 C 
BRANCH   2   3
ATOM      3  C   UNL     1       5.355  -5.052  -6.395  1.00  0.00     0.116 C 
BRANCH   3   4
ATOM      4  N   UNL     1       6.018  -5.227  -5.116  1.00  0.00    -0.355 N 
ATOM      5  C   UNL     1       5.387  -5.620  -3.951  1.00  0.00     0.236 C 
ATOM      6  O   UNL     1       6.040  -6.247  -3.113  1.00  0.00    -0.274 OA
ATOM      7  H   UNL     1       6.987  -5.054  -5.075  1.00  0.00     0.163 HD
BRANCH   5   8
ATOM      8  C   UNL     1       3.895  -5.181  -3.785  1.00  0.00     0.144 C 
ATOM      9  C   UNL     1       0.805  -2.080  -0.797  1.00  0.00     0.122 A 
ATOM     10  C   UNL     1       0.075  -3.260  -0.954  1.00  0.00     0.047 A 
ATOM     11  C   UNL     1       2.066  -1.978  -1.382  1.00  0.00     0.093 A 
ATOM     12  C   UNL     1       0.590  -4.323  -1.700  1.00  0.00     0.012 A 
ATOM     13  C   UNL     1       2.583  -3.058  -2.100  1.00  0.00     0.126 A 
ATOM     14  C   UNL     1       1.853  -4.219  -2.297  1.00  0.00     0.005 A 
ATOM     15  O   UNL     1       3.849  -2.970  -2.591  1.00  0.00    -0.492 OA
ATOM     16  C   UNL     1       2.480  -5.365  -3.060  1.00  0.00     0.103 C 
ATOM     17  C   UNL     1       4.481  -4.275  -2.603  1.00  0.00     0.253 C 
ATOM     18  C   UNL     1       1.544  -5.779  -4.205  1.00  0.00     0.272 C 
ATOM     19  C   UNL     1       3.662  -6.707  -4.303  1.00  0.00     0.284 C 
ATOM     20  N   UNL     1       2.381  -6.630  -5.024  1.00  0.00    -0.328 N 
ATOM     21  H   UNL     1       2.510  -6.228  -5.953  1.00  0.00     0.348 HD
BRANCH   9  22
ATOM     22  O   UNL     1       0.189  -1.129  -0.031  1.00  0.00    -0.497 OA
ATOM     23  C   UNL     1       0.819   0.143   0.036  1.00  0.00     0.278 C 
ENDBRANCH   9  22
BRANCH  20  24
ATOM     24  C   UNL     1       1.794  -7.911  -5.426  1.00  0.00     0.319 C 
BRANCH  24  25
ATOM     25  C   UNL     1       1.694  -8.886  -4.311  1.00  0.00     0.090 A 
ATOM     26  C   UNL     1       0.912  -8.920  -3.179  1.00  0.00     0.055 A 
ATOM     27  N   UNL     1       2.516  -9.974  -4.216  1.00  0.00    -0.277 N 
ATOM     28  C   UNL     1       1.485  -9.923  -2.365  1.00  0.00     0.068 A 
ATOM     29  N   UNL     1       2.437 -10.593  -3.029  1.00  0.00    -0.180 NA
ATOM     30  H   UNL     1       3.106 -10.273  -4.945  1.00  0.00     0.190 HD
BRANCH  28  31
ATOM     31  C   UNL     1       1.181 -10.245  -0.915  1.00  0.00     0.006 C 
ATOM     32  C   UNL     1       0.409 -11.571  -0.823  1.00  0.00     0.017 C 
ATOM     33  C   UNL     1       2.493 -10.358  -0.108  1.00  0.00     0.017 C 
ATOM     34  C   UNL     1       0.333  -9.133  -0.258  1.00  0.00     0.017 C 
ENDBRANCH  28  31
ENDBRANCH  24  25
ENDBRANCH  20  24
ENDBRANCH   5   8
ENDBRANCH   3   4
ENDBRANCH   2   3
ENDBRANCH   1   2
BRANCH   1  35
ATOM     35  C   UNL     1       8.132  -5.539  -7.801  1.00  0.00     0.002 C 
BRANCH  35  36
ATOM     36  C   UNL     1       7.517  -6.361  -8.929  1.00  0.00     0.021 C 
BRANCH  36  37
ATOM     37  C   UNL     1       7.335  -5.650 -10.262  1.00  0.00     0.116 C 
BRANCH  37  38
ATOM     38  N   UNL     1       8.578  -5.193 -10.862  1.00  0.00    -0.352 N 
ATOM     39  C   UNL     1       8.992  -5.312 -12.171  1.00  0.00     0.251 C 
ATOM     40  H   UNL     1       9.206  -4.740 -10.254  1.00  0.00     0.163 HD
ATOM     41  O   UNL     1      10.106  -4.922 -12.510  1.00  0.00    -0.269 OA
BRANCH  39  42
ATOM     42  C   UNL     1       8.099  -5.967 -13.152  1.00  0.00     0.039 A 
ATOM     43  C   UNL     1       6.761  -5.582 -13.264  1.00  0.00     0.014 A 
ATOM     44  C   UNL     1       8.588  -7.040 -13.900  1.00  0.00     0.014 A 
ATOM     45  C   UNL     1       5.874  -6.381 -13.980  1.00  0.00     0.010 A 
ATOM     46  C   UNL     1       7.709  -7.796 -14.680  1.00  0.00     0.010 A 
ATOM     47  C   UNL     1       6.334  -7.510 -14.678  1.00  0.00    -0.014 A 
BRANCH  47  48
ATOM     48  C   UNL     1       5.361  -8.404 -15.361  1.00  0.00     0.031 A 
ATOM     49  C   UNL     1       5.168  -9.824 -14.890  1.00  0.00     0.074 A 
ATOM     50  C   UNL     1       4.618  -7.926 -16.378  1.00  0.00     0.049 A 
ATOM     51  N   UNL     1       4.401 -10.760 -15.390  1.00  0.00    -0.248 NA
ATOM     52  C   UNL     1       5.935 -10.252 -13.708  1.00  0.00     0.031 C 
ATOM     53  C   UNL     1       4.701  -6.567 -16.918  1.00  0.00     0.029 A 
ATOM     54  N   UNL     1       3.639  -8.523 -17.131  1.00  0.00    -0.354 N 
ATOM     55  C   UNL     1       4.613 -11.890 -14.607  1.00  0.00     0.074 A 
ATOM     56  C   UNL     1       5.590 -11.530 -13.603  1.00  0.00     0.031 C 
ATOM     57  C   UNL     1       3.792  -6.426 -17.895  1.00  0.00     0.029 A 
ATOM     58  C   UNL     1       3.102  -7.696 -18.090  1.00  0.00     0.049 A 
ATOM     59  H   UNL     1       3.350  -9.454 -16.999  1.00  0.00     0.167 HD
ATOM     60  C   UNL     1       4.037 -13.111 -14.709  1.00  0.00     0.037 A 
ATOM     61  C   UNL     1       2.177  -7.939 -19.037  1.00  0.00     0.037 A 
ATOM     62  C   UNL     1       3.031 -13.457 -15.680  1.00  0.00     0.049 A 
ATOM     63  C   UNL     1       1.569  -9.310 -19.139  1.00  0.00     0.074 A 
ATOM     64  C   UNL     1       2.364 -14.661 -15.836  1.00  0.00     0.029 A 
ATOM     65  N   UNL     1       2.540 -12.600 -16.653  1.00  0.00    -0.354 N 
ATOM     66  N   UNL     1       1.791 -10.365 -18.393  1.00  0.00    -0.248 NA
ATOM     67  C   UNL     1       0.596  -9.526 -20.219  1.00  0.00     0.031 C 
ATOM     68  C   UNL     1       1.491 -14.541 -16.922  1.00  0.00     0.029 A 
ATOM     69  C   UNL     1       1.590 -13.254 -17.421  1.00  0.00     0.049 A 
ATOM     70  H   UNL     1       2.824 -11.666 -16.779  1.00  0.00     0.167 HD
ATOM     71  C   UNL     1       0.988 -11.371 -18.916  1.00  0.00     0.074 A 
ATOM     72  C   UNL     1       0.252 -10.791 -20.020  1.00  0.00     0.031 C 
ATOM     73  C   UNL     1       0.877 -12.664 -18.523  1.00  0.00     0.037 A 
BRANCH  60  74
ATOM     74  C   UNL     1       4.468 -14.184 -13.749  1.00  0.00     0.058 A 
ATOM     75  C   UNL     1       4.004 -14.212 -12.425  1.00  0.00     0.135 A 
ATOM     76  C   UNL     1       5.267 -15.252 -14.190  1.00  0.00     0.135 A 
ATOM     77  F   UNL     1       3.254 -13.206 -11.950  1.00  0.00    -0.206 F 
ATOM     78  C   UNL     1       4.312 -15.267 -11.572  1.00  0.00     0.059 A 
ATOM     79  C   UNL     1       5.573 -16.326 -13.359  1.00  0.00     0.059 A 
ATOM     80  F   UNL     1       5.739 -15.268 -15.446  1.00  0.00    -0.206 F 
ATOM     81  C   UNL     1       5.090 -16.324 -12.051  1.00  0.00     0.060 A 
BRANCH  81  82
ATOM     82  S   UNL     1       5.432 -17.710 -10.946  1.00  0.00     0.124 S 
ATOM     83  O   UNL     1       6.374 -17.108 -10.007  1.00  0.00    -0.237 OA
ATOM     84  O   UNL     1       4.109 -18.013 -10.409  1.00  0.00    -0.237 OA
ATOM     85  O   UNL     1       5.993 -18.724 -11.834  1.00  0.00    -0.744 OA
ENDBRANCH  81  82
ENDBRANCH  60  74
BRANCH  61  86
ATOM     86  C   UNL     1       1.796  -6.868 -19.993  1.00  0.00     0.058 A 
ATOM     87  C   UNL     1       0.533  -6.263 -19.937  1.00  0.00     0.135 A 
ATOM     88  C   UNL     1       2.692  -6.430 -20.980  1.00  0.00     0.135 A 
ATOM     89  F   UNL     1      -0.359  -6.655 -19.014  1.00  0.00    -0.206 F 
ATOM     90  C   UNL     1       0.163  -5.270 -20.838  1.00  0.00     0.059 A 
ATOM     91  C   UNL     1       2.354  -5.422 -21.876  1.00  0.00     0.059 A 
ATOM     92  F   UNL     1       3.918  -6.969 -21.064  1.00  0.00    -0.206 F 
ATOM     93  C   UNL     1       1.082  -4.857 -21.805  1.00  0.00     0.060 A 
BRANCH  93  94
ATOM     94  S   UNL     1       0.610  -3.540 -22.947  1.00  0.00     0.124 S 
ATOM     95  O   UNL     1      -0.255  -4.256 -23.877  1.00  0.00    -0.237 OA
ATOM     96  O   UNL     1      -0.052  -2.587 -22.062  1.00  0.00    -0.237 OA
ATOM     97  O   UNL     1       1.891  -3.094 -23.488  1.00  0.00    -0.744 OA
ENDBRANCH  93  94
ENDBRANCH  61  86
BRANCH  73  98
ATOM     98  C   UNL     1      -0.070 -13.535 -19.296  1.00  0.00     0.058 A 
ATOM     99  C   UNL     1       0.263 -14.016 -20.572  1.00  0.00     0.135 A 
ATOM    100  C   UNL     1      -1.302 -13.921 -18.746  1.00  0.00     0.135 A 
ATOM    101  F   UNL     1       1.427 -13.669 -21.142  1.00  0.00    -0.206 F 
ATOM    102  C   UNL     1      -0.606 -14.834 -21.287  1.00  0.00     0.059 A 
ATOM    103  C   UNL     1      -2.176 -14.755 -19.434  1.00  0.00     0.059 A 
ATOM    104  F   UNL     1      -1.661 -13.494 -17.525  1.00  0.00    -0.206 F 
ATOM    105  C   UNL     1      -1.824 -15.196 -20.710  1.00  0.00     0.060 A 
BRANCH 105 106
ATOM    106  S   UNL     1      -2.935 -16.273 -21.640  1.00  0.00     0.124 S 
ATOM    107  O   UNL     1      -3.488 -15.347 -22.621  1.00  0.00    -0.237 OA
ATOM    108  O   UNL     1      -2.024 -17.285 -22.166  1.00  0.00    -0.237 OA
ATOM    109  O   UNL     1      -3.872 -16.749 -20.626  1.00  0.00    -0.744 OA
ENDBRANCH 105 106
ENDBRANCH  73  98
ENDBRANCH  47  48
ENDBRANCH  39  42
ENDBRANCH  37  38
ENDBRANCH  36  37
ENDBRANCH  35  36
ENDBRANCH   1  35
TORSDOF 20
