REMARK SMILES Nc1nccc(N2CCC[C@@](Cc3ccc(F)cc3F)(C(=O)NCCCCCCNC(=O)c3ccc(-c4c5nc(c(-c6c(F)cc(S(=O)(=O)[O-])cc6F)c6ccc([nH]6)c(-c6c(F)cc(S(=O)(=O)[O-])cc6F)c6nc(c(-c7c(F)cc(S(=O)(=O)[O-])cc7F)c7ccc4[nH]7)C=C6)C=C5)cc3)C2)n1
REMARK SMILES IDX 27 1 26 2 25 3 24 4 23 5 21 6 22 7 11 9 7 10 8 11 99 12 9 13
REMARK SMILES IDX 10 14 6 15 2 16 3 17 100 18 4 19 5 20 1 21 12 24 13 25 14 26
REMARK SMILES IDX 19 27 15 28 18 29 20 30 16 31 17 32 28 33 29 34 30 35 31 36
REMARK SMILES IDX 32 38 33 39 34 40 98 41 35 42 97 43 36 44 37 45 38 46 91 47
REMARK SMILES IDX 39 48 96 49 90 50 92 51 40 52 95 53 89 54 88 55 41 57 75 58
REMARK SMILES IDX 54 59 74 60 55 61 58 62 73 63 93 64 56 65 57 66 72 68 94 69
REMARK SMILES IDX 59 70 42 71 43 72 52 73 44 74 45 75 51 76 53 77 46 78 47 79
REMARK SMILES IDX 48 80 49 81 50 82 76 83 77 84 86 85 78 86 79 87 85 88 87 89
REMARK SMILES IDX 80 90 81 91 82 92 83 93 84 94 60 95 61 96 70 97 62 98 63 99
REMARK SMILES IDX 69 100 71 101 64 102 65 103 66 104 67 105 68 106
REMARK H PARENT 23 8 1 22 1 23 30 37 92 56 58 67
REMARK Flexibility Score: inf
ROOT
ATOM      1  C   UNL     1       6.033  -7.456  -5.430  1.00  0.00     0.002 C 
ENDROOT
BRANCH   1   2
ATOM      2  C   UNL     1       5.340  -8.130  -4.237  1.00  0.00     0.002 C 
BRANCH   2   3
ATOM      3  C   UNL     1       5.343  -7.339  -2.926  1.00  0.00     0.021 C 
BRANCH   3   4
ATOM      4  C   UNL     1       4.855  -5.904  -3.062  1.00  0.00     0.116 C 
BRANCH   4   5
ATOM      5  N   UNL     1       3.418  -5.781  -3.167  1.00  0.00    -0.356 N 
ATOM      6  C   UNL     1       2.554  -4.836  -2.706  1.00  0.00     0.228 C 
ATOM      7  O   UNL     1       1.426  -4.871  -3.213  1.00  0.00    -0.274 OA
ATOM      8  H   UNL     1       2.986  -6.515  -3.662  1.00  0.00     0.163 HD
BRANCH   6   9
ATOM      9  C   UNL     1       2.918  -3.775  -1.641  1.00  0.00     0.071 C 
ATOM     10  N   UNL     1       1.786  -2.318  -0.013  1.00  0.00    -0.355 N 
ATOM     11  C   UNL     1       2.322  -2.906   1.197  1.00  0.00     0.118 C 
ATOM     12  C   UNL     1       1.535  -3.224  -1.129  1.00  0.00     0.135 C 
ATOM     13  C   UNL     1       3.668  -3.523   0.850  1.00  0.00     0.023 C 
ATOM     14  C   UNL     1       3.612  -4.410  -0.400  1.00  0.00     0.021 C 
BRANCH  10  15
ATOM     15  C   UNL     1       1.064  -1.147   0.079  1.00  0.00     0.134 A 
ATOM     16  C   UNL     1      -0.914  -0.006   0.007  1.00  0.00     0.221 A 
ATOM     17  N   UNL     1      -0.333   1.189   0.149  1.00  0.00    -0.222 NA
ATOM     18  N   UNL     1      -0.270  -1.175  -0.052  1.00  0.00    -0.196 NA
ATOM     19  C   UNL     1       1.004   1.185   0.256  1.00  0.00     0.119 A 
ATOM     20  C   UNL     1       1.753   0.038   0.248  1.00  0.00     0.067 A 
BRANCH  16  21
ATOM     21  N   UNL     1      -2.276  -0.031  -0.069  1.00  0.00    -0.368 N 
ATOM     22  H   UNL     1      -2.787   0.809  -0.029  1.00  0.00     0.159 HD
ATOM     23  H   UNL     1      -2.747  -0.890  -0.164  1.00  0.00     0.159 HD
ENDBRANCH  16  21
ENDBRANCH  10  15
BRANCH   9  24
ATOM     24  C   UNL     1       3.644  -2.542  -2.274  1.00  0.00     0.057 C 
BRANCH  24  25
ATOM     25  C   UNL     1       4.977  -2.698  -2.959  1.00  0.00    -0.011 A 
ATOM     26  C   UNL     1       5.047  -2.879  -4.350  1.00  0.00     0.010 A 
ATOM     27  C   UNL     1       6.175  -2.633  -2.234  1.00  0.00     0.129 A 
ATOM     28  C   UNL     1       6.283  -3.060  -4.975  1.00  0.00     0.040 A 
ATOM     29  C   UNL     1       7.409  -2.809  -2.849  1.00  0.00     0.078 A 
ATOM     30  F   UNL     1       6.143  -2.415  -0.913  1.00  0.00    -0.207 F 
ATOM     31  C   UNL     1       7.449  -3.037  -4.216  1.00  0.00     0.126 A 
ATOM     32  F   UNL     1       8.625  -3.263  -4.813  1.00  0.00    -0.207 F 
ENDBRANCH  24  25
ENDBRANCH   9  24
ENDBRANCH   6   9
ENDBRANCH   4   5
ENDBRANCH   3   4
ENDBRANCH   2   3
ENDBRANCH   1   2
BRANCH   1  33
ATOM     33  C   UNL     1       7.449  -6.930  -5.173  1.00  0.00     0.021 C 
BRANCH  33  34
ATOM     34  C   UNL     1       8.451  -7.974  -4.700  1.00  0.00     0.116 C 
BRANCH  34  35
ATOM     35  N   UNL     1       8.611  -9.055  -5.657  1.00  0.00    -0.352 N 
ATOM     36  C   UNL     1       9.760  -9.603  -6.165  1.00  0.00     0.251 C 
ATOM     37  H   UNL     1       7.774  -9.450  -5.990  1.00  0.00     0.163 HD
ATOM     38  O   UNL     1       9.690 -10.393  -7.108  1.00  0.00    -0.269 OA
BRANCH  36  39
ATOM     39  C   UNL     1      11.076  -9.239  -5.599  1.00  0.00     0.039 A 
ATOM     40  C   UNL     1      12.145  -9.017  -6.471  1.00  0.00     0.014 A 
ATOM     41  C   UNL     1      11.266  -9.138  -4.217  1.00  0.00     0.014 A 
ATOM     42  C   UNL     1      13.392  -8.650  -5.959  1.00  0.00     0.010 A 
ATOM     43  C   UNL     1      12.488  -8.698  -3.714  1.00  0.00     0.010 A 
ATOM     44  C   UNL     1      13.566  -8.462  -4.579  1.00  0.00    -0.014 A 
BRANCH  44  45
ATOM     45  C   UNL     1      14.874  -8.029  -4.023  1.00  0.00     0.031 A 
ATOM     46  C   UNL     1      15.642  -8.939  -3.103  1.00  0.00     0.074 A 
ATOM     47  C   UNL     1      15.344  -6.800  -4.311  1.00  0.00     0.049 A 
ATOM     48  N   UNL     1      16.773  -8.722  -2.483  1.00  0.00    -0.248 NA
ATOM     49  C   UNL     1      15.047 -10.255  -2.821  1.00  0.00     0.031 C 
ATOM     50  C   UNL     1      14.669  -5.816  -5.159  1.00  0.00     0.029 A 
ATOM     51  N   UNL     1      16.498  -6.167  -3.923  1.00  0.00    -0.354 N 
ATOM     52  C   UNL     1      17.019  -9.866  -1.732  1.00  0.00     0.074 A 
ATOM     53  C   UNL     1      15.891 -10.750  -1.928  1.00  0.00     0.031 C 
ATOM     54  C   UNL     1      15.436  -4.718  -5.255  1.00  0.00     0.029 A 
ATOM     55  C   UNL     1      16.636  -4.903  -4.445  1.00  0.00     0.049 A 
ATOM     56  H   UNL     1      17.164  -6.580  -3.327  1.00  0.00     0.167 HD
ATOM     57  C   UNL     1      18.100 -10.164  -0.971  1.00  0.00     0.037 A 
ATOM     58  C   UNL     1      17.618  -3.994  -4.287  1.00  0.00     0.037 A 
ATOM     59  C   UNL     1      19.227  -9.284  -0.799  1.00  0.00     0.049 A 
ATOM     60  C   UNL     1      18.803  -4.339  -3.428  1.00  0.00     0.074 A 
ATOM     61  C   UNL     1      20.392  -9.507  -0.088  1.00  0.00     0.029 A 
ATOM     62  N   UNL     1      19.328  -8.010  -1.343  1.00  0.00    -0.354 N 
ATOM     63  N   UNL     1      19.043  -5.444  -2.763  1.00  0.00    -0.248 NA
ATOM     64  C   UNL     1      19.851  -3.318  -3.299  1.00  0.00     0.031 C 
ATOM     65  C   UNL     1      21.177  -8.351  -0.161  1.00  0.00     0.029 A 
ATOM     66  C   UNL     1      20.526  -7.427  -0.963  1.00  0.00     0.049 A 
ATOM     67  H   UNL     1      18.649  -7.584  -1.913  1.00  0.00     0.167 HD
ATOM     68  C   UNL     1      20.280  -5.261  -2.155  1.00  0.00     0.074 A 
ATOM     69  C   UNL     1      20.741  -3.942  -2.539  1.00  0.00     0.031 C 
ATOM     70  C   UNL     1      20.971  -6.111  -1.353  1.00  0.00     0.037 A 
BRANCH  57  71
ATOM     71  C   UNL     1      18.111 -11.495  -0.268  1.00  0.00     0.058 A 
ATOM     72  C   UNL     1      18.027 -11.566   1.133  1.00  0.00     0.135 A 
ATOM     73  C   UNL     1      18.226 -12.703  -0.975  1.00  0.00     0.135 A 
ATOM     74  F   UNL     1      17.918 -10.444   1.861  1.00  0.00    -0.206 F 
ATOM     75  C   UNL     1      18.047 -12.784   1.807  1.00  0.00     0.059 A 
ATOM     76  C   UNL     1      18.216 -13.933  -0.325  1.00  0.00     0.059 A 
ATOM     77  F   UNL     1      18.296 -12.698  -2.316  1.00  0.00    -0.206 F 
ATOM     78  C   UNL     1      18.124 -13.963   1.068  1.00  0.00     0.060 A 
BRANCH  78  79
ATOM     79  S   UNL     1      18.095 -15.568   1.892  1.00  0.00     0.124 S 
ATOM     80  O   UNL     1      16.786 -16.077   1.493  1.00  0.00    -0.237 OA
ATOM     81  O   UNL     1      19.244 -16.243   1.298  1.00  0.00    -0.237 OA
ATOM     82  O   UNL     1      18.230 -15.229   3.305  1.00  0.00    -0.744 OA
ENDBRANCH  78  79
ENDBRANCH  57  71
BRANCH  58  83
ATOM     83  C   UNL     1      17.530  -2.689  -4.997  1.00  0.00     0.058 A 
ATOM     84  C   UNL     1      16.579  -1.722  -4.633  1.00  0.00     0.135 A 
ATOM     85  C   UNL     1      18.360  -2.410  -6.092  1.00  0.00     0.135 A 
ATOM     86  F   UNL     1      15.751  -1.948  -3.602  1.00  0.00    -0.206 F 
ATOM     87  C   UNL     1      16.435  -0.535  -5.345  1.00  0.00     0.059 A 
ATOM     88  C   UNL     1      18.251  -1.220  -6.805  1.00  0.00     0.059 A 
ATOM     89  F   UNL     1      19.289  -3.300  -6.473  1.00  0.00    -0.206 F 
ATOM     90  C   UNL     1      17.277  -0.293  -6.430  1.00  0.00     0.060 A 
BRANCH  90  91
ATOM     91  S   UNL     1      17.097   1.212  -7.412  1.00  0.00     0.124 S 
ATOM     92  O   UNL     1      18.338   1.915  -7.107  1.00  0.00    -0.237 OA
ATOM     93  O   UNL     1      16.981   0.678  -8.765  1.00  0.00    -0.237 OA
ATOM     94  O   UNL     1      15.881   1.819  -6.878  1.00  0.00    -0.744 OA
ENDBRANCH  90  91
ENDBRANCH  58  83
BRANCH  70  95
ATOM     95  C   UNL     1      22.313  -5.656  -0.851  1.00  0.00     0.058 A 
ATOM     96  C   UNL     1      23.490  -6.261  -1.322  1.00  0.00     0.135 A 
ATOM     97  C   UNL     1      22.434  -4.676   0.146  1.00  0.00     0.135 A 
ATOM     98  F   UNL     1      23.430  -7.211  -2.268  1.00  0.00    -0.206 F 
ATOM     99  C   UNL     1      24.740  -5.922  -0.814  1.00  0.00     0.059 A 
ATOM    100  C   UNL     1      23.676  -4.301   0.649  1.00  0.00     0.059 A 
ATOM    101  F   UNL     1      21.341  -4.061   0.626  1.00  0.00    -0.206 F 
ATOM    102  C   UNL     1      24.823  -4.935   0.166  1.00  0.00     0.060 A 
BRANCH 102 103
ATOM    103  S   UNL     1      26.423  -4.466   0.859  1.00  0.00     0.124 S 
ATOM    104  O   UNL     1      26.591  -3.118   0.326  1.00  0.00    -0.237 OA
ATOM    105  O   UNL     1      26.176  -4.554   2.295  1.00  0.00    -0.237 OA
ATOM    106  O   UNL     1      27.336  -5.471   0.323  1.00  0.00    -0.744 OA
ENDBRANCH 102 103
ENDBRANCH  70  95
ENDBRANCH  44  45
ENDBRANCH  36  39
ENDBRANCH  34  35
ENDBRANCH  33  34
ENDBRANCH   1  33
TORSDOF 20
