REMARK SMILES Cc1ccc(NC(=O)c2cccnc2C(=O)NCCCCCCNC(=O)c2ccc(-c3c4nc(c(-c5c(F)cc(S(=O)(=O)[O-])cc5F)c5ccc([nH]5)c(-c5c(F)cc(S(=O)(=O)[O-])cc5F)c5nc(c(-c6c(F)cc(S(=O)(=O)[O-])cc6F)c6ccc3[nH]6)C=C5)C=C4)cc2)nc1
REMARK SMILES IDX 21 1 20 2 19 3 18 4 17 5 15 6 16 7 14 9 9 10 10 11 11 12
REMARK SMILES IDX 13 13 12 14 7 15 6 16 8 18 5 19 1 20 2 21 3 22 94 23 4 24
REMARK SMILES IDX 93 25 22 26 23 27 24 28 25 29 26 31 27 32 28 33 92 34 29 35
REMARK SMILES IDX 91 36 30 37 31 38 32 39 85 40 33 41 90 42 84 43 86 44 34 45
REMARK SMILES IDX 89 46 83 47 82 48 35 50 69 51 48 52 68 53 49 54 52 55 67 56
REMARK SMILES IDX 87 57 50 58 51 59 66 61 88 62 53 63 36 64 37 65 46 66 38 67
REMARK SMILES IDX 39 68 45 69 47 70 40 71 41 72 42 73 43 74 44 75 70 76 71 77
REMARK SMILES IDX 80 78 72 79 73 80 79 81 81 82 74 83 75 84 76 85 77 86 78 87
REMARK SMILES IDX 54 88 55 89 64 90 56 91 57 92 63 93 65 94 58 95 59 96 60 97
REMARK SMILES IDX 61 98 62 99
REMARK H PARENT 17 8 6 17 24 30 86 49 52 60
REMARK Flexibility Score: inf
ROOT
ATOM      1  C   UNL     1      -7.032   0.587  -3.186  1.00  0.00     0.002 C 
ENDROOT
BRANCH   1   2
ATOM      2  C   UNL     1      -6.268  -0.730  -3.346  1.00  0.00     0.002 C 
BRANCH   2   3
ATOM      3  C   UNL     1      -5.245  -1.016  -2.242  1.00  0.00     0.021 C 
BRANCH   3   4
ATOM      4  C   UNL     1      -5.865  -1.335  -0.876  1.00  0.00     0.116 C 
BRANCH   4   5
ATOM      5  N   UNL     1      -6.044  -2.766  -0.741  1.00  0.00    -0.351 N 
ATOM      6  C   UNL     1      -5.399  -3.745  -0.024  1.00  0.00     0.270 C 
ATOM      7  O   UNL     1      -5.785  -4.901  -0.235  1.00  0.00    -0.267 OA
ATOM      8  H   UNL     1      -6.791  -3.112  -1.280  1.00  0.00     0.163 HD
BRANCH   6   9
ATOM      9  C   UNL     1      -4.388  -3.506   1.065  1.00  0.00     0.140 A 
ATOM     10  C   UNL     1      -3.348  -2.586   1.066  1.00  0.00     0.071 A 
ATOM     11  C   UNL     1      -2.495  -2.535   2.188  1.00  0.00     0.018 A 
ATOM     12  C   UNL     1      -2.653  -3.437   3.231  1.00  0.00     0.021 A 
ATOM     13  N   UNL     1      -4.562  -4.373   2.117  1.00  0.00    -0.250 NA
ATOM     14  C   UNL     1      -3.681  -4.348   3.138  1.00  0.00     0.112 A 
BRANCH  10  15
ATOM     15  C   UNL     1      -2.866  -1.887  -0.132  1.00  0.00     0.259 C 
ATOM     16  N   UNL     1      -2.438  -0.589   0.065  1.00  0.00    -0.306 N 
ATOM     17  H   UNL     1      -3.076   0.105   0.347  1.00  0.00     0.171 HD
ATOM     18  O   UNL     1      -2.788  -2.509  -1.188  1.00  0.00    -0.269 OA
BRANCH  16  19
ATOM     19  C   UNL     1      -1.088  -0.264  -0.140  1.00  0.00     0.132 A 
ATOM     20  C   UNL     1       3.089   0.469  -0.071  1.00  0.00     0.046 C 
ATOM     21  C   UNL     1       1.610   0.268  -0.129  1.00  0.00    -0.033 A 
ATOM     22  C   UNL     1       0.701   1.316   0.022  1.00  0.00     0.009 A 
ATOM     23  C   UNL     1       1.091  -1.006  -0.294  1.00  0.00     0.117 A 
ATOM     24  C   UNL     1      -0.670   1.049   0.027  1.00  0.00     0.047 A 
ATOM     25  N   UNL     1      -0.225  -1.285  -0.301  1.00  0.00    -0.239 NA
ENDBRANCH  16  19
ENDBRANCH  10  15
ENDBRANCH   6   9
ENDBRANCH   4   5
ENDBRANCH   3   4
ENDBRANCH   2   3
ENDBRANCH   1   2
BRANCH   1  26
ATOM     26  C   UNL     1      -6.157   1.838  -3.051  1.00  0.00     0.021 C 
BRANCH  26  27
ATOM     27  C   UNL     1      -5.178   2.062  -4.202  1.00  0.00     0.116 C 
BRANCH  27  28
ATOM     28  N   UNL     1      -5.872   2.255  -5.466  1.00  0.00    -0.352 N 
ATOM     29  C   UNL     1      -5.939   3.369  -6.264  1.00  0.00     0.251 C 
ATOM     30  H   UNL     1      -6.366   1.470  -5.797  1.00  0.00     0.163 HD
ATOM     31  O   UNL     1      -6.784   3.435  -7.153  1.00  0.00    -0.269 OA
BRANCH  29  32
ATOM     32  C   UNL     1      -4.999   4.490  -6.052  1.00  0.00     0.039 A 
ATOM     33  C   UNL     1      -5.481   5.801  -6.102  1.00  0.00     0.014 A 
ATOM     34  C   UNL     1      -3.638   4.251  -5.844  1.00  0.00     0.014 A 
ATOM     35  C   UNL     1      -4.606   6.870  -5.894  1.00  0.00     0.010 A 
ATOM     36  C   UNL     1      -2.780   5.313  -5.571  1.00  0.00     0.010 A 
ATOM     37  C   UNL     1      -3.252   6.634  -5.602  1.00  0.00    -0.014 A 
BRANCH  37  38
ATOM     38  C   UNL     1      -2.311   7.754  -5.345  1.00  0.00     0.031 A 
ATOM     39  C   UNL     1      -1.162   8.002  -6.285  1.00  0.00     0.074 A 
ATOM     40  C   UNL     1      -2.456   8.507  -4.237  1.00  0.00     0.049 A 
ATOM     41  N   UNL     1      -0.188   8.870  -6.189  1.00  0.00    -0.248 NA
ATOM     42  C   UNL     1      -1.081   7.141  -7.477  1.00  0.00     0.031 C 
ATOM     43  C   UNL     1      -3.506   8.338  -3.229  1.00  0.00     0.029 A 
ATOM     44  N   UNL     1      -1.711   9.559  -3.764  1.00  0.00    -0.354 N 
ATOM     45  C   UNL     1       0.625   8.654  -7.296  1.00  0.00     0.074 A 
ATOM     46  C   UNL     1       0.060   7.537  -8.022  1.00  0.00     0.031 C 
ATOM     47  C   UNL     1      -3.348   9.263  -2.269  1.00  0.00     0.029 A 
ATOM     48  C   UNL     1      -2.167  10.067  -2.570  1.00  0.00     0.049 A 
ATOM     49  H   UNL     1      -0.924   9.915  -4.235  1.00  0.00     0.167 HD
ATOM     50  C   UNL     1       1.727   9.338  -7.684  1.00  0.00     0.037 A 
ATOM     51  C   UNL     1      -1.684  11.062  -1.802  1.00  0.00     0.037 A 
ATOM     52  C   UNL     1       2.266  10.467  -6.972  1.00  0.00     0.049 A 
ATOM     53  C   UNL     1      -0.458  11.809  -2.257  1.00  0.00     0.074 A 
ATOM     54  C   UNL     1       3.350  11.260  -7.309  1.00  0.00     0.029 A 
ATOM     55  N   UNL     1       1.759  10.970  -5.783  1.00  0.00    -0.354 N 
ATOM     56  N   UNL     1       0.269  11.621  -3.332  1.00  0.00    -0.248 NA
ATOM     57  C   UNL     1       0.009  12.907  -1.399  1.00  0.00     0.031 C 
ATOM     58  C   UNL     1       3.521  12.217  -6.304  1.00  0.00     0.029 A 
ATOM     59  C   UNL     1       2.516  12.051  -5.365  1.00  0.00     0.049 A 
ATOM     60  H   UNL     1       0.976  10.610  -5.306  1.00  0.00     0.167 HD
ATOM     61  C   UNL     1       1.260  12.596  -3.296  1.00  0.00     0.074 A 
ATOM     62  C   UNL     1       1.034  13.377  -2.097  1.00  0.00     0.031 C 
ATOM     63  C   UNL     1       2.267  12.825  -4.175  1.00  0.00     0.037 A 
BRANCH  50  64
ATOM     64  C   UNL     1       2.421   8.893  -8.943  1.00  0.00     0.058 A 
ATOM     65  C   UNL     1       1.846   9.092 -10.208  1.00  0.00     0.135 A 
ATOM     66  C   UNL     1       3.694   8.302  -8.889  1.00  0.00     0.135 A 
ATOM     67  F   UNL     1       0.624   9.638 -10.317  1.00  0.00    -0.206 F 
ATOM     68  C   UNL     1       2.497   8.701 -11.373  1.00  0.00     0.059 A 
ATOM     69  C   UNL     1       4.376   7.928 -10.043  1.00  0.00     0.059 A 
ATOM     70  F   UNL     1       4.289   8.087  -7.705  1.00  0.00    -0.206 F 
ATOM     71  C   UNL     1       3.763   8.121 -11.281  1.00  0.00     0.060 A 
BRANCH  71  72
ATOM     72  S   UNL     1       4.602   7.636 -12.804  1.00  0.00     0.124 S 
ATOM     73  O   UNL     1       3.841   6.452 -13.191  1.00  0.00    -0.237 OA
ATOM     74  O   UNL     1       4.419   8.811 -13.649  1.00  0.00    -0.237 OA
ATOM     75  O   UNL     1       5.974   7.387 -12.371  1.00  0.00    -0.744 OA
ENDBRANCH  71  72
ENDBRANCH  50  64
BRANCH  51  76
ATOM     76  C   UNL     1      -2.367  11.425  -0.532  1.00  0.00     0.058 A 
ATOM     77  C   UNL     1      -3.062  12.637  -0.406  1.00  0.00     0.135 A 
ATOM     78  C   UNL     1      -2.338  10.570   0.581  1.00  0.00     0.135 A 
ATOM     79  F   UNL     1      -3.114  13.490  -1.440  1.00  0.00    -0.206 F 
ATOM     80  C   UNL     1      -3.682  13.002   0.785  1.00  0.00     0.059 A 
ATOM     81  C   UNL     1      -2.973  10.900   1.774  1.00  0.00     0.059 A 
ATOM     82  F   UNL     1      -1.704   9.389   0.507  1.00  0.00    -0.206 F 
ATOM     83  C   UNL     1      -3.631  12.126   1.870  1.00  0.00     0.060 A 
BRANCH  83  84
ATOM     84  S   UNL     1      -4.465  12.592   3.403  1.00  0.00     0.124 S 
ATOM     85  O   UNL     1      -3.559  13.603   3.933  1.00  0.00    -0.237 OA
ATOM     86  O   UNL     1      -5.753  13.077   2.916  1.00  0.00    -0.237 OA
ATOM     87  O   UNL     1      -4.518  11.337   4.147  1.00  0.00    -0.744 OA
ENDBRANCH  83  84
ENDBRANCH  51  76
BRANCH  63  88
ATOM     88  C   UNL     1       3.177  13.989  -3.897  1.00  0.00     0.058 A 
ATOM     89  C   UNL     1       4.135  13.948  -2.873  1.00  0.00     0.135 A 
ATOM     90  C   UNL     1       3.123  15.138  -4.702  1.00  0.00     0.135 A 
ATOM     91  F   UNL     1       4.222  12.874  -2.071  1.00  0.00    -0.206 F 
ATOM     92  C   UNL     1       4.995  15.016  -2.641  1.00  0.00     0.059 A 
ATOM     93  C   UNL     1       3.991  16.207  -4.505  1.00  0.00     0.059 A 
ATOM     94  F   UNL     1       2.231  15.223  -5.701  1.00  0.00    -0.206 F 
ATOM     95  C   UNL     1       4.917  16.141  -3.465  1.00  0.00     0.060 A 
BRANCH  95  96
ATOM     96  S   UNL     1       6.062  17.506  -3.176  1.00  0.00     0.124 S 
ATOM     97  O   UNL     1       5.498  18.113  -1.975  1.00  0.00    -0.237 OA
ATOM     98  O   UNL     1       7.335  16.814  -2.999  1.00  0.00    -0.237 OA
ATOM     99  O   UNL     1       5.954  18.304  -4.394  1.00  0.00    -0.744 OA
ENDBRANCH  95  96
ENDBRANCH  63  88
ENDBRANCH  37  38
ENDBRANCH  29  32
ENDBRANCH  27  28
ENDBRANCH  26  27
ENDBRANCH   1  26
TORSDOF 18
