REMARK SMILES C[C@@H]1[C@H](C(=O)NCCCCCCNC(=O)c2ccc(-c3c4nc(c(-c5c(F)cc(S(=O)(=O)[O-])cc5F)c5ccc([nH]5)c(-c5c(F)cc(S(=O)(=O)[O-])cc5F)c5nc(c(-c6c(F)cc(S(=O)(=O)[O-])cc6F)c6ccc3[nH]6)C=C5)C=C4)cc2)CC[N@@H+]1Cc1cnn(-c2ccccc2)c1
REMARK SMILES IDX 9 1 8 2 7 3 6 4 4 5 5 6 3 8 1 9 2 10 84 11 82 12 83 13 85 15
REMARK SMILES IDX 86 16 87 17 96 18 88 19 89 20 90 21 91 22 95 23 92 24 94 25
REMARK SMILES IDX 93 26 10 27 11 28 12 29 13 30 14 31 15 33 16 34 17 35 81 36
REMARK SMILES IDX 18 37 80 38 19 39 20 40 21 41 74 42 22 43 79 44 73 45 75 46
REMARK SMILES IDX 23 47 78 48 72 49 71 50 24 52 58 53 37 54 57 55 38 56 41 57
REMARK SMILES IDX 56 58 76 59 39 60 40 61 55 63 77 64 42 65 25 66 26 67 35 68
REMARK SMILES IDX 27 69 28 70 34 71 36 72 29 73 30 74 31 75 32 76 33 77 59 78
REMARK SMILES IDX 60 79 69 80 61 81 62 82 68 83 70 84 63 85 64 86 65 87 66 88
REMARK SMILES IDX 67 89 43 90 44 91 53 92 45 93 46 94 52 95 54 96 47 97 48 98
REMARK SMILES IDX 49 99 50 100 51 101
REMARK H PARENT 6 7 84 14 13 32 75 51 41 62
REMARK Flexibility Score: inf
ROOT
ATOM      1  C   UNL     1       3.658   2.846   3.106  1.00  0.00     0.002 C 
ENDROOT
BRANCH   1   2
ATOM      2  C   UNL     1       2.849   1.644   2.600  1.00  0.00     0.021 C 
BRANCH   2   3
ATOM      3  C   UNL     1       1.406   1.928   2.160  1.00  0.00     0.116 C 
BRANCH   3   4
ATOM      4  N   UNL     1       1.359   2.696   0.928  1.00  0.00    -0.356 N 
ATOM      5  C   UNL     1       0.806   2.462  -0.286  1.00  0.00     0.229 C 
ATOM      6  O   UNL     1       1.012   3.327  -1.149  1.00  0.00    -0.275 OA
ATOM      7  H   UNL     1       1.824   3.562   0.988  1.00  0.00     0.163 HD
BRANCH   5   8
ATOM      8  C   UNL     1      -0.031   1.245  -0.656  1.00  0.00     0.142 C 
ATOM      9  C   UNL     1       2.078  -0.286  -0.432  1.00  0.00     0.076 C 
ATOM     10  C   UNL     1       0.644  -0.116  -0.908  1.00  0.00     0.193 C 
ATOM     11  N   UNL     1      -0.359  -1.117  -0.506  1.00  0.00    -0.328 N 
ATOM     12  C   UNL     1      -1.259   0.948   0.191  1.00  0.00     0.081 C 
ATOM     13  C   UNL     1      -1.634  -0.454  -0.262  1.00  0.00     0.263 C 
ATOM     14  H   UNL     1      -0.420  -1.724  -1.324  1.00  0.00     0.348 HD
BRANCH  11  15
ATOM     15  C   UNL     1      -0.027  -2.264   0.324  1.00  0.00     0.302 C 
BRANCH  15  16
ATOM     16  C   UNL     1       0.150  -1.947   1.768  1.00  0.00     0.045 A 
ATOM     17  C   UNL     1      -0.836  -1.617   2.719  1.00  0.00     0.145 A 
ATOM     18  C   UNL     1       1.307  -2.012   2.522  1.00  0.00     0.124 A 
ATOM     19  N   UNL     1      -0.341  -1.413   3.936  1.00  0.00    -0.176 NA
ATOM     20  N   UNL     1       0.979  -1.692   3.821  1.00  0.00    -0.240 N 
BRANCH  20  21
ATOM     21  C   UNL     1       1.827  -1.649   4.954  1.00  0.00     0.065 A 
ATOM     22  C   UNL     1       1.248  -1.494   6.224  1.00  0.00     0.028 A 
ATOM     23  C   UNL     1       3.215  -1.792   4.829  1.00  0.00     0.028 A 
ATOM     24  C   UNL     1       2.042  -1.537   7.362  1.00  0.00     0.002 A 
ATOM     25  C   UNL     1       4.005  -1.827   5.974  1.00  0.00     0.002 A 
ATOM     26  C   UNL     1       3.411  -1.724   7.232  1.00  0.00     0.000 A 
ENDBRANCH  20  21
ENDBRANCH  15  16
ENDBRANCH  11  15
ENDBRANCH   5   8
ENDBRANCH   3   4
ENDBRANCH   2   3
ENDBRANCH   1   2
BRANCH   1  27
ATOM     27  C   UNL     1       3.189   3.479   4.420  1.00  0.00     0.002 C 
BRANCH  27  28
ATOM     28  C   UNL     1       3.069   2.545   5.633  1.00  0.00     0.021 C 
BRANCH  28  29
ATOM     29  C   UNL     1       4.347   1.826   6.083  1.00  0.00     0.116 C 
BRANCH  29  30
ATOM     30  N   UNL     1       5.349   2.722   6.635  1.00  0.00    -0.352 N 
ATOM     31  C   UNL     1       6.144   2.562   7.751  1.00  0.00     0.251 C 
ATOM     32  H   UNL     1       5.478   3.564   6.142  1.00  0.00     0.163 HD
ATOM     33  O   UNL     1       6.869   3.477   8.118  1.00  0.00    -0.269 OA
BRANCH  31  34
ATOM     34  C   UNL     1       6.119   1.296   8.526  1.00  0.00     0.039 A 
ATOM     35  C   UNL     1       5.819   1.338   9.889  1.00  0.00     0.014 A 
ATOM     36  C   UNL     1       6.451   0.077   7.938  1.00  0.00     0.014 A 
ATOM     37  C   UNL     1       5.779   0.153  10.643  1.00  0.00     0.010 A 
ATOM     38  C   UNL     1       6.375  -1.108   8.691  1.00  0.00     0.010 A 
ATOM     39  C   UNL     1       6.006  -1.103  10.050  1.00  0.00    -0.014 A 
BRANCH  39  40
ATOM     40  C   UNL     1       5.810  -2.379  10.833  1.00  0.00     0.031 A 
ATOM     41  C   UNL     1       6.883  -3.449  10.906  1.00  0.00     0.074 A 
ATOM     42  C   UNL     1       4.635  -2.635  11.459  1.00  0.00     0.049 A 
ATOM     43  N   UNL     1       6.865  -4.598  11.542  1.00  0.00    -0.248 NA
ATOM     44  C   UNL     1       8.113  -3.223  10.135  1.00  0.00     0.031 C 
ATOM     45  C   UNL     1       3.441  -1.787  11.415  1.00  0.00     0.029 A 
ATOM     46  N   UNL     1       4.251  -3.687  12.265  1.00  0.00    -0.354 N 
ATOM     47  C   UNL     1       8.060  -5.236  11.226  1.00  0.00     0.074 A 
ATOM     48  C   UNL     1       8.746  -4.377  10.283  1.00  0.00     0.031 C 
ATOM     49  C   UNL     1       2.490  -2.315  12.203  1.00  0.00     0.029 A 
ATOM     50  C   UNL     1       2.983  -3.558  12.791  1.00  0.00     0.049 A 
ATOM     51  H   UNL     1       4.831  -4.461  12.449  1.00  0.00     0.167 HD
ATOM     52  C   UNL     1       8.575  -6.399  11.698  1.00  0.00     0.037 A 
ATOM     53  C   UNL     1       2.291  -4.330  13.657  1.00  0.00     0.037 A 
ATOM     54  C   UNL     1       7.954  -7.239  12.690  1.00  0.00     0.049 A 
ATOM     55  C   UNL     1       2.906  -5.584  14.224  1.00  0.00     0.074 A 
ATOM     56  C   UNL     1       8.467  -8.376  13.296  1.00  0.00     0.029 A 
ATOM     57  N   UNL     1       6.695  -7.039  13.230  1.00  0.00    -0.354 N 
ATOM     58  N   UNL     1       4.086  -6.102  13.992  1.00  0.00    -0.248 NA
ATOM     59  C   UNL     1       2.094  -6.353  15.182  1.00  0.00     0.031 C 
ATOM     60  C   UNL     1       7.508  -8.878  14.181  1.00  0.00     0.029 A 
ATOM     61  C   UNL     1       6.412  -8.034  14.153  1.00  0.00     0.049 A 
ATOM     62  H   UNL     1       6.091  -6.299  12.993  1.00  0.00     0.167 HD
ATOM     63  C   UNL     1       4.168  -7.238  14.795  1.00  0.00     0.074 A 
ATOM     64  C   UNL     1       2.925  -7.326  15.529  1.00  0.00     0.031 C 
ATOM     65  C   UNL     1       5.187  -8.124  14.907  1.00  0.00     0.037 A 
BRANCH  52  66
ATOM     66  C   UNL     1       9.923  -6.821  11.175  1.00  0.00     0.058 A 
ATOM     67  C   UNL     1      11.092  -6.127  11.527  1.00  0.00     0.135 A 
ATOM     68  C   UNL     1      10.054  -7.946  10.344  1.00  0.00     0.135 A 
ATOM     69  F   UNL     1      11.022  -5.042  12.315  1.00  0.00    -0.206 F 
ATOM     70  C   UNL     1      12.336  -6.501  11.035  1.00  0.00     0.059 A 
ATOM     71  C   UNL     1      11.295  -8.357   9.865  1.00  0.00     0.059 A 
ATOM     72  F   UNL     1       8.972  -8.655   9.989  1.00  0.00    -0.206 F 
ATOM     73  C   UNL     1      12.427  -7.614  10.198  1.00  0.00     0.060 A 
BRANCH  73  74
ATOM     74  S   UNL     1      14.047  -8.073   9.550  1.00  0.00     0.124 S 
ATOM     75  O   UNL     1      14.240  -7.063   8.515  1.00  0.00    -0.237 OA
ATOM     76  O   UNL     1      14.904  -7.946  10.725  1.00  0.00    -0.237 OA
ATOM     77  O   UNL     1      13.846  -9.436   9.069  1.00  0.00    -0.744 OA
ENDBRANCH  73  74
ENDBRANCH  52  66
BRANCH  53  78
ATOM     78  C   UNL     1       0.930  -3.920  14.102  1.00  0.00     0.058 A 
ATOM     79  C   UNL     1       0.714  -3.453  15.409  1.00  0.00     0.135 A 
ATOM     80  C   UNL     1      -0.181  -4.017  13.252  1.00  0.00     0.135 A 
ATOM     81  F   UNL     1       1.744  -3.356  16.264  1.00  0.00    -0.206 F 
ATOM     82  C   UNL     1      -0.557  -3.123  15.866  1.00  0.00     0.059 A 
ATOM     83  C   UNL     1      -1.460  -3.670  13.679  1.00  0.00     0.059 A 
ATOM     84  F   UNL     1      -0.026  -4.446  11.990  1.00  0.00    -0.206 F 
ATOM     85  C   UNL     1      -1.639  -3.237  14.993  1.00  0.00     0.060 A 
BRANCH  85  86
ATOM     86  S   UNL     1      -3.283  -2.776  15.586  1.00  0.00     0.124 S 
ATOM     87  O   UNL     1      -3.618  -3.914  16.434  1.00  0.00    -0.237 OA
ATOM     88  O   UNL     1      -3.018  -1.519  16.279  1.00  0.00    -0.237 OA
ATOM     89  O   UNL     1      -4.059  -2.653  14.356  1.00  0.00    -0.744 OA
ENDBRANCH  85  86
ENDBRANCH  53  78
BRANCH  65  90
ATOM     90  C   UNL     1       5.036  -9.257  15.887  1.00  0.00     0.058 A 
ATOM     91  C   UNL     1       4.182 -10.343  15.637  1.00  0.00     0.135 A 
ATOM     92  C   UNL     1       5.801  -9.286  17.065  1.00  0.00     0.135 A 
ATOM     93  F   UNL     1       3.424 -10.365  14.530  1.00  0.00    -0.206 F 
ATOM     94  C   UNL     1       4.078 -11.408  16.528  1.00  0.00     0.059 A 
ATOM     95  C   UNL     1       5.730 -10.353  17.959  1.00  0.00     0.059 A 
ATOM     96  F   UNL     1       6.641  -8.279  17.351  1.00  0.00    -0.206 F 
ATOM     97  C   UNL     1       4.859 -11.406  17.686  1.00  0.00     0.060 A 
BRANCH  97  98
ATOM     98  S   UNL     1       4.748 -12.814  18.812  1.00  0.00     0.124 S 
ATOM     99  O   UNL     1       3.471 -12.566  19.471  1.00  0.00    -0.237 OA
ATOM    100  O   UNL     1       4.779 -13.951  17.898  1.00  0.00    -0.237 OA
ATOM    101  O   UNL     1       5.930 -12.667  19.657  1.00  0.00    -0.744 OA
ENDBRANCH  97  98
ENDBRANCH  65  90
ENDBRANCH  39  40
ENDBRANCH  31  34
ENDBRANCH  29  30
ENDBRANCH  28  29
ENDBRANCH  27  28
ENDBRANCH   1  27
TORSDOF 19
