REMARK SMILES Cn1c(SCC(=O)Nc2cccc(C(=O)NCCCCCCNC(=O)c3ccc(-c4c5nc(c(-c6c(F)cc(S(=O)(=O)[O-])cc6F)c6ccc([nH]6)c(-c6c(F)cc(S(=O)(=O)[O-])cc6F)c6nc(c(-c7c(F)cc(S(=O)(=O)[O-])cc7F)c7ccc4[nH]7)C=C6)C=C5)cc3)c2)nnc1[C@@H]1CCCN1C(=O)c1ccccc1Cl
REMARK SMILES IDX 17 1 16 2 14 3 15 4 13 6 9 7 10 8 92 9 11 10 12 11 8 12 6 13
REMARK SMILES IDX 7 14 5 16 4 17 3 18 1 19 2 20 95 21 93 22 94 23 96 24 97 25
REMARK SMILES IDX 100 26 98 27 99 28 101 29 102 30 103 31 104 32 108 33 105 34
REMARK SMILES IDX 107 35 109 36 106 37 18 38 19 39 20 40 21 41 22 42 23 43
REMARK SMILES IDX 24 44 25 46 26 47 27 48 91 49 28 50 90 51 29 52 30 53 31 54
REMARK SMILES IDX 84 55 32 56 89 57 83 58 85 59 33 60 88 61 82 62 81 63 34 65
REMARK SMILES IDX 68 66 47 67 67 68 48 69 51 70 66 71 86 72 49 73 50 74 65 76
REMARK SMILES IDX 87 77 52 78 35 79 36 80 45 81 37 82 38 83 44 84 46 85 39 86
REMARK SMILES IDX 40 87 41 88 42 89 43 90 69 91 70 92 79 93 71 94 72 95 78 96
REMARK SMILES IDX 80 97 73 98 74 99 75 100 76 101 77 102 53 103 54 104 63 105
REMARK SMILES IDX 55 106 56 107 62 108 64 109 57 110 58 111 59 112 60 113
REMARK SMILES IDX 61 114
REMARK H PARENT 16 5 8 15 23 45 85 64 51 75
REMARK Flexibility Score: inf
ROOT
ATOM      1  C   UNL     1      -2.177   3.108   0.419  1.00  0.00     0.116 C 
ENDROOT
BRANCH   1   2
ATOM      2  N   UNL     1      -2.589   4.325   1.099  1.00  0.00    -0.352 N 
ATOM      3  C   UNL     1      -1.999   5.244   1.927  1.00  0.00     0.251 C 
ATOM      4  O   UNL     1      -2.717   6.213   2.208  1.00  0.00    -0.269 OA
ATOM      5  H   UNL     1      -3.531   4.546   0.918  1.00  0.00     0.163 HD
BRANCH   3   6
ATOM      6  C   UNL     1      -0.612   5.217   2.518  1.00  0.00     0.041 A 
ATOM      7  C   UNL     1       1.551   4.287   3.171  1.00  0.00     0.041 A 
ATOM      8  C   UNL     1       1.850   5.427   3.914  1.00  0.00     0.026 A 
ATOM      9  C   UNL     1       0.312   4.165   2.507  1.00  0.00     0.040 A 
ATOM     10  C   UNL     1       0.959   6.487   3.930  1.00  0.00     0.003 A 
ATOM     11  C   UNL     1      -0.248   6.382   3.234  1.00  0.00     0.014 A 
BRANCH   7  12
ATOM     12  N   UNL     1       2.468   3.234   3.250  1.00  0.00    -0.325 N 
ATOM     13  C   UNL     1       3.169   2.614   2.257  1.00  0.00     0.234 C 
ATOM     14  O   UNL     1       3.914   1.682   2.577  1.00  0.00    -0.274 OA
ATOM     15  H   UNL     1       2.632   2.888   4.157  1.00  0.00     0.169 HD
BRANCH  13  16
ATOM     16  C   UNL     1       3.181   3.154   0.849  1.00  0.00     0.178 C 
BRANCH  16  17
ATOM     17  S   UNL     1       1.853   2.630  -0.212  1.00  0.00    -0.076 SA
BRANCH  17  18
ATOM     18  C   UNL     1       1.294   1.105   0.363  1.00  0.00     0.191 A 
ATOM     19  C   UNL     1       3.322  -0.392   0.526  1.00  0.00     0.154 C 
ATOM     20  N   UNL     1       1.937  -0.098   0.276  1.00  0.00    -0.307 N 
ATOM     21  C   UNL     1       0.927  -1.016   0.086  1.00  0.00     0.156 A 
ATOM     22  N   UNL     1       0.021   0.884   0.579  1.00  0.00    -0.123 NA
ATOM     23  N   UNL     1      -0.217  -0.446   0.408  1.00  0.00    -0.132 NA
BRANCH  21  24
ATOM     24  C   UNL     1       1.050  -2.418  -0.366  1.00  0.00     0.154 C 
ATOM     25  C   UNL     1       1.539  -3.328   0.768  1.00  0.00     0.035 C 
ATOM     26  N   UNL     1       1.970  -2.660  -1.476  1.00  0.00    -0.328 N 
ATOM     27  C   UNL     1       2.180  -4.493   0.040  1.00  0.00     0.024 C 
ATOM     28  C   UNL     1       2.753  -3.866  -1.223  1.00  0.00     0.120 C 
BRANCH  26  29
ATOM     29  C   UNL     1       2.071  -2.095  -2.743  1.00  0.00     0.255 C 
ATOM     30  O   UNL     1       2.769  -2.587  -3.627  1.00  0.00    -0.269 OA
BRANCH  29  31
ATOM     31  C   UNL     1       1.423  -0.832  -3.126  1.00  0.00     0.058 A 
ATOM     32  C   UNL     1       0.208  -0.873  -3.818  1.00  0.00     0.015 A 
ATOM     33  C   UNL     1       2.159   0.359  -3.131  1.00  0.00     0.053 A 
ATOM     34  C   UNL     1      -0.309   0.288  -4.408  1.00  0.00     0.001 A 
ATOM     35  C   UNL     1       1.606   1.532  -3.659  1.00  0.00     0.021 A 
ATOM     36  Cl  UNL     1       3.804   0.442  -2.609  1.00  0.00    -0.083 Cl
ATOM     37  C   UNL     1       0.364   1.501  -4.286  1.00  0.00     0.002 A 
ENDBRANCH  29  31
ENDBRANCH  26  29
ENDBRANCH  21  24
ENDBRANCH  17  18
ENDBRANCH  16  17
ENDBRANCH  13  16
ENDBRANCH   7  12
ENDBRANCH   3   6
ENDBRANCH   1   2
BRANCH   1  38
ATOM     38  C   UNL     1      -3.014   1.891   0.846  1.00  0.00     0.021 C 
BRANCH  38  39
ATOM     39  C   UNL     1      -4.145   1.448  -0.099  1.00  0.00     0.002 C 
BRANCH  39  40
ATOM     40  C   UNL     1      -3.820   1.230  -1.582  1.00  0.00     0.002 C 
BRANCH  40  41
ATOM     41  C   UNL     1      -2.650   0.309  -1.938  1.00  0.00     0.021 C 
BRANCH  41  42
ATOM     42  C   UNL     1      -2.807  -1.197  -1.681  1.00  0.00     0.116 C 
BRANCH  42  43
ATOM     43  N   UNL     1      -3.702  -1.828  -2.648  1.00  0.00    -0.352 N 
ATOM     44  C   UNL     1      -3.535  -2.832  -3.576  1.00  0.00     0.251 C 
ATOM     45  H   UNL     1      -4.615  -1.459  -2.633  1.00  0.00     0.163 HD
ATOM     46  O   UNL     1      -4.431  -2.994  -4.406  1.00  0.00    -0.269 OA
BRANCH  44  47
ATOM     47  C   UNL     1      -2.344  -3.729  -3.639  1.00  0.00     0.039 A 
ATOM     48  C   UNL     1      -1.944  -4.228  -4.892  1.00  0.00     0.014 A 
ATOM     49  C   UNL     1      -1.673  -4.187  -2.509  1.00  0.00     0.014 A 
ATOM     50  C   UNL     1      -0.867  -5.129  -5.013  1.00  0.00     0.010 A 
ATOM     51  C   UNL     1      -0.570  -5.053  -2.641  1.00  0.00     0.010 A 
ATOM     52  C   UNL     1      -0.139  -5.540  -3.888  1.00  0.00    -0.014 A 
BRANCH  52  53
ATOM     53  C   UNL     1       1.047  -6.463  -3.991  1.00  0.00     0.031 A 
ATOM     54  C   UNL     1       1.095  -7.767  -3.224  1.00  0.00     0.074 A 
ATOM     55  C   UNL     1       2.145  -6.112  -4.697  1.00  0.00     0.049 A 
ATOM     56  N   UNL     1       2.084  -8.621  -3.094  1.00  0.00    -0.248 NA
ATOM     57  C   UNL     1      -0.119  -8.151  -2.490  1.00  0.00     0.031 C 
ATOM     58  C   UNL     1       2.300  -4.875  -5.458  1.00  0.00     0.029 A 
ATOM     59  N   UNL     1       3.367  -6.737  -4.841  1.00  0.00    -0.354 N 
ATOM     60  C   UNL     1       1.617  -9.632  -2.261  1.00  0.00     0.074 A 
ATOM     61  C   UNL     1       0.277  -9.251  -1.863  1.00  0.00     0.031 C 
ATOM     62  C   UNL     1       3.552  -4.798  -5.935  1.00  0.00     0.029 A 
ATOM     63  C   UNL     1       4.299  -5.979  -5.516  1.00  0.00     0.049 A 
ATOM     64  H   UNL     1       3.555  -7.639  -4.494  1.00  0.00     0.167 HD
ATOM     65  C   UNL     1       2.222 -10.788  -1.886  1.00  0.00     0.037 A 
ATOM     66  C   UNL     1       5.611  -6.178  -5.759  1.00  0.00     0.037 A 
ATOM     67  C   UNL     1       3.533 -11.210  -2.314  1.00  0.00     0.049 A 
ATOM     68  C   UNL     1       6.273  -7.458  -5.334  1.00  0.00     0.074 A 
ATOM     69  C   UNL     1       4.165 -12.422  -2.080  1.00  0.00     0.029 A 
ATOM     70  N   UNL     1       4.418 -10.441  -3.052  1.00  0.00    -0.354 N 
ATOM     71  N   UNL     1       5.776  -8.447  -4.634  1.00  0.00    -0.248 NA
ATOM     72  C   UNL     1       7.665  -7.666  -5.763  1.00  0.00     0.031 C 
ATOM     73  C   UNL     1       5.448 -12.368  -2.637  1.00  0.00     0.029 A 
ATOM     74  C   UNL     1       5.600 -11.139  -3.256  1.00  0.00     0.049 A 
ATOM     75  H   UNL     1       4.236  -9.531  -3.383  1.00  0.00     0.167 HD
ATOM     76  C   UNL     1       6.777  -9.411  -4.573  1.00  0.00     0.074 A 
ATOM     77  C   UNL     1       7.912  -8.885  -5.300  1.00  0.00     0.031 C 
ATOM     78  C   UNL     1       6.740 -10.629  -3.978  1.00  0.00     0.037 A 
BRANCH  65  79
ATOM     79  C   UNL     1       1.457 -11.704  -0.966  1.00  0.00     0.058 A 
ATOM     80  C   UNL     1       0.327 -12.414  -1.404  1.00  0.00     0.135 A 
ATOM     81  C   UNL     1       1.874 -11.894   0.361  1.00  0.00     0.135 A 
ATOM     82  F   UNL     1      -0.116 -12.269  -2.663  1.00  0.00    -0.206 F 
ATOM     83  C   UNL     1      -0.394 -13.236  -0.544  1.00  0.00     0.059 A 
ATOM     84  C   UNL     1       1.185 -12.735   1.231  1.00  0.00     0.059 A 
ATOM     85  F   UNL     1       2.956 -11.252   0.830  1.00  0.00    -0.206 F 
ATOM     86  C   UNL     1       0.037 -13.382   0.775  1.00  0.00     0.060 A 
BRANCH  86  87
ATOM     87  S   UNL     1      -0.929 -14.422   1.890  1.00  0.00     0.124 S 
ATOM     88  O   UNL     1      -2.061 -13.551   2.187  1.00  0.00    -0.237 OA
ATOM     89  O   UNL     1      -1.225 -15.585   1.061  1.00  0.00    -0.237 OA
ATOM     90  O   UNL     1      -0.015 -14.665   3.003  1.00  0.00    -0.744 OA
ENDBRANCH  86  87
ENDBRANCH  65  79
BRANCH  66  91
ATOM     91  C   UNL     1       6.385  -5.130  -6.478  1.00  0.00     0.058 A 
ATOM     92  C   UNL     1       6.699  -5.270  -7.837  1.00  0.00     0.135 A 
ATOM     93  C   UNL     1       6.784  -3.951  -5.830  1.00  0.00     0.135 A 
ATOM     94  F   UNL     1       6.355  -6.388  -8.493  1.00  0.00    -0.206 F 
ATOM     95  C   UNL     1       7.378  -4.274  -8.533  1.00  0.00     0.059 A 
ATOM     96  C   UNL     1       7.445  -2.931  -6.510  1.00  0.00     0.059 A 
ATOM     97  F   UNL     1       6.513  -3.775  -4.527  1.00  0.00    -0.206 F 
ATOM     98  C   UNL     1       7.738  -3.103  -7.863  1.00  0.00     0.060 A 
BRANCH  98  99
ATOM     99  S   UNL     1       8.548  -1.788  -8.800  1.00  0.00     0.124 S 
ATOM    100  O   UNL     1       9.882  -2.343  -8.998  1.00  0.00    -0.237 OA
ATOM    101  O   UNL     1       7.711  -1.700  -9.993  1.00  0.00    -0.237 OA
ATOM    102  O   UNL     1       8.471  -0.637  -7.904  1.00  0.00    -0.744 OA
ENDBRANCH  98  99
ENDBRANCH  66  91
BRANCH  78 103
ATOM    103  C   UNL     1       7.951 -11.511  -4.112  1.00  0.00     0.058 A 
ATOM    104  C   UNL     1       9.134 -11.260  -3.400  1.00  0.00     0.135 A 
ATOM    105  C   UNL     1       7.912 -12.652  -4.931  1.00  0.00     0.135 A 
ATOM    106  F   UNL     1       9.229 -10.180  -2.609  1.00  0.00    -0.206 F 
ATOM    107  C   UNL     1      10.240 -12.099  -3.506  1.00  0.00     0.059 A 
ATOM    108  C   UNL     1       8.998 -13.517  -5.035  1.00  0.00     0.059 A 
ATOM    109  F   UNL     1       6.804 -12.944  -5.631  1.00  0.00    -0.206 F 
ATOM    110  C   UNL     1      10.162 -13.227  -4.326  1.00  0.00     0.060 A 
BRANCH 110 111
ATOM    111  S   UNL     1      11.589 -14.330  -4.426  1.00  0.00     0.124 S 
ATOM    112  O   UNL     1      12.492 -13.568  -5.281  1.00  0.00    -0.237 OA
ATOM    113  O   UNL     1      11.992 -14.451  -3.028  1.00  0.00    -0.237 OA
ATOM    114  O   UNL     1      11.038 -15.545  -5.019  1.00  0.00    -0.744 OA
ENDBRANCH 110 111
ENDBRANCH  78 103
ENDBRANCH  52  53
ENDBRANCH  44  47
ENDBRANCH  42  43
ENDBRANCH  41  42
ENDBRANCH  40  41
ENDBRANCH  39  40
ENDBRANCH  38  39
ENDBRANCH   1  38
TORSDOF 23
