REMARK SMILES O=C(C[NH2+]C1CCCC1)N[C@@H]1CCCCC[C@H]1C(=O)NCCCCCCNC(=O)c1ccc(-c2c3nc(c(-c4c(F)cc(S(=O)(=O)[O-])cc4F)c4ccc([nH]4)c(-c4c(F)cc(S(=O)(=O)[O-])cc4F)c4nc(c(-c5c(F)cc(S(=O)(=O)[O-])cc5F)c5ccc2[nH]5)C=C4)C=C3)cc1
REMARK SMILES IDX 22 1 21 2 20 3 18 4 19 5 17 7 11 8 10 10 1 11 2 12 3 14 4 15
REMARK SMILES IDX 5 18 6 19 9 20 7 21 8 22 16 23 15 24 14 25 13 26 12 27 23 29
REMARK SMILES IDX 24 30 25 31 26 32 27 33 28 34 29 36 30 37 31 38 95 39 32 40
REMARK SMILES IDX 94 41 33 42 34 43 35 44 88 45 36 46 93 47 87 48 89 49 37 50
REMARK SMILES IDX 92 51 86 52 85 53 38 55 72 56 51 57 71 58 52 59 55 60 70 61
REMARK SMILES IDX 90 62 53 63 54 64 69 66 91 67 56 68 39 69 40 70 49 71 41 72
REMARK SMILES IDX 42 73 48 74 50 75 43 76 44 77 45 78 46 79 47 80 73 81 74 82
REMARK SMILES IDX 83 83 75 84 76 85 82 86 84 87 77 88 78 89 79 90 80 91 81 92
REMARK SMILES IDX 57 93 58 94 67 95 59 96 60 97 66 98 68 99 61 100 62 101
REMARK SMILES IDX 63 102 64 103 65 104
REMARK H PARENT 20 6 10 13 4 16 4 17 27 35 89 54 55 65
REMARK Flexibility Score: 90.00
ROOT
ATOM      1  C   UNL     1       0.657   5.968  -2.335  1.00  0.00     0.021 C 
ENDROOT
BRANCH   1   2
ATOM      2  C   UNL     1      -0.050   4.890  -1.522  1.00  0.00     0.116 C 
BRANCH   2   3
ATOM      3  N   UNL     1      -0.196   3.639  -2.212  1.00  0.00    -0.356 N 
ATOM      4  C   UNL     1      -0.033   2.362  -1.789  1.00  0.00     0.225 C 
ATOM      5  O   UNL     1      -0.387   1.497  -2.604  1.00  0.00    -0.275 OA
ATOM      6  H   UNL     1      -0.461   3.724  -3.157  1.00  0.00     0.163 HD
BRANCH   4   7
ATOM      7  C   UNL     1       0.592   1.928  -0.444  1.00  0.00     0.101 C 
BRANCH   7   8
ATOM      8  C   UNL     1       2.145   1.961  -0.439  1.00  0.00     0.094 CG0
ATOM      9  G   UNL     1       2.850   2.700   0.711  1.00  0.00     0.000 G0
BRANCH   8  10
ATOM     10  N   UNL     1       2.752   0.601  -0.458  1.00  0.00    -0.348 N 
ATOM     11  O   UNL     1       1.487  -0.334   1.227  1.00  0.00    -0.268 OA
ATOM     12  C   UNL     1       2.445  -0.384   0.459  1.00  0.00     0.275 C 
ATOM     13  H   UNL     1       3.408   0.393  -1.162  1.00  0.00     0.163 HD
BRANCH  12  14
ATOM     14  C   UNL     1       3.439  -1.529   0.584  1.00  0.00     0.362 C 
BRANCH  14  15
ATOM     15  N   UNL     1       4.231  -1.782  -0.638  1.00  0.00    -0.336 N 
ATOM     16  H   UNL     1       4.870  -1.004  -0.805  1.00  0.00     0.346 HD
ATOM     17  H   UNL     1       3.618  -1.873  -1.448  1.00  0.00     0.346 HD
BRANCH  15  18
ATOM     18  C   UNL     1       4.993  -3.019  -0.429  1.00  0.00     0.182 C 
ATOM     19  C   UNL     1       4.220  -4.292  -0.782  1.00  0.00     0.065 C 
ATOM     20  C   UNL     1       6.219  -3.144  -1.328  1.00  0.00     0.065 C 
ATOM     21  C   UNL     1       5.306  -5.360  -0.838  1.00  0.00     0.006 C 
ATOM     22  C   UNL     1       6.595  -4.622  -1.206  1.00  0.00     0.006 C 
ENDBRANCH  15  18
ENDBRANCH  14  15
ENDBRANCH  12  14
ENDBRANCH   8  10
ENDBRANCH   7   8
BRANCH   7  23
ATOM     23  C   UNL     1      -0.150   2.268   0.861  1.00  0.00     0.015 C 
BRANCH  23  24
ATOM     24  C   UNL     1      -0.120   3.649   1.498  1.00  0.00     0.001 C 
BRANCH  24  25
ATOM     25  C   UNL     1       1.224   4.227   1.934  1.00  0.00     0.000 C 
BRANCH  25  26
ATOM     26  C   UNL     1       2.424   4.125   1.000  1.00  0.00     0.002 C 
BRANCH  26  27
ATOM     27  C   UNL     1       2.850   2.700   0.711  1.00  0.00     0.026 CG0
ATOM     28  G   UNL     1       2.145   1.961  -0.439  1.00  0.00     0.000 G0
ENDBRANCH  26  27
ENDBRANCH  25  26
ENDBRANCH  24  25
ENDBRANCH  23  24
ENDBRANCH   7  23
ENDBRANCH   4   7
ENDBRANCH   2   3
ENDBRANCH   1   2
BRANCH   1  29
ATOM     29  C   UNL     1      -0.247   7.135  -2.738  1.00  0.00     0.002 C 
BRANCH  29  30
ATOM     30  C   UNL     1      -0.962   7.860  -1.589  1.00  0.00     0.002 C 
BRANCH  30  31
ATOM     31  C   UNL     1      -0.072   8.374  -0.453  1.00  0.00     0.021 C 
BRANCH  31  32
ATOM     32  C   UNL     1       1.069   9.297  -0.876  1.00  0.00     0.116 C 
BRANCH  32  33
ATOM     33  N   UNL     1       0.606  10.401  -1.699  1.00  0.00    -0.352 N 
ATOM     34  C   UNL     1       0.724  11.753  -1.524  1.00  0.00     0.251 C 
ATOM     35  H   UNL     1       0.128  10.133  -2.517  1.00  0.00     0.163 HD
ATOM     36  O   UNL     1       0.071  12.509  -2.247  1.00  0.00    -0.269 OA
BRANCH  34  37
ATOM     37  C   UNL     1       1.615  12.317  -0.489  1.00  0.00     0.039 A 
ATOM     38  C   UNL     1       1.192  13.449   0.214  1.00  0.00     0.014 A 
ATOM     39  C   UNL     1       2.889  11.789  -0.257  1.00  0.00     0.014 A 
ATOM     40  C   UNL     1       2.029  14.033   1.166  1.00  0.00     0.010 A 
ATOM     41  C   UNL     1       3.699  12.333   0.739  1.00  0.00     0.010 A 
ATOM     42  C   UNL     1       3.284  13.471   1.447  1.00  0.00    -0.014 A 
BRANCH  42  43
ATOM     43  C   UNL     1       4.188  14.086   2.452  1.00  0.00     0.031 A 
ATOM     44  C   UNL     1       5.493  14.699   2.017  1.00  0.00     0.074 A 
ATOM     45  C   UNL     1       3.854  14.053   3.757  1.00  0.00     0.049 A 
ATOM     46  N   UNL     1       6.438  15.235   2.746  1.00  0.00    -0.248 NA
ATOM     47  C   UNL     1       5.786  14.684   0.575  1.00  0.00     0.031 C 
ATOM     48  C   UNL     1       2.639  13.447   4.304  1.00  0.00     0.029 A 
ATOM     49  N   UNL     1       4.511  14.534   4.861  1.00  0.00    -0.354 N 
ATOM     50  C   UNL     1       7.441  15.603   1.857  1.00  0.00     0.074 A 
ATOM     51  C   UNL     1       7.011  15.188   0.540  1.00  0.00     0.031 C 
ATOM     52  C   UNL     1       2.630  13.607   5.638  1.00  0.00     0.029 A 
ATOM     53  C   UNL     1       3.848  14.301   6.043  1.00  0.00     0.049 A 
ATOM     54  H   UNL     1       5.376  15.002   4.812  1.00  0.00     0.167 HD
ATOM     55  C   UNL     1       8.605  16.247   2.113  1.00  0.00     0.037 A 
ATOM     56  C   UNL     1       4.185  14.612   7.309  1.00  0.00     0.037 A 
ATOM     57  C   UNL     1       9.010  16.689   3.422  1.00  0.00     0.049 A 
ATOM     58  C   UNL     1       5.466  15.360   7.563  1.00  0.00     0.074 A 
ATOM     59  C   UNL     1      10.146  17.395   3.780  1.00  0.00     0.029 A 
ATOM     60  N   UNL     1       8.288  16.476   4.587  1.00  0.00    -0.354 N 
ATOM     61  N   UNL     1       6.380  15.744   6.703  1.00  0.00    -0.248 NA
ATOM     62  C   UNL     1       5.754  15.730   8.955  1.00  0.00     0.031 C 
ATOM     63  C   UNL     1      10.124  17.583   5.167  1.00  0.00     0.029 A 
ATOM     64  C   UNL     1       8.956  17.031   5.666  1.00  0.00     0.049 A 
ATOM     65  H   UNL     1       7.428  16.000   4.639  1.00  0.00     0.167 HD
ATOM     66  C   UNL     1       7.335  16.428   7.446  1.00  0.00     0.074 A 
ATOM     67  C   UNL     1       6.884  16.412   8.823  1.00  0.00     0.031 C 
ATOM     68  C   UNL     1       8.482  17.018   7.027  1.00  0.00     0.037 A 
BRANCH  55  69
ATOM     69  C   UNL     1       9.522  16.520   0.952  1.00  0.00     0.058 A 
ATOM     70  C   UNL     1       9.208  17.480  -0.024  1.00  0.00     0.135 A 
ATOM     71  C   UNL     1      10.744  15.840   0.830  1.00  0.00     0.135 A 
ATOM     72  F   UNL     1       8.045  18.148   0.035  1.00  0.00    -0.206 F 
ATOM     73  C   UNL     1      10.060  17.737  -1.093  1.00  0.00     0.059 A 
ATOM     74  C   UNL     1      11.624  16.100  -0.217  1.00  0.00     0.059 A 
ATOM     75  F   UNL     1      11.094  14.911   1.733  1.00  0.00    -0.206 F 
ATOM     76  C   UNL     1      11.266  17.041  -1.182  1.00  0.00     0.060 A 
BRANCH  76  77
ATOM     77  S   UNL     1      12.366  17.390  -2.571  1.00  0.00     0.124 S 
ATOM     78  O   UNL     1      11.675  16.714  -3.664  1.00  0.00    -0.237 OA
ATOM     79  O   UNL     1      12.354  18.849  -2.621  1.00  0.00    -0.237 OA
ATOM     80  O   UNL     1      13.631  16.791  -2.161  1.00  0.00    -0.744 OA
ENDBRANCH  76  77
ENDBRANCH  55  69
BRANCH  56  81
ATOM     81  C   UNL     1       3.280  14.246   8.430  1.00  0.00     0.058 A 
ATOM     82  C   UNL     1       2.544  15.227   9.111  1.00  0.00     0.135 A 
ATOM     83  C   UNL     1       3.124  12.912   8.835  1.00  0.00     0.135 A 
ATOM     84  F   UNL     1       2.662  16.517   8.762  1.00  0.00    -0.206 F 
ATOM     85  C   UNL     1       1.701  14.902  10.169  1.00  0.00     0.059 A 
ATOM     86  C   UNL     1       2.270  12.559   9.875  1.00  0.00     0.059 A 
ATOM     87  F   UNL     1       3.791  11.934   8.201  1.00  0.00    -0.206 F 
ATOM     88  C   UNL     1       1.571  13.564  10.544  1.00  0.00     0.060 A 
BRANCH  88  89
ATOM     89  S   UNL     1       0.444  13.145  11.891  1.00  0.00     0.124 S 
ATOM     90  O   UNL     1       1.212  13.567  13.057  1.00  0.00    -0.237 OA
ATOM     91  O   UNL     1      -0.730  13.952  11.573  1.00  0.00    -0.237 OA
ATOM     92  O   UNL     1       0.263  11.705  11.740  1.00  0.00    -0.744 OA
ENDBRANCH  88  89
ENDBRANCH  56  81
BRANCH  68  93
ATOM     93  C   UNL     1       9.304  17.735   8.060  1.00  0.00     0.058 A 
ATOM     94  C   UNL     1      10.063  17.040   9.013  1.00  0.00     0.135 A 
ATOM     95  C   UNL     1       9.359  19.138   8.071  1.00  0.00     0.135 A 
ATOM     96  F   UNL     1      10.041  15.698   9.047  1.00  0.00    -0.206 F 
ATOM     97  C   UNL     1      10.827  17.711   9.962  1.00  0.00     0.059 A 
ATOM     98  C   UNL     1      10.136  19.830   8.995  1.00  0.00     0.059 A 
ATOM     99  F   UNL     1       8.660  19.849   7.173  1.00  0.00    -0.206 F 
ATOM    100  C   UNL     1      10.855  19.107   9.946  1.00  0.00     0.060 A 
BRANCH 100 101
ATOM    101  S   UNL     1      11.864  19.970  11.169  1.00  0.00     0.124 S 
ATOM    102  O   UNL     1      11.035  19.859  12.364  1.00  0.00    -0.237 OA
ATOM    103  O   UNL     1      13.094  19.183  11.174  1.00  0.00    -0.237 OA
ATOM    104  O   UNL     1      11.992  21.315  10.615  1.00  0.00    -0.744 OA
ENDBRANCH 100 101
ENDBRANCH  68  93
ENDBRANCH  42  43
ENDBRANCH  34  37
ENDBRANCH  32  33
ENDBRANCH  31  32
ENDBRANCH  30  31
ENDBRANCH  29  30
ENDBRANCH   1  29
TORSDOF 20
