REMARK SMILES O=C(NCCCCCCNC(=O)c1cnc(Nc2ccccc2)nc1)c1ccc(-c2c3nc(c(-c4c(F)cc(S(=O)(=O)[O-])cc4F)c4ccc([nH]4)c(-c4c(F)cc(S(=O)(=O)[O-])cc4F)c4nc(c(-c5c(F)cc(S(=O)(=O)[O-])cc5F)c5ccc2[nH]5)C=C4)C=C3)cc1
REMARK SMILES IDX 6 1 5 2 4 3 3 4 1 5 2 6 26 8 27 9 91 10 28 11 90 12 29 13
REMARK SMILES IDX 30 14 31 15 84 16 32 17 89 18 83 19 85 20 33 21 88 22 82 23
REMARK SMILES IDX 81 24 34 26 68 27 47 28 67 29 48 30 51 31 66 32 86 33 49 34
REMARK SMILES IDX 50 35 65 37 87 38 52 39 35 40 36 41 45 42 37 43 38 44 44 45
REMARK SMILES IDX 46 46 39 47 40 48 41 49 42 50 43 51 69 52 70 53 79 54 71 55
REMARK SMILES IDX 72 56 78 57 80 58 73 59 74 60 75 61 76 62 77 63 53 64 54 65
REMARK SMILES IDX 63 66 55 67 56 68 62 69 64 70 57 71 58 72 59 73 60 74 61 75
REMARK SMILES IDX 7 76 8 77 9 78 10 79 11 80 12 82 13 83 14 84 25 85 15 86
REMARK SMILES IDX 24 87 16 88 17 89 18 91 19 92 23 93 20 94 22 95 21 96
REMARK H PARENT 3 7 85 25 51 36 10 81 17 90
REMARK Flexibility Score: inf
ROOT
ATOM      1  C   UNL     1       4.276  -3.908  -0.271  1.00  0.00     0.002 C 
ENDROOT
BRANCH   1   2
ATOM      2  C   UNL     1       4.745  -2.648   0.456  1.00  0.00     0.021 C 
BRANCH   2   3
ATOM      3  C   UNL     1       4.505  -1.344  -0.295  1.00  0.00     0.116 C 
BRANCH   3   4
ATOM      4  N   UNL     1       3.092  -1.068  -0.504  1.00  0.00    -0.352 N 
ATOM      5  O   UNL     1       1.141   0.039  -0.276  1.00  0.00    -0.269 OA
ATOM      6  C   UNL     1       2.363   0.046  -0.161  1.00  0.00     0.251 C 
ATOM      7  H   UNL     1       2.585  -1.782  -0.955  1.00  0.00     0.163 HD
BRANCH   6   8
ATOM      8  C   UNL     1       3.055   1.238   0.375  1.00  0.00     0.039 A 
ATOM      9  C   UNL     1       4.225   1.711  -0.223  1.00  0.00     0.014 A 
ATOM     10  C   UNL     1       2.534   1.882   1.501  1.00  0.00     0.014 A 
ATOM     11  C   UNL     1       4.958   2.718   0.395  1.00  0.00     0.010 A 
ATOM     12  C   UNL     1       3.227   2.956   2.068  1.00  0.00     0.010 A 
ATOM     13  C   UNL     1       4.466   3.357   1.545  1.00  0.00    -0.014 A 
BRANCH  13  14
ATOM     14  C   UNL     1       5.252   4.459   2.160  1.00  0.00     0.031 A 
ATOM     15  C   UNL     1       5.813   4.333   3.552  1.00  0.00     0.074 A 
ATOM     16  C   UNL     1       5.483   5.574   1.439  1.00  0.00     0.049 A 
ATOM     17  N   UNL     1       6.544   5.184   4.226  1.00  0.00    -0.248 NA
ATOM     18  C   UNL     1       5.508   3.096   4.287  1.00  0.00     0.031 C 
ATOM     19  C   UNL     1       4.984   5.815   0.082  1.00  0.00     0.029 A 
ATOM     20  N   UNL     1       6.207   6.700   1.730  1.00  0.00    -0.354 N 
ATOM     21  C   UNL     1       6.765   4.602   5.469  1.00  0.00     0.074 A 
ATOM     22  C   UNL     1       6.067   3.334   5.465  1.00  0.00     0.031 C 
ATOM     23  C   UNL     1       5.461   6.987  -0.360  1.00  0.00     0.029 A 
ATOM     24  C   UNL     1       6.245   7.610   0.700  1.00  0.00     0.049 A 
ATOM     25  H   UNL     1       6.658   6.844   2.593  1.00  0.00     0.167 HD
ATOM     26  C   UNL     1       7.487   5.079   6.513  1.00  0.00     0.037 A 
ATOM     27  C   UNL     1       6.834   8.818   0.618  1.00  0.00     0.037 A 
ATOM     28  C   UNL     1       8.191   6.337   6.501  1.00  0.00     0.049 A 
ATOM     29  C   UNL     1       7.614   9.330   1.794  1.00  0.00     0.074 A 
ATOM     30  C   UNL     1       8.985   6.890   7.492  1.00  0.00     0.029 A 
ATOM     31  N   UNL     1       8.180   7.244   5.450  1.00  0.00    -0.354 N 
ATOM     32  N   UNL     1       7.841   8.750   2.949  1.00  0.00    -0.248 NA
ATOM     33  C   UNL     1       8.218  10.661   1.658  1.00  0.00     0.031 C 
ATOM     34  C   UNL     1       9.411   8.151   7.061  1.00  0.00     0.029 A 
ATOM     35  C   UNL     1       8.933   8.361   5.777  1.00  0.00     0.049 A 
ATOM     36  H   UNL     1       7.707   7.113   4.596  1.00  0.00     0.167 HD
ATOM     37  C   UNL     1       8.642   9.632   3.665  1.00  0.00     0.074 A 
ATOM     38  C   UNL     1       8.863  10.781   2.810  1.00  0.00     0.031 C 
ATOM     39  C   UNL     1       9.151   9.498   4.915  1.00  0.00     0.037 A 
BRANCH  26  40
ATOM     40  C   UNL     1       7.526   4.251   7.772  1.00  0.00     0.058 A 
ATOM     41  C   UNL     1       8.213   3.028   7.840  1.00  0.00     0.135 A 
ATOM     42  C   UNL     1       6.880   4.699   8.936  1.00  0.00     0.135 A 
ATOM     43  F   UNL     1       8.840   2.543   6.756  1.00  0.00    -0.206 F 
ATOM     44  C   UNL     1       8.223   2.260   9.002  1.00  0.00     0.059 A 
ATOM     45  C   UNL     1       6.901   3.963  10.118  1.00  0.00     0.059 A 
ATOM     46  F   UNL     1       6.213   5.864   8.933  1.00  0.00    -0.206 F 
ATOM     47  C   UNL     1       7.558   2.734  10.134  1.00  0.00     0.060 A 
BRANCH  47  48
ATOM     48  S   UNL     1       7.556   1.715  11.625  1.00  0.00     0.124 S 
ATOM     49  O   UNL     1       6.630   0.651  11.247  1.00  0.00    -0.237 OA
ATOM     50  O   UNL     1       8.957   1.323  11.739  1.00  0.00    -0.237 OA
ATOM     51  O   UNL     1       7.076   2.626  12.659  1.00  0.00    -0.744 OA
ENDBRANCH  47  48
ENDBRANCH  26  40
BRANCH  27  52
ATOM     52  C   UNL     1       6.722   9.606  -0.636  1.00  0.00     0.058 A 
ATOM     53  C   UNL     1       7.833   9.791  -1.472  1.00  0.00     0.135 A 
ATOM     54  C   UNL     1       5.496  10.153  -1.046  1.00  0.00     0.135 A 
ATOM     55  F   UNL     1       9.027   9.290  -1.120  1.00  0.00    -0.206 F 
ATOM     56  C   UNL     1       7.735  10.496  -2.667  1.00  0.00     0.059 A 
ATOM     57  C   UNL     1       5.367  10.837  -2.250  1.00  0.00     0.059 A 
ATOM     58  F   UNL     1       4.399   9.987  -0.290  1.00  0.00    -0.206 F 
ATOM     59  C   UNL     1       6.495  11.010  -3.050  1.00  0.00     0.060 A 
BRANCH  59  60
ATOM     60  S   UNL     1       6.367  11.865  -4.635  1.00  0.00     0.124 S 
ATOM     61  O   UNL     1       7.053  13.119  -4.348  1.00  0.00    -0.237 OA
ATOM     62  O   UNL     1       7.060  10.948  -5.534  1.00  0.00    -0.237 OA
ATOM     63  O   UNL     1       4.926  11.967  -4.846  1.00  0.00    -0.744 OA
ENDBRANCH  59  60
ENDBRANCH  27  52
BRANCH  39  64
ATOM     64  C   UNL     1      10.042  10.601   5.416  1.00  0.00     0.058 A 
ATOM     65  C   UNL     1       9.539  11.862   5.771  1.00  0.00     0.135 A 
ATOM     66  C   UNL     1      11.421  10.379   5.570  1.00  0.00     0.135 A 
ATOM     67  F   UNL     1       8.230  12.130   5.636  1.00  0.00    -0.206 F 
ATOM     68  C   UNL     1      10.375  12.875   6.231  1.00  0.00     0.059 A 
ATOM     69  C   UNL     1      12.271  11.367   6.056  1.00  0.00     0.059 A 
ATOM     70  F   UNL     1      11.954   9.188   5.254  1.00  0.00    -0.206 F 
ATOM     71  C   UNL     1      11.740  12.618   6.369  1.00  0.00     0.060 A 
BRANCH  71  72
ATOM     72  S   UNL     1      12.813  13.932   6.984  1.00  0.00     0.124 S 
ATOM     73  O   UNL     1      12.900  14.809   5.822  1.00  0.00    -0.237 OA
ATOM     74  O   UNL     1      12.053  14.453   8.116  1.00  0.00    -0.237 OA
ATOM     75  O   UNL     1      14.044  13.230   7.335  1.00  0.00    -0.744 OA
ENDBRANCH  71  72
ENDBRANCH  39  64
ENDBRANCH  13  14
ENDBRANCH   6   8
ENDBRANCH   3   4
ENDBRANCH   2   3
ENDBRANCH   1   2
BRANCH   1  76
ATOM     76  C   UNL     1       4.848  -4.105  -1.678  1.00  0.00     0.002 C 
BRANCH  76  77
ATOM     77  C   UNL     1       6.376  -4.072  -1.778  1.00  0.00     0.021 C 
BRANCH  77  78
ATOM     78  C   UNL     1       7.099  -5.085  -0.892  1.00  0.00     0.116 C 
BRANCH  78  79
ATOM     79  N   UNL     1       6.790  -6.456  -1.280  1.00  0.00    -0.352 N 
ATOM     80  C   UNL     1       7.647  -7.445  -1.689  1.00  0.00     0.254 C 
ATOM     81  H   UNL     1       5.838  -6.704  -1.244  1.00  0.00     0.163 HD
ATOM     82  O   UNL     1       7.229  -8.483  -2.191  1.00  0.00    -0.269 OA
BRANCH  80  83
ATOM     83  C   UNL     1       9.083  -7.253  -1.527  1.00  0.00     0.076 A 
ATOM     84  C   UNL     1       9.649  -6.979  -0.310  1.00  0.00     0.130 A 
ATOM     85  C   UNL     1       9.951  -7.329  -2.587  1.00  0.00     0.130 A 
ATOM     86  N   UNL     1      10.960  -6.718  -0.158  1.00  0.00    -0.221 NA
ATOM     87  N   UNL     1      11.272  -7.052  -2.482  1.00  0.00    -0.221 NA
ATOM     88  C   UNL     1      11.734  -6.730  -1.258  1.00  0.00     0.227 A 
BRANCH  88  89
ATOM     89  N   UNL     1      13.052  -6.292  -1.190  1.00  0.00    -0.324 N 
ATOM     90  H   UNL     1      13.527  -6.264  -2.052  1.00  0.00     0.170 HD
BRANCH  89  91
ATOM     91  C   UNL     1      13.807  -5.885  -0.085  1.00  0.00     0.041 A 
ATOM     92  C   UNL     1      14.687  -4.802  -0.213  1.00  0.00     0.026 A 
ATOM     93  C   UNL     1      13.636  -6.447   1.187  1.00  0.00     0.026 A 
ATOM     94  C   UNL     1      15.374  -4.299   0.896  1.00  0.00     0.002 A 
ATOM     95  C   UNL     1      14.332  -5.959   2.295  1.00  0.00     0.002 A 
ATOM     96  C   UNL     1      15.197  -4.880   2.150  1.00  0.00     0.000 A 
ENDBRANCH  89  91
ENDBRANCH  88  89
ENDBRANCH  80  83
ENDBRANCH  78  79
ENDBRANCH  77  78
ENDBRANCH  76  77
ENDBRANCH   1  76
TORSDOF 18
