REMARK SMILES C[NH+](C)[C@H](CC(=O)Nc1cccc(Cl)c1)C(=O)NCCCCCCNC(=O)c1ccc(-c2c3nc(c(-c4c(F)cc(S(=O)(=O)[O-])cc4F)c4ccc([nH]4)c(-c4c(F)cc(S(=O)(=O)[O-])cc4F)c4nc(c(-c5c(F)cc(S(=O)(=O)[O-])cc5F)c5ccc2[nH]5)C=C4)C=C3)cc1
REMARK SMILES IDX 21 1 20 2 19 3 18 4 16 5 17 6 4 8 2 9 1 10 3 11 5 13 6 14
REMARK SMILES IDX 7 15 8 16 9 18 10 19 15 20 11 21 13 22 12 23 14 24 22 25
REMARK SMILES IDX 23 26 24 27 25 28 26 29 27 31 28 32 29 33 93 34 30 35 92 36
REMARK SMILES IDX 31 37 32 38 33 39 86 40 34 41 91 42 85 43 87 44 35 45 90 46
REMARK SMILES IDX 84 47 83 48 36 50 70 51 49 52 69 53 50 54 53 55 68 56 88 57
REMARK SMILES IDX 51 58 52 59 67 61 89 62 54 63 37 64 38 65 47 66 39 67 40 68
REMARK SMILES IDX 46 69 48 70 41 71 42 72 43 73 44 74 45 75 71 76 72 77 81 78
REMARK SMILES IDX 73 79 74 80 80 81 82 82 75 83 76 84 77 85 78 86 79 87 55 88
REMARK SMILES IDX 56 89 65 90 57 91 58 92 64 93 66 94 59 95 60 96 61 97 62 98
REMARK SMILES IDX 63 99
REMARK H PARENT 18 7 2 12 8 17 25 30 87 49 53 60
REMARK Flexibility Score: inf
ROOT
ATOM      1  C   UNL     1       5.117  -1.510   0.558  1.00  0.00     0.002 C 
ENDROOT
BRANCH   1   2
ATOM      2  C   UNL     1       3.704  -1.596  -0.023  1.00  0.00     0.021 C 
BRANCH   2   3
ATOM      3  C   UNL     1       2.820  -0.375   0.213  1.00  0.00     0.116 C 
BRANCH   3   4
ATOM      4  N   UNL     1       3.108   0.688  -0.726  1.00  0.00    -0.351 N 
ATOM      5  C   UNL     1       2.353   1.701  -1.238  1.00  0.00     0.278 C 
ATOM      6  O   UNL     1       2.905   2.368  -2.126  1.00  0.00    -0.268 OA
ATOM      7  H   UNL     1       4.034   0.678  -1.062  1.00  0.00     0.163 HD
BRANCH   5   8
ATOM      8  C   UNL     1       0.958   2.152  -0.676  1.00  0.00     0.283 C 
BRANCH   8   9
ATOM      9  N   UNL     1       1.250   3.178   0.343  1.00  0.00    -0.329 N 
ATOM     10  C   UNL     1       1.805   2.665   1.579  1.00  0.00     0.333 C 
ATOM     11  C   UNL     1       0.231   4.205   0.433  1.00  0.00     0.333 C 
ATOM     12  H   UNL     1       2.051   3.706  -0.003  1.00  0.00     0.348 HD
ENDBRANCH   8   9
BRANCH   8  13
ATOM     13  C   UNL     1      -0.046   1.042  -0.319  1.00  0.00     0.175 C 
BRANCH  13  14
ATOM     14  C   UNL     1      -1.488   1.408   0.026  1.00  0.00     0.230 C 
ATOM     15  O   UNL     1      -2.284   1.718  -0.865  1.00  0.00    -0.274 OA
ATOM     16  N   UNL     1      -1.981   1.212   1.299  1.00  0.00    -0.326 N 
ATOM     17  H   UNL     1      -2.948   1.032   1.337  1.00  0.00     0.169 HD
BRANCH  16  18
ATOM     18  C   UNL     1      -1.342   1.223   2.552  1.00  0.00     0.042 A 
ATOM     19  C   UNL     1      -0.860   2.413   3.106  1.00  0.00     0.026 A 
ATOM     20  C   UNL     1      -1.397   0.094   3.366  1.00  0.00     0.046 A 
ATOM     21  C   UNL     1      -0.264   2.441   4.373  1.00  0.00     0.004 A 
ATOM     22  C   UNL     1      -0.826   0.126   4.645  1.00  0.00     0.043 A 
ATOM     23  C   UNL     1      -0.226   1.283   5.138  1.00  0.00     0.020 A 
ATOM     24  Cl  UNL     1      -0.880  -1.277   5.638  1.00  0.00    -0.084 Cl
ENDBRANCH  16  18
ENDBRANCH  13  14
ENDBRANCH   8  13
ENDBRANCH   5   8
ENDBRANCH   3   4
ENDBRANCH   2   3
ENDBRANCH   1   2
BRANCH   1  25
ATOM     25  C   UNL     1       5.207  -1.317   2.074  1.00  0.00     0.002 C 
BRANCH  25  26
ATOM     26  C   UNL     1       4.367  -2.269   2.928  1.00  0.00     0.021 C 
BRANCH  26  27
ATOM     27  C   UNL     1       4.520  -3.754   2.614  1.00  0.00     0.116 C 
BRANCH  27  28
ATOM     28  N   UNL     1       5.896  -4.210   2.673  1.00  0.00    -0.352 N 
ATOM     29  C   UNL     1       6.395  -5.373   3.200  1.00  0.00     0.251 C 
ATOM     30  H   UNL     1       6.563  -3.602   2.280  1.00  0.00     0.163 HD
ATOM     31  O   UNL     1       7.613  -5.541   3.266  1.00  0.00    -0.269 OA
BRANCH  29  32
ATOM     32  C   UNL     1       5.473  -6.406   3.716  1.00  0.00     0.039 A 
ATOM     33  C   UNL     1       5.755  -7.002   4.947  1.00  0.00     0.014 A 
ATOM     34  C   UNL     1       4.338  -6.788   2.995  1.00  0.00     0.014 A 
ATOM     35  C   UNL     1       4.878  -7.950   5.474  1.00  0.00     0.010 A 
ATOM     36  C   UNL     1       3.424  -7.675   3.558  1.00  0.00     0.010 A 
ATOM     37  C   UNL     1       3.692  -8.277   4.796  1.00  0.00    -0.014 A 
BRANCH  37  38
ATOM     38  C   UNL     1       2.743  -9.278   5.349  1.00  0.00     0.031 A 
ATOM     39  C   UNL     1       2.481 -10.556   4.595  1.00  0.00     0.074 A 
ATOM     40  C   UNL     1       2.094  -9.024   6.503  1.00  0.00     0.049 A 
ATOM     41  N   UNL     1       1.639 -11.519   4.869  1.00  0.00    -0.248 NA
ATOM     42  C   UNL     1       3.248 -10.768   3.356  1.00  0.00     0.031 C 
ATOM     43  C   UNL     1       2.234  -7.804   7.303  1.00  0.00     0.029 A 
ATOM     44  N   UNL     1       1.180  -9.772   7.202  1.00  0.00    -0.354 N 
ATOM     45  C   UNL     1       1.777 -12.446   3.842  1.00  0.00     0.074 A 
ATOM     46  C   UNL     1       2.729 -11.899   2.902  1.00  0.00     0.031 C 
ATOM     47  C   UNL     1       1.448  -7.896   8.388  1.00  0.00     0.029 A 
ATOM     48  C   UNL     1       0.718  -9.159   8.344  1.00  0.00     0.049 A 
ATOM     49  H   UNL     1       0.882 -10.665   6.912  1.00  0.00     0.167 HD
ATOM     50  C   UNL     1       1.189 -13.658   3.711  1.00  0.00     0.037 A 
ATOM     51  C   UNL     1      -0.199  -9.564   9.244  1.00  0.00     0.037 A 
ATOM     52  C   UNL     1       0.258 -14.207   4.662  1.00  0.00     0.049 A 
ATOM     53  C   UNL     1      -0.853 -10.911   9.063  1.00  0.00     0.074 A 
ATOM     54  C   UNL     1      -0.380 -15.435   4.631  1.00  0.00     0.029 A 
ATOM     55  N   UNL     1      -0.161 -13.568   5.820  1.00  0.00    -0.354 N 
ATOM     56  N   UNL     1      -0.680 -11.790   8.105  1.00  0.00    -0.248 NA
ATOM     57  C   UNL     1      -1.815 -11.327  10.093  1.00  0.00     0.031 C 
ATOM     58  C   UNL     1      -1.213 -15.523   5.750  1.00  0.00     0.029 A 
ATOM     59  C   UNL     1      -1.051 -14.374   6.508  1.00  0.00     0.049 A 
ATOM     60  H   UNL     1       0.132 -12.674   6.109  1.00  0.00     0.167 HD
ATOM     61  C   UNL     1      -1.479 -12.879   8.439  1.00  0.00     0.074 A 
ATOM     62  C   UNL     1      -2.126 -12.552   9.692  1.00  0.00     0.031 C 
ATOM     63  C   UNL     1      -1.662 -14.044   7.771  1.00  0.00     0.037 A 
BRANCH  50  64
ATOM     64  C   UNL     1       1.554 -14.491   2.512  1.00  0.00     0.058 A 
ATOM     65  C   UNL     1       2.826 -15.073   2.387  1.00  0.00     0.135 A 
ATOM     66  C   UNL     1       0.607 -14.768   1.513  1.00  0.00     0.135 A 
ATOM     67  F   UNL     1       3.777 -14.825   3.302  1.00  0.00    -0.206 F 
ATOM     68  C   UNL     1       3.151 -15.888   1.308  1.00  0.00     0.059 A 
ATOM     69  C   UNL     1       0.901 -15.605   0.440  1.00  0.00     0.059 A 
ATOM     70  F   UNL     1      -0.622 -14.234   1.580  1.00  0.00    -0.206 F 
ATOM     71  C   UNL     1       2.178 -16.155   0.344  1.00  0.00     0.060 A 
BRANCH  71  72
ATOM     72  S   UNL     1       2.607 -17.250  -1.026  1.00  0.00     0.124 S 
ATOM     73  O   UNL     1       3.536 -16.419  -1.785  1.00  0.00    -0.237 OA
ATOM     74  O   UNL     1       3.198 -18.392  -0.336  1.00  0.00    -0.237 OA
ATOM     75  O   UNL     1       1.324 -17.506  -1.672  1.00  0.00    -0.744 OA
ENDBRANCH  71  72
ENDBRANCH  50  64
BRANCH  51  76
ATOM     76  C   UNL     1      -0.561  -8.695  10.398  1.00  0.00     0.058 A 
ATOM     77  C   UNL     1      -0.260  -9.070  11.716  1.00  0.00     0.135 A 
ATOM     78  C   UNL     1      -1.251  -7.487  10.208  1.00  0.00     0.135 A 
ATOM     79  F   UNL     1       0.398 -10.216  11.953  1.00  0.00    -0.206 F 
ATOM     80  C   UNL     1      -0.669  -8.307  12.805  1.00  0.00     0.059 A 
ATOM     81  C   UNL     1      -1.641  -6.689  11.279  1.00  0.00     0.059 A 
ATOM     82  F   UNL     1      -1.546  -7.068   8.968  1.00  0.00    -0.206 F 
ATOM     83  C   UNL     1      -1.366  -7.120  12.576  1.00  0.00     0.060 A 
BRANCH  83  84
ATOM     84  S   UNL     1      -1.900  -6.139  13.995  1.00  0.00     0.124 S 
ATOM     85  O   UNL     1      -2.994  -6.949  14.516  1.00  0.00    -0.237 OA
ATOM     86  O   UNL     1      -0.690  -6.096  14.811  1.00  0.00    -0.237 OA
ATOM     87  O   UNL     1      -2.287  -4.865  13.394  1.00  0.00    -0.744 OA
ENDBRANCH  83  84
ENDBRANCH  51  76
BRANCH  63  88
ATOM     88  C   UNL     1      -2.541 -15.084   8.412  1.00  0.00     0.058 A 
ATOM     89  C   UNL     1      -3.933 -14.931   8.501  1.00  0.00     0.135 A 
ATOM     90  C   UNL     1      -1.980 -16.276   8.900  1.00  0.00     0.135 A 
ATOM     91  F   UNL     1      -4.520 -13.809   8.053  1.00  0.00    -0.206 F 
ATOM     92  C   UNL     1      -4.735 -15.909   9.080  1.00  0.00     0.059 A 
ATOM     93  C   UNL     1      -2.766 -17.282   9.452  1.00  0.00     0.059 A 
ATOM     94  F   UNL     1      -0.655 -16.480   8.827  1.00  0.00    -0.206 F 
ATOM     95  C   UNL     1      -4.142 -17.082   9.551  1.00  0.00     0.060 A 
BRANCH  95  96
ATOM     96  S   UNL     1      -5.197 -18.355  10.274  1.00  0.00     0.124 S 
ATOM     97  O   UNL     1      -5.555 -17.750  11.552  1.00  0.00    -0.237 OA
ATOM     98  O   UNL     1      -6.277 -18.456   9.296  1.00  0.00    -0.237 OA
ATOM     99  O   UNL     1      -4.321 -19.520  10.353  1.00  0.00    -0.744 OA
ENDBRANCH  95  96
ENDBRANCH  63  88
ENDBRANCH  37  38
ENDBRANCH  29  32
ENDBRANCH  27  28
ENDBRANCH  26  27
ENDBRANCH  25  26
ENDBRANCH   1  25
TORSDOF 20
