REMARK SMILES O=C(COc1ccccc1/C=C1/SC(=S)N(c2ccc(F)c(Cl)c2)C1=O)NCCCCCCNC(=O)c1ccc(-c2c3nc(c(-c4c(F)cc(S(=O)(=O)[O-])cc4F)c4ccc([nH]4)c(-c4c(F)cc(S(=O)(=O)[O-])cc4F)c4nc(c(-c5c(F)cc(S(=O)(=O)[O-])cc5F)c5ccc2[nH]5)C=C4)C=C3)cc1
REMARK SMILES IDX 30 1 29 2 28 3 27 4 1 5 2 6 3 8 4 9 5 10 6 11 10 12 7 13
REMARK SMILES IDX 9 14 8 15 11 16 12 17 13 18 25 19 14 20 16 21 26 22 15 23
REMARK SMILES IDX 17 24 18 25 24 26 19 27 22 28 20 29 23 30 21 31 31 32 32 33
REMARK SMILES IDX 33 34 34 35 35 36 36 38 37 39 38 40 102 41 39 42 101 43
REMARK SMILES IDX 40 44 41 45 42 46 95 47 43 48 100 49 94 50 96 51 44 52 99 53
REMARK SMILES IDX 93 54 92 55 45 57 79 58 58 59 78 60 59 61 62 62 77 63 97 64
REMARK SMILES IDX 60 65 61 66 76 68 98 69 63 70 46 71 47 72 56 73 48 74 49 75
REMARK SMILES IDX 55 76 57 77 50 78 51 79 52 80 53 81 54 82 80 83 81 84 90 85
REMARK SMILES IDX 82 86 83 87 89 88 91 89 84 90 85 91 86 92 87 93 88 94 64 95
REMARK SMILES IDX 65 96 74 97 66 98 67 99 73 100 75 101 68 102 69 103 70 104
REMARK SMILES IDX 71 105 72 106
REMARK H PARENT 27 7 34 37 96 56 62 67
REMARK Flexibility Score: inf
ROOT
ATOM      1  C   UNL     1       2.747   1.809   4.092  1.00  0.00     0.002 C 
ENDROOT
BRANCH   1   2
ATOM      2  C   UNL     1       1.411   1.244   3.596  1.00  0.00     0.021 C 
BRANCH   2   3
ATOM      3  C   UNL     1       1.156   1.222   2.080  1.00  0.00     0.116 C 
BRANCH   3   4
ATOM      4  N   UNL     1       2.046   0.391   1.271  1.00  0.00    -0.353 N 
ATOM      5  O   UNL     1       0.511   0.189  -0.426  1.00  0.00    -0.271 OA
ATOM      6  C   UNL     1       1.644  -0.023   0.004  1.00  0.00     0.257 C 
ATOM      7  H   UNL     1       2.927   0.126   1.621  1.00  0.00     0.163 HD
BRANCH   6   8
ATOM      8  C   UNL     1       2.693  -0.766  -0.857  1.00  0.00     0.329 C 
BRANCH   8   9
ATOM      9  O   UNL     1       3.628   0.003  -1.619  1.00  0.00    -0.483 OA
BRANCH   9  10
ATOM     10  C   UNL     1       3.077   0.587  -2.741  1.00  0.00     0.127 A 
ATOM     11  C   UNL     1       3.207  -0.038  -3.978  1.00  0.00     0.047 A 
ATOM     12  C   UNL     1       2.577   1.901  -2.685  1.00  0.00     0.018 A 
ATOM     13  C   UNL     1       2.750   0.610  -5.133  1.00  0.00     0.004 A 
ATOM     14  C   UNL     1       2.051   2.513  -3.824  1.00  0.00     0.012 A 
ATOM     15  C   UNL     1       2.142   1.865  -5.051  1.00  0.00     0.001 A 
BRANCH  12  16
ATOM     16  C   UNL     1       2.691   2.668  -1.455  1.00  0.00     0.033 C 
ATOM     17  C   UNL     1       3.892   2.916  -0.922  1.00  0.00     0.081 C 
ATOM     18  S   UNL     1       4.057   3.240   0.741  1.00  0.00    -0.054 SA
ATOM     19  C   UNL     1       5.268   2.707  -1.488  1.00  0.00     0.270 C 
ATOM     20  C   UNL     1       5.550   2.326   0.817  1.00  0.00     0.152 C 
ATOM     21  N   UNL     1       6.125   2.349  -0.442  1.00  0.00    -0.261 N 
ATOM     22  O   UNL     1       5.565   2.909  -2.646  1.00  0.00    -0.268 OA
ATOM     23  S   UNL     1       6.111   1.629   2.229  1.00  0.00    -0.051 S 
BRANCH  21  24
ATOM     24  C   UNL     1       7.529   2.539  -0.542  1.00  0.00     0.052 A 
ATOM     25  C   UNL     1       7.975   3.852  -0.767  1.00  0.00     0.030 A 
ATOM     26  C   UNL     1       8.421   1.573  -0.059  1.00  0.00     0.050 A 
ATOM     27  C   UNL     1       9.265   4.223  -0.392  1.00  0.00     0.043 A 
ATOM     28  C   UNL     1       9.711   1.952   0.313  1.00  0.00     0.078 A 
ATOM     29  C   UNL     1      10.116   3.277   0.170  1.00  0.00     0.141 A 
ATOM     30  Cl  UNL     1      10.752   0.788   1.039  1.00  0.00    -0.081 Cl
ATOM     31  F   UNL     1      11.320   3.676   0.604  1.00  0.00    -0.205 F 
ENDBRANCH  21  24
ENDBRANCH  12  16
ENDBRANCH   9  10
ENDBRANCH   8   9
ENDBRANCH   6   8
ENDBRANCH   3   4
ENDBRANCH   2   3
ENDBRANCH   1   2
BRANCH   1  32
ATOM     32  C   UNL     1       3.012   3.276   3.746  1.00  0.00     0.002 C 
BRANCH  32  33
ATOM     33  C   UNL     1       2.696   4.334   4.782  1.00  0.00     0.021 C 
BRANCH  33  34
ATOM     34  C   UNL     1       3.479   4.235   6.078  1.00  0.00     0.116 C 
BRANCH  34  35
ATOM     35  N   UNL     1       4.930   4.377   5.958  1.00  0.00    -0.352 N 
ATOM     36  C   UNL     1       5.793   5.146   6.718  1.00  0.00     0.251 C 
ATOM     37  H   UNL     1       5.350   3.853   5.238  1.00  0.00     0.163 HD
ATOM     38  O   UNL     1       6.996   5.160   6.477  1.00  0.00    -0.269 OA
BRANCH  36  39
ATOM     39  C   UNL     1       5.235   6.013   7.784  1.00  0.00     0.039 A 
ATOM     40  C   UNL     1       5.601   7.359   7.836  1.00  0.00     0.014 A 
ATOM     41  C   UNL     1       4.236   5.527   8.624  1.00  0.00     0.014 A 
ATOM     42  C   UNL     1       4.858   8.241   8.627  1.00  0.00     0.010 A 
ATOM     43  C   UNL     1       3.402   6.427   9.272  1.00  0.00     0.010 A 
ATOM     44  C   UNL     1       3.699   7.797   9.286  1.00  0.00    -0.014 A 
BRANCH  44  45
ATOM     45  C   UNL     1       2.777   8.738   9.982  1.00  0.00     0.031 A 
ATOM     46  C   UNL     1       2.408   8.506  11.426  1.00  0.00     0.074 A 
ATOM     47  C   UNL     1       2.195   9.744   9.294  1.00  0.00     0.049 A 
ATOM     48  N   UNL     1       1.567   9.165  12.182  1.00  0.00    -0.248 NA
ATOM     49  C   UNL     1       3.019   7.345  12.094  1.00  0.00     0.031 C 
ATOM     50  C   UNL     1       2.377  10.018   7.865  1.00  0.00     0.029 A 
ATOM     51  N   UNL     1       1.329  10.728   9.704  1.00  0.00    -0.354 N 
ATOM     52  C   UNL     1       1.518   8.471  13.387  1.00  0.00     0.074 A 
ATOM     53  C   UNL     1       2.350   7.300  13.234  1.00  0.00     0.031 C 
ATOM     54  C   UNL     1       1.702  11.132   7.536  1.00  0.00     0.029 A 
ATOM     55  C   UNL     1       1.008  11.632   8.717  1.00  0.00     0.049 A 
ATOM     56  H   UNL     1       0.971  10.782  10.620  1.00  0.00     0.167 HD
ATOM     57  C   UNL     1       0.877   8.799  14.534  1.00  0.00     0.037 A 
ATOM     58  C   UNL     1       0.255  12.748   8.765  1.00  0.00     0.037 A 
ATOM     59  C   UNL     1       0.118  10.008  14.705  1.00  0.00     0.049 A 
ATOM     60  C   UNL     1      -0.379  13.142  10.071  1.00  0.00     0.074 A 
ATOM     61  C   UNL     1      -0.477  10.498  15.853  1.00  0.00     0.029 A 
ATOM     62  N   UNL     1      -0.139  10.925  13.697  1.00  0.00    -0.354 N 
ATOM     63  N   UNL     1      -0.339  12.522  11.227  1.00  0.00    -0.248 NA
ATOM     64  C   UNL     1      -1.152  14.391  10.082  1.00  0.00     0.031 C 
ATOM     65  C   UNL     1      -1.121  11.698  15.531  1.00  0.00     0.029 A 
ATOM     66  C   UNL     1      -0.896  11.973  14.192  1.00  0.00     0.049 A 
ATOM     67  H   UNL     1       0.171  10.843  12.766  1.00  0.00     0.167 HD
ATOM     68  C   UNL     1      -1.064  13.315  12.108  1.00  0.00     0.074 A 
ATOM     69  C   UNL     1      -1.514  14.469  11.355  1.00  0.00     0.031 C 
ATOM     70  C   UNL     1      -1.337  13.109  13.421  1.00  0.00     0.037 A 
BRANCH  57  71
ATOM     71  C   UNL     1       0.996   7.843  15.690  1.00  0.00     0.058 A 
ATOM     72  C   UNL     1       2.216   7.640  16.359  1.00  0.00     0.135 A 
ATOM     73  C   UNL     1      -0.117   7.108  16.127  1.00  0.00     0.135 A 
ATOM     74  F   UNL     1       3.317   8.303  15.974  1.00  0.00    -0.206 F 
ATOM     75  C   UNL     1       2.339   6.705  17.382  1.00  0.00     0.059 A 
ATOM     76  C   UNL     1      -0.024   6.191  17.171  1.00  0.00     0.059 A 
ATOM     77  F   UNL     1      -1.308   7.262  15.527  1.00  0.00    -0.206 F 
ATOM     78  C   UNL     1       1.215   5.980  17.775  1.00  0.00     0.060 A 
BRANCH  78  79
ATOM     79  S   UNL     1       1.395   4.753  19.088  1.00  0.00     0.124 S 
ATOM     80  O   UNL     1       2.057   3.664  18.377  1.00  0.00    -0.237 OA
ATOM     81  O   UNL     1       2.214   5.459  20.068  1.00  0.00    -0.237 OA
ATOM     82  O   UNL     1       0.019   4.492  19.498  1.00  0.00    -0.744 OA
ENDBRANCH  78  79
ENDBRANCH  57  71
BRANCH  58  83
ATOM     83  C   UNL     1       0.123  13.613   7.560  1.00  0.00     0.058 A 
ATOM     84  C   UNL     1       0.784  14.849   7.495  1.00  0.00     0.135 A 
ATOM     85  C   UNL     1      -0.638  13.220   6.449  1.00  0.00     0.135 A 
ATOM     86  F   UNL     1       1.519  15.271   8.534  1.00  0.00    -0.206 F 
ATOM     87  C   UNL     1       0.687  15.672   6.377  1.00  0.00     0.059 A 
ATOM     88  C   UNL     1      -0.733  14.016   5.310  1.00  0.00     0.059 A 
ATOM     89  F   UNL     1      -1.277  12.040   6.454  1.00  0.00    -0.206 F 
ATOM     90  C   UNL     1      -0.071  15.244   5.286  1.00  0.00     0.060 A 
BRANCH  90  91
ATOM     91  S   UNL     1      -0.137  16.291   3.815  1.00  0.00     0.124 S 
ATOM     92  O   UNL     1      -1.021  17.364   4.256  1.00  0.00    -0.237 OA
ATOM     93  O   UNL     1       1.265  16.653   3.632  1.00  0.00    -0.237 OA
ATOM     94  O   UNL     1      -0.684  15.400   2.796  1.00  0.00    -0.744 OA
ENDBRANCH  90  91
ENDBRANCH  58  83
BRANCH  70  95
ATOM     95  C   UNL     1      -2.144  14.163  14.123  1.00  0.00     0.058 A 
ATOM     96  C   UNL     1      -3.518  14.316  13.883  1.00  0.00     0.135 A 
ATOM     97  C   UNL     1      -1.540  15.014  15.063  1.00  0.00     0.135 A 
ATOM     98  F   UNL     1      -4.139  13.529  12.991  1.00  0.00    -0.206 F 
ATOM     99  C   UNL     1      -4.260  15.302  14.523  1.00  0.00     0.059 A 
ATOM    100  C   UNL     1      -2.269  15.989  15.734  1.00  0.00     0.059 A 
ATOM    101  F   UNL     1      -0.232  14.898  15.339  1.00  0.00    -0.206 F 
ATOM    102  C   UNL     1      -3.625  16.138  15.443  1.00  0.00     0.060 A 
BRANCH 102 103
ATOM    103  S   UNL     1      -4.597  17.413  16.271  1.00  0.00     0.124 S 
ATOM    104  O   UNL     1      -4.709  18.422  15.223  1.00  0.00    -0.237 OA
ATOM    105  O   UNL     1      -5.829  16.705  16.604  1.00  0.00    -0.237 OA
ATOM    106  O   UNL     1      -3.766  17.783  17.414  1.00  0.00    -0.744 OA
ENDBRANCH 102 103
ENDBRANCH  70  95
ENDBRANCH  44  45
ENDBRANCH  36  39
ENDBRANCH  34  35
ENDBRANCH  33  34
ENDBRANCH  32  33
ENDBRANCH   1  32
TORSDOF 20
