REMARK SMILES Cc1ccc(C(c2ccccc2)(c2ccccc2)n2cnc(C[C@H]([NH3+])C(=O)NCCCCCCNC(=O)c3ccc(-c4c5nc(c(-c6c(F)cc(S(=O)(=O)[O-])cc6F)c6ccc([nH]6)c(-c6c(F)cc(S(=O)(=O)[O-])cc6F)c6nc(c(-c7c(F)cc(S(=O)(=O)[O-])cc7F)c7ccc4[nH]7)C=C6)C=C5)cc3)c2)cc1
REMARK SMILES IDX 31 1 30 2 29 3 28 4 26 5 27 6 24 8 23 9 22 10 19 11 20 12
REMARK SMILES IDX 104 13 21 14 6 15 5 16 1 17 2 18 3 19 106 20 4 21 105 22
REMARK SMILES IDX 7 23 8 24 12 25 9 26 11 27 10 28 13 29 14 30 18 31 15 32
REMARK SMILES IDX 17 33 16 34 25 35 32 39 33 40 34 41 35 42 36 43 37 45 38 46
REMARK SMILES IDX 39 47 103 48 40 49 102 50 41 51 42 52 43 53 96 54 44 55
REMARK SMILES IDX 101 56 95 57 97 58 45 59 100 60 94 61 93 62 46 64 80 65
REMARK SMILES IDX 59 66 79 67 60 68 63 69 78 70 98 71 61 72 62 73 77 75 99 76
REMARK SMILES IDX 64 77 47 78 48 79 57 80 49 81 50 82 56 83 58 84 51 85 52 86
REMARK SMILES IDX 53 87 54 88 55 89 81 90 82 91 91 92 83 93 84 94 90 95 92 96
REMARK SMILES IDX 85 97 86 98 87 99 88 100 89 101 65 102 66 103 75 104 67 105
REMARK SMILES IDX 68 106 74 107 76 108 69 109 70 110 71 111 72 112 73 113
REMARK H PARENT 28 7 25 36 25 37 25 38 35 44 97 63 63 74
REMARK Flexibility Score: inf
ROOT
ATOM      1  C   UNL     1      -5.807  -8.744   3.836  1.00  0.00     0.002 C 
ENDROOT
BRANCH   1   2
ATOM      2  C   UNL     1      -5.104  -7.571   3.144  1.00  0.00     0.021 C 
BRANCH   2   3
ATOM      3  C   UNL     1      -5.754  -7.070   1.857  1.00  0.00     0.116 C 
BRANCH   3   4
ATOM      4  N   UNL     1      -7.041  -6.446   2.087  1.00  0.00    -0.351 N 
ATOM      5  C   UNL     1      -7.616  -5.334   1.541  1.00  0.00     0.278 C 
ATOM      6  O   UNL     1      -8.753  -5.039   1.928  1.00  0.00    -0.268 OA
ATOM      7  H   UNL     1      -7.599  -6.905   2.756  1.00  0.00     0.163 HD
BRANCH   5   8
ATOM      8  C   UNL     1      -6.854  -4.421   0.549  1.00  0.00     0.276 C 
BRANCH   8   9
ATOM      9  C   UNL     1      -6.363  -5.122  -0.729  1.00  0.00     0.133 C 
BRANCH   9  10
ATOM     10  C   UNL     1      -7.465  -5.491  -1.662  1.00  0.00     0.065 A 
ATOM     11  N   UNL     1      -8.789  -5.703  -3.405  1.00  0.00    -0.319 N 
ATOM     12  C   UNL     1      -9.390  -6.193  -2.265  1.00  0.00     0.201 A 
ATOM     13  C   UNL     1      -7.526  -5.310  -3.026  1.00  0.00     0.112 A 
ATOM     14  N   UNL     1      -8.607  -6.094  -1.217  1.00  0.00    -0.241 NA
BRANCH  11  15
ATOM     15  C   UNL     1      -9.445  -5.575  -4.750  1.00  0.00     0.121 C 
BRANCH  15  16
ATOM     16  C   UNL     1      -9.554  -7.008  -5.421  1.00  0.00    -0.013 A 
ATOM     17  C   UNL     1      -9.971 -10.882  -7.358  1.00  0.00     0.044 C 
ATOM     18  C   UNL     1      -9.814  -9.537  -6.712  1.00  0.00    -0.051 A 
ATOM     19  C   UNL     1      -9.270  -9.440  -5.429  1.00  0.00     0.004 A 
ATOM     20  C   UNL     1     -10.199  -8.369  -7.369  1.00  0.00     0.004 A 
ATOM     21  C   UNL     1      -9.137  -8.198  -4.796  1.00  0.00     0.007 A 
ATOM     22  C   UNL     1     -10.059  -7.128  -6.740  1.00  0.00     0.007 A 
ENDBRANCH  15  16
BRANCH  15  23
ATOM     23  C   UNL     1     -10.888  -4.946  -4.494  1.00  0.00    -0.013 A 
ATOM     24  C   UNL     1     -11.049  -3.814  -3.657  1.00  0.00     0.007 A 
ATOM     25  C   UNL     1     -12.083  -5.514  -4.983  1.00  0.00     0.007 A 
ATOM     26  C   UNL     1     -12.301  -3.241  -3.406  1.00  0.00     0.000 A 
ATOM     27  C   UNL     1     -13.339  -4.949  -4.725  1.00  0.00     0.000 A 
ATOM     28  C   UNL     1     -13.447  -3.803  -3.950  1.00  0.00     0.000 A 
ENDBRANCH  15  23
BRANCH  15  29
ATOM     29  C   UNL     1      -8.514  -4.643  -5.652  1.00  0.00    -0.013 A 
ATOM     30  C   UNL     1      -7.550  -5.204  -6.527  1.00  0.00     0.007 A 
ATOM     31  C   UNL     1      -8.464  -3.241  -5.503  1.00  0.00     0.007 A 
ATOM     32  C   UNL     1      -6.623  -4.417  -7.220  1.00  0.00     0.000 A 
ATOM     33  C   UNL     1      -7.515  -2.456  -6.171  1.00  0.00     0.000 A 
ATOM     34  C   UNL     1      -6.598  -3.042  -7.033  1.00  0.00     0.000 A 
ENDBRANCH  15  29
ENDBRANCH  11  15
ENDBRANCH   9  10
ENDBRANCH   8   9
BRANCH   8  35
ATOM     35  N   UNL     1      -5.779  -3.692   1.271  1.00  0.00    -0.347 N 
ATOM     36  H   UNL     1      -5.101  -4.360   1.636  1.00  0.00     0.345 HD
ATOM     37  H   UNL     1      -6.186  -3.164   2.043  1.00  0.00     0.345 HD
ATOM     38  H   UNL     1      -5.313  -3.050   0.629  1.00  0.00     0.345 HD
ENDBRANCH   8  35
ENDBRANCH   5   8
ENDBRANCH   3   4
ENDBRANCH   2   3
ENDBRANCH   1   2
BRANCH   1  39
ATOM     39  C   UNL     1      -6.021 -10.017   3.003  1.00  0.00     0.002 C 
BRANCH  39  40
ATOM     40  C   UNL     1      -4.820 -10.524   2.199  1.00  0.00     0.021 C 
BRANCH  40  41
ATOM     41  C   UNL     1      -3.580 -10.815   3.037  1.00  0.00     0.116 C 
BRANCH  41  42
ATOM     42  N   UNL     1      -3.264 -12.227   3.150  1.00  0.00    -0.352 N 
ATOM     43  C   UNL     1      -2.090 -12.771   3.645  1.00  0.00     0.251 C 
ATOM     44  H   UNL     1      -3.952 -12.862   2.845  1.00  0.00     0.163 HD
ATOM     45  O   UNL     1      -1.730 -13.908   3.393  1.00  0.00    -0.269 OA
BRANCH  43  46
ATOM     46  C   UNL     1      -1.361 -11.954   4.639  1.00  0.00     0.039 A 
ATOM     47  C   UNL     1      -1.454 -12.358   5.976  1.00  0.00     0.014 A 
ATOM     48  C   UNL     1      -0.848 -10.706   4.298  1.00  0.00     0.014 A 
ATOM     49  C   UNL     1      -1.178 -11.445   6.990  1.00  0.00     0.010 A 
ATOM     50  C   UNL     1      -0.638  -9.780   5.306  1.00  0.00     0.010 A 
ATOM     51  C   UNL     1      -0.852 -10.135   6.648  1.00  0.00    -0.014 A 
BRANCH  51  52
ATOM     52  C   UNL     1      -0.800  -9.042   7.614  1.00  0.00     0.031 A 
ATOM     53  C   UNL     1       0.502  -8.474   8.036  1.00  0.00     0.074 A 
ATOM     54  C   UNL     1      -1.947  -8.489   8.068  1.00  0.00     0.049 A 
ATOM     55  N   UNL     1       0.652  -7.672   9.037  1.00  0.00    -0.248 NA
ATOM     56  C   UNL     1       1.772  -8.839   7.407  1.00  0.00     0.031 C 
ATOM     57  C   UNL     1      -2.105  -7.181   8.700  1.00  0.00     0.029 A 
ATOM     58  N   UNL     1      -3.181  -9.115   8.255  1.00  0.00    -0.354 N 
ATOM     59  C   UNL     1       1.931  -7.176   8.981  1.00  0.00     0.074 A 
ATOM     60  C   UNL     1       2.623  -8.038   8.058  1.00  0.00     0.031 C 
ATOM     61  C   UNL     1      -3.248  -7.169   9.401  1.00  0.00     0.029 A 
ATOM     62  C   UNL     1      -3.782  -8.519   9.382  1.00  0.00     0.049 A 
ATOM     63  H   UNL     1      -3.560  -9.837   7.704  1.00  0.00     0.167 HD
ATOM     64  C   UNL     1       2.209  -5.995   9.599  1.00  0.00     0.037 A 
ATOM     65  C   UNL     1      -4.076  -9.246  10.501  1.00  0.00     0.037 A 
ATOM     66  C   UNL     1       1.174  -5.654  10.575  1.00  0.00     0.049 A 
ATOM     67  C   UNL     1      -3.361  -8.789  11.754  1.00  0.00     0.074 A 
ATOM     68  C   UNL     1       0.175  -4.699  10.623  1.00  0.00     0.029 A 
ATOM     69  N   UNL     1       0.929  -6.532  11.631  1.00  0.00    -0.354 N 
ATOM     70  N   UNL     1      -2.365  -7.945  11.764  1.00  0.00    -0.248 NA
ATOM     71  C   UNL     1      -3.691  -9.270  13.094  1.00  0.00     0.031 C 
ATOM     72  C   UNL     1      -0.744  -5.084  11.639  1.00  0.00     0.029 A 
ATOM     73  C   UNL     1      -0.272  -6.238  12.244  1.00  0.00     0.049 A 
ATOM     74  H   UNL     1       1.532  -7.261  11.902  1.00  0.00     0.167 HD
ATOM     75  C   UNL     1      -1.882  -7.819  13.040  1.00  0.00     0.074 A 
ATOM     76  C   UNL     1      -2.774  -8.633  13.844  1.00  0.00     0.031 C 
ATOM     77  C   UNL     1      -0.771  -7.078  13.327  1.00  0.00     0.037 A 
BRANCH  64  78
ATOM     78  C   UNL     1       3.315  -5.041   9.174  1.00  0.00     0.058 A 
ATOM     79  C   UNL     1       3.578  -3.870   9.920  1.00  0.00     0.135 A 
ATOM     80  C   UNL     1       4.042  -5.136   7.964  1.00  0.00     0.135 A 
ATOM     81  F   UNL     1       2.944  -3.634  11.079  1.00  0.00    -0.206 F 
ATOM     82  C   UNL     1       4.470  -2.876   9.493  1.00  0.00     0.059 A 
ATOM     83  C   UNL     1       4.975  -4.185   7.546  1.00  0.00     0.059 A 
ATOM     84  F   UNL     1       3.834  -6.113   7.075  1.00  0.00    -0.206 F 
ATOM     85  C   UNL     1       5.163  -3.041   8.300  1.00  0.00     0.060 A 
BRANCH  85  86
ATOM     86  S   UNL     1       6.279  -1.753   7.711  1.00  0.00     0.124 S 
ATOM     87  O   UNL     1       5.342  -0.748   7.219  1.00  0.00    -0.237 OA
ATOM     88  O   UNL     1       7.021  -1.399   8.916  1.00  0.00    -0.237 OA
ATOM     89  O   UNL     1       7.062  -2.432   6.680  1.00  0.00    -0.744 OA
ENDBRANCH  85  86
ENDBRANCH  64  78
BRANCH  65  90
ATOM     90  C   UNL     1      -4.483 -10.644  10.195  1.00  0.00     0.058 A 
ATOM     91  C   UNL     1      -5.709 -10.829   9.529  1.00  0.00     0.135 A 
ATOM     92  C   UNL     1      -3.535 -11.673  10.111  1.00  0.00     0.135 A 
ATOM     93  F   UNL     1      -6.661  -9.883   9.602  1.00  0.00    -0.206 F 
ATOM     94  C   UNL     1      -5.915 -11.896   8.663  1.00  0.00     0.059 A 
ATOM     95  C   UNL     1      -3.726 -12.761   9.256  1.00  0.00     0.059 A 
ATOM     96  F   UNL     1      -2.353 -11.557  10.733  1.00  0.00    -0.206 F 
ATOM     97  C   UNL     1      -4.884 -12.814   8.477  1.00  0.00     0.060 A 
BRANCH  97  98
ATOM     98  S   UNL     1      -5.012 -13.957   7.080  1.00  0.00     0.124 S 
ATOM     99  O   UNL     1      -6.291 -14.611   7.334  1.00  0.00    -0.237 OA
ATOM    100  O   UNL     1      -4.987 -13.040   5.942  1.00  0.00    -0.237 OA
ATOM    101  O   UNL     1      -3.832 -14.801   7.230  1.00  0.00    -0.744 OA
ENDBRANCH  97  98
ENDBRANCH  65  90
BRANCH  77 102
ATOM    102  C   UNL     1      -0.084  -7.035  14.672  1.00  0.00     0.058 A 
ATOM    103  C   UNL     1       0.005  -8.134  15.544  1.00  0.00     0.135 A 
ATOM    104  C   UNL     1       0.631  -5.881  15.068  1.00  0.00     0.135 A 
ATOM    105  F   UNL     1      -0.537  -9.319  15.226  1.00  0.00    -0.206 F 
ATOM    106  C   UNL     1       0.692  -8.073  16.760  1.00  0.00     0.059 A 
ATOM    107  C   UNL     1       1.364  -5.814  16.252  1.00  0.00     0.059 A 
ATOM    108  F   UNL     1       0.642  -4.776  14.307  1.00  0.00    -0.206 F 
ATOM    109  C   UNL     1       1.366  -6.907  17.108  1.00  0.00     0.060 A 
BRANCH 109 110
ATOM    110  S   UNL     1       2.297  -6.825  18.651  1.00  0.00     0.124 S 
ATOM    111  O   UNL     1       1.322  -6.212  19.548  1.00  0.00    -0.237 OA
ATOM    112  O   UNL     1       2.608  -8.225  18.923  1.00  0.00    -0.237 OA
ATOM    113  O   UNL     1       3.444  -5.994  18.299  1.00  0.00    -0.744 OA
ENDBRANCH 109 110
ENDBRANCH  77 102
ENDBRANCH  51  52
ENDBRANCH  43  46
ENDBRANCH  41  42
ENDBRANCH  40  41
ENDBRANCH  39  40
ENDBRANCH   1  39
TORSDOF 23
