REMARK SMILES [NH3+][C@@H](CC(=O)NCCCCCCNC(=O)c1ccc(-c2c3nc(c(-c4c(F)cc(S(=O)(=O)[O-])cc4F)c4ccc([nH]4)c(-c4c(F)cc(S(=O)(=O)[O-])cc4F)c4nc(c(-c5c(F)cc(S(=O)(=O)[O-])cc5F)c5ccc2[nH]5)C=C4)C=C3)cc1)c1cccc2ccccc12
REMARK SMILES IDX 10 1 9 2 8 3 7 4 6 5 4 6 5 7 3 9 2 10 1 11 82 15 83 16 91 17
REMARK SMILES IDX 84 18 86 19 90 20 85 21 87 22 89 23 88 24 11 25 12 26 13 27
REMARK SMILES IDX 14 28 15 30 16 31 17 32 81 33 18 34 80 35 19 36 20 37 21 38
REMARK SMILES IDX 74 39 22 40 79 41 73 42 75 43 23 44 78 45 72 46 71 47 24 49
REMARK SMILES IDX 58 50 37 51 57 52 38 53 41 54 56 55 76 56 39 57 40 58 55 60
REMARK SMILES IDX 77 61 42 62 25 63 26 64 35 65 27 66 28 67 34 68 36 69 29 70
REMARK SMILES IDX 30 71 31 72 32 73 33 74 59 75 60 76 69 77 61 78 62 79 68 80
REMARK SMILES IDX 70 81 63 82 64 83 65 84 66 85 67 86 43 87 44 88 53 89 45 90
REMARK SMILES IDX 46 91 52 92 54 93 47 94 48 95 49 96 50 97 51 98
REMARK H PARENT 6 8 1 12 1 13 1 14 13 29 75 48 41 59
REMARK Flexibility Score: inf
ROOT
ATOM      1  C   UNL     1       1.806   2.886  -4.058  1.00  0.00     0.002 C 
ENDROOT
BRANCH   1   2
ATOM      2  C   UNL     1       0.580   2.343  -3.321  1.00  0.00     0.002 C 
BRANCH   2   3
ATOM      3  C   UNL     1       0.875   1.321  -2.221  1.00  0.00     0.021 C 
BRANCH   3   4
ATOM      4  C   UNL     1       1.834   1.804  -1.135  1.00  0.00     0.116 C 
BRANCH   4   5
ATOM      5  N   UNL     1       1.198   2.755  -0.256  1.00  0.00    -0.356 N 
ATOM      6  C   UNL     1       0.857   2.637   1.050  1.00  0.00     0.226 C 
ATOM      7  O   UNL     1       0.493   3.667   1.627  1.00  0.00    -0.275 OA
ATOM      8  H   UNL     1       0.979   3.621  -0.668  1.00  0.00     0.163 HD
BRANCH   6   9
ATOM      9  C   UNL     1       0.971   1.326   1.811  1.00  0.00     0.170 C 
BRANCH   9  10
ATOM     10  C   UNL     1       0.021   0.128   1.527  1.00  0.00     0.222 C 
BRANCH  10  11
ATOM     11  N   UNL     1       0.501  -0.723   0.437  1.00  0.00    -0.351 N 
ATOM     12  H   UNL     1       1.516  -0.801   0.489  1.00  0.00     0.345 HD
ATOM     13  H   UNL     1       0.236  -0.311  -0.458  1.00  0.00     0.345 HD
ATOM     14  H   UNL     1       0.084  -1.650   0.521  1.00  0.00     0.345 HD
ENDBRANCH  10  11
BRANCH  10  15
ATOM     15  C   UNL     1      -1.508   0.311   1.540  1.00  0.00     0.017 A 
ATOM     16  C   UNL     1      -2.070   1.592   1.690  1.00  0.00     0.010 A 
ATOM     17  C   UNL     1      -2.406  -0.817   1.577  1.00  0.00    -0.009 A 
ATOM     18  C   UNL     1      -3.412   1.779   2.006  1.00  0.00     0.001 A 
ATOM     19  C   UNL     1      -3.756  -0.608   1.976  1.00  0.00    -0.018 A 
ATOM     20  C   UNL     1      -2.065  -2.152   1.237  1.00  0.00     0.009 A 
ATOM     21  C   UNL     1      -4.233   0.683   2.208  1.00  0.00     0.009 A 
ATOM     22  C   UNL     1      -4.638  -1.689   2.132  1.00  0.00     0.009 A 
ATOM     23  C   UNL     1      -2.981  -3.207   1.303  1.00  0.00     0.001 A 
ATOM     24  C   UNL     1      -4.259  -2.981   1.786  1.00  0.00     0.001 A 
ENDBRANCH  10  15
ENDBRANCH   9  10
ENDBRANCH   6   9
ENDBRANCH   4   5
ENDBRANCH   3   4
ENDBRANCH   2   3
ENDBRANCH   1   2
BRANCH   1  25
ATOM     25  C   UNL     1       2.761   1.823  -4.605  1.00  0.00     0.021 C 
BRANCH  25  26
ATOM     26  C   UNL     1       2.122   0.817  -5.558  1.00  0.00     0.116 C 
BRANCH  26  27
ATOM     27  N   UNL     1       1.591   1.458  -6.749  1.00  0.00    -0.352 N 
ATOM     28  C   UNL     1       1.910   1.248  -8.068  1.00  0.00     0.251 C 
ATOM     29  H   UNL     1       0.901   2.142  -6.586  1.00  0.00     0.163 HD
ATOM     30  O   UNL     1       1.521   2.035  -8.924  1.00  0.00    -0.269 OA
BRANCH  28  31
ATOM     31  C   UNL     1       2.738   0.083  -8.449  1.00  0.00     0.039 A 
ATOM     32  C   UNL     1       3.781   0.265  -9.359  1.00  0.00     0.014 A 
ATOM     33  C   UNL     1       2.480  -1.185  -7.918  1.00  0.00     0.014 A 
ATOM     34  C   UNL     1       4.606  -0.814  -9.689  1.00  0.00     0.010 A 
ATOM     35  C   UNL     1       3.346  -2.240  -8.193  1.00  0.00     0.010 A 
ATOM     36  C   UNL     1       4.418  -2.067  -9.081  1.00  0.00    -0.014 A 
BRANCH  36  37
ATOM     37  C   UNL     1       5.345  -3.197  -9.352  1.00  0.00     0.031 A 
ATOM     38  C   UNL     1       4.842  -4.453 -10.011  1.00  0.00     0.074 A 
ATOM     39  C   UNL     1       6.627  -3.114  -8.943  1.00  0.00     0.049 A 
ATOM     40  N   UNL     1       5.486  -5.560 -10.274  1.00  0.00    -0.248 NA
ATOM     41  C   UNL     1       3.423  -4.478 -10.405  1.00  0.00     0.031 C 
ATOM     42  C   UNL     1       7.218  -1.970  -8.244  1.00  0.00     0.029 A 
ATOM     43  N   UNL     1       7.662  -4.009  -9.043  1.00  0.00    -0.354 N 
ATOM     44  C   UNL     1       4.554  -6.416 -10.849  1.00  0.00     0.074 A 
ATOM     45  C   UNL     1       3.287  -5.718 -10.853  1.00  0.00     0.031 C 
ATOM     46  C   UNL     1       8.512  -2.226  -7.995  1.00  0.00     0.029 A 
ATOM     47  C   UNL     1       8.835  -3.565  -8.477  1.00  0.00     0.049 A 
ATOM     48  H   UNL     1       7.574  -4.888  -9.479  1.00  0.00     0.167 HD
ATOM     49  C   UNL     1       4.742  -7.662 -11.345  1.00  0.00     0.037 A 
ATOM     50  C   UNL     1      10.031  -4.171  -8.348  1.00  0.00     0.037 A 
ATOM     51  C   UNL     1       6.013  -8.340 -11.360  1.00  0.00     0.049 A 
ATOM     52  C   UNL     1      10.214  -5.555  -8.910  1.00  0.00     0.074 A 
ATOM     53  C   UNL     1       6.322  -9.574 -11.905  1.00  0.00     0.029 A 
ATOM     54  N   UNL     1       7.183  -7.849 -10.798  1.00  0.00    -0.354 N 
ATOM     55  N   UNL     1       9.340  -6.318  -9.523  1.00  0.00    -0.248 NA
ATOM     56  C   UNL     1      11.547  -6.159  -8.772  1.00  0.00     0.031 C 
ATOM     57  C   UNL     1       7.663  -9.853 -11.626  1.00  0.00     0.029 A 
ATOM     58  C   UNL     1       8.207  -8.768 -10.958  1.00  0.00     0.049 A 
ATOM     59  H   UNL     1       7.271  -6.976 -10.352  1.00  0.00     0.167 HD
ATOM     60  C   UNL     1      10.023  -7.480  -9.864  1.00  0.00     0.074 A 
ATOM     61  C   UNL     1      11.386  -7.313  -9.406  1.00  0.00     0.031 C 
ATOM     62  C   UNL     1       9.562  -8.586 -10.500  1.00  0.00     0.037 A 
BRANCH  49  63
ATOM     63  C   UNL     1       3.550  -8.381 -11.918  1.00  0.00     0.058 A 
ATOM     64  C   UNL     1       2.954  -7.982 -13.125  1.00  0.00     0.135 A 
ATOM     65  C   UNL     1       3.034  -9.523 -11.282  1.00  0.00     0.135 A 
ATOM     66  F   UNL     1       3.397  -6.890 -13.769  1.00  0.00    -0.206 F 
ATOM     67  C   UNL     1       1.878  -8.675 -13.670  1.00  0.00     0.059 A 
ATOM     68  C   UNL     1       1.977 -10.248 -11.824  1.00  0.00     0.059 A 
ATOM     69  F   UNL     1       3.563  -9.949 -10.124  1.00  0.00    -0.206 F 
ATOM     70  C   UNL     1       1.399  -9.810 -13.014  1.00  0.00     0.060 A 
BRANCH  70  71
ATOM     71  S   UNL     1       0.018 -10.710 -13.749  1.00  0.00     0.124 S 
ATOM     72  O   UNL     1      -1.089  -9.787 -13.515  1.00  0.00    -0.237 OA
ATOM     73  O   UNL     1       0.442 -10.851 -15.138  1.00  0.00    -0.237 OA
ATOM     74  O   UNL     1      -0.028 -11.951 -12.981  1.00  0.00    -0.744 OA
ENDBRANCH  70  71
ENDBRANCH  49  63
BRANCH  50  75
ATOM     75  C   UNL     1      11.150  -3.471  -7.660  1.00  0.00     0.058 A 
ATOM     76  C   UNL     1      12.279  -3.036  -8.369  1.00  0.00     0.135 A 
ATOM     77  C   UNL     1      11.110  -3.220  -6.280  1.00  0.00     0.135 A 
ATOM     78  F   UNL     1      12.368  -3.258  -9.690  1.00  0.00    -0.206 F 
ATOM     79  C   UNL     1      13.338  -2.396  -7.733  1.00  0.00     0.059 A 
ATOM     80  C   UNL     1      12.143  -2.555  -5.626  1.00  0.00     0.059 A 
ATOM     81  F   UNL     1      10.044  -3.599  -5.557  1.00  0.00    -0.206 F 
ATOM     82  C   UNL     1      13.259  -2.159  -6.360  1.00  0.00     0.060 A 
BRANCH  82  83
ATOM     83  S   UNL     1      14.621  -1.292  -5.550  1.00  0.00     0.124 S 
ATOM     84  O   UNL     1      15.659  -2.315  -5.545  1.00  0.00    -0.237 OA
ATOM     85  O   UNL     1      14.841  -0.162  -6.447  1.00  0.00    -0.237 OA
ATOM     86  O   UNL     1      14.068  -0.946  -4.244  1.00  0.00    -0.744 OA
ENDBRANCH  82  83
ENDBRANCH  50  75
BRANCH  62  87
ATOM     87  C   UNL     1      10.546  -9.694 -10.766  1.00  0.00     0.058 A 
ATOM     88  C   UNL     1      11.042 -10.506  -9.735  1.00  0.00     0.135 A 
ATOM     89  C   UNL     1      10.957  -9.977 -12.079  1.00  0.00     0.135 A 
ATOM     90  F   UNL     1      10.686 -10.274  -8.461  1.00  0.00    -0.206 F 
ATOM     91  C   UNL     1      11.930 -11.545  -9.992  1.00  0.00     0.059 A 
ATOM     92  C   UNL     1      11.820 -11.031 -12.363  1.00  0.00     0.059 A 
ATOM     93  F   UNL     1      10.504  -9.238 -13.104  1.00  0.00    -0.206 F 
ATOM     94  C   UNL     1      12.312 -11.801 -11.311  1.00  0.00     0.060 A 
BRANCH  94  95
ATOM     95  S   UNL     1      13.440 -13.173 -11.633  1.00  0.00     0.124 S 
ATOM     96  O   UNL     1      14.702 -12.639 -11.131  1.00  0.00    -0.237 OA
ATOM     97  O   UNL     1      12.851 -14.253 -10.847  1.00  0.00    -0.237 OA
ATOM     98  O   UNL     1      13.362 -13.344 -13.081  1.00  0.00    -0.744 OA
ENDBRANCH  94  95
ENDBRANCH  62  87
ENDBRANCH  36  37
ENDBRANCH  28  31
ENDBRANCH  26  27
ENDBRANCH  25  26
ENDBRANCH   1  25
TORSDOF 19
