REMARK SMILES CC(C)CCc1cc2c(cc1Cl)C=C(C(=O)NCCCCCCNC(=O)c1ccc(-c3c4nc(c(-c5c(F)cc(S(=O)(=O)[O-])cc5F)c5ccc([nH]5)c(-c5c(F)cc(S(=O)(=O)[O-])cc5F)c5nc(c(-c6c(F)cc(S(=O)(=O)[O-])cc6F)c6ccc3[nH]6)C=C5)C=C4)cc1)[C@H](C(F)(F)F)O2
REMARK SMILES IDX 20 1 19 2 18 3 17 4 15 5 16 6 14 8 6 9 7 10 11 11 8 12 10 13
REMARK SMILES IDX 12 14 9 15 98 16 13 17 93 18 5 19 4 20 2 21 1 22 3 23 94 24
REMARK SMILES IDX 95 25 96 26 97 27 21 28 22 29 23 30 24 31 25 32 26 34 27 35
REMARK SMILES IDX 28 36 92 37 29 38 91 39 30 40 31 41 32 42 85 43 33 44 90 45
REMARK SMILES IDX 84 46 86 47 34 48 89 49 83 50 82 51 35 53 69 54 48 55 68 56
REMARK SMILES IDX 49 57 52 58 67 59 87 60 50 61 51 62 66 64 88 65 53 66 36 67
REMARK SMILES IDX 37 68 46 69 38 70 39 71 45 72 47 73 40 74 41 75 42 76 43 77
REMARK SMILES IDX 44 78 70 79 71 80 80 81 72 82 73 83 79 84 81 85 74 86 75 87
REMARK SMILES IDX 76 88 77 89 78 90 54 91 55 92 64 93 56 94 57 95 63 96 65 97
REMARK SMILES IDX 58 98 59 99 60 100 61 101 62 102
REMARK H PARENT 17 7 24 33 86 52 52 63
REMARK Flexibility Score: inf
ROOT
ATOM      1  C   UNL     1       3.674  -8.754   7.379  1.00  0.00     0.002 C 
ENDROOT
BRANCH   1   2
ATOM      2  C   UNL     1       3.076  -7.503   6.729  1.00  0.00     0.021 C 
BRANCH   2   3
ATOM      3  C   UNL     1       3.319  -7.403   5.224  1.00  0.00     0.116 C 
BRANCH   3   4
ATOM      4  N   UNL     1       2.328  -8.149   4.463  1.00  0.00    -0.352 N 
ATOM      5  C   UNL     1       1.320  -7.877   3.601  1.00  0.00     0.251 C 
ATOM      6  O   UNL     1       0.760  -8.865   3.113  1.00  0.00    -0.270 OA
ATOM      7  H   UNL     1       2.414  -9.117   4.619  1.00  0.00     0.163 HD
BRANCH   5   8
ATOM      8  C   UNL     1       0.854  -6.509   3.218  1.00  0.00     0.067 C 
ATOM      9  C   UNL     1      -1.328  -2.560   0.921  1.00  0.00    -0.026 A 
ATOM     10  C   UNL     1      -0.479  -2.744   2.014  1.00  0.00     0.052 A 
ATOM     11  C   UNL     1      -1.808  -3.718   0.281  1.00  0.00     0.045 A 
ATOM     12  C   UNL     1      -0.028  -4.007   2.378  1.00  0.00     0.128 A 
ATOM     13  C   UNL     1      -1.396  -5.000   0.687  1.00  0.00     0.032 A 
ATOM     14  Cl  UNL     1      -2.923  -3.622  -1.039  1.00  0.00    -0.084 Cl
ATOM     15  C   UNL     1      -0.478  -5.147   1.729  1.00  0.00     0.019 A 
ATOM     16  O   UNL     1       0.921  -4.011   3.349  1.00  0.00    -0.475 OA
ATOM     17  C   UNL     1       0.047  -6.443   2.140  1.00  0.00     0.025 C 
ATOM     18  C   UNL     1       1.189  -5.271   4.003  1.00  0.00     0.314 C 
BRANCH   9  19
ATOM     19  C   UNL     1      -1.687  -1.167   0.439  1.00  0.00     0.037 C 
BRANCH  19  20
ATOM     20  C   UNL     1      -1.059   0.040   1.172  1.00  0.00     0.008 C 
BRANCH  20  21
ATOM     21  C   UNL     1       0.474   0.211   1.033  1.00  0.00    -0.017 C 
ATOM     22  C   UNL     1       0.902   0.565  -0.388  1.00  0.00     0.007 C 
ATOM     23  C   UNL     1       0.963   1.277   2.019  1.00  0.00     0.007 C 
ENDBRANCH  20  21
ENDBRANCH  19  20
ENDBRANCH   9  19
BRANCH  18  24
ATOM     24  C   UNL     1       0.556  -5.226   5.401  1.00  0.00     0.429 C 
ATOM     25  F   UNL     1       0.281  -6.453   5.895  1.00  0.00    -0.167 F 
ATOM     26  F   UNL     1       1.397  -4.627   6.280  1.00  0.00    -0.167 F 
ATOM     27  F   UNL     1      -0.607  -4.533   5.418  1.00  0.00    -0.167 F 
ENDBRANCH  18  24
ENDBRANCH   5   8
ENDBRANCH   3   4
ENDBRANCH   2   3
ENDBRANCH   1   2
BRANCH   1  28
ATOM     28  C   UNL     1       5.194  -8.900   7.248  1.00  0.00     0.002 C 
BRANCH  28  29
ATOM     29  C   UNL     1       6.010  -7.666   7.638  1.00  0.00     0.021 C 
BRANCH  29  30
ATOM     30  C   UNL     1       5.771  -7.159   9.056  1.00  0.00     0.116 C 
BRANCH  30  31
ATOM     31  N   UNL     1       6.170  -8.125  10.068  1.00  0.00    -0.352 N 
ATOM     32  C   UNL     1       6.999  -7.949  11.152  1.00  0.00     0.251 C 
ATOM     33  H   UNL     1       5.796  -9.029   9.962  1.00  0.00     0.163 HD
ATOM     34  O   UNL     1       7.357  -8.911  11.819  1.00  0.00    -0.269 OA
BRANCH  32  35
ATOM     35  C   UNL     1       7.478  -6.588  11.480  1.00  0.00     0.039 A 
ATOM     36  C   UNL     1       6.583  -5.517  11.526  1.00  0.00     0.014 A 
ATOM     37  C   UNL     1       8.841  -6.380  11.706  1.00  0.00     0.014 A 
ATOM     38  C   UNL     1       7.070  -4.220  11.637  1.00  0.00     0.010 A 
ATOM     39  C   UNL     1       9.318  -5.080  11.897  1.00  0.00     0.010 A 
ATOM     40  C   UNL     1       8.443  -3.985  11.818  1.00  0.00    -0.014 A 
BRANCH  40  41
ATOM     41  C   UNL     1       8.938  -2.587  11.912  1.00  0.00     0.031 A 
ATOM     42  C   UNL     1       9.840  -2.016  10.850  1.00  0.00     0.074 A 
ATOM     43  C   UNL     1       8.517  -1.810  12.929  1.00  0.00     0.049 A 
ATOM     44  N   UNL     1      10.348  -0.813  10.760  1.00  0.00    -0.248 NA
ATOM     45  C   UNL     1      10.226  -2.910   9.746  1.00  0.00     0.031 C 
ATOM     46  C   UNL     1       7.631  -2.247  14.010  1.00  0.00     0.029 A 
ATOM     47  N   UNL     1       8.752  -0.487  13.207  1.00  0.00    -0.354 N 
ATOM     48  C   UNL     1      11.122  -0.808   9.605  1.00  0.00     0.074 A 
ATOM     49  C   UNL     1      11.042  -2.138   9.040  1.00  0.00     0.031 C 
ATOM     50  C   UNL     1       7.350  -1.200  14.800  1.00  0.00     0.029 A 
ATOM     51  C   UNL     1       8.085  -0.034  14.321  1.00  0.00     0.049 A 
ATOM     52  H   UNL     1       9.341   0.082  12.662  1.00  0.00     0.167 HD
ATOM     53  C   UNL     1      11.823   0.215   9.059  1.00  0.00     0.037 A 
ATOM     54  C   UNL     1       8.072   1.182  14.900  1.00  0.00     0.037 A 
ATOM     55  C   UNL     1      11.882   1.542   9.616  1.00  0.00     0.049 A 
ATOM     56  C   UNL     1       8.891   2.287  14.299  1.00  0.00     0.074 A 
ATOM     57  C   UNL     1      12.555   2.650   9.128  1.00  0.00     0.029 A 
ATOM     58  N   UNL     1      11.243   1.945  10.779  1.00  0.00    -0.354 N 
ATOM     59  N   UNL     1       9.623   2.269  13.210  1.00  0.00    -0.248 NA
ATOM     60  C   UNL     1       8.896   3.572  15.010  1.00  0.00     0.031 C 
ATOM     61  C   UNL     1      12.352   3.712  10.017  1.00  0.00     0.029 A 
ATOM     62  C   UNL     1      11.520   3.278  11.036  1.00  0.00     0.049 A 
ATOM     63  H   UNL     1      10.676   1.368  11.340  1.00  0.00     0.167 HD
ATOM     64  C   UNL     1      10.172   3.541  13.103  1.00  0.00     0.074 A 
ATOM     65  C   UNL     1       9.671   4.309  14.225  1.00  0.00     0.031 C 
ATOM     66  C   UNL     1      11.020   4.026  12.162  1.00  0.00     0.037 A 
BRANCH  53  67
ATOM     67  C   UNL     1      12.592  -0.058   7.796  1.00  0.00     0.058 A 
ATOM     68  C   UNL     1      11.945  -0.216   6.560  1.00  0.00     0.135 A 
ATOM     69  C   UNL     1      13.996  -0.111   7.811  1.00  0.00     0.135 A 
ATOM     70  F   UNL     1      10.604  -0.191   6.491  1.00  0.00    -0.206 F 
ATOM     71  C   UNL     1      12.660  -0.436   5.388  1.00  0.00     0.059 A 
ATOM     72  C   UNL     1      14.733  -0.308   6.646  1.00  0.00     0.059 A 
ATOM     73  F   UNL     1      14.665   0.034   8.965  1.00  0.00    -0.206 F 
ATOM     74  C   UNL     1      14.055  -0.481   5.441  1.00  0.00     0.060 A 
BRANCH  74  75
ATOM     75  S   UNL     1      14.965  -0.763   3.907  1.00  0.00     0.124 S 
ATOM     76  O   UNL     1      14.668  -2.169   3.648  1.00  0.00    -0.237 OA
ATOM     77  O   UNL     1      14.345   0.193   2.996  1.00  0.00    -0.237 OA
ATOM     78  O   UNL     1      16.348  -0.472   4.272  1.00  0.00    -0.744 OA
ENDBRANCH  74  75
ENDBRANCH  53  67
BRANCH  54  79
ATOM     79  C   UNL     1       7.251   1.405  16.118  1.00  0.00     0.058 A 
ATOM     80  C   UNL     1       6.086   2.182  16.068  1.00  0.00     0.135 A 
ATOM     81  C   UNL     1       7.587   0.804  17.341  1.00  0.00     0.135 A 
ATOM     82  F   UNL     1       5.728   2.782  14.922  1.00  0.00    -0.206 F 
ATOM     83  C   UNL     1       5.279   2.356  17.187  1.00  0.00     0.059 A 
ATOM     84  C   UNL     1       6.784   0.943  18.468  1.00  0.00     0.059 A 
ATOM     85  F   UNL     1       8.686   0.040  17.435  1.00  0.00    -0.206 F 
ATOM     86  C   UNL     1       5.633   1.724  18.382  1.00  0.00     0.060 A 
BRANCH  86  87
ATOM     87  S   UNL     1       4.538   1.893  19.807  1.00  0.00     0.124 S 
ATOM     88  O   UNL     1       4.787   3.273  20.207  1.00  0.00    -0.237 OA
ATOM     89  O   UNL     1       3.228   1.624  19.221  1.00  0.00    -0.237 OA
ATOM     90  O   UNL     1       5.025   0.870  20.728  1.00  0.00    -0.744 OA
ENDBRANCH  86  87
ENDBRANCH  54  79
BRANCH  66  91
ATOM     91  C   UNL     1      11.461   5.454  12.302  1.00  0.00     0.058 A 
ATOM     92  C   UNL     1      12.410   5.834  13.264  1.00  0.00     0.135 A 
ATOM     93  C   UNL     1      10.978   6.441  11.428  1.00  0.00     0.135 A 
ATOM     94  F   UNL     1      12.895   4.929  14.128  1.00  0.00    -0.206 F 
ATOM     95  C   UNL     1      12.856   7.147  13.362  1.00  0.00     0.059 A 
ATOM     96  C   UNL     1      11.427   7.756  11.493  1.00  0.00     0.059 A 
ATOM     97  F   UNL     1      10.075   6.126  10.486  1.00  0.00    -0.206 F 
ATOM     98  C   UNL     1      12.362   8.101  12.469  1.00  0.00     0.060 A 
BRANCH  98  99
ATOM     99  S   UNL     1      12.985   9.792  12.580  1.00  0.00     0.124 S 
ATOM    100  O   UNL     1      12.332  10.266  13.796  1.00  0.00    -0.237 OA
ATOM    101  O   UNL     1      14.427   9.588  12.673  1.00  0.00    -0.237 OA
ATOM    102  O   UNL     1      12.523  10.406  11.339  1.00  0.00    -0.744 OA
ENDBRANCH  98  99
ENDBRANCH  66  91
ENDBRANCH  40  41
ENDBRANCH  32  35
ENDBRANCH  30  31
ENDBRANCH  29  30
ENDBRANCH  28  29
ENDBRANCH   1  28
TORSDOF 20
