REMARK SMILES CCc1nc(N2CCC[C@@H](C(=O)NCCCCCCNC(=O)c3ccc(-c4c5nc(c(-c6c(F)cc(S(=O)(=O)[O-])cc6F)c6ccc([nH]6)c(-c6c(F)cc(S(=O)(=O)[O-])cc6F)c6nc(c(-c7c(F)cc(S(=O)(=O)[O-])cc7F)c7ccc4[nH]7)C=C6)C=C5)cc3)C2)c2c(C)c(C)oc2n1
REMARK SMILES IDX 17 1 16 2 15 3 14 4 13 5 11 6 12 7 10 9 6 10 7 11 89 12 8 13
REMARK SMILES IDX 9 14 5 15 3 16 4 17 97 18 96 19 90 20 95 21 91 22 93 23
REMARK SMILES IDX 92 24 94 25 2 26 1 27 18 28 19 29 20 30 21 31 22 33 23 34
REMARK SMILES IDX 24 35 88 36 25 37 87 38 26 39 27 40 28 41 81 42 29 43 86 44
REMARK SMILES IDX 80 45 82 46 30 47 85 48 79 49 78 50 31 52 65 53 44 54 64 55
REMARK SMILES IDX 45 56 48 57 63 58 83 59 46 60 47 61 62 63 84 64 49 65 32 66
REMARK SMILES IDX 33 67 42 68 34 69 35 70 41 71 43 72 36 73 37 74 38 75 39 76
REMARK SMILES IDX 40 77 66 78 67 79 76 80 68 81 69 82 75 83 77 84 70 85 71 86
REMARK SMILES IDX 72 87 73 88 74 89 50 90 51 91 60 92 52 93 53 94 59 95 61 96
REMARK SMILES IDX 54 97 55 98 56 99 57 100 58 101
REMARK H PARENT 13 8 20 32 82 51 48 62
REMARK Flexibility Score: inf
ROOT
ATOM      1  C   UNL     1      -3.953   0.178   9.673  1.00  0.00     0.002 C 
ENDROOT
BRANCH   1   2
ATOM      2  C   UNL     1      -2.540  -0.111  10.198  1.00  0.00     0.002 C 
BRANCH   2   3
ATOM      3  C   UNL     1      -1.667  -1.043   9.340  1.00  0.00     0.021 C 
BRANCH   3   4
ATOM      4  C   UNL     1      -1.339  -0.546   7.926  1.00  0.00     0.116 C 
BRANCH   4   5
ATOM      5  N   UNL     1      -0.477   0.630   7.922  1.00  0.00    -0.356 N 
ATOM      6  C   UNL     1       0.794   0.812   7.461  1.00  0.00     0.224 C 
ATOM      7  O   UNL     1       1.264   1.952   7.495  1.00  0.00    -0.275 OA
ATOM      8  H   UNL     1      -0.884   1.433   8.321  1.00  0.00     0.163 HD
BRANCH   6   9
ATOM      9  C   UNL     1       1.594  -0.351   6.904  1.00  0.00     0.098 C 
ATOM     10  N   UNL     1       2.392  -1.411   4.918  1.00  0.00    -0.355 N 
ATOM     11  C   UNL     1       3.804  -1.448   5.268  1.00  0.00     0.118 C 
ATOM     12  C   UNL     1       1.638  -0.253   5.374  1.00  0.00     0.131 C 
ATOM     13  C   UNL     1       3.951  -1.382   6.792  1.00  0.00     0.022 C 
ATOM     14  C   UNL     1       3.030  -0.356   7.469  1.00  0.00     0.017 C 
BRANCH  10  15
ATOM     15  C   UNL     1       1.945  -2.143   3.842  1.00  0.00     0.143 A 
ATOM     16  C   UNL     1       1.177  -2.263   1.627  1.00  0.00     0.134 A 
ATOM     17  N   UNL     1       1.585  -1.524   2.688  1.00  0.00    -0.215 NA
ATOM     18  N   UNL     1       1.076  -3.600   1.583  1.00  0.00    -0.197 NA
ATOM     19  C   UNL     1       1.371  -4.168   2.755  1.00  0.00     0.231 A 
ATOM     20  C   UNL     1       1.777  -3.535   3.917  1.00  0.00     0.086 A 
ATOM     21  O   UNL     1       1.283  -5.512   2.962  1.00  0.00    -0.443 OA
ATOM     22  C   UNL     1       1.851  -4.556   4.923  1.00  0.00     0.004 A 
ATOM     23  C   UNL     1       1.574  -5.742   4.270  1.00  0.00     0.107 A 
ATOM     24  C   UNL     1       2.113  -4.404   6.372  1.00  0.00     0.049 C 
ATOM     25  C   UNL     1       1.497  -7.147   4.721  1.00  0.00     0.088 C 
BRANCH  16  26
ATOM     26  C   UNL     1       0.700  -1.552   0.383  1.00  0.00     0.074 C 
ATOM     27  C   UNL     1       1.158  -0.111   0.236  1.00  0.00     0.012 C 
ENDBRANCH  16  26
ENDBRANCH  10  15
ENDBRANCH   6   9
ENDBRANCH   4   5
ENDBRANCH   3   4
ENDBRANCH   2   3
ENDBRANCH   1   2
BRANCH   1  28
ATOM     28  C   UNL     1      -4.919  -1.021   9.581  1.00  0.00     0.021 C 
BRANCH  28  29
ATOM     29  C   UNL     1      -5.465  -1.580  10.914  1.00  0.00     0.116 C 
BRANCH  29  30
ATOM     30  N   UNL     1      -6.291  -0.596  11.598  1.00  0.00    -0.352 N 
ATOM     31  C   UNL     1      -7.530  -0.647  12.184  1.00  0.00     0.251 C 
ATOM     32  H   UNL     1      -5.872   0.293  11.652  1.00  0.00     0.163 HD
ATOM     33  O   UNL     1      -8.074   0.433  12.425  1.00  0.00    -0.269 OA
BRANCH  31  34
ATOM     34  C   UNL     1      -8.249  -1.896  12.552  1.00  0.00     0.039 A 
ATOM     35  C   UNL     1      -9.656  -1.865  12.517  1.00  0.00     0.014 A 
ATOM     36  C   UNL     1      -7.620  -3.016  13.093  1.00  0.00     0.014 A 
ATOM     37  C   UNL     1     -10.425  -2.946  12.973  1.00  0.00     0.010 A 
ATOM     38  C   UNL     1      -8.395  -4.096  13.558  1.00  0.00     0.010 A 
ATOM     39  C   UNL     1      -9.804  -4.087  13.484  1.00  0.00    -0.014 A 
BRANCH  39  40
ATOM     40  C   UNL     1     -10.628  -5.296  13.774  1.00  0.00     0.031 A 
ATOM     41  C   UNL     1     -10.097  -6.547  13.175  1.00  0.00     0.074 A 
ATOM     42  C   UNL     1     -11.454  -5.466  14.835  1.00  0.00     0.049 A 
ATOM     43  N   UNL     1      -9.111  -7.156  13.753  1.00  0.00    -0.248 NA
ATOM     44  C   UNL     1     -10.421  -7.082  11.858  1.00  0.00     0.031 C 
ATOM     45  C   UNL     1     -11.435  -4.630  16.040  1.00  0.00     0.029 A 
ATOM     46  N   UNL     1     -12.320  -6.499  15.162  1.00  0.00    -0.354 N 
ATOM     47  C   UNL     1      -8.641  -8.121  12.893  1.00  0.00     0.074 A 
ATOM     48  C   UNL     1      -9.495  -8.052  11.728  1.00  0.00     0.031 C 
ATOM     49  C   UNL     1     -12.140  -5.246  17.013  1.00  0.00     0.029 A 
ATOM     50  C   UNL     1     -12.788  -6.443  16.476  1.00  0.00     0.049 A 
ATOM     51  H   UNL     1     -12.580  -7.205  14.527  1.00  0.00     0.167 HD
ATOM     52  C   UNL     1      -7.600  -8.915  13.262  1.00  0.00     0.037 A 
ATOM     53  C   UNL     1     -13.184  -7.485  17.260  1.00  0.00     0.037 A 
ATOM     54  C   UNL     1      -7.100  -8.723  14.608  1.00  0.00     0.049 A 
ATOM     55  C   UNL     1     -11.923  -8.285  17.436  1.00  0.00     0.074 A 
ATOM     56  C   UNL     1      -5.904  -8.600  15.283  1.00  0.00     0.029 A 
ATOM     57  N   UNL     1      -8.069  -8.601  15.563  1.00  0.00    -0.354 N 
ATOM     58  N   UNL     1     -10.940  -8.001  18.251  1.00  0.00    -0.248 NA
ATOM     59  C   UNL     1     -11.639  -9.374  16.486  1.00  0.00     0.031 C 
ATOM     60  C   UNL     1      -6.214  -8.427  16.678  1.00  0.00     0.029 A 
ATOM     61  C   UNL     1      -7.589  -8.497  16.834  1.00  0.00     0.049 A 
ATOM     62  H   UNL     1      -9.031  -8.590  15.352  1.00  0.00     0.167 HD
ATOM     63  C   UNL     1      -9.850  -8.690  17.737  1.00  0.00     0.074 A 
ATOM     64  C   UNL     1     -10.371  -9.638  16.774  1.00  0.00     0.031 C 
ATOM     65  C   UNL     1      -8.559  -8.282  17.883  1.00  0.00     0.037 A 
BRANCH  52  66
ATOM     66  C   UNL     1      -7.183 -10.112  12.506  1.00  0.00     0.058 A 
ATOM     67  C   UNL     1      -7.670 -11.359  12.933  1.00  0.00     0.135 A 
ATOM     68  C   UNL     1      -6.195 -10.090  11.519  1.00  0.00     0.135 A 
ATOM     69  F   UNL     1      -8.627 -11.419  13.874  1.00  0.00    -0.206 F 
ATOM     70  C   UNL     1      -7.162 -12.550  12.435  1.00  0.00     0.059 A 
ATOM     71  C   UNL     1      -5.674 -11.274  10.997  1.00  0.00     0.059 A 
ATOM     72  F   UNL     1      -5.697  -8.922  11.084  1.00  0.00    -0.206 F 
ATOM     73  C   UNL     1      -6.149 -12.498  11.479  1.00  0.00     0.060 A 
BRANCH  73  74
ATOM     74  S   UNL     1      -5.443 -14.059  10.910  1.00  0.00     0.124 S 
ATOM     75  O   UNL     1      -4.879 -14.603  12.141  1.00  0.00    -0.237 OA
ATOM     76  O   UNL     1      -6.618 -14.748  10.387  1.00  0.00    -0.237 OA
ATOM     77  O   UNL     1      -4.467 -13.643   9.906  1.00  0.00    -0.744 OA
ENDBRANCH  73  74
ENDBRANCH  52  66
BRANCH  53  78
ATOM     78  C   UNL     1     -14.511  -8.144  17.000  1.00  0.00     0.058 A 
ATOM     79  C   UNL     1     -15.642  -7.360  16.694  1.00  0.00     0.135 A 
ATOM     80  C   UNL     1     -14.746  -9.529  17.100  1.00  0.00     0.135 A 
ATOM     81  F   UNL     1     -15.571  -6.020  16.739  1.00  0.00    -0.206 F 
ATOM     82  C   UNL     1     -16.872  -7.921  16.344  1.00  0.00     0.059 A 
ATOM     83  C   UNL     1     -15.952 -10.119  16.717  1.00  0.00     0.059 A 
ATOM     84  F   UNL     1     -13.805 -10.359  17.569  1.00  0.00    -0.206 F 
ATOM     85  C   UNL     1     -17.001  -9.306  16.307  1.00  0.00     0.060 A 
BRANCH  85  86
ATOM     86  S   UNL     1     -18.520 -10.028  15.649  1.00  0.00     0.124 S 
ATOM     87  O   UNL     1     -19.489  -9.692  16.691  1.00  0.00    -0.237 OA
ATOM     88  O   UNL     1     -18.672  -9.304  14.387  1.00  0.00    -0.237 OA
ATOM     89  O   UNL     1     -18.198 -11.439  15.519  1.00  0.00    -0.744 OA
ENDBRANCH  85  86
ENDBRANCH  53  78
BRANCH  65  90
ATOM     90  C   UNL     1      -8.235  -7.494  19.093  1.00  0.00     0.058 A 
ATOM     91  C   UNL     1      -8.313  -8.122  20.345  1.00  0.00     0.135 A 
ATOM     92  C   UNL     1      -7.747  -6.183  19.038  1.00  0.00     0.135 A 
ATOM     93  F   UNL     1      -8.753  -9.388  20.444  1.00  0.00    -0.206 F 
ATOM     94  C   UNL     1      -7.882  -7.490  21.501  1.00  0.00     0.059 A 
ATOM     95  C   UNL     1      -7.302  -5.531  20.186  1.00  0.00     0.059 A 
ATOM     96  F   UNL     1      -7.662  -5.533  17.865  1.00  0.00    -0.206 F 
ATOM     97  C   UNL     1      -7.356  -6.202  21.409  1.00  0.00     0.060 A 
BRANCH  97  98
ATOM     98  S   UNL     1      -6.654  -5.469  22.899  1.00  0.00     0.124 S 
ATOM     99  O   UNL     1      -7.828  -5.328  23.755  1.00  0.00    -0.237 OA
ATOM    100  O   UNL     1      -5.689  -6.484  23.312  1.00  0.00    -0.237 OA
ATOM    101  O   UNL     1      -6.070  -4.218  22.426  1.00  0.00    -0.744 OA
ENDBRANCH  97  98
ENDBRANCH  65  90
ENDBRANCH  39  40
ENDBRANCH  31  34
ENDBRANCH  29  30
ENDBRANCH  28  29
ENDBRANCH   1  28
TORSDOF 18
