REMARK SMILES Cc1ccc(Br)cc1C(=O)N1CCO[C@H](CC(=O)NCCCCCCNC(=O)c2ccc(-c3c4nc(c(-c5c(F)cc(S(=O)(=O)[O-])cc5F)c5ccc([nH]5)c(-c5c(F)cc(S(=O)(=O)[O-])cc5F)c5nc(c(-c6c(F)cc(S(=O)(=O)[O-])cc6F)c6ccc3[nH]6)C=C5)C=C4)cc2)C1
REMARK SMILES IDX 22 1 21 2 20 3 19 4 17 5 18 6 16 8 15 9 11 10 12 11 95 12
REMARK SMILES IDX 13 13 14 14 9 15 10 16 8 17 1 18 2 19 3 20 4 21 7 22 5 23
REMARK SMILES IDX 6 24 23 25 24 26 25 27 26 28 27 29 28 31 29 32 30 33 94 34
REMARK SMILES IDX 31 35 93 36 32 37 33 38 34 39 87 40 35 41 92 42 86 43 88 44
REMARK SMILES IDX 36 45 91 46 85 47 84 48 37 50 71 51 50 52 70 53 51 54 54 55
REMARK SMILES IDX 69 56 89 57 52 58 53 59 68 61 90 62 55 63 38 64 39 65 48 66
REMARK SMILES IDX 40 67 41 68 47 69 49 70 42 71 43 72 44 73 45 74 46 75 72 76
REMARK SMILES IDX 73 77 82 78 74 79 75 80 81 81 83 82 76 83 77 84 78 85 79 86
REMARK SMILES IDX 80 87 56 88 57 89 66 90 58 91 59 92 65 93 67 94 60 95 61 96
REMARK SMILES IDX 62 97 63 98 64 99
REMARK H PARENT 19 7 26 30 88 49 54 60
REMARK Flexibility Score: inf
ROOT
ATOM      1  C   UNL     1      10.078  -0.475   3.523  1.00  0.00     0.002 C 
ENDROOT
BRANCH   1   2
ATOM      2  C   UNL     1       9.197   0.156   2.439  1.00  0.00     0.021 C 
BRANCH   2   3
ATOM      3  C   UNL     1       7.803  -0.459   2.398  1.00  0.00     0.116 C 
BRANCH   3   4
ATOM      4  N   UNL     1       7.055  -0.038   3.565  1.00  0.00    -0.356 N 
ATOM      5  C   UNL     1       6.099   0.930   3.627  1.00  0.00     0.222 C 
ATOM      6  O   UNL     1       5.775   1.398   4.717  1.00  0.00    -0.275 OA
ATOM      7  H   UNL     1       7.260  -0.504   4.407  1.00  0.00     0.163 HD
BRANCH   5   8
ATOM      8  C   UNL     1       5.389   1.310   2.356  1.00  0.00     0.133 C 
BRANCH   8   9
ATOM      9  C   UNL     1       5.984   2.498   1.585  1.00  0.00     0.147 C 
ATOM     10  N   UNL     1       4.187   2.406  -0.042  1.00  0.00    -0.334 N 
ATOM     11  C   UNL     1       5.069   2.022  -1.138  1.00  0.00     0.148 C 
ATOM     12  C   UNL     1       4.849   3.290   0.923  1.00  0.00     0.152 C 
ATOM     13  C   UNL     1       6.431   1.507  -0.621  1.00  0.00     0.182 C 
ATOM     14  O   UNL     1       6.949   2.143   0.566  1.00  0.00    -0.374 OA
BRANCH  10  15
ATOM     15  C   UNL     1       2.806   2.311   0.011  1.00  0.00     0.254 C 
ATOM     16  O   UNL     1       2.171   3.282   0.440  1.00  0.00    -0.269 OA
BRANCH  15  17
ATOM     17  C   UNL     1       2.013   1.044  -0.258  1.00  0.00     0.044 A 
ATOM     18  C   UNL     1       3.843  -0.810  -0.265  1.00  0.00     0.045 C 
ATOM     19  C   UNL     1       2.439  -0.305  -0.279  1.00  0.00    -0.038 A 
ATOM     20  C   UNL     1       1.477  -1.345  -0.312  1.00  0.00     0.005 A 
ATOM     21  C   UNL     1       0.114  -1.085  -0.292  1.00  0.00     0.016 A 
ATOM     22  C   UNL     1       0.613   1.273  -0.279  1.00  0.00     0.029 A 
ATOM     23  C   UNL     1      -0.314   0.230  -0.281  1.00  0.00     0.018 A 
ATOM     24  Br  UNL     1      -2.164   0.609  -0.213  1.00  0.00    -0.051 Br
ENDBRANCH  15  17
ENDBRANCH  10  15
ENDBRANCH   8   9
ENDBRANCH   5   8
ENDBRANCH   3   4
ENDBRANCH   2   3
ENDBRANCH   1   2
BRANCH   1  25
ATOM     25  C   UNL     1      10.313  -1.979   3.340  1.00  0.00     0.002 C 
BRANCH  25  26
ATOM     26  C   UNL     1      10.931  -2.360   1.992  1.00  0.00     0.021 C 
BRANCH  26  27
ATOM     27  C   UNL     1      12.275  -1.695   1.722  1.00  0.00     0.116 C 
BRANCH  27  28
ATOM     28  N   UNL     1      13.267  -2.074   2.717  1.00  0.00    -0.352 N 
ATOM     29  C   UNL     1      14.513  -2.616   2.530  1.00  0.00     0.251 C 
ATOM     30  H   UNL     1      13.008  -1.920   3.654  1.00  0.00     0.163 HD
ATOM     31  O   UNL     1      15.127  -3.095   3.475  1.00  0.00    -0.269 OA
BRANCH  29  32
ATOM     32  C   UNL     1      15.096  -2.628   1.173  1.00  0.00     0.039 A 
ATOM     33  C   UNL     1      15.706  -3.793   0.706  1.00  0.00     0.014 A 
ATOM     34  C   UNL     1      15.027  -1.490   0.363  1.00  0.00     0.014 A 
ATOM     35  C   UNL     1      16.199  -3.835  -0.599  1.00  0.00     0.010 A 
ATOM     36  C   UNL     1      15.448  -1.559  -0.960  1.00  0.00     0.010 A 
ATOM     37  C   UNL     1      16.043  -2.730  -1.453  1.00  0.00    -0.014 A 
BRANCH  37  38
ATOM     38  C   UNL     1      16.496  -2.776  -2.866  1.00  0.00     0.031 A 
ATOM     39  C   UNL     1      17.575  -1.842  -3.341  1.00  0.00     0.074 A 
ATOM     40  C   UNL     1      15.887  -3.610  -3.733  1.00  0.00     0.049 A 
ATOM     41  N   UNL     1      18.047  -1.674  -4.549  1.00  0.00    -0.248 NA
ATOM     42  C   UNL     1      18.185  -0.962  -2.331  1.00  0.00     0.031 C 
ATOM     43  C   UNL     1      14.799  -4.532  -3.398  1.00  0.00     0.029 A 
ATOM     44  N   UNL     1      16.088  -3.809  -5.076  1.00  0.00    -0.354 N 
ATOM     45  C   UNL     1      18.997  -0.664  -4.447  1.00  0.00     0.074 A 
ATOM     46  C   UNL     1      18.994  -0.218  -3.071  1.00  0.00     0.031 C 
ATOM     47  C   UNL     1      14.443  -5.211  -4.500  1.00  0.00     0.029 A 
ATOM     48  C   UNL     1      15.242  -4.743  -5.628  1.00  0.00     0.049 A 
ATOM     49  H   UNL     1      16.772  -3.329  -5.595  1.00  0.00     0.167 HD
ATOM     50  C   UNL     1      19.813  -0.170  -5.409  1.00  0.00     0.037 A 
ATOM     51  C   UNL     1      15.116  -5.166  -6.901  1.00  0.00     0.037 A 
ATOM     52  C   UNL     1      19.821  -0.634  -6.771  1.00  0.00     0.049 A 
ATOM     53  C   UNL     1      16.023  -4.590  -7.956  1.00  0.00     0.074 A 
ATOM     54  C   UNL     1      20.646  -0.238  -7.809  1.00  0.00     0.029 A 
ATOM     55  N   UNL     1      18.961  -1.593  -7.288  1.00  0.00    -0.354 N 
ATOM     56  N   UNL     1      16.959  -3.680  -7.829  1.00  0.00    -0.248 NA
ATOM     57  C   UNL     1      15.861  -5.099  -9.324  1.00  0.00     0.031 C 
ATOM     58  C   UNL     1      20.249  -0.916  -8.966  1.00  0.00     0.029 A 
ATOM     59  C   UNL     1      19.218  -1.782  -8.636  1.00  0.00     0.049 A 
ATOM     60  H   UNL     1      18.270  -2.069  -6.773  1.00  0.00     0.167 HD
ATOM     61  C   UNL     1      17.520  -3.532  -9.094  1.00  0.00     0.074 A 
ATOM     62  C   UNL     1      16.823  -4.452  -9.968  1.00  0.00     0.031 C 
ATOM     63  C   UNL     1      18.522  -2.711  -9.493  1.00  0.00     0.037 A 
BRANCH  50  64
ATOM     64  C   UNL     1      20.764   0.931  -5.023  1.00  0.00     0.058 A 
ATOM     65  C   UNL     1      21.855   0.700  -4.170  1.00  0.00     0.135 A 
ATOM     66  C   UNL     1      20.607   2.226  -5.545  1.00  0.00     0.135 A 
ATOM     67  F   UNL     1      22.047  -0.514  -3.629  1.00  0.00    -0.206 F 
ATOM     68  C   UNL     1      22.738   1.718  -3.824  1.00  0.00     0.059 A 
ATOM     69  C   UNL     1      21.496   3.252  -5.238  1.00  0.00     0.059 A 
ATOM     70  F   UNL     1      19.581   2.504  -6.365  1.00  0.00    -0.206 F 
ATOM     71  C   UNL     1      22.551   2.991  -4.365  1.00  0.00     0.060 A 
BRANCH  71  72
ATOM     72  S   UNL     1      23.711   4.297  -3.913  1.00  0.00     0.124 S 
ATOM     73  O   UNL     1      23.343   4.545  -2.522  1.00  0.00    -0.237 OA
ATOM     74  O   UNL     1      25.003   3.651  -4.120  1.00  0.00    -0.237 OA
ATOM     75  O   UNL     1      23.394   5.373  -4.846  1.00  0.00    -0.744 OA
ENDBRANCH  71  72
ENDBRANCH  50  64
BRANCH  51  76
ATOM     76  C   UNL     1      14.100  -6.197  -7.245  1.00  0.00     0.058 A 
ATOM     77  C   UNL     1      14.483  -7.491  -7.628  1.00  0.00     0.135 A 
ATOM     78  C   UNL     1      12.726  -5.915  -7.185  1.00  0.00     0.135 A 
ATOM     79  F   UNL     1      15.784  -7.809  -7.706  1.00  0.00    -0.206 F 
ATOM     80  C   UNL     1      13.544  -8.463  -7.957  1.00  0.00     0.059 A 
ATOM     81  C   UNL     1      11.767  -6.878  -7.481  1.00  0.00     0.059 A 
ATOM     82  F   UNL     1      12.305  -4.697  -6.807  1.00  0.00    -0.206 F 
ATOM     83  C   UNL     1      12.187  -8.147  -7.876  1.00  0.00     0.060 A 
BRANCH  83  84
ATOM     84  S   UNL     1      10.975  -9.430  -8.259  1.00  0.00     0.124 S 
ATOM     85  O   UNL     1      11.116  -9.545  -9.706  1.00  0.00    -0.237 OA
ATOM     86  O   UNL     1      11.467 -10.558  -7.476  1.00  0.00    -0.237 OA
ATOM     87  O   UNL     1       9.717  -8.853  -7.792  1.00  0.00    -0.744 OA
ENDBRANCH  83  84
ENDBRANCH  51  76
BRANCH  63  88
ATOM     88  C   UNL     1      18.962  -2.794 -10.929  1.00  0.00     0.058 A 
ATOM     89  C   UNL     1      18.171  -2.298 -11.977  1.00  0.00     0.135 A 
ATOM     90  C   UNL     1      20.225  -3.318 -11.253  1.00  0.00     0.135 A 
ATOM     91  F   UNL     1      16.953  -1.794 -11.724  1.00  0.00    -0.206 F 
ATOM     92  C   UNL     1      18.608  -2.334 -13.297  1.00  0.00     0.059 A 
ATOM     93  C   UNL     1      20.695  -3.336 -12.562  1.00  0.00     0.059 A 
ATOM     94  F   UNL     1      21.026  -3.797 -10.288  1.00  0.00    -0.206 F 
ATOM     95  C   UNL     1      19.875  -2.850 -13.579  1.00  0.00     0.060 A 
BRANCH  95  96
ATOM     96  S   UNL     1      20.448  -2.847 -15.290  1.00  0.00     0.124 S 
ATOM     97  O   UNL     1      19.624  -3.897 -15.879  1.00  0.00    -0.237 OA
ATOM     98  O   UNL     1      20.142  -1.486 -15.718  1.00  0.00    -0.237 OA
ATOM     99  O   UNL     1      21.870  -3.156 -15.174  1.00  0.00    -0.744 OA
ENDBRANCH  95  96
ENDBRANCH  63  88
ENDBRANCH  37  38
ENDBRANCH  29  32
ENDBRANCH  27  28
ENDBRANCH  26  27
ENDBRANCH  25  26
ENDBRANCH   1  25
TORSDOF 19
