REMARK SMILES O=C(/C=C/c1cc(C(=O)Nc2ccc(F)cc2Cl)cs1)NCCCCCCNC(=O)c1ccc(-c2c3nc(c(-c4c(F)cc(S(=O)(=O)[O-])cc4F)c4ccc([nH]4)c(-c4c(F)cc(S(=O)(=O)[O-])cc4F)c4nc(c(-c5c(F)cc(S(=O)(=O)[O-])cc5F)c5ccc2[nH]5)C=C4)C=C3)cc1
REMARK SMILES IDX 24 1 23 2 22 3 21 4 1 5 2 6 3 8 4 9 5 10 6 11 20 12 7 13
REMARK SMILES IDX 19 14 8 15 9 16 10 17 11 19 12 20 17 21 13 22 16 23 18 24
REMARK SMILES IDX 14 25 15 26 25 27 26 28 27 29 28 30 29 31 30 33 31 34 32 35
REMARK SMILES IDX 96 36 33 37 95 38 34 39 35 40 36 41 89 42 37 43 94 44 88 45
REMARK SMILES IDX 90 46 38 47 93 48 87 49 86 50 39 52 73 53 52 54 72 55 53 56
REMARK SMILES IDX 56 57 71 58 91 59 54 60 55 61 70 63 92 64 57 65 40 66 41 67
REMARK SMILES IDX 50 68 42 69 43 70 49 71 51 72 44 73 45 74 46 75 47 76 48 77
REMARK SMILES IDX 74 78 75 79 84 80 76 81 77 82 83 83 85 84 78 85 79 86 80 87
REMARK SMILES IDX 81 88 82 89 58 90 59 91 68 92 60 93 61 94 67 95 69 96 62 97
REMARK SMILES IDX 63 98 64 99 65 100 66 101
REMARK H PARENT 21 7 10 18 28 32 90 51 56 62
REMARK Flexibility Score: inf
ROOT
ATOM      1  C   UNL     1       4.258   3.032  -2.194  1.00  0.00     0.002 C 
ENDROOT
BRANCH   1   2
ATOM      2  C   UNL     1       2.759   2.868  -1.911  1.00  0.00     0.021 C 
BRANCH   2   3
ATOM      3  C   UNL     1       2.267   1.421  -1.926  1.00  0.00     0.116 C 
BRANCH   3   4
ATOM      4  N   UNL     1       2.936   0.624  -0.916  1.00  0.00    -0.353 N 
ATOM      5  O   UNL     1       1.174   0.549   0.566  1.00  0.00    -0.270 OA
ATOM      6  C   UNL     1       2.335   0.295   0.268  1.00  0.00     0.244 C 
ATOM      7  H   UNL     1       3.852   0.309  -1.089  1.00  0.00     0.163 HD
BRANCH   6   8
ATOM      8  C   UNL     1       3.164  -0.515   1.187  1.00  0.00     0.072 C 
ATOM      9  C   UNL     1       4.470  -0.291   1.410  1.00  0.00     0.024 C 
BRANCH   9  10
ATOM     10  C   UNL     1       5.230  -1.141   2.268  1.00  0.00     0.028 A 
ATOM     11  C   UNL     1       4.819  -2.163   3.107  1.00  0.00     0.033 A 
ATOM     12  S   UNL     1       6.942  -0.988   2.352  1.00  0.00    -0.144 S 
ATOM     13  C   UNL     1       5.888  -3.024   3.539  1.00  0.00     0.051 A 
ATOM     14  C   UNL     1       7.100  -2.404   3.297  1.00  0.00     0.079 A 
BRANCH  13  15
ATOM     15  C   UNL     1       5.775  -4.322   4.209  1.00  0.00     0.256 C 
ATOM     16  O   UNL     1       6.636  -4.707   5.005  1.00  0.00    -0.269 OA
ATOM     17  N   UNL     1       4.654  -5.101   4.016  1.00  0.00    -0.321 N 
ATOM     18  H   UNL     1       4.514  -5.794   4.701  1.00  0.00     0.170 HD
BRANCH  17  19
ATOM     19  C   UNL     1       3.672  -5.071   2.999  1.00  0.00     0.060 A 
ATOM     20  C   UNL     1       3.977  -4.695   1.683  1.00  0.00     0.031 A 
ATOM     21  C   UNL     1       2.345  -5.406   3.320  1.00  0.00     0.067 A 
ATOM     22  C   UNL     1       2.956  -4.533   0.744  1.00  0.00     0.041 A 
ATOM     23  C   UNL     1       1.325  -5.236   2.385  1.00  0.00     0.062 A 
ATOM     24  Cl  UNL     1       1.919  -5.944   4.907  1.00  0.00    -0.082 Cl
ATOM     25  C   UNL     1       1.640  -4.781   1.111  1.00  0.00     0.124 A 
ATOM     26  F   UNL     1       0.660  -4.579   0.222  1.00  0.00    -0.207 F 
ENDBRANCH  17  19
ENDBRANCH  13  15
ENDBRANCH   9  10
ENDBRANCH   6   8
ENDBRANCH   3   4
ENDBRANCH   2   3
ENDBRANCH   1   2
BRANCH   1  27
ATOM     27  C   UNL     1       4.740   2.478  -3.539  1.00  0.00     0.002 C 
BRANCH  27  28
ATOM     28  C   UNL     1       4.049   3.060  -4.774  1.00  0.00     0.021 C 
BRANCH  28  29
ATOM     29  C   UNL     1       4.153   4.576  -4.924  1.00  0.00     0.116 C 
BRANCH  29  30
ATOM     30  N   UNL     1       5.527   5.029  -5.085  1.00  0.00    -0.352 N 
ATOM     31  C   UNL     1       6.070   5.848  -6.045  1.00  0.00     0.251 C 
ATOM     32  H   UNL     1       6.160   4.701  -4.406  1.00  0.00     0.163 HD
ATOM     33  O   UNL     1       7.287   5.995  -6.108  1.00  0.00    -0.269 OA
BRANCH  31  34
ATOM     34  C   UNL     1       5.190   6.529  -7.021  1.00  0.00     0.039 A 
ATOM     35  C   UNL     1       5.531   6.496  -8.376  1.00  0.00     0.014 A 
ATOM     36  C   UNL     1       4.030   7.189  -6.606  1.00  0.00     0.014 A 
ATOM     37  C   UNL     1       4.668   7.056  -9.322  1.00  0.00     0.010 A 
ATOM     38  C   UNL     1       3.141   7.690  -7.554  1.00  0.00     0.010 A 
ATOM     39  C   UNL     1       3.445   7.620  -8.923  1.00  0.00    -0.014 A 
BRANCH  39  40
ATOM     40  C   UNL     1       2.455   8.105  -9.919  1.00  0.00     0.031 A 
ATOM     41  C   UNL     1       2.078   9.559  -9.973  1.00  0.00     0.074 A 
ATOM     42  C   UNL     1       1.830   7.217 -10.717  1.00  0.00     0.049 A 
ATOM     43  N   UNL     1       1.170  10.149 -10.706  1.00  0.00    -0.248 NA
ATOM     44  C   UNL     1       2.798  10.463  -9.063  1.00  0.00     0.031 C 
ATOM     45  C   UNL     1       2.067   5.771 -10.720  1.00  0.00     0.029 A 
ATOM     46  N   UNL     1       0.852   7.394 -11.663  1.00  0.00    -0.354 N 
ATOM     47  C   UNL     1       1.199  11.490 -10.340  1.00  0.00     0.074 A 
ATOM     48  C   UNL     1       2.181  11.615  -9.284  1.00  0.00     0.031 C 
ATOM     49  C   UNL     1       1.259   5.195 -11.624  1.00  0.00     0.029 A 
ATOM     50  C   UNL     1       0.423   6.222 -12.240  1.00  0.00     0.049 A 
ATOM     51  H   UNL     1       0.491   8.277 -11.906  1.00  0.00     0.167 HD
ATOM     52  C   UNL     1       0.487  12.524 -10.850  1.00  0.00     0.037 A 
ATOM     53  C   UNL     1      -0.546   5.993 -13.147  1.00  0.00     0.037 A 
ATOM     54  C   UNL     1      -0.480  12.395 -11.910  1.00  0.00     0.049 A 
ATOM     55  C   UNL     1      -1.324   7.153 -13.702  1.00  0.00     0.074 A 
ATOM     56  C   UNL     1      -1.207  13.391 -12.538  1.00  0.00     0.029 A 
ATOM     57  N   UNL     1      -0.863  11.195 -12.492  1.00  0.00    -0.354 N 
ATOM     58  N   UNL     1      -1.231   8.426 -13.398  1.00  0.00    -0.248 NA
ATOM     59  C   UNL     1      -2.332   6.851 -14.728  1.00  0.00     0.031 C 
ATOM     60  C   UNL     1      -2.059  12.789 -13.472  1.00  0.00     0.029 A 
ATOM     61  C   UNL     1      -1.833  11.422 -13.456  1.00  0.00     0.049 A 
ATOM     62  H   UNL     1      -0.500  10.311 -12.255  1.00  0.00     0.167 HD
ATOM     63  C   UNL     1      -2.158   9.078 -14.203  1.00  0.00     0.074 A 
ATOM     64  C   UNL     1      -2.790   8.062 -15.019  1.00  0.00     0.031 C 
ATOM     65  C   UNL     1      -2.458  10.400 -14.259  1.00  0.00     0.037 A 
BRANCH  52  66
ATOM     66  C   UNL     1       0.731  13.887 -10.261  1.00  0.00     0.058 A 
ATOM     67  C   UNL     1       1.935  14.576 -10.477  1.00  0.00     0.135 A 
ATOM     68  C   UNL     1      -0.251  14.516  -9.479  1.00  0.00     0.135 A 
ATOM     69  F   UNL     1       2.913  14.017 -11.207  1.00  0.00    -0.206 F 
ATOM     70  C   UNL     1       2.175  15.820  -9.902  1.00  0.00     0.059 A 
ATOM     71  C   UNL     1      -0.044  15.773  -8.918  1.00  0.00     0.059 A 
ATOM     72  F   UNL     1      -1.423  13.905  -9.245  1.00  0.00    -0.206 F 
ATOM     73  C   UNL     1       1.182  16.407  -9.117  1.00  0.00     0.060 A 
BRANCH  73  74
ATOM     74  S   UNL     1       1.518  18.009  -8.356  1.00  0.00     0.124 S 
ATOM     75  O   UNL     1       2.418  17.630  -7.271  1.00  0.00    -0.237 OA
ATOM     76  O   UNL     1       2.127  18.756  -9.452  1.00  0.00    -0.237 OA
ATOM     77  O   UNL     1       0.197  18.472  -7.943  1.00  0.00    -0.744 OA
ENDBRANCH  73  74
ENDBRANCH  52  66
BRANCH  53  78
ATOM     78  C   UNL     1      -0.823   4.600 -13.587  1.00  0.00     0.058 A 
ATOM     79  C   UNL     1      -0.441   4.155 -14.860  1.00  0.00     0.135 A 
ATOM     80  C   UNL     1      -1.432   3.675 -12.724  1.00  0.00     0.135 A 
ATOM     81  F   UNL     1       0.138   5.004 -15.722  1.00  0.00    -0.206 F 
ATOM     82  C   UNL     1      -0.654   2.841 -15.266  1.00  0.00     0.059 A 
ATOM     83  C   UNL     1      -1.635   2.351 -13.098  1.00  0.00     0.059 A 
ATOM     84  F   UNL     1      -1.800   4.049 -11.489  1.00  0.00    -0.206 F 
ATOM     85  C   UNL     1      -1.246   1.944 -14.374  1.00  0.00     0.060 A 
BRANCH  85  86
ATOM     86  S   UNL     1      -1.444   0.221 -14.880  1.00  0.00     0.124 S 
ATOM     87  O   UNL     1      -2.562   0.316 -15.811  1.00  0.00    -0.237 OA
ATOM     88  O   UNL     1      -0.143  -0.077 -15.471  1.00  0.00    -0.237 OA
ATOM     89  O   UNL     1      -1.724  -0.466 -13.623  1.00  0.00    -0.744 OA
ENDBRANCH  85  86
ENDBRANCH  53  78
BRANCH  65  90
ATOM     90  C   UNL     1      -3.509  10.829 -15.244  1.00  0.00     0.058 A 
ATOM     91  C   UNL     1      -4.872  10.582 -15.020  1.00  0.00     0.135 A 
ATOM     92  C   UNL     1      -3.153  11.548 -16.397  1.00  0.00     0.135 A 
ATOM     93  F   UNL     1      -5.263   9.891 -13.938  1.00  0.00    -0.206 F 
ATOM     94  C   UNL     1      -5.846  11.019 -15.912  1.00  0.00     0.059 A 
ATOM     95  C   UNL     1      -4.112  12.017 -17.290  1.00  0.00     0.059 A 
ATOM     96  F   UNL     1      -1.864  11.818 -16.655  1.00  0.00    -0.206 F 
ATOM     97  C   UNL     1      -5.456  11.739 -17.043  1.00  0.00     0.060 A 
BRANCH  97  98
ATOM     98  S   UNL     1      -6.733  12.340 -18.169  1.00  0.00     0.124 S 
ATOM     99  O   UNL     1      -7.121  11.113 -18.856  1.00  0.00    -0.237 OA
ATOM    100  O   UNL     1      -7.724  12.894 -17.253  1.00  0.00    -0.237 OA
ATOM    101  O   UNL     1      -6.028  13.322 -18.988  1.00  0.00    -0.744 OA
ENDBRANCH  97  98
ENDBRANCH  65  90
ENDBRANCH  39  40
ENDBRANCH  31  34
ENDBRANCH  29  30
ENDBRANCH  28  29
ENDBRANCH  27  28
ENDBRANCH   1  27
TORSDOF 19
