REMARK SMILES O=C(CCCc1nc(-c2cccc(Cl)c2)no1)NCCCCCCNC(=O)c1ccc(-c2c3nc(c(-c4c(F)cc(S(=O)(=O)[O-])cc4F)c4ccc([nH]4)c(-c4c(F)cc(S(=O)(=O)[O-])cc4F)c4nc(c(-c5c(F)cc(S(=O)(=O)[O-])cc5F)c5ccc2[nH]5)C=C4)C=C3)cc1
REMARK SMILES IDX 21 1 20 2 19 3 18 4 1 5 2 6 3 8 4 9 5 10 6 11 7 12 17 13
REMARK SMILES IDX 8 14 16 15 9 16 10 17 15 18 11 19 13 20 12 21 14 22 22 23
REMARK SMILES IDX 23 24 24 25 25 26 26 27 27 29 28 30 29 31 93 32 30 33 92 34
REMARK SMILES IDX 31 35 32 36 33 37 86 38 34 39 91 40 85 41 87 42 35 43 90 44
REMARK SMILES IDX 84 45 83 46 36 48 70 49 49 50 69 51 50 52 53 53 68 54 88 55
REMARK SMILES IDX 51 56 52 57 67 59 89 60 54 61 37 62 38 63 47 64 39 65 40 66
REMARK SMILES IDX 46 67 48 68 41 69 42 70 43 71 44 72 45 73 71 74 72 75 81 76
REMARK SMILES IDX 73 77 74 78 80 79 82 80 75 81 76 82 77 83 78 84 79 85 55 86
REMARK SMILES IDX 56 87 65 88 57 89 58 90 64 91 66 92 59 93 60 94 61 95 62 96
REMARK SMILES IDX 63 97
REMARK H PARENT 18 7 25 28 87 47 53 58
REMARK Flexibility Score: inf
ROOT
ATOM      1  C   UNL     1       4.186  -3.336   1.669  1.00  0.00     0.002 C 
ENDROOT
BRANCH   1   2
ATOM      2  C   UNL     1       2.687  -3.170   1.389  1.00  0.00     0.021 C 
BRANCH   2   3
ATOM      3  C   UNL     1       2.168  -1.738   1.502  1.00  0.00     0.116 C 
BRANCH   3   4
ATOM      4  N   UNL     1       2.782  -0.870   0.518  1.00  0.00    -0.356 N 
ATOM      5  O   UNL     1       1.028   0.602   0.339  1.00  0.00    -0.275 OA
ATOM      6  C   UNL     1       2.159   0.249   0.025  1.00  0.00     0.220 C 
ATOM      7  H   UNL     1       3.684  -1.092   0.190  1.00  0.00     0.163 HD
BRANCH   6   8
ATOM      8  C   UNL     1       3.005   1.041  -0.950  1.00  0.00     0.100 C 
BRANCH   8   9
ATOM      9  C   UNL     1       3.992   1.987  -0.257  1.00  0.00     0.020 C 
BRANCH   9  10
ATOM     10  C   UNL     1       5.138   1.331   0.519  1.00  0.00     0.101 C 
BRANCH  10  11
ATOM     11  C   UNL     1       5.893   0.345  -0.289  1.00  0.00     0.226 A 
ATOM     12  N   UNL     1       5.572  -0.896  -0.573  1.00  0.00    -0.191 NA
ATOM     13  O   UNL     1       7.081   0.736  -0.825  1.00  0.00    -0.339 OA
ATOM     14  C   UNL     1       6.660  -1.323  -1.304  1.00  0.00     0.202 A 
ATOM     15  N   UNL     1       7.595  -0.377  -1.494  1.00  0.00    -0.057 NA
BRANCH  14  16
ATOM     16  C   UNL     1       6.771  -2.687  -1.796  1.00  0.00     0.024 A 
ATOM     17  C   UNL     1       5.627  -3.382  -2.217  1.00  0.00     0.012 A 
ATOM     18  C   UNL     1       8.015  -3.331  -1.834  1.00  0.00     0.032 A 
ATOM     19  C   UNL     1       5.727  -4.697  -2.682  1.00  0.00     0.002 A 
ATOM     20  C   UNL     1       8.105  -4.647  -2.286  1.00  0.00     0.041 A 
ATOM     21  C   UNL     1       6.968  -5.331  -2.713  1.00  0.00     0.020 A 
ATOM     22  Cl  UNL     1       9.634  -5.436  -2.311  1.00  0.00    -0.084 Cl
ENDBRANCH  14  16
ENDBRANCH  10  11
ENDBRANCH   9  10
ENDBRANCH   8   9
ENDBRANCH   6   8
ENDBRANCH   3   4
ENDBRANCH   2   3
ENDBRANCH   1   2
BRANCH   1  23
ATOM     23  C   UNL     1       4.646  -2.902   3.063  1.00  0.00     0.002 C 
BRANCH  23  24
ATOM     24  C   UNL     1       3.987  -3.659   4.217  1.00  0.00     0.021 C 
BRANCH  24  25
ATOM     25  C   UNL     1       4.145  -5.174   4.155  1.00  0.00     0.116 C 
BRANCH  25  26
ATOM     26  N   UNL     1       5.535  -5.592   4.239  1.00  0.00    -0.352 N 
ATOM     27  C   UNL     1       6.090  -6.577   5.017  1.00  0.00     0.251 C 
ATOM     28  H   UNL     1       6.163  -5.103   3.660  1.00  0.00     0.163 HD
ATOM     29  O   UNL     1       7.313  -6.681   5.097  1.00  0.00    -0.269 OA
BRANCH  27  30
ATOM     30  C   UNL     1       5.213  -7.495   5.776  1.00  0.00     0.039 A 
ATOM     31  C   UNL     1       5.532  -7.799   7.101  1.00  0.00     0.014 A 
ATOM     32  C   UNL     1       4.079  -8.056   5.181  1.00  0.00     0.014 A 
ATOM     33  C   UNL     1       4.688  -8.629   7.842  1.00  0.00     0.010 A 
ATOM     34  C   UNL     1       3.196  -8.813   5.946  1.00  0.00     0.010 A 
ATOM     35  C   UNL     1       3.499  -9.122   7.280  1.00  0.00    -0.014 A 
BRANCH  35  36
ATOM     36  C   UNL     1       2.583  -9.998   8.058  1.00  0.00     0.031 A 
ATOM     37  C   UNL     1       2.331 -11.411   7.601  1.00  0.00     0.074 A 
ATOM     38  C   UNL     1       1.952  -9.515   9.147  1.00  0.00     0.049 A 
ATOM     39  N   UNL     1       1.517 -12.308   8.096  1.00  0.00    -0.248 NA
ATOM     40  C   UNL     1       3.072 -11.870   6.413  1.00  0.00     0.031 C 
ATOM     41  C   UNL     1       2.078  -8.150   9.665  1.00  0.00     0.029 A 
ATOM     42  N   UNL     1       1.069 -10.115  10.011  1.00  0.00    -0.354 N 
ATOM     43  C   UNL     1       1.651 -13.431   7.287  1.00  0.00     0.074 A 
ATOM     44  C   UNL     1       2.565 -13.079   6.223  1.00  0.00     0.031 C 
ATOM     45  C   UNL     1       1.316  -8.024  10.764  1.00  0.00     0.029 A 
ATOM     46  C   UNL     1       0.617  -9.282  11.009  1.00  0.00     0.049 A 
ATOM     47  H   UNL     1       0.786 -11.054   9.925  1.00  0.00     0.167 HD
ATOM     48  C   UNL     1       1.093 -14.656   7.435  1.00  0.00     0.037 A 
ATOM     49  C   UNL     1      -0.268  -9.504  12.000  1.00  0.00     0.037 A 
ATOM     50  C   UNL     1       0.197 -15.007   8.506  1.00  0.00     0.049 A 
ATOM     51  C   UNL     1      -0.888 -10.872  12.133  1.00  0.00     0.074 A 
ATOM     52  C   UNL     1      -0.413 -16.225   8.752  1.00  0.00     0.029 A 
ATOM     53  N   UNL     1      -0.208 -14.146   9.515  1.00  0.00    -0.354 N 
ATOM     54  N   UNL     1      -0.720 -11.932  11.378  1.00  0.00    -0.248 NA
ATOM     55  C   UNL     1      -1.805 -11.080  13.262  1.00  0.00     0.031 C 
ATOM     56  C   UNL     1      -1.216 -16.090   9.889  1.00  0.00     0.029 A 
ATOM     57  C   UNL     1      -1.060 -14.806  10.384  1.00  0.00     0.049 A 
ATOM     58  H   UNL     1       0.069 -13.205   9.600  1.00  0.00     0.167 HD
ATOM     59  C   UNL     1      -1.474 -12.942  11.967  1.00  0.00     0.074 A 
ATOM     60  C   UNL     1      -2.090 -12.369  13.145  1.00  0.00     0.031 C 
ATOM     61  C   UNL     1      -1.641 -14.229  11.571  1.00  0.00     0.037 A 
BRANCH  48  62
ATOM     62  C   UNL     1       1.459 -15.718   6.434  1.00  0.00     0.058 A 
ATOM     63  C   UNL     1       2.748 -16.276   6.400  1.00  0.00     0.135 A 
ATOM     64  C   UNL     1       0.503 -16.227   5.541  1.00  0.00     0.135 A 
ATOM     65  F   UNL     1       3.707 -15.814   7.217  1.00  0.00    -0.206 F 
ATOM     66  C   UNL     1       3.080 -17.288   5.506  1.00  0.00     0.059 A 
ATOM     67  C   UNL     1       0.804 -17.261   4.659  1.00  0.00     0.059 A 
ATOM     68  F   UNL     1      -0.743 -15.728   5.527  1.00  0.00    -0.206 F 
ATOM     69  C   UNL     1       2.099 -17.779   4.644  1.00  0.00     0.060 A 
BRANCH  69  70
ATOM     70  S   UNL     1       2.540 -19.118   3.517  1.00  0.00     0.124 S 
ATOM     71  O   UNL     1       3.419 -18.430   2.576  1.00  0.00    -0.237 OA
ATOM     72  O   UNL     1       3.189 -20.073   4.409  1.00  0.00    -0.237 OA
ATOM     73  O   UNL     1       1.254 -19.545   2.974  1.00  0.00    -0.744 OA
ENDBRANCH  69  70
ENDBRANCH  48  62
BRANCH  49  74
ATOM     74  C   UNL     1      -0.625  -8.416  12.953  1.00  0.00     0.058 A 
ATOM     75  C   UNL     1      -0.279  -8.492  14.311  1.00  0.00     0.135 A 
ATOM     76  C   UNL     1      -1.355  -7.293  12.530  1.00  0.00     0.135 A 
ATOM     77  F   UNL     1       0.417  -9.545  14.767  1.00  0.00    -0.206 F 
ATOM     78  C   UNL     1      -0.683  -7.523  15.224  1.00  0.00     0.059 A 
ATOM     79  C   UNL     1      -1.741  -6.294  13.417  1.00  0.00     0.059 A 
ATOM     80  F   UNL     1      -1.692  -7.157  11.238  1.00  0.00    -0.206 F 
ATOM     81  C   UNL     1      -1.421  -6.429  14.767  1.00  0.00     0.060 A 
BRANCH  81  82
ATOM     82  S   UNL     1      -1.946  -5.178  15.958  1.00  0.00     0.124 S 
ATOM     83  O   UNL     1      -3.004  -5.882  16.674  1.00  0.00    -0.237 OA
ATOM     84  O   UNL     1      -0.719  -4.935  16.709  1.00  0.00    -0.237 OA
ATOM     85  O   UNL     1      -2.384  -4.073  15.111  1.00  0.00    -0.744 OA
ENDBRANCH  81  82
ENDBRANCH  49  74
BRANCH  61  86
ATOM     86  C   UNL     1      -2.460 -15.128  12.457  1.00  0.00     0.058 A 
ATOM     87  C   UNL     1      -3.850 -14.989  12.582  1.00  0.00     0.135 A 
ATOM     88  C   UNL     1      -1.840 -16.173  13.163  1.00  0.00     0.135 A 
ATOM     89  F   UNL     1      -4.493 -14.007  11.932  1.00  0.00    -0.206 F 
ATOM     90  C   UNL     1      -4.593 -15.829  13.407  1.00  0.00     0.059 A 
ATOM     91  C   UNL     1      -2.567 -17.046  13.965  1.00  0.00     0.059 A 
ATOM     92  F   UNL     1      -0.514 -16.361  13.067  1.00  0.00    -0.206 F 
ATOM     93  C   UNL     1      -3.941 -16.855  14.095  1.00  0.00     0.060 A 
BRANCH  93  94
ATOM     94  S   UNL     1      -4.918 -17.948  15.148  1.00  0.00     0.124 S 
ATOM     95  O   UNL     1      -5.217 -17.075  16.279  1.00  0.00    -0.237 OA
ATOM     96  O   UNL     1      -6.048 -18.282  14.288  1.00  0.00    -0.237 OA
ATOM     97  O   UNL     1      -4.006 -19.052  15.432  1.00  0.00    -0.744 OA
ENDBRANCH  93  94
ENDBRANCH  61  86
ENDBRANCH  35  36
ENDBRANCH  27  30
ENDBRANCH  25  26
ENDBRANCH  24  25
ENDBRANCH  23  24
ENDBRANCH   1  23
TORSDOF 20
