REMARK SMILES CS(=O)(=O)c1ccc(/C=C(/C(=O)NCCCCCCNC(=O)c2ccc(-c3c4nc(c(-c5c(F)cc(S(=O)(=O)[O-])cc5F)c5ccc([nH]5)c(-c5c(F)cc(S(=O)(=O)[O-])cc5F)c5nc(c(-c6c(F)cc(S(=O)(=O)[O-])cc6F)c6ccc3[nH]6)C=C5)C=C4)cc2)c2ccc(O)cc2)cc1
REMARK SMILES IDX 17 1 16 2 15 3 14 4 13 5 11 6 12 7 10 9 9 10 8 11 5 12 6 13
REMARK SMILES IDX 97 14 7 15 96 16 2 17 1 18 3 19 4 20 89 21 90 22 95 23 91 24
REMARK SMILES IDX 94 25 92 26 93 27 18 29 19 30 20 31 21 32 22 34 23 35 24 36
REMARK SMILES IDX 88 37 25 38 87 39 26 40 27 41 28 42 81 43 29 44 86 45 80 46
REMARK SMILES IDX 82 47 30 48 85 49 79 50 78 51 31 53 65 54 44 55 64 56 45 57
REMARK SMILES IDX 48 58 63 59 83 60 46 61 47 62 62 64 84 65 49 66 32 67 33 68
REMARK SMILES IDX 42 69 34 70 35 71 41 72 43 73 36 74 37 75 38 76 39 77 40 78
REMARK SMILES IDX 66 79 67 80 76 81 68 82 69 83 75 84 77 85 70 86 71 87 72 88
REMARK SMILES IDX 73 89 74 90 50 91 51 92 60 93 52 94 53 95 59 96 61 97 54 98
REMARK SMILES IDX 55 99 56 100 57 101 58 102
REMARK H PARENT 13 8 93 28 20 33 82 52 48 63
REMARK Flexibility Score: inf
ROOT
ATOM      1  C   UNL     1       4.880  -8.877   7.779  1.00  0.00     0.002 C 
ENDROOT
BRANCH   1   2
ATOM      2  C   UNL     1       3.380  -8.653   7.559  1.00  0.00     0.002 C 
BRANCH   2   3
ATOM      3  C   UNL     1       3.017  -7.372   6.789  1.00  0.00     0.021 C 
BRANCH   3   4
ATOM      4  C   UNL     1       3.585  -7.329   5.367  1.00  0.00     0.116 C 
BRANCH   4   5
ATOM      5  N   UNL     1       2.875  -8.273   4.526  1.00  0.00    -0.352 N 
ATOM      6  C   UNL     1       1.916  -8.167   3.571  1.00  0.00     0.251 C 
ATOM      7  O   UNL     1       1.492  -9.234   3.117  1.00  0.00    -0.269 OA
ATOM      8  H   UNL     1       3.153  -9.204   4.683  1.00  0.00     0.163 HD
BRANCH   6   9
ATOM      9  C   UNL     1       1.437  -6.853   2.995  1.00  0.00     0.047 C 
ATOM     10  C   UNL     1       1.362  -5.716   3.724  1.00  0.00     0.022 C 
BRANCH  10  11
ATOM     11  C   UNL     1       1.040  -4.339   3.281  1.00  0.00    -0.025 A 
ATOM     12  C   UNL     1       0.640  -1.695   2.421  1.00  0.00     0.067 A 
ATOM     13  C   UNL     1      -0.236  -2.700   2.010  1.00  0.00     0.021 A 
ATOM     14  C   UNL     1       1.679  -1.980   3.306  1.00  0.00     0.021 A 
ATOM     15  C   UNL     1      -0.043  -4.012   2.456  1.00  0.00     0.009 A 
ATOM     16  C   UNL     1       1.877  -3.300   3.727  1.00  0.00     0.009 A 
BRANCH  12  17
ATOM     17  S   UNL     1       0.394  -0.032   1.844  1.00  0.00     0.175 S 
ATOM     18  C   UNL     1       1.184  -0.026   0.255  1.00  0.00     0.163 C 
ATOM     19  O   UNL     1       1.133   0.857   2.713  1.00  0.00    -0.224 OA
ATOM     20  O   UNL     1      -1.034   0.145   1.632  1.00  0.00    -0.224 OA
ENDBRANCH  12  17
ENDBRANCH  10  11
BRANCH   9  21
ATOM     21  C   UNL     1       0.874  -6.902   1.621  1.00  0.00    -0.013 A 
ATOM     22  C   UNL     1      -0.347  -7.573   1.424  1.00  0.00     0.013 A 
ATOM     23  C   UNL     1       1.465  -6.236   0.539  1.00  0.00     0.013 A 
ATOM     24  C   UNL     1      -0.987  -7.543   0.187  1.00  0.00     0.047 A 
ATOM     25  C   UNL     1       0.816  -6.195  -0.700  1.00  0.00     0.047 A 
ATOM     26  C   UNL     1      -0.411  -6.836  -0.859  1.00  0.00     0.115 A 
BRANCH  26  27
ATOM     27  O   UNL     1      -1.099  -6.781  -2.035  1.00  0.00    -0.508 OA
ATOM     28  H   UNL     1      -1.922  -7.221  -2.118  1.00  0.00     0.293 HD
ENDBRANCH  26  27
ENDBRANCH   9  21
ENDBRANCH   6   9
ENDBRANCH   4   5
ENDBRANCH   3   4
ENDBRANCH   2   3
ENDBRANCH   1   2
BRANCH   1  29
ATOM     29  C   UNL     1       5.620  -7.715   8.447  1.00  0.00     0.021 C 
BRANCH  29  30
ATOM     30  C   UNL     1       5.106  -7.346   9.836  1.00  0.00     0.116 C 
BRANCH  30  31
ATOM     31  N   UNL     1       5.325  -8.415  10.794  1.00  0.00    -0.352 N 
ATOM     32  C   UNL     1       5.907  -8.366  12.036  1.00  0.00     0.251 C 
ATOM     33  H   UNL     1       5.010  -9.304  10.512  1.00  0.00     0.163 HD
ATOM     34  O   UNL     1       6.196  -9.412  12.611  1.00  0.00    -0.269 OA
BRANCH  32  35
ATOM     35  C   UNL     1       6.197  -7.063  12.677  1.00  0.00     0.039 A 
ATOM     36  C   UNL     1       7.402  -6.909  13.369  1.00  0.00     0.014 A 
ATOM     37  C   UNL     1       5.270  -6.016  12.647  1.00  0.00     0.014 A 
ATOM     38  C   UNL     1       7.689  -5.699  14.005  1.00  0.00     0.010 A 
ATOM     39  C   UNL     1       5.585  -4.789  13.229  1.00  0.00     0.010 A 
ATOM     40  C   UNL     1       6.788  -4.625  13.931  1.00  0.00    -0.014 A 
BRANCH  40  41
ATOM     41  C   UNL     1       7.079  -3.341  14.618  1.00  0.00     0.031 A 
ATOM     42  C   UNL     1       6.231  -2.897  15.780  1.00  0.00     0.074 A 
ATOM     43  C   UNL     1       8.085  -2.561  14.178  1.00  0.00     0.049 A 
ATOM     44  N   UNL     1       6.319  -1.807  16.499  1.00  0.00    -0.248 NA
ATOM     45  C   UNL     1       5.121  -3.782  16.169  1.00  0.00     0.031 C 
ATOM     46  C   UNL     1       8.943  -2.855  13.028  1.00  0.00     0.029 A 
ATOM     47  N   UNL     1       8.554  -1.359  14.644  1.00  0.00    -0.354 N 
ATOM     48  C   UNL     1       5.272  -1.868  17.412  1.00  0.00     0.074 A 
ATOM     49  C   UNL     1       4.532  -3.077  17.124  1.00  0.00     0.031 C 
ATOM     50  C   UNL     1       9.849  -1.873  12.894  1.00  0.00     0.029 A 
ATOM     51  C   UNL     1       9.624  -0.871  13.931  1.00  0.00     0.049 A 
ATOM     52  H   UNL     1       8.162  -0.890  15.415  1.00  0.00     0.167 HD
ATOM     53  C   UNL     1       4.969  -1.009  18.416  1.00  0.00     0.037 A 
ATOM     54  C   UNL     1      10.346   0.253  14.102  1.00  0.00     0.037 A 
ATOM     55  C   UNL     1       5.728   0.176  18.720  1.00  0.00     0.049 A 
ATOM     56  C   UNL     1      10.019   1.169  15.249  1.00  0.00     0.074 A 
ATOM     57  C   UNL     1       5.536   1.084  19.747  1.00  0.00     0.029 A 
ATOM     58  N   UNL     1       6.830   0.615  18.001  1.00  0.00    -0.354 N 
ATOM     59  N   UNL     1       9.060   1.065  16.139  1.00  0.00    -0.248 NA
ATOM     60  C   UNL     1      10.883   2.343  15.427  1.00  0.00     0.031 C 
ATOM     61  C   UNL     1       6.507   2.087  19.633  1.00  0.00     0.029 A 
ATOM     62  C   UNL     1       7.325   1.783  18.557  1.00  0.00     0.049 A 
ATOM     63  H   UNL     1       7.205   0.163  17.211  1.00  0.00     0.167 HD
ATOM     64  C   UNL     1       9.220   2.148  16.997  1.00  0.00     0.074 A 
ATOM     65  C   UNL     1      10.377   2.884  16.526  1.00  0.00     0.031 C 
ATOM     66  C   UNL     1       8.479   2.501  18.076  1.00  0.00     0.037 A 
BRANCH  53  67
ATOM     67  C   UNL     1       3.767  -1.330  19.261  1.00  0.00     0.058 A 
ATOM     68  C   UNL     1       3.772  -2.403  20.168  1.00  0.00     0.135 A 
ATOM     69  C   UNL     1       2.602  -0.552  19.175  1.00  0.00     0.135 A 
ATOM     70  F   UNL     1       4.854  -3.190  20.279  1.00  0.00    -0.206 F 
ATOM     71  C   UNL     1       2.652  -2.715  20.933  1.00  0.00     0.059 A 
ATOM     72  C   UNL     1       1.479  -0.829  19.951  1.00  0.00     0.059 A 
ATOM     73  F   UNL     1       2.543   0.486  18.326  1.00  0.00    -0.206 F 
ATOM     74  C   UNL     1       1.508  -1.924  20.813  1.00  0.00     0.060 A 
BRANCH  74  75
ATOM     75  S   UNL     1       0.059  -2.346  21.804  1.00  0.00     0.124 S 
ATOM     76  O   UNL     1      -0.461  -3.501  21.079  1.00  0.00    -0.237 OA
ATOM     77  O   UNL     1       0.642  -2.628  23.111  1.00  0.00    -0.237 OA
ATOM     78  O   UNL     1      -0.761  -1.140  21.735  1.00  0.00    -0.744 OA
ENDBRANCH  74  75
ENDBRANCH  53  67
BRANCH  54  79
ATOM     79  C   UNL     1      11.479   0.550  13.188  1.00  0.00     0.058 A 
ATOM     80  C   UNL     1      12.807   0.419  13.621  1.00  0.00     0.135 A 
ATOM     81  C   UNL     1      11.259   0.949  11.861  1.00  0.00     0.135 A 
ATOM     82  F   UNL     1      13.066   0.044  14.883  1.00  0.00    -0.206 F 
ATOM     83  C   UNL     1      13.879   0.688  12.777  1.00  0.00     0.059 A 
ATOM     84  C   UNL     1      12.315   1.202  10.991  1.00  0.00     0.059 A 
ATOM     85  F   UNL     1      10.007   1.069  11.393  1.00  0.00    -0.206 F 
ATOM     86  C   UNL     1      13.622   1.078  11.461  1.00  0.00     0.060 A 
BRANCH  86  87
ATOM     87  S   UNL     1      15.019   1.370  10.354  1.00  0.00     0.124 S 
ATOM     88  O   UNL     1      15.487   2.673  10.809  1.00  0.00    -0.237 OA
ATOM     89  O   UNL     1      15.891   0.237  10.651  1.00  0.00    -0.237 OA
ATOM     90  O   UNL     1      14.405   1.345   9.029  1.00  0.00    -0.744 OA
ENDBRANCH  86  87
ENDBRANCH  54  79
BRANCH  66  91
ATOM     91  C   UNL     1       8.919   3.720  18.837  1.00  0.00     0.058 A 
ATOM     92  C   UNL     1       8.736   5.014  18.325  1.00  0.00     0.135 A 
ATOM     93  C   UNL     1       9.518   3.591  20.100  1.00  0.00     0.135 A 
ATOM     94  F   UNL     1       8.172   5.191  17.120  1.00  0.00    -0.206 F 
ATOM     95  C   UNL     1       9.169   6.138  19.022  1.00  0.00     0.059 A 
ATOM     96  C   UNL     1       9.936   4.702  20.825  1.00  0.00     0.059 A 
ATOM     97  F   UNL     1       9.704   2.376  20.640  1.00  0.00    -0.206 F 
ATOM     98  C   UNL     1       9.774   5.971  20.269  1.00  0.00     0.060 A 
BRANCH  98  99
ATOM     99  S   UNL     1      10.335   7.433  21.167  1.00  0.00     0.124 S 
ATOM    100  O   UNL     1      11.582   7.740  20.475  1.00  0.00    -0.237 OA
ATOM    101  O   UNL     1       9.241   8.376  20.951  1.00  0.00    -0.237 OA
ATOM    102  O   UNL     1      10.477   6.953  22.538  1.00  0.00    -0.744 OA
ENDBRANCH  98  99
ENDBRANCH  66  91
ENDBRANCH  40  41
ENDBRANCH  32  35
ENDBRANCH  30  31
ENDBRANCH  29  30
ENDBRANCH   1  29
TORSDOF 20
