REMARK SMILES C[C@H](Cc1ccc2c(c1)OCCCO2)C(=O)NCCCCCCNC(=O)c1ccc(-c2c3nc(c(-c4c(F)cc(S(=O)(=O)[O-])cc4F)c4ccc([nH]4)c(-c4c(F)cc(S(=O)(=O)[O-])cc4F)c4nc(c(-c5c(F)cc(S(=O)(=O)[O-])cc5F)c5ccc2[nH]5)C=C4)C=C3)cc1
REMARK SMILES IDX 19 1 18 2 17 3 15 4 16 5 2 7 1 8 3 9 4 10 5 11 9 12 6 13
REMARK SMILES IDX 8 14 7 15 10 16 11 17 14 19 13 20 12 21 20 23 21 24 22 25
REMARK SMILES IDX 23 26 24 27 25 28 26 30 27 31 28 32 92 33 29 34 91 35 30 36
REMARK SMILES IDX 31 37 32 38 85 39 33 40 90 41 84 42 86 43 34 44 89 45 83 46
REMARK SMILES IDX 82 47 35 49 69 50 48 51 68 52 49 53 52 54 67 55 87 56 50 57
REMARK SMILES IDX 51 58 66 60 88 61 53 62 36 63 37 64 46 65 38 66 39 67 45 68
REMARK SMILES IDX 47 69 40 70 41 71 42 72 43 73 44 74 70 75 71 76 80 77 72 78
REMARK SMILES IDX 73 79 79 80 81 81 74 82 75 83 76 84 77 85 78 86 54 87 55 88
REMARK SMILES IDX 64 89 56 90 57 91 63 92 65 93 58 94 59 95 60 96 61 97 62 98
REMARK H PARENT 17 6 24 29 86 48 52 59
REMARK Flexibility Score: 80.00
ROOT
ATOM      1  C   UNL     1      -2.215   2.172  -0.338  1.00  0.00     0.021 C 
ENDROOT
BRANCH   1   2
ATOM      2  C   UNL     1      -1.851   1.542   1.010  1.00  0.00     0.116 C 
BRANCH   2   3
ATOM      3  N   UNL     1      -1.891   0.098   0.954  1.00  0.00    -0.356 N 
ATOM      4  C   UNL     1      -0.911  -0.836   1.034  1.00  0.00     0.223 C 
ATOM      5  O   UNL     1      -1.277  -2.016   0.973  1.00  0.00    -0.275 OA
ATOM      6  H   UNL     1      -2.794  -0.276   0.836  1.00  0.00     0.163 HD
BRANCH   4   7
ATOM      7  C   UNL     1       0.573  -0.520   1.251  1.00  0.00     0.079 C 
ATOM      8  C   UNL     1       0.874  -0.131   2.690  1.00  0.00     0.018 C 
BRANCH   7   9
ATOM      9  C   UNL     1       1.301   0.245   0.123  1.00  0.00     0.048 C 
BRANCH   9  10
ATOM     10  C   UNL     1       1.400   1.752   0.019  1.00  0.00    -0.043 A 
ATOM     11  C   UNL     1       1.452   2.631   1.108  1.00  0.00     0.008 A 
ATOM     12  C   UNL     1       1.547   2.305  -1.267  1.00  0.00     0.054 A 
ATOM     13  C   UNL     1       1.466   4.017   0.917  1.00  0.00     0.051 A 
ATOM     14  C   UNL     1       1.588   3.685  -1.461  1.00  0.00     0.161 A 
ATOM     15  C   UNL     1       1.489   4.542  -0.369  1.00  0.00     0.161 A 
BRANCH  14  16
ATOM     16  O   UNL     1       1.840   4.128  -2.730  1.00  0.00    -0.490 OA
BRANCH  16  17
ATOM     17  C   UNL     1       0.751   4.863  -3.279  1.00  0.00     0.233 CG0
ATOM     18  G   UNL     1       0.673   6.291  -2.759  1.00  0.00     0.000 G0
ENDBRANCH  16  17
ENDBRANCH  14  16
BRANCH  15  19
ATOM     19  O   UNL     1       1.464   5.902  -0.483  1.00  0.00    -0.490 OA
BRANCH  19  20
ATOM     20  C   UNL     1       0.354   6.329  -1.274  1.00  0.00     0.233 C 
BRANCH  20  21
ATOM     21  C   UNL     1       0.673   6.291  -2.759  1.00  0.00     0.083 CG0
ATOM     22  G   UNL     1       0.751   4.863  -3.279  1.00  0.00     0.000 G0
ENDBRANCH  20  21
ENDBRANCH  19  20
ENDBRANCH  15  19
ENDBRANCH   9  10
ENDBRANCH   7   9
ENDBRANCH   4   7
ENDBRANCH   2   3
ENDBRANCH   1   2
BRANCH   1  23
ATOM     23  C   UNL     1      -3.697   2.550  -0.470  1.00  0.00     0.002 C 
BRANCH  23  24
ATOM     24  C   UNL     1      -4.200   3.623   0.507  1.00  0.00     0.002 C 
BRANCH  24  25
ATOM     25  C   UNL     1      -3.410   4.934   0.528  1.00  0.00     0.021 C 
BRANCH  25  26
ATOM     26  C   UNL     1      -3.395   5.710  -0.786  1.00  0.00     0.116 C 
BRANCH  26  27
ATOM     27  N   UNL     1      -4.699   6.225  -1.165  1.00  0.00    -0.352 N 
ATOM     28  C   UNL     1      -5.062   7.503  -1.534  1.00  0.00     0.251 C 
ATOM     29  H   UNL     1      -5.431   5.566  -1.157  1.00  0.00     0.163 HD
ATOM     30  O   UNL     1      -6.242   7.781  -1.694  1.00  0.00    -0.269 OA
BRANCH  28  31
ATOM     31  C   UNL     1      -4.022   8.548  -1.705  1.00  0.00     0.039 A 
ATOM     32  C   UNL     1      -2.860   8.295  -2.435  1.00  0.00     0.014 A 
ATOM     33  C   UNL     1      -4.215   9.802  -1.118  1.00  0.00     0.014 A 
ATOM     34  C   UNL     1      -1.831   9.237  -2.445  1.00  0.00     0.010 A 
ATOM     35  C   UNL     1      -3.205  10.771  -1.188  1.00  0.00     0.010 A 
ATOM     36  C   UNL     1      -1.981  10.480  -1.809  1.00  0.00    -0.014 A 
BRANCH  36  37
ATOM     37  C   UNL     1      -0.841  11.441  -1.778  1.00  0.00     0.031 A 
ATOM     38  C   UNL     1      -0.210  11.845  -0.468  1.00  0.00     0.074 A 
ATOM     39  C   UNL     1      -0.329  11.916  -2.933  1.00  0.00     0.049 A 
ATOM     40  N   UNL     1       0.766  12.689  -0.246  1.00  0.00    -0.248 NA
ATOM     41  C   UNL     1      -0.747  11.224   0.754  1.00  0.00     0.031 C 
ATOM     42  C   UNL     1      -0.823  11.590  -4.272  1.00  0.00     0.029 A 
ATOM     43  N   UNL     1       0.732  12.756  -3.167  1.00  0.00    -0.354 N 
ATOM     44  C   UNL     1       0.948  12.716   1.132  1.00  0.00     0.074 A 
ATOM     45  C   UNL     1      -0.041  11.825   1.701  1.00  0.00     0.031 C 
ATOM     46  C   UNL     1      -0.038  12.181  -5.186  1.00  0.00     0.029 A 
ATOM     47  C   UNL     1       0.972  12.983  -4.503  1.00  0.00     0.049 A 
ATOM     48  H   UNL     1       1.270  13.158  -2.448  1.00  0.00     0.167 HD
ATOM     49  C   UNL     1       1.860  13.407   1.859  1.00  0.00     0.037 A 
ATOM     50  C   UNL     1       1.886  13.762  -5.114  1.00  0.00     0.037 A 
ATOM     51  C   UNL     1       2.865  14.271   1.294  1.00  0.00     0.049 A 
ATOM     52  C   UNL     1       2.852  14.561  -4.285  1.00  0.00     0.074 A 
ATOM     53  C   UNL     1       3.840  15.000   1.954  1.00  0.00     0.029 A 
ATOM     54  N   UNL     1       3.034  14.517  -0.060  1.00  0.00    -0.354 N 
ATOM     55  N   UNL     1       2.991  14.588  -2.981  1.00  0.00    -0.248 NA
ATOM     56  C   UNL     1       3.776  15.446  -5.008  1.00  0.00     0.031 C 
ATOM     57  C   UNL     1       4.572  15.718   1.003  1.00  0.00     0.029 A 
ATOM     58  C   UNL     1       4.083  15.401  -0.254  1.00  0.00     0.049 A 
ATOM     59  H   UNL     1       2.488  14.122  -0.778  1.00  0.00     0.167 HD
ATOM     60  C   UNL     1       4.024  15.484  -2.729  1.00  0.00     0.074 A 
ATOM     61  C   UNL     1       4.487  15.963  -4.014  1.00  0.00     0.031 C 
ATOM     62  C   UNL     1       4.537  15.876  -1.537  1.00  0.00     0.037 A 
BRANCH  49  63
ATOM     63  C   UNL     1       1.819  13.268   3.357  1.00  0.00     0.058 A 
ATOM     64  C   UNL     1       2.260  12.101   4.000  1.00  0.00     0.135 A 
ATOM     65  C   UNL     1       1.394  14.338   4.161  1.00  0.00     0.135 A 
ATOM     66  F   UNL     1       2.660  11.042   3.279  1.00  0.00    -0.206 F 
ATOM     67  C   UNL     1       2.266  11.994   5.387  1.00  0.00     0.059 A 
ATOM     68  C   UNL     1       1.415  14.262   5.551  1.00  0.00     0.059 A 
ATOM     69  F   UNL     1       0.964  15.478   3.597  1.00  0.00    -0.206 F 
ATOM     70  C   UNL     1       1.843  13.081   6.155  1.00  0.00     0.060 A 
BRANCH  70  71
ATOM     71  S   UNL     1       1.870  12.926   7.953  1.00  0.00     0.124 S 
ATOM     72  O   UNL     1       0.776  11.986   8.180  1.00  0.00    -0.237 OA
ATOM     73  O   UNL     1       3.211  12.409   8.202  1.00  0.00    -0.237 OA
ATOM     74  O   UNL     1       1.630  14.289   8.417  1.00  0.00    -0.744 OA
ENDBRANCH  70  71
ENDBRANCH  49  63
BRANCH  50  75
ATOM     75  C   UNL     1       1.920  13.830  -6.599  1.00  0.00     0.058 A 
ATOM     76  C   UNL     1       2.976  13.257  -7.322  1.00  0.00     0.135 A 
ATOM     77  C   UNL     1       0.885  14.441  -7.324  1.00  0.00     0.135 A 
ATOM     78  F   UNL     1       3.994  12.672  -6.672  1.00  0.00    -0.206 F 
ATOM     79  C   UNL     1       3.006  13.286  -8.712  1.00  0.00     0.059 A 
ATOM     80  C   UNL     1       0.880  14.460  -8.714  1.00  0.00     0.059 A 
ATOM     81  F   UNL     1      -0.153  14.995  -6.678  1.00  0.00    -0.206 F 
ATOM     82  C   UNL     1       1.948  13.884  -9.400  1.00  0.00     0.060 A 
BRANCH  82  83
ATOM     83  S   UNL     1       1.962  13.852 -11.205  1.00  0.00     0.124 S 
ATOM     84  O   UNL     1       3.013  14.816 -11.508  1.00  0.00    -0.237 OA
ATOM     85  O   UNL     1       2.278  12.454 -11.482  1.00  0.00    -0.237 OA
ATOM     86  O   UNL     1       0.606  14.262 -11.558  1.00  0.00    -0.744 OA
ENDBRANCH  82  83
ENDBRANCH  50  75
BRANCH  62  87
ATOM     87  C   UNL     1       5.668  16.866  -1.558  1.00  0.00     0.058 A 
ATOM     88  C   UNL     1       5.449  18.222  -1.845  1.00  0.00     0.135 A 
ATOM     89  C   UNL     1       6.972  16.469  -1.221  1.00  0.00     0.135 A 
ATOM     90  F   UNL     1       4.223  18.652  -2.181  1.00  0.00    -0.206 F 
ATOM     91  C   UNL     1       6.487  19.148  -1.811  1.00  0.00     0.059 A 
ATOM     92  C   UNL     1       8.021  17.382  -1.157  1.00  0.00     0.059 A 
ATOM     93  F   UNL     1       7.234  15.184  -0.929  1.00  0.00    -0.206 F 
ATOM     94  C   UNL     1       7.769  18.719  -1.461  1.00  0.00     0.060 A 
BRANCH  94  95
ATOM     95  S   UNL     1       9.095  19.942  -1.377  1.00  0.00     0.124 S 
ATOM     96  O   UNL     1       9.315  20.236  -2.789  1.00  0.00    -0.237 OA
ATOM     97  O   UNL     1       8.482  21.012  -0.595  1.00  0.00    -0.237 OA
ATOM     98  O   UNL     1      10.177  19.226  -0.709  1.00  0.00    -0.744 OA
ENDBRANCH  94  95
ENDBRANCH  62  87
ENDBRANCH  36  37
ENDBRANCH  28  31
ENDBRANCH  26  27
ENDBRANCH  25  26
ENDBRANCH  24  25
ENDBRANCH  23  24
ENDBRANCH   1  23
TORSDOF 18
