REMARK SMILES CC(C)CSc1cc2c(cc1Cl)C=C(C(=O)NCCCCCCNC(=O)c1ccc(-c3c4nc(c(-c5c(F)cc(S(=O)(=O)[O-])cc5F)c5ccc([nH]5)c(-c5c(F)cc(S(=O)(=O)[O-])cc5F)c5nc(c(-c6c(F)cc(S(=O)(=O)[O-])cc6F)c6ccc3[nH]6)C=C5)C=C4)cc1)[C@H](C(F)(F)F)O2
REMARK SMILES IDX 20 1 19 2 18 3 17 4 15 5 16 6 14 8 6 9 7 10 11 11 8 12 10 13
REMARK SMILES IDX 12 14 9 15 98 16 13 17 93 18 5 19 4 20 2 21 1 22 3 23 94 24
REMARK SMILES IDX 95 25 96 26 97 27 21 28 22 29 23 30 24 31 25 32 26 34 27 35
REMARK SMILES IDX 28 36 92 37 29 38 91 39 30 40 31 41 32 42 85 43 33 44 90 45
REMARK SMILES IDX 84 46 86 47 34 48 89 49 83 50 82 51 35 53 69 54 48 55 68 56
REMARK SMILES IDX 49 57 52 58 67 59 87 60 50 61 51 62 66 64 88 65 53 66 36 67
REMARK SMILES IDX 37 68 46 69 38 70 39 71 45 72 47 73 40 74 41 75 42 76 43 77
REMARK SMILES IDX 44 78 70 79 71 80 80 81 72 82 73 83 79 84 81 85 74 86 75 87
REMARK SMILES IDX 76 88 77 89 78 90 54 91 55 92 64 93 56 94 57 95 63 96 65 97
REMARK SMILES IDX 58 98 59 99 60 100 61 101 62 102
REMARK H PARENT 17 7 24 33 86 52 52 63
REMARK Flexibility Score: inf
ROOT
ATOM      1  C   UNL     1       0.621   7.159  -7.466  1.00  0.00     0.002 C 
ENDROOT
BRANCH   1   2
ATOM      2  C   UNL     1       0.399   6.246  -6.258  1.00  0.00     0.021 C 
BRANCH   2   3
ATOM      3  C   UNL     1      -0.712   5.219  -6.463  1.00  0.00     0.116 C 
BRANCH   3   4
ATOM      4  N   UNL     1      -0.205   4.011  -7.089  1.00  0.00    -0.352 N 
ATOM      5  C   UNL     1      -0.017   2.716  -6.747  1.00  0.00     0.251 C 
ATOM      6  O   UNL     1       0.478   2.007  -7.630  1.00  0.00    -0.270 OA
ATOM      7  H   UNL     1       0.079   4.181  -8.016  1.00  0.00     0.163 HD
BRANCH   5   8
ATOM      8  C   UNL     1      -0.369   2.109  -5.428  1.00  0.00     0.067 C 
ATOM      9  C   UNL     1      -1.275  -1.161  -1.686  1.00  0.00     0.030 A 
ATOM     10  C   UNL     1      -1.565   0.190  -1.903  1.00  0.00     0.063 A 
ATOM     11  C   UNL     1      -0.689  -1.894  -2.735  1.00  0.00     0.055 A 
ATOM     12  C   UNL     1      -1.191   0.814  -3.091  1.00  0.00     0.129 A 
ATOM     13  C   UNL     1      -0.352  -1.269  -3.944  1.00  0.00     0.033 A 
ATOM     14  Cl  UNL     1      -0.326  -3.583  -2.603  1.00  0.00    -0.083 Cl
ATOM     15  C   UNL     1      -0.589   0.095  -4.118  1.00  0.00     0.019 A 
ATOM     16  O   UNL     1      -1.476   2.143  -3.180  1.00  0.00    -0.475 OA
ATOM     17  C   UNL     1      -0.264   0.769  -5.365  1.00  0.00     0.025 C 
ATOM     18  C   UNL     1      -0.789   2.895  -4.216  1.00  0.00     0.314 C 
BRANCH   9  19
ATOM     19  S   UNL     1      -1.645  -1.895  -0.095  1.00  0.00    -0.124 SA
BRANCH  19  20
ATOM     20  C   UNL     1      -0.988  -0.652   1.088  1.00  0.00     0.078 C 
BRANCH  20  21
ATOM     21  C   UNL     1       0.545  -0.629   1.238  1.00  0.00    -0.007 C 
ATOM     22  C   UNL     1       1.274   0.015   0.056  1.00  0.00     0.008 C 
ATOM     23  C   UNL     1       0.910   0.140   2.513  1.00  0.00     0.008 C 
ENDBRANCH  20  21
ENDBRANCH  19  20
ENDBRANCH   9  19
BRANCH  18  24
ATOM     24  C   UNL     1       0.366   3.703  -3.592  1.00  0.00     0.429 C 
ATOM     25  F   UNL     1       0.893   3.097  -2.502  1.00  0.00    -0.167 F 
ATOM     26  F   UNL     1       1.389   3.907  -4.454  1.00  0.00    -0.167 F 
ATOM     27  F   UNL     1      -0.065   4.929  -3.204  1.00  0.00    -0.167 F 
ENDBRANCH  18  24
ENDBRANCH   5   8
ENDBRANCH   3   4
ENDBRANCH   2   3
ENDBRANCH   1   2
BRANCH   1  28
ATOM     28  C   UNL     1      -0.603   7.979  -7.892  1.00  0.00     0.002 C 
BRANCH  28  29
ATOM     29  C   UNL     1      -1.287   8.759  -6.768  1.00  0.00     0.021 C 
BRANCH  29  30
ATOM     30  C   UNL     1      -0.378   9.743  -6.042  1.00  0.00     0.116 C 
BRANCH  30  31
ATOM     31  N   UNL     1       0.136  10.770  -6.935  1.00  0.00    -0.352 N 
ATOM     32  C   UNL     1      -0.007  12.136  -6.877  1.00  0.00     0.251 C 
ATOM     33  H   UNL     1       0.666  10.437  -7.695  1.00  0.00     0.163 HD
ATOM     34  O   UNL     1       0.311  12.826  -7.838  1.00  0.00    -0.269 OA
BRANCH  32  35
ATOM     35  C   UNL     1      -0.563  12.763  -5.658  1.00  0.00     0.039 A 
ATOM     36  C   UNL     1      -0.177  12.317  -4.393  1.00  0.00     0.014 A 
ATOM     37  C   UNL     1      -1.484  13.807  -5.781  1.00  0.00     0.014 A 
ATOM     38  C   UNL     1      -0.837  12.788  -3.266  1.00  0.00     0.010 A 
ATOM     39  C   UNL     1      -2.071  14.354  -4.635  1.00  0.00     0.010 A 
ATOM     40  C   UNL     1      -1.788  13.817  -3.370  1.00  0.00    -0.014 A 
BRANCH  40  41
ATOM     41  C   UNL     1      -2.455  14.313  -2.136  1.00  0.00     0.031 A 
ATOM     42  C   UNL     1      -3.943  14.172  -1.951  1.00  0.00     0.074 A 
ATOM     43  C   UNL     1      -1.697  14.831  -1.148  1.00  0.00     0.049 A 
ATOM     44  N   UNL     1      -4.676  14.498  -0.917  1.00  0.00    -0.248 NA
ATOM     45  C   UNL     1      -4.710  13.598  -3.068  1.00  0.00     0.031 C 
ATOM     46  C   UNL     1      -0.244  15.014  -1.212  1.00  0.00     0.029 A 
ATOM     47  N   UNL     1      -2.028  15.265   0.110  1.00  0.00    -0.354 N 
ATOM     48  C   UNL     1      -5.985  14.177  -1.258  1.00  0.00     0.074 A 
ATOM     49  C   UNL     1      -5.954  13.673  -2.614  1.00  0.00     0.031 C 
ATOM     50  C   UNL     1       0.198  15.457  -0.027  1.00  0.00     0.029 A 
ATOM     51  C   UNL     1      -0.943  15.659   0.860  1.00  0.00     0.049 A 
ATOM     52  H   UNL     1      -2.953  15.293   0.445  1.00  0.00     0.167 HD
ATOM     53  C   UNL     1      -7.106  14.275  -0.503  1.00  0.00     0.037 A 
ATOM     54  C   UNL     1      -0.871  16.139   2.116  1.00  0.00     0.037 A 
ATOM     55  C   UNL     1      -7.125  14.765   0.851  1.00  0.00     0.049 A 
ATOM     56  C   UNL     1      -2.136  16.291   2.911  1.00  0.00     0.074 A 
ATOM     57  C   UNL     1      -8.208  14.886   1.704  1.00  0.00     0.029 A 
ATOM     58  N   UNL     1      -6.014  15.215   1.550  1.00  0.00    -0.354 N 
ATOM     59  N   UNL     1      -3.361  15.963   2.577  1.00  0.00    -0.248 NA
ATOM     60  C   UNL     1      -2.015  16.888   4.248  1.00  0.00     0.031 C 
ATOM     61  C   UNL     1      -7.761  15.458   2.899  1.00  0.00     0.029 A 
ATOM     62  C   UNL     1      -6.390  15.640   2.814  1.00  0.00     0.049 A 
ATOM     63  H   UNL     1      -5.094  15.231   1.200  1.00  0.00     0.167 HD
ATOM     64  C   UNL     1      -4.155  16.298   3.667  1.00  0.00     0.074 A 
ATOM     65  C   UNL     1      -3.269  16.838   4.678  1.00  0.00     0.031 C 
ATOM     66  C   UNL     1      -5.497  16.171   3.814  1.00  0.00     0.037 A 
BRANCH  53  67
ATOM     67  C   UNL     1      -8.411  13.844  -1.118  1.00  0.00     0.058 A 
ATOM     68  C   UNL     1      -8.698  12.493  -1.366  1.00  0.00     0.135 A 
ATOM     69  C   UNL     1      -9.414  14.787  -1.403  1.00  0.00     0.135 A 
ATOM     70  F   UNL     1      -7.772  11.550  -1.127  1.00  0.00    -0.206 F 
ATOM     71  C   UNL     1      -9.921  12.092  -1.893  1.00  0.00     0.059 A 
ATOM     72  C   UNL     1     -10.656  14.406  -1.904  1.00  0.00     0.059 A 
ATOM     73  F   UNL     1      -9.195  16.093  -1.184  1.00  0.00    -0.206 F 
ATOM     74  C   UNL     1     -10.896  13.057  -2.156  1.00  0.00     0.060 A 
BRANCH  74  75
ATOM     75  S   UNL     1     -12.480  12.513  -2.830  1.00  0.00     0.124 S 
ATOM     76  O   UNL     1     -12.091  12.068  -4.165  1.00  0.00    -0.237 OA
ATOM     77  O   UNL     1     -12.866  11.458  -1.899  1.00  0.00    -0.237 OA
ATOM     78  O   UNL     1     -13.302  13.718  -2.787  1.00  0.00    -0.744 OA
ENDBRANCH  74  75
ENDBRANCH  53  67
BRANCH  54  79
ATOM     79  C   UNL     1       0.453  16.500   2.692  1.00  0.00     0.058 A 
ATOM     80  C   UNL     1       1.014  15.751   3.735  1.00  0.00     0.135 A 
ATOM     81  C   UNL     1       1.201  17.573   2.181  1.00  0.00     0.135 A 
ATOM     82  F   UNL     1       0.336  14.720   4.262  1.00  0.00    -0.206 F 
ATOM     83  C   UNL     1       2.268  16.053   4.256  1.00  0.00     0.059 A 
ATOM     84  C   UNL     1       2.470  17.876   2.664  1.00  0.00     0.059 A 
ATOM     85  F   UNL     1       0.715  18.312   1.172  1.00  0.00    -0.206 F 
ATOM     86  C   UNL     1       2.992  17.113   3.707  1.00  0.00     0.060 A 
BRANCH  86  87
ATOM     87  S   UNL     1       4.644  17.455   4.350  1.00  0.00     0.124 S 
ATOM     88  O   UNL     1       4.341  17.953   5.687  1.00  0.00    -0.237 OA
ATOM     89  O   UNL     1       5.272  16.139   4.285  1.00  0.00    -0.237 OA
ATOM     90  O   UNL     1       5.173  18.442   3.414  1.00  0.00    -0.744 OA
ENDBRANCH  86  87
ENDBRANCH  54  79
BRANCH  66  91
ATOM     91  C   UNL     1      -6.103  16.608   5.119  1.00  0.00     0.058 A 
ATOM     92  C   UNL     1      -6.241  17.966   5.444  1.00  0.00     0.135 A 
ATOM     93  C   UNL     1      -6.641  15.661   6.006  1.00  0.00     0.135 A 
ATOM     94  F   UNL     1      -5.735  18.910   4.636  1.00  0.00    -0.206 F 
ATOM     95  C   UNL     1      -6.891  18.370   6.606  1.00  0.00     0.059 A 
ATOM     96  C   UNL     1      -7.320  16.044   7.158  1.00  0.00     0.059 A 
ATOM     97  F   UNL     1      -6.542  14.350   5.737  1.00  0.00    -0.206 F 
ATOM     98  C   UNL     1      -7.438  17.402   7.450  1.00  0.00     0.060 A 
BRANCH  98  99
ATOM     99  S   UNL     1      -8.340  17.949   8.915  1.00  0.00     0.124 S 
ATOM    100  O   UNL     1      -7.266  18.495   9.737  1.00  0.00    -0.237 OA
ATOM    101  O   UNL     1      -9.271  18.924   8.357  1.00  0.00    -0.237 OA
ATOM    102  O   UNL     1      -8.951  16.722   9.418  1.00  0.00    -0.744 OA
ENDBRANCH  98  99
ENDBRANCH  66  91
ENDBRANCH  40  41
ENDBRANCH  32  35
ENDBRANCH  30  31
ENDBRANCH  29  30
ENDBRANCH  28  29
ENDBRANCH   1  28
TORSDOF 20
