REMARK SMILES Cc1cccc(S(=O)(=O)Nc2cc(C(=O)NCCCCCCNC(=O)c3ccc(-c4c5nc(c(-c6c(F)cc(S(=O)(=O)[O-])cc6F)c6ccc([nH]6)c(-c6c(F)cc(S(=O)(=O)[O-])cc6F)c6nc(c(-c7c(F)cc(S(=O)(=O)[O-])cc7F)c7ccc4[nH]7)C=C6)C=C5)cc3)ccc2N2CCC[C@H](C[NH+]3CCCC3)C2)c1
REMARK SMILES IDX 19 1 18 2 17 3 16 4 14 5 15 6 13 8 11 9 12 10 94 11 93 12
REMARK SMILES IDX 92 13 10 14 7 16 8 17 9 18 6 19 1 20 2 21 3 22 107 23 4 24
REMARK SMILES IDX 5 25 95 26 96 27 106 28 97 29 99 30 98 31 100 32 101 33
REMARK SMILES IDX 102 34 105 35 103 37 104 38 20 39 21 40 22 41 23 42 24 43
REMARK SMILES IDX 25 45 26 46 27 47 91 48 28 49 90 50 29 51 30 52 31 53 84 54
REMARK SMILES IDX 32 55 89 56 83 57 85 58 33 59 88 60 82 61 81 62 34 64 68 65
REMARK SMILES IDX 47 66 67 67 48 68 51 69 66 70 86 71 49 72 50 73 65 75 87 76
REMARK SMILES IDX 52 77 35 78 36 79 45 80 37 81 38 82 44 83 46 84 39 85 40 86
REMARK SMILES IDX 41 87 42 88 43 89 69 90 70 91 79 92 71 93 72 94 78 95 80 96
REMARK SMILES IDX 73 97 74 98 75 99 76 100 77 101 53 102 54 103 63 104 55 105
REMARK SMILES IDX 56 106 62 107 64 108 57 109 58 110 59 111 60 112 61 113
REMARK H PARENT 16 7 10 15 101 36 23 44 85 63 51 74
REMARK Flexibility Score: inf
ROOT
ATOM      1  C   UNL     1       0.631   0.026  -5.392  1.00  0.00     0.002 C 
ENDROOT
BRANCH   1   2
ATOM      2  C   UNL     1       0.459   1.026  -4.242  1.00  0.00     0.021 C 
BRANCH   2   3
ATOM      3  C   UNL     1       1.210   0.638  -2.969  1.00  0.00     0.116 C 
BRANCH   3   4
ATOM      4  N   UNL     1       2.576   1.131  -2.988  1.00  0.00    -0.352 N 
ATOM      5  C   UNL     1       3.218   2.120  -2.289  1.00  0.00     0.251 C 
ATOM      6  O   UNL     1       4.435   2.235  -2.445  1.00  0.00    -0.269 OA
ATOM      7  H   UNL     1       3.156   0.661  -3.630  1.00  0.00     0.163 HD
BRANCH   5   8
ATOM      8  C   UNL     1       2.540   3.013  -1.307  1.00  0.00     0.042 A 
ATOM      9  C   UNL     1       0.613   4.092  -0.301  1.00  0.00     0.073 A 
ATOM     10  C   UNL     1       1.189   3.354  -1.345  1.00  0.00     0.042 A 
ATOM     11  C   UNL     1       1.406   4.656   0.722  1.00  0.00     0.061 A 
ATOM     12  C   UNL     1       2.779   4.379   0.697  1.00  0.00     0.029 A 
ATOM     13  C   UNL     1       3.333   3.549  -0.282  1.00  0.00     0.016 A 
BRANCH   9  14
ATOM     14  N   UNL     1      -0.813   4.245  -0.305  1.00  0.00    -0.277 N 
ATOM     15  H   UNL     1      -1.212   5.073  -0.658  1.00  0.00     0.180 HD
BRANCH  14  16
ATOM     16  S   UNL     1      -1.830   3.009   0.294  1.00  0.00     0.261 S 
ATOM     17  O   UNL     1      -2.943   2.955  -0.633  1.00  0.00    -0.201 OA
ATOM     18  O   UNL     1      -2.088   3.302   1.689  1.00  0.00    -0.201 OA
BRANCH  16  19
ATOM     19  C   UNL     1      -1.050   1.405   0.268  1.00  0.00     0.088 A 
ATOM     20  C   UNL     1       2.278  -0.290   1.000  1.00  0.00     0.044 C 
ATOM     21  C   UNL     1       0.830  -0.083   0.660  1.00  0.00    -0.050 A 
ATOM     22  C   UNL     1       0.081  -1.152   0.155  1.00  0.00     0.003 A 
ATOM     23  C   UNL     1       0.229   1.179   0.787  1.00  0.00     0.025 A 
ATOM     24  C   UNL     1      -1.232  -0.954  -0.269  1.00  0.00     0.002 A 
ATOM     25  C   UNL     1      -1.788   0.326  -0.238  1.00  0.00     0.022 A 
ENDBRANCH  16  19
ENDBRANCH  14  16
ENDBRANCH   9  14
BRANCH  11  26
ATOM     26  N   UNL     1       0.923   5.500   1.706  1.00  0.00    -0.369 N 
ATOM     27  C   UNL     1       1.161   6.934   1.573  1.00  0.00     0.116 C 
ATOM     28  C   UNL     1       0.013   5.043   2.750  1.00  0.00     0.126 C 
ATOM     29  C   UNL     1       1.597   7.508   2.920  1.00  0.00     0.022 C 
ATOM     30  C   UNL     1       0.444   5.581   4.130  1.00  0.00     0.064 C 
ATOM     31  C   UNL     1       0.630   7.106   4.035  1.00  0.00     0.013 C 
BRANCH  30  32
ATOM     32  C   UNL     1       1.673   4.779   4.634  1.00  0.00     0.267 C 
BRANCH  32  33
ATOM     33  N   UNL     1       2.086   4.866   6.039  1.00  0.00    -0.335 N 
ATOM     34  C   UNL     1       1.043   4.587   7.023  1.00  0.00     0.262 C 
ATOM     35  C   UNL     1       2.772   6.092   6.434  1.00  0.00     0.262 C 
ATOM     36  H   UNL     1       2.764   4.105   6.057  1.00  0.00     0.348 HD
ATOM     37  C   UNL     1       0.640   5.941   7.569  1.00  0.00     0.067 C 
ATOM     38  C   UNL     1       1.925   6.746   7.520  1.00  0.00     0.067 C 
ENDBRANCH  32  33
ENDBRANCH  30  32
ENDBRANCH  11  26
ENDBRANCH   5   8
ENDBRANCH   3   4
ENDBRANCH   2   3
ENDBRANCH   1   2
BRANCH   1  39
ATOM     39  C   UNL     1       0.155  -1.412  -5.114  1.00  0.00     0.002 C 
BRANCH  39  40
ATOM     40  C   UNL     1      -1.238  -1.550  -4.494  1.00  0.00     0.021 C 
BRANCH  40  41
ATOM     41  C   UNL     1      -2.356  -1.073  -5.415  1.00  0.00     0.116 C 
BRANCH  41  42
ATOM     42  N   UNL     1      -3.241  -2.142  -5.849  1.00  0.00    -0.352 N 
ATOM     43  C   UNL     1      -4.390  -2.022  -6.610  1.00  0.00     0.251 C 
ATOM     44  H   UNL     1      -2.994  -3.054  -5.569  1.00  0.00     0.163 HD
ATOM     45  O   UNL     1      -5.200  -2.928  -6.715  1.00  0.00    -0.269 OA
BRANCH  43  46
ATOM     46  C   UNL     1      -4.530  -0.784  -7.405  1.00  0.00     0.039 A 
ATOM     47  C   UNL     1      -4.348  -0.896  -8.788  1.00  0.00     0.014 A 
ATOM     48  C   UNL     1      -4.557   0.459  -6.779  1.00  0.00     0.014 A 
ATOM     49  C   UNL     1      -4.033   0.239  -9.533  1.00  0.00     0.010 A 
ATOM     50  C   UNL     1      -4.178   1.572  -7.508  1.00  0.00     0.010 A 
ATOM     51  C   UNL     1      -3.871   1.458  -8.876  1.00  0.00    -0.014 A 
BRANCH  51  52
ATOM     52  C   UNL     1      -3.304   2.650  -9.505  1.00  0.00     0.031 A 
ATOM     53  C   UNL     1      -4.155   3.829  -9.793  1.00  0.00     0.074 A 
ATOM     54  C   UNL     1      -1.973   2.727  -9.729  1.00  0.00     0.049 A 
ATOM     55  N   UNL     1      -3.807   4.827 -10.537  1.00  0.00    -0.248 NA
ATOM     56  C   UNL     1      -5.514   3.947  -9.282  1.00  0.00     0.031 C 
ATOM     57  C   UNL     1      -1.191   3.935  -9.974  1.00  0.00     0.029 A 
ATOM     58  N   UNL     1      -1.089   1.680 -10.000  1.00  0.00    -0.354 N 
ATOM     59  C   UNL     1      -4.758   5.814 -10.404  1.00  0.00     0.074 A 
ATOM     60  C   UNL     1      -5.820   5.198  -9.640  1.00  0.00     0.031 C 
ATOM     61  C   UNL     1      -0.049   3.597 -10.589  1.00  0.00     0.029 A 
ATOM     62  C   UNL     1      -0.128   2.182 -10.903  1.00  0.00     0.049 A 
ATOM     63  H   UNL     1      -1.129   0.768  -9.632  1.00  0.00     0.167 HD
ATOM     64  C   UNL     1      -4.493   7.073 -10.863  1.00  0.00     0.037 A 
ATOM     65  C   UNL     1      -0.004   1.654 -12.157  1.00  0.00     0.037 A 
ATOM     66  C   UNL     1      -3.237   7.123 -11.611  1.00  0.00     0.049 A 
ATOM     67  C   UNL     1      -0.315   2.613 -13.289  1.00  0.00     0.074 A 
ATOM     68  C   UNL     1      -1.939   7.506 -11.317  1.00  0.00     0.029 A 
ATOM     69  N   UNL     1      -3.172   6.469 -12.828  1.00  0.00    -0.354 N 
ATOM     70  N   UNL     1      -0.679   3.856 -13.130  1.00  0.00    -0.248 NA
ATOM     71  C   UNL     1      -0.318   2.213 -14.699  1.00  0.00     0.031 C 
ATOM     72  C   UNL     1      -1.088   7.035 -12.358  1.00  0.00     0.029 A 
ATOM     73  C   UNL     1      -1.871   6.368 -13.281  1.00  0.00     0.049 A 
ATOM     74  H   UNL     1      -3.955   6.119 -13.311  1.00  0.00     0.167 HD
ATOM     75  C   UNL     1      -1.045   4.377 -14.342  1.00  0.00     0.074 A 
ATOM     76  C   UNL     1      -0.767   3.327 -15.302  1.00  0.00     0.031 C 
ATOM     77  C   UNL     1      -1.611   5.607 -14.488  1.00  0.00     0.037 A 
BRANCH  64  78
ATOM     78  C   UNL     1      -5.264   8.306 -10.435  1.00  0.00     0.058 A 
ATOM     79  C   UNL     1      -4.618   9.558 -10.329  1.00  0.00     0.135 A 
ATOM     80  C   UNL     1      -6.619   8.315 -10.050  1.00  0.00     0.135 A 
ATOM     81  F   UNL     1      -3.362   9.738 -10.759  1.00  0.00    -0.206 F 
ATOM     82  C   UNL     1      -5.223  10.683  -9.764  1.00  0.00     0.059 A 
ATOM     83  C   UNL     1      -7.228   9.407  -9.423  1.00  0.00     0.059 A 
ATOM     84  F   UNL     1      -7.425   7.280 -10.319  1.00  0.00    -0.206 F 
ATOM     85  C   UNL     1      -6.515  10.586  -9.269  1.00  0.00     0.060 A 
BRANCH  85  86
ATOM     86  S   UNL     1      -7.235  12.008  -8.427  1.00  0.00     0.124 S 
ATOM     87  O   UNL     1      -6.216  12.326  -7.431  1.00  0.00    -0.237 OA
ATOM     88  O   UNL     1      -7.378  12.966  -9.518  1.00  0.00    -0.237 OA
ATOM     89  O   UNL     1      -8.485  11.484  -7.884  1.00  0.00    -0.744 OA
ENDBRANCH  85  86
ENDBRANCH  64  78
BRANCH  65  90
ATOM     90  C   UNL     1      -0.249   0.186 -12.182  1.00  0.00     0.058 A 
ATOM     91  C   UNL     1       0.644  -0.637 -11.466  1.00  0.00     0.135 A 
ATOM     92  C   UNL     1      -1.509  -0.338 -12.496  1.00  0.00     0.135 A 
ATOM     93  F   UNL     1       1.871  -0.186 -11.155  1.00  0.00    -0.206 F 
ATOM     94  C   UNL     1       0.242  -1.854 -10.932  1.00  0.00     0.059 A 
ATOM     95  C   UNL     1      -1.928  -1.566 -11.984  1.00  0.00     0.059 A 
ATOM     96  F   UNL     1      -2.397   0.398 -13.181  1.00  0.00    -0.206 F 
ATOM     97  C   UNL     1      -1.069  -2.275 -11.141  1.00  0.00     0.060 A 
BRANCH  97  98
ATOM     98  S   UNL     1      -1.679  -3.653 -10.143  1.00  0.00     0.124 S 
ATOM     99  O   UNL     1      -0.769  -4.728 -10.522  1.00  0.00    -0.237 OA
ATOM    100  O   UNL     1      -1.510  -3.132  -8.787  1.00  0.00    -0.237 OA
ATOM    101  O   UNL     1      -3.058  -3.804 -10.590  1.00  0.00    -0.744 OA
ENDBRANCH  97  98
ENDBRANCH  65  90
BRANCH  77 102
ATOM    102  C   UNL     1      -1.978   6.168 -15.823  1.00  0.00     0.058 A 
ATOM    103  C   UNL     1      -1.028   6.303 -16.848  1.00  0.00     0.135 A 
ATOM    104  C   UNL     1      -3.257   6.705 -16.067  1.00  0.00     0.135 A 
ATOM    105  F   UNL     1       0.220   5.834 -16.684  1.00  0.00    -0.206 F 
ATOM    106  C   UNL     1      -1.331   6.930 -18.055  1.00  0.00     0.059 A 
ATOM    107  C   UNL     1      -3.571   7.367 -17.249  1.00  0.00     0.059 A 
ATOM    108  F   UNL     1      -4.240   6.582 -15.161  1.00  0.00    -0.206 F 
ATOM    109  C   UNL     1      -2.604   7.464 -18.244  1.00  0.00     0.060 A 
BRANCH 109 110
ATOM    110  S   UNL     1      -2.991   8.327 -19.781  1.00  0.00     0.124 S 
ATOM    111  O   UNL     1      -1.700   8.884 -20.175  1.00  0.00    -0.237 OA
ATOM    112  O   UNL     1      -3.485   7.234 -20.612  1.00  0.00    -0.237 OA
ATOM    113  O   UNL     1      -3.988   9.310 -19.369  1.00  0.00    -0.744 OA
ENDBRANCH 109 110
ENDBRANCH  77 102
ENDBRANCH  51  52
ENDBRANCH  43  46
ENDBRANCH  41  42
ENDBRANCH  40  41
ENDBRANCH  39  40
ENDBRANCH   1  39
TORSDOF 22
