REMARK SMILES COc1ccc(NC(=O)N[C@@H]2C=C[C@H](C(=O)NCCCCCCNC(=O)c3ccc(-c4c5nc(c(-c6c(F)cc(S(=O)(=O)[O-])cc6F)c6ccc([nH]6)c(-c6c(F)cc(S(=O)(=O)[O-])cc6F)c6nc(c(-c7c(F)cc(S(=O)(=O)[O-])cc7F)c7ccc4[nH]7)C=C6)C=C5)cc3)C2)c(C)c1
REMARK SMILES IDX 20 1 19 2 18 3 17 4 15 5 16 6 14 8 11 9 12 10 93 11 13 12
REMARK SMILES IDX 10 13 7 14 8 15 9 17 6 19 3 20 4 21 96 22 5 23 94 24 95 25
REMARK SMILES IDX 2 26 1 27 21 28 22 29 23 30 24 31 25 32 26 34 27 35 28 36
REMARK SMILES IDX 92 37 29 38 91 39 30 40 31 41 32 42 85 43 33 44 90 45 84 46
REMARK SMILES IDX 86 47 34 48 89 49 83 50 82 51 35 53 69 54 48 55 68 56 49 57
REMARK SMILES IDX 52 58 67 59 87 60 50 61 51 62 66 64 88 65 53 66 36 67 37 68
REMARK SMILES IDX 46 69 38 70 39 71 45 72 47 73 40 74 41 75 42 76 43 77 44 78
REMARK SMILES IDX 70 79 71 80 80 81 72 82 73 83 79 84 81 85 74 86 75 87 76 88
REMARK SMILES IDX 77 89 78 90 54 91 55 92 64 93 56 94 57 95 63 96 65 97 58 98
REMARK SMILES IDX 59 99 60 100 61 101 62 102
REMARK H PARENT 17 7 7 16 10 18 24 33 86 52 52 63
REMARK Flexibility Score: inf
ROOT
ATOM      1  C   UNL     1      -2.515   0.999   0.495  1.00  0.00     0.002 C 
ENDROOT
BRANCH   1   2
ATOM      2  C   UNL     1      -1.833   1.066   1.868  1.00  0.00     0.021 C 
BRANCH   2   3
ATOM      3  C   UNL     1      -0.686   0.080   2.073  1.00  0.00     0.116 C 
BRANCH   3   4
ATOM      4  N   UNL     1       0.259   0.132   0.974  1.00  0.00    -0.356 N 
ATOM      5  C   UNL     1       1.562   0.508   0.935  1.00  0.00     0.227 C 
ATOM      6  O   UNL     1       2.115   0.586  -0.163  1.00  0.00    -0.274 OA
ATOM      7  H   UNL     1      -0.108  -0.154   0.107  1.00  0.00     0.163 HD
BRANCH   5   8
ATOM      8  C   UNL     1       2.298   0.745   2.237  1.00  0.00     0.103 C 
ATOM      9  C   UNL     1       4.040   2.041   3.244  1.00  0.00     0.107 C 
ATOM     10  C   UNL     1       4.579   0.754   2.689  1.00  0.00    -0.006 C 
ATOM     11  C   UNL     1       2.765   2.200   2.415  1.00  0.00     0.047 C 
ATOM     12  C   UNL     1       3.601   0.001   2.187  1.00  0.00    -0.016 C 
BRANCH   9  13
ATOM     13  N   UNL     1       5.067   3.020   3.121  1.00  0.00    -0.332 N 
ATOM     14  N   UNL     1       6.498   2.792   5.056  1.00  0.00    -0.308 N 
ATOM     15  C   UNL     1       6.165   3.268   3.841  1.00  0.00     0.319 C 
ATOM     16  H   UNL     1       7.371   3.161   5.320  1.00  0.00     0.171 HD
ATOM     17  O   UNL     1       6.961   4.083   3.353  1.00  0.00    -0.248 OA
ATOM     18  H   UNL     1       4.944   3.632   2.359  1.00  0.00     0.165 HD
BRANCH  14  19
ATOM     19  C   UNL     1       6.022   1.943   6.084  1.00  0.00     0.046 A 
ATOM     20  C   UNL     1       4.891   0.449   8.242  1.00  0.00     0.119 A 
ATOM     21  C   UNL     1       4.529   0.188   6.937  1.00  0.00     0.048 A 
ATOM     22  C   UNL     1       5.902   1.382   8.464  1.00  0.00     0.052 A 
ATOM     23  C   UNL     1       5.134   0.894   5.893  1.00  0.00     0.030 A 
ATOM     24  C   UNL     1       6.488   2.122   7.404  1.00  0.00    -0.024 A 
ATOM     25  C   UNL     1       7.665   2.990   7.771  1.00  0.00     0.047 C 
BRANCH  20  26
ATOM     26  O   UNL     1       4.383  -0.173   9.346  1.00  0.00    -0.497 OA
ATOM     27  C   UNL     1       3.343  -1.121   9.113  1.00  0.00     0.278 C 
ENDBRANCH  20  26
ENDBRANCH  14  19
ENDBRANCH   9  13
ENDBRANCH   5   8
ENDBRANCH   3   4
ENDBRANCH   2   3
ENDBRANCH   1   2
BRANCH   1  28
ATOM     28  C   UNL     1      -2.909  -0.398  -0.010  1.00  0.00     0.002 C 
BRANCH  28  29
ATOM     29  C   UNL     1      -3.747  -1.247   0.943  1.00  0.00     0.021 C 
BRANCH  29  30
ATOM     30  C   UNL     1      -5.096  -0.629   1.272  1.00  0.00     0.116 C 
BRANCH  30  31
ATOM     31  N   UNL     1      -6.224  -1.369   0.741  1.00  0.00    -0.352 N 
ATOM     32  C   UNL     1      -7.576  -1.098   0.942  1.00  0.00     0.251 C 
ATOM     33  H   UNL     1      -6.011  -2.148   0.177  1.00  0.00     0.163 HD
ATOM     34  O   UNL     1      -8.453  -1.837   0.589  1.00  0.00    -0.269 OA
BRANCH  32  35
ATOM     35  C   UNL     1      -7.880   0.224   1.543  1.00  0.00     0.039 A 
ATOM     36  C   UNL     1      -8.430   1.195   0.701  1.00  0.00     0.014 A 
ATOM     37  C   UNL     1      -7.370   0.552   2.796  1.00  0.00     0.014 A 
ATOM     38  C   UNL     1      -8.330   2.538   1.060  1.00  0.00     0.010 A 
ATOM     39  C   UNL     1      -7.194   1.888   3.108  1.00  0.00     0.010 A 
ATOM     40  C   UNL     1      -7.642   2.880   2.227  1.00  0.00    -0.014 A 
BRANCH  40  41
ATOM     41  C   UNL     1      -7.286   4.255   2.560  1.00  0.00     0.031 A 
ATOM     42  C   UNL     1      -8.055   4.992   3.587  1.00  0.00     0.074 A 
ATOM     43  C   UNL     1      -6.270   4.881   1.926  1.00  0.00     0.049 A 
ATOM     44  N   UNL     1      -8.250   6.269   3.560  1.00  0.00    -0.248 NA
ATOM     45  C   UNL     1      -8.700   4.331   4.718  1.00  0.00     0.031 C 
ATOM     46  C   UNL     1      -5.667   6.162   2.286  1.00  0.00     0.029 A 
ATOM     47  N   UNL     1      -5.709   4.570   0.690  1.00  0.00    -0.354 N 
ATOM     48  C   UNL     1      -8.802   6.626   4.766  1.00  0.00     0.074 A 
ATOM     49  C   UNL     1      -9.125   5.381   5.427  1.00  0.00     0.031 C 
ATOM     50  C   UNL     1      -5.015   6.651   1.220  1.00  0.00     0.029 A 
ATOM     51  C   UNL     1      -5.286   5.771   0.097  1.00  0.00     0.049 A 
ATOM     52  H   UNL     1      -5.623   3.670   0.302  1.00  0.00     0.167 HD
ATOM     53  C   UNL     1      -8.806   7.928   5.165  1.00  0.00     0.037 A 
ATOM     54  C   UNL     1      -5.776   6.180  -1.110  1.00  0.00     0.037 A 
ATOM     55  C   UNL     1      -8.180   8.802   4.183  1.00  0.00     0.049 A 
ATOM     56  C   UNL     1      -6.520   7.495  -1.056  1.00  0.00     0.074 A 
ATOM     57  C   UNL     1      -6.888   9.289   4.067  1.00  0.00     0.029 A 
ATOM     58  N   UNL     1      -8.797   9.030   2.957  1.00  0.00    -0.354 N 
ATOM     59  N   UNL     1      -6.965   8.041   0.042  1.00  0.00    -0.248 NA
ATOM     60  C   UNL     1      -6.843   8.288  -2.240  1.00  0.00     0.031 C 
ATOM     61  C   UNL     1      -6.711   9.770   2.750  1.00  0.00     0.029 A 
ATOM     62  C   UNL     1      -7.900   9.591   2.066  1.00  0.00     0.049 A 
ATOM     63  H   UNL     1      -9.737   8.822   2.753  1.00  0.00     0.167 HD
ATOM     64  C   UNL     1      -7.658   9.188  -0.261  1.00  0.00     0.074 A 
ATOM     65  C   UNL     1      -7.521   9.316  -1.699  1.00  0.00     0.031 C 
ATOM     66  C   UNL     1      -8.290   9.924   0.703  1.00  0.00     0.037 A 
BRANCH  53  67
ATOM     67  C   UNL     1      -9.086   8.297   6.599  1.00  0.00     0.058 A 
ATOM     68  C   UNL     1      -8.251   9.188   7.303  1.00  0.00     0.135 A 
ATOM     69  C   UNL     1     -10.136   7.731   7.349  1.00  0.00     0.135 A 
ATOM     70  F   UNL     1      -7.246   9.835   6.699  1.00  0.00    -0.206 F 
ATOM     71  C   UNL     1      -8.382   9.420   8.671  1.00  0.00     0.059 A 
ATOM     72  C   UNL     1     -10.261   7.914   8.730  1.00  0.00     0.059 A 
ATOM     73  F   UNL     1     -11.060   6.958   6.754  1.00  0.00    -0.206 F 
ATOM     74  C   UNL     1      -9.368   8.754   9.385  1.00  0.00     0.060 A 
BRANCH  74  75
ATOM     75  S   UNL     1      -9.418   8.958  11.177  1.00  0.00     0.124 S 
ATOM     76  O   UNL     1      -8.017   8.781  11.550  1.00  0.00    -0.237 OA
ATOM     77  O   UNL     1      -9.944  10.312  11.312  1.00  0.00    -0.237 OA
ATOM     78  O   UNL     1     -10.310   7.888  11.614  1.00  0.00    -0.744 OA
ENDBRANCH  74  75
ENDBRANCH  53  67
BRANCH  54  79
ATOM     79  C   UNL     1      -6.099   5.055  -2.029  1.00  0.00     0.058 A 
ATOM     80  C   UNL     1      -5.036   4.274  -2.523  1.00  0.00     0.135 A 
ATOM     81  C   UNL     1      -7.389   4.511  -2.095  1.00  0.00     0.135 A 
ATOM     82  F   UNL     1      -3.781   4.752  -2.490  1.00  0.00    -0.206 F 
ATOM     83  C   UNL     1      -5.222   2.959  -2.934  1.00  0.00     0.059 A 
ATOM     84  C   UNL     1      -7.599   3.195  -2.509  1.00  0.00     0.059 A 
ATOM     85  F   UNL     1      -8.440   5.205  -1.635  1.00  0.00    -0.206 F 
ATOM     86  C   UNL     1      -6.502   2.411  -2.870  1.00  0.00     0.060 A 
BRANCH  86  87
ATOM     87  S   UNL     1      -6.676   0.627  -3.112  1.00  0.00     0.124 S 
ATOM     88  O   UNL     1      -6.242   0.468  -4.496  1.00  0.00    -0.237 OA
ATOM     89  O   UNL     1      -5.764   0.097  -2.101  1.00  0.00    -0.237 OA
ATOM     90  O   UNL     1      -8.091   0.390  -2.860  1.00  0.00    -0.744 OA
ENDBRANCH  86  87
ENDBRANCH  54  79
BRANCH  66  91
ATOM     91  C   UNL     1      -9.233  11.088   0.481  1.00  0.00     0.058 A 
ATOM     92  C   UNL     1     -10.022  11.265  -0.668  1.00  0.00     0.135 A 
ATOM     93  C   UNL     1      -9.468  12.024   1.523  1.00  0.00     0.135 A 
ATOM     94  F   UNL     1      -9.986  10.389  -1.681  1.00  0.00    -0.206 F 
ATOM     95  C   UNL     1     -10.923  12.326  -0.806  1.00  0.00     0.059 A 
ATOM     96  C   UNL     1     -10.401  13.054   1.428  1.00  0.00     0.059 A 
ATOM     97  F   UNL     1      -8.803  11.961   2.686  1.00  0.00    -0.206 F 
ATOM     98  C   UNL     1     -11.106  13.216   0.247  1.00  0.00     0.060 A 
BRANCH  98  99
ATOM     99  S   UNL     1     -12.313  14.547   0.106  1.00  0.00     0.124 S 
ATOM    100  O   UNL     1     -11.490  15.631  -0.423  1.00  0.00    -0.237 OA
ATOM    101  O   UNL     1     -13.300  13.996  -0.818  1.00  0.00    -0.237 OA
ATOM    102  O   UNL     1     -12.779  14.719   1.478  1.00  0.00    -0.744 OA
ENDBRANCH  98  99
ENDBRANCH  66  91
ENDBRANCH  40  41
ENDBRANCH  32  35
ENDBRANCH  30  31
ENDBRANCH  29  30
ENDBRANCH  28  29
ENDBRANCH   1  28
TORSDOF 19
