REMARK SMILES C[NH2+]CCCC(=O)N[C@H]1C=C[C@@H](C(=O)NCCCCCCNC(=O)c2ccc(-c3c4nc(c(-c5c(F)cc(S(=O)(=O)[O-])cc5F)c5ccc([nH]5)c(-c5c(F)cc(S(=O)(=O)[O-])cc5F)c5nc(c(-c6c(F)cc(S(=O)(=O)[O-])cc6F)c6ccc3[nH]6)C=C5)C=C4)cc2)C1
REMARK SMILES IDX 17 1 16 2 15 3 13 4 14 5 12 7 9 8 10 9 91 10 11 11 8 12 6 13
REMARK SMILES IDX 7 14 5 16 4 17 3 18 2 19 1 20 18 23 19 24 20 25 21 26 22 27
REMARK SMILES IDX 23 28 24 30 25 31 26 32 90 33 27 34 89 35 28 36 29 37 30 38
REMARK SMILES IDX 83 39 31 40 88 41 82 42 84 43 32 44 87 45 81 46 80 47 33 49
REMARK SMILES IDX 67 50 46 51 66 52 47 53 50 54 65 55 85 56 48 57 49 58 64 60
REMARK SMILES IDX 86 61 51 62 34 63 35 64 44 65 36 66 37 67 43 68 45 69 38 70
REMARK SMILES IDX 39 71 40 72 41 73 42 74 68 75 69 76 78 77 70 78 71 79 77 80
REMARK SMILES IDX 79 81 72 82 73 83 74 84 75 85 76 86 52 87 53 88 62 89 54 90
REMARK SMILES IDX 55 91 61 92 63 93 56 94 57 95 58 96 59 97 60 98
REMARK H PARENT 15 6 8 15 2 21 2 22 22 29 84 48 50 59
REMARK Flexibility Score: inf
ROOT
ATOM      1  C   UNL     1       1.848   1.567   5.014  1.00  0.00     0.021 C 
ENDROOT
BRANCH   1   2
ATOM      2  C   UNL     1       2.614   2.648   4.247  1.00  0.00     0.116 C 
BRANCH   2   3
ATOM      3  N   UNL     1       3.579   2.087   3.321  1.00  0.00    -0.356 N 
ATOM      4  C   UNL     1       3.608   2.113   1.960  1.00  0.00     0.227 C 
ATOM      5  O   UNL     1       4.575   1.593   1.395  1.00  0.00    -0.274 OA
ATOM      6  H   UNL     1       4.332   1.612   3.743  1.00  0.00     0.163 HD
BRANCH   4   7
ATOM      7  C   UNL     1       2.462   2.699   1.130  1.00  0.00     0.103 C 
ATOM      8  C   UNL     1       0.036   3.022   1.220  1.00  0.00     0.106 C 
ATOM      9  C   UNL     1       0.783   4.314   1.376  1.00  0.00    -0.006 C 
ATOM     10  C   UNL     1       1.146   1.996   1.419  1.00  0.00     0.047 C 
ATOM     11  C   UNL     1       2.112   4.138   1.331  1.00  0.00    -0.016 C 
BRANCH   8  12
ATOM     12  N   UNL     1      -1.036   2.968   2.189  1.00  0.00    -0.350 N 
ATOM     13  C   UNL     1      -1.879   1.950   2.516  1.00  0.00     0.220 C 
ATOM     14  O   UNL     1      -2.906   2.229   3.137  1.00  0.00    -0.275 OA
ATOM     15  H   UNL     1      -1.179   3.802   2.693  1.00  0.00     0.164 HD
BRANCH  13  16
ATOM     16  C   UNL     1      -1.550   0.507   2.192  1.00  0.00     0.106 C 
BRANCH  16  17
ATOM     17  C   UNL     1      -2.309  -0.085   1.011  1.00  0.00     0.071 C 
BRANCH  17  18
ATOM     18  C   UNL     1      -1.991   0.450  -0.391  1.00  0.00     0.260 C 
BRANCH  18  19
ATOM     19  N   UNL     1      -0.665   0.276  -0.972  1.00  0.00    -0.349 N 
ATOM     20  C   UNL     1       0.050  -0.943  -0.650  1.00  0.00     0.330 C 
ATOM     21  H   UNL     1      -0.768   0.312  -1.987  1.00  0.00     0.346 HD
ATOM     22  H   UNL     1      -0.102   1.024  -0.566  1.00  0.00     0.346 HD
ENDBRANCH  18  19
ENDBRANCH  17  18
ENDBRANCH  16  17
ENDBRANCH  13  16
ENDBRANCH   8  12
ENDBRANCH   4   7
ENDBRANCH   2   3
ENDBRANCH   1   2
BRANCH   1  23
ATOM     23  C   UNL     1       2.650   0.886   6.124  1.00  0.00     0.002 C 
BRANCH  23  24
ATOM     24  C   UNL     1       3.273   1.839   7.147  1.00  0.00     0.002 C 
BRANCH  24  25
ATOM     25  C   UNL     1       2.307   2.864   7.752  1.00  0.00     0.021 C 
BRANCH  25  26
ATOM     26  C   UNL     1       1.112   2.254   8.478  1.00  0.00     0.116 C 
BRANCH  26  27
ATOM     27  N   UNL     1       1.536   1.446   9.609  1.00  0.00    -0.352 N 
ATOM     28  C   UNL     1       1.291   1.633  10.943  1.00  0.00     0.251 C 
ATOM     29  H   UNL     1       2.075   0.653   9.385  1.00  0.00     0.163 HD
ATOM     30  O   UNL     1       1.953   1.014  11.780  1.00  0.00    -0.269 OA
BRANCH  28  31
ATOM     31  C   UNL     1       0.239   2.573  11.378  1.00  0.00     0.039 A 
ATOM     32  C   UNL     1       0.500   3.440  12.442  1.00  0.00     0.014 A 
ATOM     33  C   UNL     1      -1.013   2.579  10.754  1.00  0.00     0.014 A 
ATOM     34  C   UNL     1      -0.482   4.344  12.851  1.00  0.00     0.010 A 
ATOM     35  C   UNL     1      -1.966   3.525  11.121  1.00  0.00     0.010 A 
ATOM     36  C   UNL     1      -1.713   4.410  12.179  1.00  0.00    -0.014 A 
BRANCH  36  37
ATOM     37  C   UNL     1      -2.746   5.401  12.571  1.00  0.00     0.031 A 
ATOM     38  C   UNL     1      -4.063   4.942  13.135  1.00  0.00     0.074 A 
ATOM     39  C   UNL     1      -2.520   6.712  12.357  1.00  0.00     0.049 A 
ATOM     40  N   UNL     1      -5.100   5.654  13.493  1.00  0.00    -0.248 NA
ATOM     41  C   UNL     1      -4.248   3.490  13.293  1.00  0.00     0.031 C 
ATOM     42  C   UNL     1      -1.307   7.272  11.756  1.00  0.00     0.029 A 
ATOM     43  N   UNL     1      -3.304   7.809  12.606  1.00  0.00    -0.354 N 
ATOM     44  C   UNL     1      -6.066   4.740  13.900  1.00  0.00     0.074 A 
ATOM     45  C   UNL     1      -5.507   3.420  13.702  1.00  0.00     0.031 C 
ATOM     46  C   UNL     1      -1.423   8.608  11.696  1.00  0.00     0.029 A 
ATOM     47  C   UNL     1      -2.726   8.998  12.226  1.00  0.00     0.049 A 
ATOM     48  H   UNL     1      -4.196   7.752  13.018  1.00  0.00     0.167 HD
ATOM     49  C   UNL     1      -7.297   4.980  14.410  1.00  0.00     0.037 A 
ATOM     50  C   UNL     1      -3.196  10.258  12.291  1.00  0.00     0.037 A 
ATOM     51  C   UNL     1      -7.834   6.298  14.630  1.00  0.00     0.049 A 
ATOM     52  C   UNL     1      -4.553  10.504  12.889  1.00  0.00     0.074 A 
ATOM     53  C   UNL     1      -9.036   6.652  15.218  1.00  0.00     0.029 A 
ATOM     54  N   UNL     1      -7.205   7.481  14.266  1.00  0.00    -0.354 N 
ATOM     55  N   UNL     1      -5.419   9.632  13.349  1.00  0.00    -0.248 NA
ATOM     56  C   UNL     1      -4.994  11.901  12.988  1.00  0.00     0.031 C 
ATOM     57  C   UNL     1      -9.152   8.046  15.171  1.00  0.00     0.029 A 
ATOM     58  C   UNL     1      -8.003   8.564  14.595  1.00  0.00     0.049 A 
ATOM     59  H   UNL     1      -6.321   7.541  13.837  1.00  0.00     0.167 HD
ATOM     60  C   UNL     1      -6.501  10.376  13.807  1.00  0.00     0.074 A 
ATOM     61  C   UNL     1      -6.171  11.770  13.585  1.00  0.00     0.031 C 
ATOM     62  C   UNL     1      -7.661   9.945  14.361  1.00  0.00     0.037 A 
BRANCH  49  63
ATOM     63  C   UNL     1      -8.148   3.792  14.767  1.00  0.00     0.058 A 
ATOM     64  C   UNL     1      -7.843   2.967  15.862  1.00  0.00     0.135 A 
ATOM     65  C   UNL     1      -9.299   3.488  14.021  1.00  0.00     0.135 A 
ATOM     66  F   UNL     1      -6.747   3.203  16.601  1.00  0.00    -0.206 F 
ATOM     67  C   UNL     1      -8.628   1.865  16.185  1.00  0.00     0.059 A 
ATOM     68  C   UNL     1     -10.114   2.406  14.343  1.00  0.00     0.059 A 
ATOM     69  F   UNL     1      -9.639   4.243  12.965  1.00  0.00    -0.206 F 
ATOM     70  C   UNL     1      -9.761   1.591  15.417  1.00  0.00     0.060 A 
BRANCH  70  71
ATOM     71  S   UNL     1     -10.769   0.157  15.848  1.00  0.00     0.124 S 
ATOM     72  O   UNL     1      -9.933  -0.940  15.369  1.00  0.00    -0.237 OA
ATOM     73  O   UNL     1     -10.884   0.278  17.298  1.00  0.00    -0.237 OA
ATOM     74  O   UNL     1     -12.006   0.374  15.104  1.00  0.00    -0.744 OA
ENDBRANCH  70  71
ENDBRANCH  49  63
BRANCH  50  75
ATOM     75  C   UNL     1      -2.359  11.382  11.796  1.00  0.00     0.058 A 
ATOM     76  C   UNL     1      -1.750  12.277  12.687  1.00  0.00     0.135 A 
ATOM     77  C   UNL     1      -2.123  11.561  10.424  1.00  0.00     0.135 A 
ATOM     78  F   UNL     1      -1.950  12.149  14.007  1.00  0.00    -0.206 F 
ATOM     79  C   UNL     1      -0.943  13.317  12.236  1.00  0.00     0.059 A 
ATOM     80  C   UNL     1      -1.301  12.579   9.950  1.00  0.00     0.059 A 
ATOM     81  F   UNL     1      -2.667  10.719   9.532  1.00  0.00    -0.206 F 
ATOM     82  C   UNL     1      -0.720  13.457  10.865  1.00  0.00     0.060 A 
BRANCH  82  83
ATOM     83  S   UNL     1       0.383  14.768  10.294  1.00  0.00     0.124 S 
ATOM     84  O   UNL     1      -0.453  15.950  10.462  1.00  0.00    -0.237 OA
ATOM     85  O   UNL     1       1.509  14.645  11.215  1.00  0.00    -0.237 OA
ATOM     86  O   UNL     1       0.669  14.386   8.914  1.00  0.00    -0.744 OA
ENDBRANCH  82  83
ENDBRANCH  50  75
BRANCH  62  87
ATOM     87  C   UNL     1      -8.654  10.993  14.779  1.00  0.00     0.058 A 
ATOM     88  C   UNL     1      -9.407  11.710  13.836  1.00  0.00     0.135 A 
ATOM     89  C   UNL     1      -8.885  11.254  16.139  1.00  0.00     0.135 A 
ATOM     90  F   UNL     1      -9.219  11.503  12.523  1.00  0.00    -0.206 F 
ATOM     91  C   UNL     1     -10.336  12.669  14.226  1.00  0.00     0.059 A 
ATOM     92  C   UNL     1      -9.827  12.190  16.552  1.00  0.00     0.059 A 
ATOM     93  F   UNL     1      -8.198  10.588  17.081  1.00  0.00    -0.206 F 
ATOM     94  C   UNL     1     -10.539  12.903  15.588  1.00  0.00     0.060 A 
BRANCH  94  95
ATOM     95  S   UNL     1     -11.764  14.132  16.083  1.00  0.00     0.124 S 
ATOM     96  O   UNL     1     -11.060  15.378  15.801  1.00  0.00    -0.237 OA
ATOM     97  O   UNL     1     -12.889  13.826  15.205  1.00  0.00    -0.237 OA
ATOM     98  O   UNL     1     -11.984  13.841  17.497  1.00  0.00    -0.744 OA
ENDBRANCH  94  95
ENDBRANCH  62  87
ENDBRANCH  36  37
ENDBRANCH  28  31
ENDBRANCH  26  27
ENDBRANCH  25  26
ENDBRANCH  24  25
ENDBRANCH  23  24
ENDBRANCH   1  23
TORSDOF 21
