REMARK SMILES CCC[NH2+][C@]1(C(=O)NCCCCCCNC(=O)c2ccc(-c3c4nc(c(-c5c(F)cc(S(=O)(=O)[O-])cc5F)c5ccc([nH]5)c(-c5c(F)cc(S(=O)(=O)[O-])cc5F)c5nc(c(-c6c(F)cc(S(=O)(=O)[O-])cc6F)c6ccc3[nH]6)C=C5)C=C4)cc2)CC[C@H](n2nc(C)c(CC)c2C)C1
REMARK SMILES IDX 11 1 10 2 9 3 8 4 6 5 7 6 5 8 84 9 96 10 85 11 86 12 4 13
REMARK SMILES IDX 3 16 2 17 1 18 87 19 88 20 94 21 89 22 91 23 95 24 90 25
REMARK SMILES IDX 92 26 93 27 12 28 13 29 14 30 15 31 16 32 17 34 18 35 19 36
REMARK SMILES IDX 83 37 20 38 82 39 21 40 22 41 23 42 76 43 24 44 81 45 75 46
REMARK SMILES IDX 77 47 25 48 80 49 74 50 73 51 26 53 60 54 39 55 59 56 40 57
REMARK SMILES IDX 43 58 58 59 78 60 41 61 42 62 57 64 79 65 44 66 27 67 28 68
REMARK SMILES IDX 37 69 29 70 30 71 36 72 38 73 31 74 32 75 33 76 34 77 35 78
REMARK SMILES IDX 61 79 62 80 71 81 63 82 64 83 70 84 72 85 65 86 66 87 67 88
REMARK SMILES IDX 68 89 69 90 45 91 46 92 55 93 47 94 48 95 54 96 56 97 49 98
REMARK SMILES IDX 50 99 51 100 52 101 53 102
REMARK H PARENT 8 7 4 14 4 15 15 33 77 52 43 63
REMARK Flexibility Score: inf
ROOT
ATOM      1  C   UNL     1      -2.647  -3.434  -1.357  1.00  0.00     0.002 C 
ENDROOT
BRANCH   1   2
ATOM      2  C   UNL     1      -1.610  -4.317  -0.654  1.00  0.00     0.021 C 
BRANCH   2   3
ATOM      3  C   UNL     1      -0.180  -3.808  -0.825  1.00  0.00     0.116 C 
BRANCH   3   4
ATOM      4  N   UNL     1       0.055  -2.692   0.056  1.00  0.00    -0.351 N 
ATOM      5  C   UNL     1       0.372  -2.662   1.370  1.00  0.00     0.281 C 
ATOM      6  O   UNL     1       0.389  -1.535   1.890  1.00  0.00    -0.268 OA
ATOM      7  H   UNL     1      -0.030  -1.808  -0.368  1.00  0.00     0.163 HD
BRANCH   5   8
ATOM      8  C   UNL     1       0.843  -3.905   2.196  1.00  0.00     0.177 C 
ATOM      9  C   UNL     1       0.305  -5.329   2.005  1.00  0.00     0.081 C 
ATOM     10  C   UNL     1       2.315  -4.160   1.793  1.00  0.00     0.106 C 
ATOM     11  C   UNL     1       1.378  -6.220   2.652  1.00  0.00     0.034 C 
ATOM     12  C   UNL     1       2.718  -5.444   2.515  1.00  0.00     0.114 C 
BRANCH   8  13
ATOM     13  N   UNL     1       0.752  -3.524   3.643  1.00  0.00    -0.334 N 
ATOM     14  H   UNL     1       1.309  -4.186   4.183  1.00  0.00     0.347 HD
ATOM     15  H   UNL     1       1.095  -2.566   3.715  1.00  0.00     0.347 HD
BRANCH  13  16
ATOM     16  C   UNL     1      -0.614  -3.524   4.182  1.00  0.00     0.261 C 
BRANCH  16  17
ATOM     17  C   UNL     1      -0.647  -3.042   5.636  1.00  0.00     0.058 C 
ATOM     18  C   UNL     1      -0.257  -1.583   5.812  1.00  0.00     0.010 C 
ENDBRANCH  16  17
ENDBRANCH  13  16
ENDBRANCH   8  13
BRANCH  12  19
ATOM     19  N   UNL     1       3.448  -5.383   3.776  1.00  0.00    -0.266 N 
ATOM     20  N   UNL     1       3.785  -6.599   4.277  1.00  0.00    -0.178 NA
ATOM     21  C   UNL     1       3.940  -4.356   4.558  1.00  0.00     0.039 A 
ATOM     22  C   UNL     1       4.388  -6.351   5.436  1.00  0.00     0.063 A 
ATOM     23  C   UNL     1       4.511  -4.965   5.670  1.00  0.00    -0.004 A 
ATOM     24  C   UNL     1       3.895  -2.889   4.315  1.00  0.00     0.066 C 
ATOM     25  C   UNL     1       4.826  -7.484   6.285  1.00  0.00     0.069 C 
BRANCH  23  26
ATOM     26  C   UNL     1       5.122  -4.287   6.851  1.00  0.00     0.036 C 
ATOM     27  C   UNL     1       4.190  -4.286   8.053  1.00  0.00     0.009 C 
ENDBRANCH  23  26
ENDBRANCH  12  19
ENDBRANCH   5   8
ENDBRANCH   3   4
ENDBRANCH   2   3
ENDBRANCH   1   2
BRANCH   1  28
ATOM     28  C   UNL     1      -2.452  -3.310  -2.872  1.00  0.00     0.002 C 
BRANCH  28  29
ATOM     29  C   UNL     1      -2.310  -4.645  -3.608  1.00  0.00     0.021 C 
BRANCH  29  30
ATOM     30  C   UNL     1      -3.513  -5.570  -3.449  1.00  0.00     0.116 C 
BRANCH  30  31
ATOM     31  N   UNL     1      -4.707  -4.989  -4.043  1.00  0.00    -0.352 N 
ATOM     32  C   UNL     1      -5.437  -5.431  -5.115  1.00  0.00     0.251 C 
ATOM     33  H   UNL     1      -5.036  -4.165  -3.616  1.00  0.00     0.163 HD
ATOM     34  O   UNL     1      -6.246  -4.681  -5.663  1.00  0.00    -0.269 OA
BRANCH  32  35
ATOM     35  C   UNL     1      -5.238  -6.805  -5.614  1.00  0.00     0.039 A 
ATOM     36  C   UNL     1      -5.086  -7.019  -6.986  1.00  0.00     0.014 A 
ATOM     37  C   UNL     1      -5.190  -7.880  -4.720  1.00  0.00     0.014 A 
ATOM     38  C   UNL     1      -4.812  -8.305  -7.455  1.00  0.00     0.010 A 
ATOM     39  C   UNL     1      -4.853  -9.148  -5.183  1.00  0.00     0.010 A 
ATOM     40  C   UNL     1      -4.650  -9.370  -6.553  1.00  0.00    -0.014 A 
BRANCH  40  41
ATOM     41  C   UNL     1      -4.218 -10.713  -7.015  1.00  0.00     0.031 A 
ATOM     42  C   UNL     1      -5.126 -11.900  -6.857  1.00  0.00     0.074 A 
ATOM     43  C   UNL     1      -2.970 -10.870  -7.500  1.00  0.00     0.049 A 
ATOM     44  N   UNL     1      -4.887 -13.160  -7.115  1.00  0.00    -0.248 NA
ATOM     45  C   UNL     1      -6.470 -11.642  -6.316  1.00  0.00     0.031 C 
ATOM     46  C   UNL     1      -1.985  -9.797  -7.659  1.00  0.00     0.029 A 
ATOM     47  N   UNL     1      -2.309 -11.992  -7.932  1.00  0.00    -0.354 N 
ATOM     48  C   UNL     1      -6.043 -13.846  -6.763  1.00  0.00     0.074 A 
ATOM     49  C   UNL     1      -6.966 -12.868  -6.229  1.00  0.00     0.031 C 
ATOM     50  C   UNL     1      -0.853 -10.310  -8.164  1.00  0.00     0.029 A 
ATOM     51  C   UNL     1      -1.012 -11.752  -8.322  1.00  0.00     0.049 A 
ATOM     52  H   UNL     1      -2.724 -12.885  -7.960  1.00  0.00     0.167 HD
ATOM     53  C   UNL     1      -6.313 -15.167  -6.892  1.00  0.00     0.037 A 
ATOM     54  C   UNL     1      -0.051 -12.600  -8.739  1.00  0.00     0.037 A 
ATOM     55  C   UNL     1      -5.389 -16.128  -7.438  1.00  0.00     0.049 A 
ATOM     56  C   UNL     1      -0.364 -14.067  -8.839  1.00  0.00     0.074 A 
ATOM     57  C   UNL     1      -5.592 -17.476  -7.675  1.00  0.00     0.029 A 
ATOM     58  N   UNL     1      -4.084 -15.848  -7.818  1.00  0.00    -0.354 N 
ATOM     59  N   UNL     1      -1.490 -14.688  -8.577  1.00  0.00    -0.248 NA
ATOM     60  C   UNL     1       0.721 -14.951  -9.286  1.00  0.00     0.031 C 
ATOM     61  C   UNL     1      -4.394 -18.023  -8.146  1.00  0.00     0.029 A 
ATOM     62  C   UNL     1      -3.458 -17.006  -8.251  1.00  0.00     0.049 A 
ATOM     63  H   UNL     1      -3.665 -14.958  -7.785  1.00  0.00     0.167 HD
ATOM     64  C   UNL     1      -1.252 -16.033  -8.837  1.00  0.00     0.074 A 
ATOM     65  C   UNL     1       0.117 -16.132  -9.300  1.00  0.00     0.031 C 
ATOM     66  C   UNL     1      -2.090 -17.090  -8.700  1.00  0.00     0.037 A 
BRANCH  53  67
ATOM     67  C   UNL     1      -7.661 -15.655  -6.435  1.00  0.00     0.058 A 
ATOM     68  C   UNL     1      -8.836 -15.334  -7.134  1.00  0.00     0.135 A 
ATOM     69  C   UNL     1      -7.776 -16.491  -5.313  1.00  0.00     0.135 A 
ATOM     70  F   UNL     1      -8.788 -14.528  -8.206  1.00  0.00    -0.206 F 
ATOM     71  C   UNL     1     -10.079 -15.803  -6.721  1.00  0.00     0.059 A 
ATOM     72  C   UNL     1      -9.005 -16.995  -4.898  1.00  0.00     0.059 A 
ATOM     73  F   UNL     1      -6.685 -16.829  -4.608  1.00  0.00    -0.206 F 
ATOM     74  C   UNL     1     -10.153 -16.634  -5.602  1.00  0.00     0.060 A 
BRANCH  74  75
ATOM     75  S   UNL     1     -11.774 -17.239  -5.086  1.00  0.00     0.124 S 
ATOM     76  O   UNL     1     -12.379 -16.026  -4.544  1.00  0.00    -0.237 OA
ATOM     77  O   UNL     1     -12.340 -17.723  -6.341  1.00  0.00    -0.237 OA
ATOM     78  O   UNL     1     -11.456 -18.273  -4.105  1.00  0.00    -0.744 OA
ENDBRANCH  74  75
ENDBRANCH  53  67
BRANCH  54  79
ATOM     79  C   UNL     1       1.297 -12.078  -9.087  1.00  0.00     0.058 A 
ATOM     80  C   UNL     1       1.746 -12.067 -10.415  1.00  0.00     0.135 A 
ATOM     81  C   UNL     1       2.156 -11.563  -8.103  1.00  0.00     0.135 A 
ATOM     82  F   UNL     1       0.964 -12.556 -11.391  1.00  0.00    -0.206 F 
ATOM     83  C   UNL     1       3.001 -11.573 -10.757  1.00  0.00     0.059 A 
ATOM     84  C   UNL     1       3.405 -11.040  -8.422  1.00  0.00     0.059 A 
ATOM     85  F   UNL     1       1.769 -11.536  -6.818  1.00  0.00    -0.206 F 
ATOM     86  C   UNL     1       3.822 -11.058  -9.752  1.00  0.00     0.060 A 
BRANCH  86  87
ATOM     87  S   UNL     1       5.426 -10.368 -10.214  1.00  0.00     0.124 S 
ATOM     88  O   UNL     1       6.183 -11.573 -10.531  1.00  0.00    -0.237 OA
ATOM     89  O   UNL     1       5.077  -9.516 -11.347  1.00  0.00    -0.237 OA
ATOM     90  O   UNL     1       5.844  -9.656  -9.010  1.00  0.00    -0.744 OA
ENDBRANCH  86  87
ENDBRANCH  54  79
BRANCH  66  91
ATOM     91  C   UNL     1      -1.553 -18.449  -9.053  1.00  0.00     0.058 A 
ATOM     92  C   UNL     1      -0.633 -19.109  -8.224  1.00  0.00     0.135 A 
ATOM     93  C   UNL     1      -2.012 -19.127 -10.195  1.00  0.00     0.135 A 
ATOM     94  F   UNL     1      -0.154 -18.501  -7.128  1.00  0.00    -0.206 F 
ATOM     95  C   UNL     1      -0.177 -20.390  -8.520  1.00  0.00     0.059 A 
ATOM     96  C   UNL     1      -1.591 -20.419 -10.495  1.00  0.00     0.059 A 
ATOM     97  F   UNL     1      -2.898 -18.543 -11.018  1.00  0.00    -0.206 F 
ATOM     98  C   UNL     1      -0.668 -21.039  -9.654  1.00  0.00     0.060 A 
BRANCH  98  99
ATOM     99  S   UNL     1      -0.110 -22.722  -9.994  1.00  0.00     0.124 S 
ATOM    100  O   UNL     1       1.266 -22.495 -10.423  1.00  0.00    -0.237 OA
ATOM    101  O   UNL     1      -0.270 -23.371  -8.696  1.00  0.00    -0.237 OA
ATOM    102  O   UNL     1      -1.025 -23.181 -11.034  1.00  0.00    -0.744 OA
ENDBRANCH  98  99
ENDBRANCH  66  91
ENDBRANCH  40  41
ENDBRANCH  32  35
ENDBRANCH  30  31
ENDBRANCH  29  30
ENDBRANCH  28  29
ENDBRANCH   1  28
TORSDOF 21
