REMARK SMILES CC(C)[C@@H](CO)Nc1ccc(C(=O)NCCCCCCNC(=O)c2ccc(-c3c4nc(c(-c5c(F)cc(S(=O)(=O)[O-])cc5F)c5ccc([nH]5)c(-c5c(F)cc(S(=O)(=O)[O-])cc5F)c5nc(c(-c6c(F)cc(S(=O)(=O)[O-])cc6F)c6ccc3[nH]6)C=C5)C=C4)cc2)nn1
REMARK SMILES IDX 17 1 16 2 15 3 14 4 12 5 13 6 11 8 8 9 9 10 91 11 10 12
REMARK SMILES IDX 90 13 7 14 4 16 2 17 1 18 3 19 5 20 6 21 18 23 19 24 20 25
REMARK SMILES IDX 21 26 22 27 23 29 24 30 25 31 89 32 26 33 88 34 27 35 28 36
REMARK SMILES IDX 29 37 82 38 30 39 87 40 81 41 83 42 31 43 86 44 80 45 79 46
REMARK SMILES IDX 32 48 66 49 45 50 65 51 46 52 49 53 64 54 84 55 47 56 48 57
REMARK SMILES IDX 63 59 85 60 50 61 33 62 34 63 43 64 35 65 36 66 42 67 44 68
REMARK SMILES IDX 37 69 38 70 39 71 40 72 41 73 67 74 68 75 77 76 69 77 70 78
REMARK SMILES IDX 76 79 78 80 71 81 72 82 73 83 74 84 75 85 51 86 52 87 61 88
REMARK SMILES IDX 53 89 54 90 60 91 62 92 55 93 56 94 57 95 58 96 59 97
REMARK H PARENT 14 7 7 15 6 22 21 28 83 47 49 58
REMARK Flexibility Score: inf
ROOT
ATOM      1  C   UNL     1      -8.364   1.240  -5.921  1.00  0.00     0.002 C 
ENDROOT
BRANCH   1   2
ATOM      2  C   UNL     1      -7.279   1.217  -4.835  1.00  0.00     0.021 C 
BRANCH   2   3
ATOM      3  C   UNL     1      -5.863   1.064  -5.395  1.00  0.00     0.116 C 
BRANCH   3   4
ATOM      4  N   UNL     1      -5.368   2.344  -5.862  1.00  0.00    -0.351 N 
ATOM      5  C   UNL     1      -4.494   3.265  -5.330  1.00  0.00     0.271 C 
ATOM      6  O   UNL     1      -4.288   4.275  -6.007  1.00  0.00    -0.267 OA
ATOM      7  H   UNL     1      -5.732   2.609  -6.737  1.00  0.00     0.163 HD
BRANCH   5   8
ATOM      8  C   UNL     1      -3.771   3.081  -4.032  1.00  0.00     0.150 A 
ATOM      9  C   UNL     1      -2.152   2.839  -1.810  1.00  0.00     0.148 A 
ATOM     10  C   UNL     1      -3.348   2.143  -1.869  1.00  0.00     0.051 A 
ATOM     11  N   UNL     1      -1.823   3.674  -2.810  1.00  0.00    -0.132 NA
ATOM     12  C   UNL     1      -4.189   2.295  -2.975  1.00  0.00     0.040 A 
ATOM     13  N   UNL     1      -2.616   3.779  -3.938  1.00  0.00    -0.143 NA
BRANCH   9  14
ATOM     14  N   UNL     1      -1.263   2.713  -0.763  1.00  0.00    -0.363 N 
ATOM     15  H   UNL     1      -0.915   3.519  -0.318  1.00  0.00     0.162 HD
BRANCH  14  16
ATOM     16  C   UNL     1      -0.833   1.386  -0.309  1.00  0.00     0.108 C 
BRANCH  16  17
ATOM     17  C   UNL     1       0.721   1.294  -0.412  1.00  0.00     0.007 C 
ATOM     18  C   UNL     1       1.248  -0.064   0.066  1.00  0.00     0.009 C 
ATOM     19  C   UNL     1       1.212   1.527  -1.850  1.00  0.00     0.009 C 
ENDBRANCH  16  17
BRANCH  16  20
ATOM     20  C   UNL     1      -1.377   1.145   1.121  1.00  0.00     0.181 C 
BRANCH  20  21
ATOM     21  O   UNL     1      -0.825   2.034   2.091  1.00  0.00    -0.394 OA
ATOM     22  H   UNL     1       0.134   1.901   2.143  1.00  0.00     0.210 HD
ENDBRANCH  20  21
ENDBRANCH  16  20
ENDBRANCH  14  16
ENDBRANCH   9  14
ENDBRANCH   5   8
ENDBRANCH   3   4
ENDBRANCH   2   3
ENDBRANCH   1   2
BRANCH   1  23
ATOM     23  C   UNL     1      -8.487  -0.052  -6.740  1.00  0.00     0.002 C 
BRANCH  23  24
ATOM     24  C   UNL     1      -8.680  -1.329  -5.916  1.00  0.00     0.021 C 
BRANCH  24  25
ATOM     25  C   UNL     1      -9.936  -1.340  -5.049  1.00  0.00     0.116 C 
BRANCH  25  26
ATOM     26  N   UNL     1     -11.144  -1.287  -5.855  1.00  0.00    -0.352 N 
ATOM     27  C   UNL     1     -12.198  -2.163  -5.908  1.00  0.00     0.251 C 
ATOM     28  H   UNL     1     -11.216  -0.507  -6.451  1.00  0.00     0.163 HD
ATOM     29  O   UNL     1     -13.009  -2.080  -6.826  1.00  0.00    -0.269 OA
BRANCH  27  30
ATOM     30  C   UNL     1     -12.357  -3.205  -4.870  1.00  0.00     0.039 A 
ATOM     31  C   UNL     1     -12.763  -4.485  -5.258  1.00  0.00     0.014 A 
ATOM     32  C   UNL     1     -12.157  -2.915  -3.517  1.00  0.00     0.014 A 
ATOM     33  C   UNL     1     -12.932  -5.481  -4.293  1.00  0.00     0.010 A 
ATOM     34  C   UNL     1     -12.260  -3.926  -2.564  1.00  0.00     0.010 A 
ATOM     35  C   UNL     1     -12.664  -5.215  -2.940  1.00  0.00    -0.014 A 
BRANCH  35  36
ATOM     36  C   UNL     1     -12.823  -6.275  -1.912  1.00  0.00     0.031 A 
ATOM     37  C   UNL     1     -13.883  -6.151  -0.850  1.00  0.00     0.074 A 
ATOM     38  C   UNL     1     -11.993  -7.336  -1.919  1.00  0.00     0.049 A 
ATOM     39  N   UNL     1     -14.173  -6.971   0.128  1.00  0.00    -0.248 NA
ATOM     40  C   UNL     1     -14.709  -4.933  -0.875  1.00  0.00     0.031 C 
ATOM     41  C   UNL     1     -10.895  -7.545  -2.865  1.00  0.00     0.029 A 
ATOM     42  N   UNL     1     -11.945  -8.441  -1.107  1.00  0.00    -0.354 N 
ATOM     43  C   UNL     1     -15.207  -6.369   0.835  1.00  0.00     0.074 A 
ATOM     44  C   UNL     1     -15.452  -5.087   0.210  1.00  0.00     0.031 C 
ATOM     45  C   UNL     1     -10.305  -8.721  -2.602  1.00  0.00     0.029 A 
ATOM     46  C   UNL     1     -10.963  -9.338  -1.454  1.00  0.00     0.049 A 
ATOM     47  H   UNL     1     -12.557  -8.578  -0.348  1.00  0.00     0.167 HD
ATOM     48  C   UNL     1     -15.908  -6.850   1.890  1.00  0.00     0.037 A 
ATOM     49  C   UNL     1     -10.637 -10.527  -0.914  1.00  0.00     0.037 A 
ATOM     50  C   UNL     1     -15.672  -8.135   2.496  1.00  0.00     0.049 A 
ATOM     51  C   UNL     1     -11.438 -11.049   0.247  1.00  0.00     0.074 A 
ATOM     52  C   UNL     1     -16.351  -8.735   3.542  1.00  0.00     0.029 A 
ATOM     53  N   UNL     1     -14.678  -9.022   2.107  1.00  0.00    -0.354 N 
ATOM     54  N   UNL     1     -12.448 -10.489   0.870  1.00  0.00    -0.248 NA
ATOM     55  C   UNL     1     -11.064 -12.370   0.769  1.00  0.00     0.031 C 
ATOM     56  C   UNL     1     -15.747  -9.969   3.808  1.00  0.00     0.029 A 
ATOM     57  C   UNL     1     -14.718 -10.159   2.899  1.00  0.00     0.049 A 
ATOM     58  H   UNL     1     -14.038  -8.867   1.375  1.00  0.00     0.167 HD
ATOM     59  C   UNL     1     -12.847 -11.401   1.842  1.00  0.00     0.074 A 
ATOM     60  C   UNL     1     -11.979 -12.553   1.711  1.00  0.00     0.031 C 
ATOM     61  C   UNL     1     -13.842 -11.295   2.758  1.00  0.00     0.037 A 
BRANCH  48  62
ATOM     62  C   UNL     1     -17.001  -5.979   2.448  1.00  0.00     0.058 A 
ATOM     63  C   UNL     1     -18.186  -5.737   1.732  1.00  0.00     0.135 A 
ATOM     64  C   UNL     1     -16.871  -5.385   3.713  1.00  0.00     0.135 A 
ATOM     65  F   UNL     1     -18.358  -6.267   0.511  1.00  0.00    -0.206 F 
ATOM     66  C   UNL     1     -19.182  -4.905   2.232  1.00  0.00     0.059 A 
ATOM     67  C   UNL     1     -17.868  -4.572   4.246  1.00  0.00     0.059 A 
ATOM     68  F   UNL     1     -15.761  -5.582   4.442  1.00  0.00    -0.206 F 
ATOM     69  C   UNL     1     -19.012  -4.322   3.488  1.00  0.00     0.060 A 
BRANCH  69  70
ATOM     70  S   UNL     1     -20.306  -3.231   4.117  1.00  0.00     0.124 S 
ATOM     71  O   UNL     1     -20.087  -2.030   3.316  1.00  0.00    -0.237 OA
ATOM     72  O   UNL     1     -21.521  -3.980   3.815  1.00  0.00    -0.237 OA
ATOM     73  O   UNL     1     -19.985  -3.107   5.535  1.00  0.00    -0.744 OA
ENDBRANCH  69  70
ENDBRANCH  48  62
BRANCH  49  74
ATOM     74  C   UNL     1      -9.530 -11.328  -1.499  1.00  0.00     0.058 A 
ATOM     75  C   UNL     1      -9.794 -12.497  -2.227  1.00  0.00     0.135 A 
ATOM     76  C   UNL     1      -8.191 -10.932  -1.359  1.00  0.00     0.135 A 
ATOM     77  F   UNL     1     -11.059 -12.917  -2.384  1.00  0.00    -0.206 F 
ATOM     78  C   UNL     1      -8.771 -13.256  -2.785  1.00  0.00     0.059 A 
ATOM     79  C   UNL     1      -7.151 -11.662  -1.928  1.00  0.00     0.059 A 
ATOM     80  F   UNL     1      -7.886  -9.811  -0.688  1.00  0.00    -0.206 F 
ATOM     81  C   UNL     1      -7.452 -12.828  -2.632  1.00  0.00     0.060 A 
BRANCH  81  82
ATOM     82  S   UNL     1      -6.133 -13.788  -3.408  1.00  0.00     0.124 S 
ATOM     83  O   UNL     1      -6.056 -14.946  -2.525  1.00  0.00    -0.237 OA
ATOM     84  O   UNL     1      -6.675 -14.034  -4.740  1.00  0.00    -0.237 OA
ATOM     85  O   UNL     1      -4.990 -12.881  -3.363  1.00  0.00    -0.744 OA
ENDBRANCH  81  82
ENDBRANCH  49  74
BRANCH  61  86
ATOM     86  C   UNL     1     -14.057 -12.472   3.668  1.00  0.00     0.058 A 
ATOM     87  C   UNL     1     -13.152 -12.787   4.695  1.00  0.00     0.135 A 
ATOM     88  C   UNL     1     -15.186 -13.293   3.515  1.00  0.00     0.135 A 
ATOM     89  F   UNL     1     -12.054 -12.036   4.881  1.00  0.00    -0.206 F 
ATOM     90  C   UNL     1     -13.335 -13.899   5.509  1.00  0.00     0.059 A 
ATOM     91  C   UNL     1     -15.404 -14.394   4.336  1.00  0.00     0.059 A 
ATOM     92  F   UNL     1     -16.090 -13.029   2.558  1.00  0.00    -0.206 F 
ATOM     93  C   UNL     1     -14.462 -14.701   5.317  1.00  0.00     0.060 A 
BRANCH  93  94
ATOM     94  S   UNL     1     -14.688 -16.148   6.373  1.00  0.00     0.124 S 
ATOM     95  O   UNL     1     -13.739 -17.089   5.787  1.00  0.00    -0.237 OA
ATOM     96  O   UNL     1     -14.336 -15.633   7.693  1.00  0.00    -0.237 OA
ATOM     97  O   UNL     1     -16.098 -16.481   6.193  1.00  0.00    -0.744 OA
ENDBRANCH  93  94
ENDBRANCH  61  86
ENDBRANCH  35  36
ENDBRANCH  27  30
ENDBRANCH  25  26
ENDBRANCH  24  25
ENDBRANCH  23  24
ENDBRANCH   1  23
TORSDOF 21
