REMARK SMILES O=C1NC(=O)/C(=C/c2ccc(OCc3cn(-c4ccc(C(=O)NCCCCCCNC(=O)c5ccc(-c6c7nc(c(-c8c(F)cc(S(=O)(=O)[O-])cc8F)c8ccc([nH]8)c(-c8c(F)cc(S(=O)(=O)[O-])cc8F)c8nc(c(-c9c(F)cc(S(=O)(=O)[O-])cc9F)c9ccc6[nH]9)C=C8)C=C7)cc5)cc4)nn3)cc2)S1
REMARK SMILES IDX 25 1 24 2 23 3 21 4 22 5 20 7 17 8 18 9 100 10 19 11 99 12
REMARK SMILES IDX 16 13 14 14 15 15 102 16 101 17 13 18 12 19 11 20 8 21 9 22
REMARK SMILES IDX 104 23 10 24 103 25 7 26 1 27 2 28 3 29 105 30 4 31 6 33
REMARK SMILES IDX 5 34 26 35 27 36 28 37 29 38 30 39 31 40 32 42 33 43 34 44
REMARK SMILES IDX 98 45 35 46 97 47 36 48 37 49 38 50 91 51 39 52 96 53 90 54
REMARK SMILES IDX 92 55 40 56 95 57 89 58 88 59 41 61 75 62 54 63 74 64 55 65
REMARK SMILES IDX 58 66 73 67 93 68 56 69 57 70 72 72 94 73 59 74 42 75 43 76
REMARK SMILES IDX 52 77 44 78 45 79 51 80 53 81 46 82 47 83 48 84 49 85 50 86
REMARK SMILES IDX 76 87 77 88 86 89 78 90 79 91 85 92 87 93 80 94 81 95 82 96
REMARK SMILES IDX 83 97 84 98 60 99 61 100 70 101 62 102 63 103 69 104 71 105
REMARK SMILES IDX 64 106 65 107 66 108 67 109 68 110
REMARK H PARENT 23 6 3 32 30 41 92 60 58 71
REMARK Flexibility Score: inf
ROOT
ATOM      1  C   UNL     1      -8.102  10.054  -2.427  1.00  0.00     0.021 C 
ENDROOT
BRANCH   1   2
ATOM      2  C   UNL     1      -7.671  10.486  -1.025  1.00  0.00     0.116 C 
BRANCH   2   3
ATOM      3  N   UNL     1      -8.291   9.634  -0.032  1.00  0.00    -0.352 N 
ATOM      4  C   UNL     1      -7.827   8.596   0.730  1.00  0.00     0.251 C 
ATOM      5  O   UNL     1      -8.631   8.059   1.494  1.00  0.00    -0.269 OA
ATOM      6  H   UNL     1      -9.240   9.844   0.128  1.00  0.00     0.163 HD
BRANCH   4   7
ATOM      7  C   UNL     1      -6.398   8.168   0.755  1.00  0.00     0.039 A 
ATOM      8  C   UNL     1      -3.682   7.554   1.120  1.00  0.00     0.066 A 
ATOM      9  C   UNL     1      -4.620   7.177   2.087  1.00  0.00     0.029 A 
ATOM     10  C   UNL     1      -4.107   8.148  -0.069  1.00  0.00     0.029 A 
ATOM     11  C   UNL     1      -5.963   7.514   1.916  1.00  0.00     0.016 A 
ATOM     12  C   UNL     1      -5.472   8.387  -0.270  1.00  0.00     0.016 A 
BRANCH   8  13
ATOM     13  N   UNL     1      -2.311   7.323   1.362  1.00  0.00    -0.220 N 
ATOM     14  C   UNL     1      -0.130   7.379   1.432  1.00  0.00     0.120 A 
ATOM     15  C   UNL     1      -1.220   7.990   0.848  1.00  0.00     0.144 A 
ATOM     16  N   UNL     1      -0.582   6.426   2.305  1.00  0.00    -0.131 NA
ATOM     17  N   UNL     1      -1.901   6.420   2.280  1.00  0.00    -0.062 NA
BRANCH  14  18
ATOM     18  C   UNL     1       1.331   7.673   1.342  1.00  0.00     0.289 C 
BRANCH  18  19
ATOM     19  O   UNL     1       2.043   6.995   0.294  1.00  0.00    -0.487 OA
BRANCH  19  20
ATOM     20  C   UNL     1       2.163   5.633   0.355  1.00  0.00     0.119 A 
ATOM     21  C   UNL     1       2.206   2.831   0.115  1.00  0.00    -0.024 A 
ATOM     22  C   UNL     1       2.661   3.633  -0.933  1.00  0.00     0.012 A 
ATOM     23  C   UNL     1       1.823   3.436   1.315  1.00  0.00     0.012 A 
ATOM     24  C   UNL     1       2.632   5.027  -0.813  1.00  0.00     0.047 A 
ATOM     25  C   UNL     1       1.830   4.827   1.441  1.00  0.00     0.047 A 
BRANCH  21  26
ATOM     26  C   UNL     1       2.135   1.375  -0.037  1.00  0.00     0.029 C 
ATOM     27  O   UNL     1      -2.413  -0.736   0.330  1.00  0.00    -0.261 OA
ATOM     28  C   UNL     1      -1.259  -0.437   0.095  1.00  0.00     0.290 C 
ATOM     29  N   UNL     1      -0.243  -1.319  -0.106  1.00  0.00    -0.282 N 
ATOM     30  S   UNL     1      -0.624   1.196   0.099  1.00  0.00    -0.022 SA
ATOM     31  C   UNL     1       1.029  -0.834  -0.135  1.00  0.00     0.265 C 
ATOM     32  H   UNL     1      -0.422  -2.279  -0.227  1.00  0.00     0.174 HD
ATOM     33  C   UNL     1       1.007   0.649  -0.038  1.00  0.00     0.083 C 
ATOM     34  O   UNL     1       2.037  -1.524  -0.167  1.00  0.00    -0.268 OA
ENDBRANCH  21  26
ENDBRANCH  19  20
ENDBRANCH  18  19
ENDBRANCH  14  18
ENDBRANCH   8  13
ENDBRANCH   4   7
ENDBRANCH   2   3
ENDBRANCH   1   2
BRANCH   1  35
ATOM     35  C   UNL     1      -9.509  10.543  -2.795  1.00  0.00     0.002 C 
BRANCH  35  36
ATOM     36  C   UNL     1      -9.728  12.061  -2.679  1.00  0.00     0.002 C 
BRANCH  36  37
ATOM     37  C   UNL     1      -8.683  12.954  -3.369  1.00  0.00     0.021 C 
BRANCH  37  38
ATOM     38  C   UNL     1      -8.747  12.897  -4.886  1.00  0.00     0.116 C 
BRANCH  38  39
ATOM     39  N   UNL     1     -10.001  13.463  -5.399  1.00  0.00    -0.352 N 
ATOM     40  C   UNL     1     -10.512  13.453  -6.684  1.00  0.00     0.251 C 
ATOM     41  H   UNL     1     -10.561  13.918  -4.729  1.00  0.00     0.163 HD
ATOM     42  O   UNL     1     -11.359  14.271  -7.025  1.00  0.00    -0.269 OA
BRANCH  40  43
ATOM     43  C   UNL     1     -10.034  12.429  -7.626  1.00  0.00     0.039 A 
ATOM     44  C   UNL     1      -9.899  12.658  -8.999  1.00  0.00     0.014 A 
ATOM     45  C   UNL     1      -9.705  11.196  -7.081  1.00  0.00     0.014 A 
ATOM     46  C   UNL     1      -9.392  11.634  -9.798  1.00  0.00     0.010 A 
ATOM     47  C   UNL     1      -8.956  10.321  -7.801  1.00  0.00     0.010 A 
ATOM     48  C   UNL     1      -8.931  10.467  -9.177  1.00  0.00    -0.014 A 
BRANCH  48  49
ATOM     49  C   UNL     1      -8.369   9.341  -9.900  1.00  0.00     0.031 A 
ATOM     50  C   UNL     1      -7.064   9.626 -10.539  1.00  0.00     0.074 A 
ATOM     51  C   UNL     1      -8.830   8.087  -9.687  1.00  0.00     0.049 A 
ATOM     52  N   UNL     1      -6.817   9.764 -11.798  1.00  0.00    -0.248 NA
ATOM     53  C   UNL     1      -5.936  10.002  -9.670  1.00  0.00     0.031 C 
ATOM     54  C   UNL     1      -9.871   7.643  -8.747  1.00  0.00     0.029 A 
ATOM     55  N   UNL     1      -8.344   6.912 -10.157  1.00  0.00    -0.354 N 
ATOM     56  C   UNL     1      -5.444   9.966 -11.883  1.00  0.00     0.074 A 
ATOM     57  C   UNL     1      -5.027  10.381 -10.571  1.00  0.00     0.031 C 
ATOM     58  C   UNL     1      -9.759   6.313  -8.542  1.00  0.00     0.029 A 
ATOM     59  C   UNL     1      -8.753   5.787  -9.443  1.00  0.00     0.049 A 
ATOM     60  H   UNL     1      -7.749   6.857 -10.940  1.00  0.00     0.167 HD
ATOM     61  C   UNL     1      -4.722   9.486 -12.937  1.00  0.00     0.037 A 
ATOM     62  C   UNL     1      -8.220   4.542  -9.556  1.00  0.00     0.037 A 
ATOM     63  C   UNL     1      -5.600   9.042 -13.996  1.00  0.00     0.049 A 
ATOM     64  C   UNL     1      -7.493   4.512 -10.862  1.00  0.00     0.074 A 
ATOM     65  C   UNL     1      -6.622   9.637 -14.715  1.00  0.00     0.029 A 
ATOM     66  N   UNL     1      -5.782   7.685 -14.147  1.00  0.00    -0.354 N 
ATOM     67  N   UNL     1      -8.088   4.618 -12.023  1.00  0.00    -0.248 NA
ATOM     68  C   UNL     1      -6.086   4.892 -10.853  1.00  0.00     0.031 C 
ATOM     69  C   UNL     1      -7.635   8.636 -14.803  1.00  0.00     0.029 A 
ATOM     70  C   UNL     1      -7.134   7.464 -14.233  1.00  0.00     0.049 A 
ATOM     71  H   UNL     1      -5.074   7.002 -14.187  1.00  0.00     0.167 HD
ATOM     72  C   UNL     1      -7.275   5.463 -12.770  1.00  0.00     0.074 A 
ATOM     73  C   UNL     1      -6.024   5.547 -12.017  1.00  0.00     0.031 C 
ATOM     74  C   UNL     1      -7.785   6.262 -13.756  1.00  0.00     0.037 A 
BRANCH  61  75
ATOM     75  C   UNL     1      -3.273   9.056 -12.873  1.00  0.00     0.058 A 
ATOM     76  C   UNL     1      -2.612   8.723 -14.074  1.00  0.00     0.135 A 
ATOM     77  C   UNL     1      -2.585   8.705 -11.689  1.00  0.00     0.135 A 
ATOM     78  F   UNL     1      -3.166   9.011 -15.263  1.00  0.00    -0.206 F 
ATOM     79  C   UNL     1      -1.409   8.017 -14.097  1.00  0.00     0.059 A 
ATOM     80  C   UNL     1      -1.357   8.056 -11.690  1.00  0.00     0.059 A 
ATOM     81  F   UNL     1      -3.105   8.880 -10.470  1.00  0.00    -0.206 F 
ATOM     82  C   UNL     1      -0.798   7.675 -12.896  1.00  0.00     0.060 A 
BRANCH  82  83
ATOM     83  S   UNL     1       0.696   6.673 -12.915  1.00  0.00     0.124 S 
ATOM     84  O   UNL     1       0.178   5.391 -13.377  1.00  0.00    -0.237 OA
ATOM     85  O   UNL     1       1.536   7.404 -13.858  1.00  0.00    -0.237 OA
ATOM     86  O   UNL     1       1.143   6.712 -11.526  1.00  0.00    -0.744 OA
ENDBRANCH  82  83
ENDBRANCH  61  75
BRANCH  62  87
ATOM     87  C   UNL     1      -7.989   3.550  -8.466  1.00  0.00     0.058 A 
ATOM     88  C   UNL     1      -7.622   2.222  -8.747  1.00  0.00     0.135 A 
ATOM     89  C   UNL     1      -7.867   3.948  -7.117  1.00  0.00     0.135 A 
ATOM     90  F   UNL     1      -7.684   1.758 -10.005  1.00  0.00    -0.206 F 
ATOM     91  C   UNL     1      -7.120   1.357  -7.764  1.00  0.00     0.059 A 
ATOM     92  C   UNL     1      -7.385   3.102  -6.119  1.00  0.00     0.059 A 
ATOM     93  F   UNL     1      -8.126   5.208  -6.737  1.00  0.00    -0.206 F 
ATOM     94  C   UNL     1      -6.986   1.815  -6.453  1.00  0.00     0.060 A 
BRANCH  94  95
ATOM     95  S   UNL     1      -6.172   0.775  -5.215  1.00  0.00     0.124 S 
ATOM     96  O   UNL     1      -7.151  -0.289  -5.025  1.00  0.00    -0.237 OA
ATOM     97  O   UNL     1      -4.939   0.396  -5.896  1.00  0.00    -0.237 OA
ATOM     98  O   UNL     1      -6.000   1.679  -4.080  1.00  0.00    -0.744 OA
ENDBRANCH  94  95
ENDBRANCH  62  87
BRANCH  74  99
ATOM     99  C   UNL     1      -9.197   6.033 -14.237  1.00  0.00     0.058 A 
ATOM    100  C   UNL     1     -10.348   6.138 -13.435  1.00  0.00     0.135 A 
ATOM    101  C   UNL     1      -9.399   5.877 -15.618  1.00  0.00     0.135 A 
ATOM    102  F   UNL     1     -10.255   6.405 -12.125  1.00  0.00    -0.206 F 
ATOM    103  C   UNL     1     -11.634   6.045 -13.974  1.00  0.00     0.059 A 
ATOM    104  C   UNL     1     -10.670   5.817 -16.181  1.00  0.00     0.059 A 
ATOM    105  F   UNL     1      -8.345   5.837 -16.450  1.00  0.00    -0.206 F 
ATOM    106  C   UNL     1     -11.785   5.883 -15.351  1.00  0.00     0.060 A 
BRANCH 106 107
ATOM    107  S   UNL     1     -13.445   5.815 -16.057  1.00  0.00     0.124 S 
ATOM    108  O   UNL     1     -13.925   4.522 -15.582  1.00  0.00    -0.237 OA
ATOM    109  O   UNL     1     -14.089   6.986 -15.469  1.00  0.00    -0.237 OA
ATOM    110  O   UNL     1     -13.208   5.901 -17.496  1.00  0.00    -0.744 OA
ENDBRANCH 106 107
ENDBRANCH  74  99
ENDBRANCH  48  49
ENDBRANCH  40  43
ENDBRANCH  38  39
ENDBRANCH  37  38
ENDBRANCH  36  37
ENDBRANCH  35  36
ENDBRANCH   1  35
TORSDOF 21
