REMARK SMILES Cc1cc(NS(=O)(=O)c2ccc3c(c2)[C@H]2[C@H]4CC[C@H](C4)[C@@H]2[C@H](c2cccc(C(=O)NCCCCCCNC(=O)c4ccc(-c5c6nc(c(-c7c(F)cc(S(=O)(=O)[O-])cc7F)c7ccc([nH]7)c(-c7c(F)cc(S(=O)(=O)[O-])cc7F)c7nc(c(-c8c(F)cc(S(=O)(=O)[O-])cc8F)c8ccc5[nH]8)C=C7)C=C6)cc4)c2)N3)no1
REMARK SMILES IDX 33 1 32 2 31 3 30 4 28 5 29 6 27 8 23 9 24 10 106 11 25 12
REMARK SMILES IDX 26 13 22 14 9 15 10 16 14 17 11 18 13 19 12 20 15 21 107 22
REMARK SMILES IDX 16 23 21 24 17 26 20 27 19 28 18 29 6 30 7 31 8 32 5 33 4 35
REMARK SMILES IDX 1 36 2 37 3 38 109 39 108 40 34 41 35 42 36 43 37 44 38 45
REMARK SMILES IDX 39 47 40 48 41 49 105 50 42 51 104 52 43 53 44 54 45 55
REMARK SMILES IDX 98 56 46 57 103 58 97 59 99 60 47 61 102 62 96 63 95 64
REMARK SMILES IDX 48 66 82 67 61 68 81 69 62 70 65 71 80 72 100 73 63 74 64 75
REMARK SMILES IDX 79 77 101 78 66 79 49 80 50 81 59 82 51 83 52 84 58 85 60 86
REMARK SMILES IDX 53 87 54 88 55 89 56 90 57 91 83 92 84 93 93 94 85 95 86 96
REMARK SMILES IDX 92 97 94 98 87 99 88 100 89 101 90 102 91 103 67 104 68 105
REMARK SMILES IDX 77 106 69 107 70 108 76 109 78 110 71 111 72 112 73 113
REMARK SMILES IDX 74 114 75 115
REMARK H PARENT 30 7 107 25 5 34 37 46 99 65 65 76
REMARK Flexibility Score: inf
ROOT
ATOM      1  C   UNL     1      -4.640   3.789   5.671  1.00  0.00     0.002 C 
ENDROOT
BRANCH   1   2
ATOM      2  C   UNL     1      -3.721   3.756   4.452  1.00  0.00     0.021 C 
BRANCH   2   3
ATOM      3  C   UNL     1      -3.444   5.079   3.752  1.00  0.00     0.116 C 
BRANCH   3   4
ATOM      4  N   UNL     1      -2.871   6.115   4.592  1.00  0.00    -0.352 N 
ATOM      5  C   UNL     1      -2.045   7.168   4.262  1.00  0.00     0.251 C 
ATOM      6  O   UNL     1      -1.681   7.931   5.157  1.00  0.00    -0.269 OA
ATOM      7  H   UNL     1      -3.109   6.056   5.545  1.00  0.00     0.163 HD
BRANCH   5   8
ATOM      8  C   UNL     1      -1.527   7.372   2.878  1.00  0.00     0.040 A 
ATOM      9  C   UNL     1      -1.613   6.951   0.471  1.00  0.00    -0.025 A 
ATOM     10  C   UNL     1      -0.377   7.598   0.339  1.00  0.00     0.006 A 
ATOM     11  C   UNL     1      -2.223   6.973   1.735  1.00  0.00     0.019 A 
ATOM     12  C   UNL     1       0.291   8.105   1.456  1.00  0.00     0.001 A 
ATOM     13  C   UNL     1      -0.266   7.960   2.726  1.00  0.00     0.014 A 
BRANCH   9  14
ATOM     14  C   UNL     1      -2.225   6.170  -0.691  1.00  0.00     0.113 C 
ATOM     15  C   UNL     1      -3.875   1.331   0.108  1.00  0.00     0.088 A 
ATOM     16  C   UNL     1      -5.019   2.137   0.037  1.00  0.00     0.024 A 
ATOM     17  C   UNL     1      -2.621   1.927   0.148  1.00  0.00     0.028 A 
ATOM     18  C   UNL     1      -4.902   3.535  -0.048  1.00  0.00     0.027 A 
ATOM     19  C   UNL     1      -2.506   3.307  -0.025  1.00  0.00    -0.020 A 
ATOM     20  C   UNL     1      -3.646   4.142  -0.117  1.00  0.00     0.038 A 
ATOM     21  C   UNL     1      -1.177   3.973  -0.159  1.00  0.00     0.030 C 
ATOM     22  N   UNL     1      -3.516   5.522  -0.312  1.00  0.00    -0.378 N 
ATOM     23  C   UNL     1       0.140   3.290  -0.575  1.00  0.00    -0.003 C 
ATOM     24  C   UNL     1      -1.340   5.045  -1.257  1.00  0.00     0.027 C 
ATOM     25  H   UNL     1      -4.311   6.090  -0.195  1.00  0.00     0.161 HD
ATOM     26  C   UNL     1       0.112   2.763  -2.024  1.00  0.00     0.004 C 
ATOM     27  C   UNL     1       0.998   4.558  -0.730  1.00  0.00     0.008 C 
ATOM     28  C   UNL     1       0.097   5.165  -1.816  1.00  0.00    -0.005 C 
ATOM     29  C   UNL     1       0.231   4.043  -2.875  1.00  0.00     0.004 C 
BRANCH  15  30
ATOM     30  S   UNL     1      -4.096  -0.441   0.078  1.00  0.00     0.263 S 
ATOM     31  O   UNL     1      -4.374  -0.827  -1.287  1.00  0.00    -0.201 OA
ATOM     32  O   UNL     1      -5.036  -0.722   1.146  1.00  0.00    -0.201 OA
BRANCH  30  33
ATOM     33  N   UNL     1      -2.676  -1.153   0.593  1.00  0.00    -0.261 N 
ATOM     34  H   UNL     1      -2.712  -1.649   1.443  1.00  0.00     0.182 HD
BRANCH  33  35
ATOM     35  C   UNL     1      -1.453  -1.117  -0.054  1.00  0.00     0.183 A 
ATOM     36  C   UNL     1       2.198  -0.875  -0.200  1.00  0.00     0.091 C 
ATOM     37  C   UNL     1       0.733  -1.012  -0.287  1.00  0.00     0.135 A 
ATOM     38  C   UNL     1      -0.236  -1.485   0.563  1.00  0.00     0.096 A 
ATOM     39  O   UNL     1       0.138  -0.526  -1.408  1.00  0.00    -0.360 OA
ATOM     40  N   UNL     1      -1.235  -0.598  -1.264  1.00  0.00    -0.061 NA
ENDBRANCH  33  35
ENDBRANCH  30  33
ENDBRANCH  15  30
ENDBRANCH   9  14
ENDBRANCH   5   8
ENDBRANCH   3   4
ENDBRANCH   2   3
ENDBRANCH   1   2
BRANCH   1  41
ATOM     41  C   UNL     1      -5.972   4.527   5.533  1.00  0.00     0.002 C 
BRANCH  41  42
ATOM     42  C   UNL     1      -6.859   4.159   4.344  1.00  0.00     0.021 C 
BRANCH  42  43
ATOM     43  C   UNL     1      -7.116   2.675   4.109  1.00  0.00     0.116 C 
BRANCH  43  44
ATOM     44  N   UNL     1      -7.763   2.009   5.226  1.00  0.00    -0.352 N 
ATOM     45  C   UNL     1      -8.836   1.148   5.227  1.00  0.00     0.251 C 
ATOM     46  H   UNL     1      -7.377   2.201   6.111  1.00  0.00     0.163 HD
ATOM     47  O   UNL     1      -9.283   0.735   6.294  1.00  0.00    -0.269 OA
BRANCH  45  48
ATOM     48  C   UNL     1      -9.488   0.762   3.953  1.00  0.00     0.039 A 
ATOM     49  C   UNL     1      -8.740   0.387   2.834  1.00  0.00     0.014 A 
ATOM     50  C   UNL     1     -10.884   0.794   3.877  1.00  0.00     0.014 A 
ATOM     51  C   UNL     1      -9.375   0.210   1.606  1.00  0.00     0.010 A 
ATOM     52  C   UNL     1     -11.525   0.540   2.660  1.00  0.00     0.010 A 
ATOM     53  C   UNL     1     -10.773   0.296   1.501  1.00  0.00    -0.014 A 
BRANCH  53  54
ATOM     54  C   UNL     1     -11.426   0.142   0.173  1.00  0.00     0.031 A 
ATOM     55  C   UNL     1     -12.146   1.300  -0.470  1.00  0.00     0.074 A 
ATOM     56  C   UNL     1     -11.321  -1.030  -0.484  1.00  0.00     0.049 A 
ATOM     57  N   UNL     1     -12.747   1.355  -1.632  1.00  0.00    -0.248 NA
ATOM     58  C   UNL     1     -12.199   2.560   0.288  1.00  0.00     0.031 C 
ATOM     59  C   UNL     1     -10.638  -2.221   0.024  1.00  0.00     0.029 A 
ATOM     60  N   UNL     1     -11.757  -1.403  -1.731  1.00  0.00    -0.354 N 
ATOM     61  C   UNL     1     -13.255   2.645  -1.741  1.00  0.00     0.074 A 
ATOM     62  C   UNL     1     -12.922   3.332  -0.512  1.00  0.00     0.031 C 
ATOM     63  C   UNL     1     -10.647  -3.170  -0.924  1.00  0.00     0.029 A 
ATOM     64  C   UNL     1     -11.382  -2.678  -2.085  1.00  0.00     0.049 A 
ATOM     65  H   UNL     1     -12.287  -0.815  -2.315  1.00  0.00     0.167 HD
ATOM     66  C   UNL     1     -13.922   3.211  -2.776  1.00  0.00     0.037 A 
ATOM     67  C   UNL     1     -11.604  -3.376  -3.215  1.00  0.00     0.037 A 
ATOM     68  C   UNL     1     -14.239   2.532  -4.006  1.00  0.00     0.049 A 
ATOM     69  C   UNL     1     -12.386  -2.741  -4.330  1.00  0.00     0.074 A 
ATOM     70  C   UNL     1     -14.912   3.023  -5.112  1.00  0.00     0.029 A 
ATOM     71  N   UNL     1     -13.900   1.219  -4.297  1.00  0.00    -0.354 N 
ATOM     72  N   UNL     1     -12.875  -1.527  -4.404  1.00  0.00    -0.248 NA
ATOM     73  C   UNL     1     -12.660  -3.576  -5.507  1.00  0.00     0.031 C 
ATOM     74  C   UNL     1     -15.006   1.998  -6.060  1.00  0.00     0.029 A 
ATOM     75  C   UNL     1     -14.361   0.879  -5.558  1.00  0.00     0.049 A 
ATOM     76  H   UNL     1     -13.405   0.617  -3.696  1.00  0.00     0.167 HD
ATOM     77  C   UNL     1     -13.508  -1.449  -5.638  1.00  0.00     0.074 A 
ATOM     78  C   UNL     1     -13.328  -2.733  -6.284  1.00  0.00     0.031 C 
ATOM     79  C   UNL     1     -14.183  -0.407  -6.184  1.00  0.00     0.037 A 
BRANCH  66  80
ATOM     80  C   UNL     1     -14.358   4.642  -2.624  1.00  0.00     0.058 A 
ATOM     81  C   UNL     1     -13.440   5.700  -2.705  1.00  0.00     0.135 A 
ATOM     82  C   UNL     1     -15.713   4.964  -2.439  1.00  0.00     0.135 A 
ATOM     83  F   UNL     1     -12.131   5.449  -2.866  1.00  0.00    -0.206 F 
ATOM     84  C   UNL     1     -13.845   7.026  -2.586  1.00  0.00     0.059 A 
ATOM     85  C   UNL     1     -16.143   6.284  -2.338  1.00  0.00     0.059 A 
ATOM     86  F   UNL     1     -16.633   3.990  -2.355  1.00  0.00    -0.206 F 
ATOM     87  C   UNL     1     -15.199   7.308  -2.399  1.00  0.00     0.060 A 
BRANCH  87  88
ATOM     88  S   UNL     1     -15.707   9.034  -2.245  1.00  0.00     0.124 S 
ATOM     89  O   UNL     1     -15.221   9.360  -0.907  1.00  0.00    -0.237 OA
ATOM     90  O   UNL     1     -14.994   9.670  -3.348  1.00  0.00    -0.237 OA
ATOM     91  O   UNL     1     -17.158   8.977  -2.389  1.00  0.00    -0.744 OA
ENDBRANCH  87  88
ENDBRANCH  66  80
BRANCH  67  92
ATOM     92  C   UNL     1     -11.063  -4.753  -3.345  1.00  0.00     0.058 A 
ATOM     93  C   UNL     1      -9.977  -5.021  -4.190  1.00  0.00     0.135 A 
ATOM     94  C   UNL     1     -11.589  -5.816  -2.594  1.00  0.00     0.135 A 
ATOM     95  F   UNL     1      -9.449  -4.039  -4.936  1.00  0.00    -0.206 F 
ATOM     96  C   UNL     1      -9.427  -6.296  -4.285  1.00  0.00     0.059 A 
ATOM     97  C   UNL     1     -11.043  -7.094  -2.657  1.00  0.00     0.059 A 
ATOM     98  F   UNL     1     -12.622  -5.606  -1.764  1.00  0.00    -0.206 F 
ATOM     99  C   UNL     1      -9.964  -7.325  -3.509  1.00  0.00     0.060 A 
BRANCH  99 100
ATOM    100  S   UNL     1      -9.200  -8.960  -3.586  1.00  0.00     0.124 S 
ATOM    101  O   UNL     1      -9.660  -9.438  -4.884  1.00  0.00    -0.237 OA
ATOM    102  O   UNL     1      -7.779  -8.642  -3.489  1.00  0.00    -0.237 OA
ATOM    103  O   UNL     1      -9.760  -9.647  -2.425  1.00  0.00    -0.744 OA
ENDBRANCH  99 100
ENDBRANCH  67  92
BRANCH  79 104
ATOM    104  C   UNL     1     -14.778  -0.610  -7.548  1.00  0.00     0.058 A 
ATOM    105  C   UNL     1     -15.954  -1.353  -7.726  1.00  0.00     0.135 A 
ATOM    106  C   UNL     1     -14.204  -0.004  -8.677  1.00  0.00     0.135 A 
ATOM    107  F   UNL     1     -16.537  -1.958  -6.679  1.00  0.00    -0.206 F 
ATOM    108  C   UNL     1     -16.536  -1.499  -8.981  1.00  0.00     0.059 A 
ATOM    109  C   UNL     1     -14.780  -0.121  -9.938  1.00  0.00     0.059 A 
ATOM    110  F   UNL     1     -13.082   0.724  -8.556  1.00  0.00    -0.206 F 
ATOM    111  C   UNL     1     -15.943  -0.876 -10.081  1.00  0.00     0.060 A 
BRANCH 111 112
ATOM    112  S   UNL     1     -16.735  -1.035 -11.696  1.00  0.00     0.124 S 
ATOM    113  O   UNL     1     -16.405  -2.411 -12.052  1.00  0.00    -0.237 OA
ATOM    114  O   UNL     1     -18.138  -0.781 -11.383  1.00  0.00    -0.237 OA
ATOM    115  O   UNL     1     -16.083  -0.004 -12.498  1.00  0.00    -0.744 OA
ENDBRANCH 111 112
ENDBRANCH  79 104
ENDBRANCH  53  54
ENDBRANCH  45  48
ENDBRANCH  43  44
ENDBRANCH  42  43
ENDBRANCH  41  42
ENDBRANCH   1  41
TORSDOF 20
