REMARK SMILES CC1CCN(C(=O)N[C@@H]2C=C[C@H](C(=O)NCCCCCCNC(=O)c3ccc(-c4c5nc(c(-c6c(F)cc(S(=O)(=O)[O-])cc6F)c6ccc([nH]6)c(-c6c(F)cc(S(=O)(=O)[O-])cc6F)c6nc(c(-c7c(F)cc(S(=O)(=O)[O-])cc7F)c7ccc4[nH]7)C=C6)C=C5)cc3)C2)CC1
REMARK SMILES IDX 19 1 18 2 17 3 16 4 15 5 13 6 14 7 12 9 9 10 10 11 91 12
REMARK SMILES IDX 11 13 8 14 1 15 2 16 3 17 93 18 4 19 92 20 5 21 6 22 7 23
REMARK SMILES IDX 20 25 21 26 22 27 23 28 24 30 25 31 26 32 90 33 27 34 89 35
REMARK SMILES IDX 28 36 29 37 30 38 83 39 31 40 88 41 82 42 84 43 32 44 87 45
REMARK SMILES IDX 81 46 80 47 33 49 67 50 46 51 66 52 47 53 50 54 65 55 85 56
REMARK SMILES IDX 48 57 49 58 64 60 86 61 51 62 34 63 35 64 44 65 36 66 37 67
REMARK SMILES IDX 43 68 45 69 38 70 39 71 40 72 41 73 42 74 68 75 69 76 78 77
REMARK SMILES IDX 70 78 71 79 77 80 79 81 72 82 73 83 74 84 75 85 76 86 52 87
REMARK SMILES IDX 53 88 62 89 54 90 55 91 61 92 63 93 56 94 57 95 58 96 59 97
REMARK SMILES IDX 60 98
REMARK H PARENT 15 8 8 24 22 29 84 48 50 59
REMARK Flexibility Score: inf
ROOT
ATOM      1  C   UNL     1       0.755 -10.129  -1.190  1.00  0.00     0.002 C 
ENDROOT
BRANCH   1   2
ATOM      2  C   UNL     1       1.866  -9.765  -0.205  1.00  0.00     0.002 C 
BRANCH   2   3
ATOM      3  C   UNL     1       3.106  -9.066  -0.775  1.00  0.00     0.021 C 
BRANCH   3   4
ATOM      4  C   UNL     1       2.852  -7.906  -1.735  1.00  0.00     0.116 C 
BRANCH   4   5
ATOM      5  N   UNL     1       1.946  -6.926  -1.180  1.00  0.00    -0.356 N 
ATOM      6  C   UNL     1       1.891  -5.580  -1.348  1.00  0.00     0.227 C 
ATOM      7  O   UNL     1       0.879  -5.022  -0.922  1.00  0.00    -0.274 OA
ATOM      8  H   UNL     1       1.257  -7.295  -0.582  1.00  0.00     0.163 HD
BRANCH   6   9
ATOM      9  C   UNL     1       3.060  -4.828  -1.986  1.00  0.00     0.103 C 
ATOM     10  C   UNL     1       3.079  -2.572  -0.998  1.00  0.00     0.107 C 
ATOM     11  C   UNL     1       2.613  -2.574  -2.443  1.00  0.00    -0.006 C 
ATOM     12  C   UNL     1       3.766  -3.939  -0.960  1.00  0.00     0.047 C 
ATOM     13  C   UNL     1       2.583  -3.807  -2.969  1.00  0.00    -0.016 C 
BRANCH  10  14
ATOM     14  N   UNL     1       1.894  -2.241  -0.223  1.00  0.00    -0.332 N 
ATOM     15  C   UNL     1       1.368  -7.479   2.915  1.00  0.00     0.008 C 
ATOM     16  C   UNL     1       1.557  -5.976   3.103  1.00  0.00    -0.011 C 
ATOM     17  C   UNL     1       0.246  -5.255   2.752  1.00  0.00     0.025 C 
ATOM     18  C   UNL     1       2.731  -5.437   2.260  1.00  0.00     0.025 C 
ATOM     19  C   UNL     1       0.419  -3.742   2.777  1.00  0.00     0.121 C 
ATOM     20  C   UNL     1       2.783  -3.902   2.254  1.00  0.00     0.121 C 
ATOM     21  N   UNL     1       1.500  -3.341   1.875  1.00  0.00    -0.325 N 
ATOM     22  C   UNL     1       1.186  -2.479   0.879  1.00  0.00     0.317 C 
ATOM     23  O   UNL     1       0.139  -1.814   0.931  1.00  0.00    -0.249 OA
ATOM     24  H   UNL     1       1.410  -1.547  -0.727  1.00  0.00     0.165 HD
ENDBRANCH  10  14
ENDBRANCH   6   9
ENDBRANCH   4   5
ENDBRANCH   3   4
ENDBRANCH   2   3
ENDBRANCH   1   2
BRANCH   1  25
ATOM     25  C   UNL     1       1.188 -10.983  -2.376  1.00  0.00     0.021 C 
BRANCH  25  26
ATOM     26  C   UNL     1       1.937 -12.253  -2.005  1.00  0.00     0.116 C 
BRANCH  26  27
ATOM     27  N   UNL     1       1.128 -13.178  -1.227  1.00  0.00    -0.352 N 
ATOM     28  C   UNL     1       0.928 -14.521  -1.446  1.00  0.00     0.251 C 
ATOM     29  H   UNL     1       0.666 -12.796  -0.447  1.00  0.00     0.163 HD
ATOM     30  O   UNL     1       0.110 -15.150  -0.782  1.00  0.00    -0.269 OA
BRANCH  28  31
ATOM     31  C   UNL     1       1.692 -15.184  -2.521  1.00  0.00     0.039 A 
ATOM     32  C   UNL     1       1.002 -15.899  -3.502  1.00  0.00     0.014 A 
ATOM     33  C   UNL     1       3.079 -15.023  -2.598  1.00  0.00     0.014 A 
ATOM     34  C   UNL     1       1.699 -16.393  -4.606  1.00  0.00     0.010 A 
ATOM     35  C   UNL     1       3.755 -15.449  -3.734  1.00  0.00     0.010 A 
ATOM     36  C   UNL     1       3.072 -16.137  -4.750  1.00  0.00    -0.014 A 
BRANCH  36  37
ATOM     37  C   UNL     1       3.817 -16.566  -5.960  1.00  0.00     0.031 A 
ATOM     38  C   UNL     1       4.939 -17.558  -5.836  1.00  0.00     0.074 A 
ATOM     39  C   UNL     1       3.551 -15.988  -7.147  1.00  0.00     0.049 A 
ATOM     40  N   UNL     1       5.768 -17.985  -6.752  1.00  0.00    -0.248 NA
ATOM     41  C   UNL     1       5.182 -18.116  -4.497  1.00  0.00     0.031 C 
ATOM     42  C   UNL     1       2.534 -14.960  -7.379  1.00  0.00     0.029 A 
ATOM     43  N   UNL     1       4.130 -16.165  -8.379  1.00  0.00    -0.354 N 
ATOM     44  C   UNL     1       6.647 -18.838  -6.097  1.00  0.00     0.074 A 
ATOM     45  C   UNL     1       6.279 -18.830  -4.697  1.00  0.00     0.031 C 
ATOM     46  C   UNL     1       2.558 -14.601  -8.672  1.00  0.00     0.029 A 
ATOM     47  C   UNL     1       3.611 -15.348  -9.355  1.00  0.00     0.049 A 
ATOM     48  H   UNL     1       4.850 -16.815  -8.547  1.00  0.00     0.167 HD
ATOM     49  C   UNL     1       7.657 -19.575  -6.617  1.00  0.00     0.037 A 
ATOM     50  C   UNL     1       3.953 -15.204 -10.650  1.00  0.00     0.037 A 
ATOM     51  C   UNL     1       7.993 -19.602  -8.016  1.00  0.00     0.049 A 
ATOM     52  C   UNL     1       5.056 -16.052 -11.216  1.00  0.00     0.074 A 
ATOM     53  C   UNL     1       8.923 -20.397  -8.662  1.00  0.00     0.029 A 
ATOM     54  N   UNL     1       7.419 -18.789  -8.983  1.00  0.00    -0.354 N 
ATOM     55  N   UNL     1       5.813 -16.932 -10.604  1.00  0.00    -0.248 NA
ATOM     56  C   UNL     1       5.353 -15.893 -12.646  1.00  0.00     0.031 C 
ATOM     57  C   UNL     1       8.944 -20.031 -10.013  1.00  0.00     0.029 A 
ATOM     58  C   UNL     1       7.999 -19.037 -10.216  1.00  0.00     0.049 A 
ATOM     59  H   UNL     1       6.704 -18.133  -8.817  1.00  0.00     0.167 HD
ATOM     60  C   UNL     1       6.673 -17.435 -11.573  1.00  0.00     0.074 A 
ATOM     61  C   UNL     1       6.329 -16.776 -12.817  1.00  0.00     0.031 C 
ATOM     62  C   UNL     1       7.658 -18.358 -11.442  1.00  0.00     0.037 A 
BRANCH  49  63
ATOM     63  C   UNL     1       8.469 -20.402  -5.659  1.00  0.00     0.058 A 
ATOM     64  C   UNL     1       7.933 -21.529  -5.015  1.00  0.00     0.135 A 
ATOM     65  C   UNL     1       9.799 -20.054  -5.370  1.00  0.00     0.135 A 
ATOM     66  F   UNL     1       6.663 -21.899  -5.245  1.00  0.00    -0.206 F 
ATOM     67  C   UNL     1       8.668 -22.251  -4.080  1.00  0.00     0.059 A 
ATOM     68  C   UNL     1      10.562 -20.779  -4.460  1.00  0.00     0.059 A 
ATOM     69  F   UNL     1      10.362 -18.988  -5.960  1.00  0.00    -0.206 F 
ATOM     70  C   UNL     1       9.979 -21.861  -3.801  1.00  0.00     0.060 A 
BRANCH  70  71
ATOM     71  S   UNL     1      10.908 -22.780  -2.556  1.00  0.00     0.124 S 
ATOM     72  O   UNL     1      10.313 -22.275  -1.322  1.00  0.00    -0.237 OA
ATOM     73  O   UNL     1      10.594 -24.166  -2.888  1.00  0.00    -0.237 OA
ATOM     74  O   UNL     1      12.289 -22.377  -2.798  1.00  0.00    -0.744 OA
ENDBRANCH  70  71
ENDBRANCH  49  63
BRANCH  50  75
ATOM     75  C   UNL     1       3.222 -14.220 -11.489  1.00  0.00     0.058 A 
ATOM     76  C   UNL     1       2.272 -14.638 -12.431  1.00  0.00     0.135 A 
ATOM     77  C   UNL     1       3.407 -12.839 -11.312  1.00  0.00     0.135 A 
ATOM     78  F   UNL     1       2.067 -15.947 -12.640  1.00  0.00    -0.206 F 
ATOM     79  C   UNL     1       1.521 -13.723 -13.162  1.00  0.00     0.059 A 
ATOM     80  C   UNL     1       2.655 -11.905 -12.017  1.00  0.00     0.059 A 
ATOM     81  F   UNL     1       4.295 -12.390 -10.411  1.00  0.00    -0.206 F 
ATOM     82  C   UNL     1       1.712 -12.358 -12.939  1.00  0.00     0.060 A 
BRANCH  82  83
ATOM     83  S   UNL     1       0.658 -11.181 -13.816  1.00  0.00     0.124 S 
ATOM     84  O   UNL     1       1.216 -11.231 -15.161  1.00  0.00    -0.237 OA
ATOM     85  O   UNL     1      -0.666 -11.773 -13.650  1.00  0.00    -0.237 OA
ATOM     86  O   UNL     1       0.872  -9.934 -13.087  1.00  0.00    -0.744 OA
ENDBRANCH  82  83
ENDBRANCH  50  75
BRANCH  62  87
ATOM     87  C   UNL     1       8.448 -18.704 -12.673  1.00  0.00     0.058 A 
ATOM     88  C   UNL     1       9.414 -17.826 -13.190  1.00  0.00     0.135 A 
ATOM     89  C   UNL     1       8.289 -19.950 -13.300  1.00  0.00     0.135 A 
ATOM     90  F   UNL     1       9.599 -16.620 -12.631  1.00  0.00    -0.206 F 
ATOM     91  C   UNL     1      10.188 -18.168 -14.294  1.00  0.00     0.059 A 
ATOM     92  C   UNL     1       9.068 -20.322 -14.391  1.00  0.00     0.059 A 
ATOM     93  F   UNL     1       7.384 -20.828 -12.839  1.00  0.00    -0.206 F 
ATOM     94  C   UNL     1      10.010 -19.421 -14.885  1.00  0.00     0.060 A 
BRANCH  94  95
ATOM     95  S   UNL     1      11.056 -19.872 -16.286  1.00  0.00     0.124 S 
ATOM     96  O   UNL     1      10.470 -19.075 -17.359  1.00  0.00    -0.237 OA
ATOM     97  O   UNL     1      12.380 -19.453 -15.836  1.00  0.00    -0.237 OA
ATOM     98  O   UNL     1      10.867 -21.315 -16.400  1.00  0.00    -0.744 OA
ENDBRANCH  94  95
ENDBRANCH  62  87
ENDBRANCH  36  37
ENDBRANCH  28  31
ENDBRANCH  26  27
ENDBRANCH  25  26
ENDBRANCH   1  25
TORSDOF 17
