REMARK SMILES O=C(COc1ccc(Br)cc1)NC(=S)Nc1ccc(Cl)cc1C(=O)NCCCCCCNC(=O)c1ccc(-c2c3nc(c(-c4c(F)cc(S(=O)(=O)[O-])cc4F)c4ccc([nH]4)c(-c4c(F)cc(S(=O)(=O)[O-])cc4F)c4nc(c(-c5c(F)cc(S(=O)(=O)[O-])cc5F)c5ccc2[nH]5)C=C4)C=C3)cc1
REMARK SMILES IDX 27 1 26 2 25 3 23 4 24 5 22 7 16 8 17 9 18 10 21 11 19 12
REMARK SMILES IDX 20 13 15 14 13 16 14 17 12 18 1 19 2 20 3 22 4 23 5 24 6 25
REMARK SMILES IDX 11 26 7 27 10 28 8 29 9 30 28 31 29 32 30 33 31 34 32 35
REMARK SMILES IDX 33 36 34 38 35 39 36 40 100 41 37 42 99 43 38 44 39 45 40 46
REMARK SMILES IDX 93 47 41 48 98 49 92 50 94 51 42 52 97 53 91 54 90 55 43 57
REMARK SMILES IDX 77 58 56 59 76 60 57 61 60 62 75 63 95 64 58 65 59 66 74 68
REMARK SMILES IDX 96 69 61 70 44 71 45 72 54 73 46 74 47 75 53 76 55 77 48 78
REMARK SMILES IDX 49 79 50 80 51 81 52 82 78 83 79 84 88 85 80 86 81 87 87 88
REMARK SMILES IDX 89 89 82 90 83 91 84 92 85 93 86 94 62 95 63 96 72 97 64 98
REMARK SMILES IDX 65 99 71 100 73 101 66 102 67 103 68 104 69 105 70 106
REMARK H PARENT 25 6 15 15 12 21 32 37 94 56 60 67
REMARK Flexibility Score: inf
ROOT
ATOM      1  C   UNL     1       1.655   4.402   2.039  1.00  0.00     0.021 C 
ENDROOT
BRANCH   1   2
ATOM      2  C   UNL     1       0.884   3.085   2.080  1.00  0.00     0.116 C 
BRANCH   2   3
ATOM      3  N   UNL     1      -0.545   3.189   1.929  1.00  0.00    -0.352 N 
ATOM      4  C   UNL     1      -1.485   2.286   1.492  1.00  0.00     0.253 C 
ATOM      5  O   UNL     1      -2.658   2.675   1.511  1.00  0.00    -0.269 OA
ATOM      6  H   UNL     1      -0.915   4.064   2.184  1.00  0.00     0.163 HD
BRANCH   4   7
ATOM      7  C   UNL     1      -1.227   0.910   0.955  1.00  0.00     0.064 A 
ATOM      8  C   UNL     1      -0.269  -0.042   1.356  1.00  0.00     0.053 A 
ATOM      9  C   UNL     1      -0.257  -1.329   0.773  1.00  0.00     0.028 A 
ATOM     10  C   UNL     1      -1.118  -1.654  -0.270  1.00  0.00     0.023 A 
ATOM     11  C   UNL     1      -2.084   0.555  -0.114  1.00  0.00     0.036 A 
ATOM     12  C   UNL     1      -2.010  -0.697  -0.728  1.00  0.00     0.041 A 
ATOM     13  Cl  UNL     1      -3.029  -1.063  -2.066  1.00  0.00    -0.084 Cl
BRANCH   8  14
ATOM     14  N   UNL     1       0.719   0.206   2.317  1.00  0.00    -0.332 N 
ATOM     15  H   UNL     1       0.412   0.605   3.164  1.00  0.00     0.169 HD
BRANCH  14  16
ATOM     16  C   UNL     1       2.055  -0.039   2.217  1.00  0.00     0.177 C 
ATOM     17  S   UNL     1       2.982  -0.070   3.608  1.00  0.00    -0.040 S 
BRANCH  16  18
ATOM     18  N   UNL     1       2.711  -0.156   1.009  1.00  0.00    -0.300 N 
ATOM     19  O   UNL     1       1.299   0.609  -0.698  1.00  0.00    -0.271 OA
ATOM     20  C   UNL     1       2.357   0.113  -0.322  1.00  0.00     0.264 C 
ATOM     21  H   UNL     1       3.628  -0.505   1.101  1.00  0.00     0.172 HD
BRANCH  20  22
ATOM     22  C   UNL     1       3.466  -0.164  -1.342  1.00  0.00     0.329 C 
BRANCH  22  23
ATOM     23  O   UNL     1       4.261   0.985  -1.647  1.00  0.00    -0.484 OA
BRANCH  23  24
ATOM     24  C   UNL     1       3.594   1.864  -2.461  1.00  0.00     0.120 A 
ATOM     25  C   UNL     1       2.769   2.840  -1.899  1.00  0.00     0.047 A 
ATOM     26  C   UNL     1       3.798   1.827  -3.839  1.00  0.00     0.047 A 
ATOM     27  C   UNL     1       2.074   3.728  -2.719  1.00  0.00     0.019 A 
ATOM     28  C   UNL     1       3.124   2.736  -4.662  1.00  0.00     0.019 A 
ATOM     29  C   UNL     1       2.255   3.672  -4.099  1.00  0.00     0.018 A 
ATOM     30  Br  UNL     1       1.324   4.885  -5.211  1.00  0.00    -0.051 Br
ENDBRANCH  23  24
ENDBRANCH  22  23
ENDBRANCH  20  22
ENDBRANCH  16  18
ENDBRANCH  14  16
ENDBRANCH   8  14
ENDBRANCH   4   7
ENDBRANCH   2   3
ENDBRANCH   1   2
BRANCH   1  31
ATOM     31  C   UNL     1       1.327   5.443   3.113  1.00  0.00     0.002 C 
BRANCH  31  32
ATOM     32  C   UNL     1       1.276   4.980   4.572  1.00  0.00     0.002 C 
BRANCH  32  33
ATOM     33  C   UNL     1       2.480   4.205   5.113  1.00  0.00     0.021 C 
BRANCH  33  34
ATOM     34  C   UNL     1       3.854   4.835   4.909  1.00  0.00     0.116 C 
BRANCH  34  35
ATOM     35  N   UNL     1       3.985   6.139   5.532  1.00  0.00    -0.352 N 
ATOM     36  C   UNL     1       4.954   6.618   6.379  1.00  0.00     0.251 C 
ATOM     37  H   UNL     1       3.269   6.779   5.314  1.00  0.00     0.163 HD
ATOM     38  O   UNL     1       4.806   7.729   6.895  1.00  0.00    -0.269 OA
BRANCH  36  39
ATOM     39  C   UNL     1       6.154   5.813   6.706  1.00  0.00     0.039 A 
ATOM     40  C   UNL     1       6.598   5.782   8.033  1.00  0.00     0.014 A 
ATOM     41  C   UNL     1       6.864   5.115   5.725  1.00  0.00     0.014 A 
ATOM     42  C   UNL     1       7.707   5.008   8.383  1.00  0.00     0.010 A 
ATOM     43  C   UNL     1       7.932   4.290   6.087  1.00  0.00     0.010 A 
ATOM     44  C   UNL     1       8.365   4.225   7.420  1.00  0.00    -0.014 A 
BRANCH  44  45
ATOM     45  C   UNL     1       9.489   3.326   7.801  1.00  0.00     0.031 A 
ATOM     46  C   UNL     1      10.874   3.556   7.256  1.00  0.00     0.074 A 
ATOM     47  C   UNL     1       9.248   2.262   8.595  1.00  0.00     0.049 A 
ATOM     48  N   UNL     1      11.959   2.847   7.435  1.00  0.00    -0.248 NA
ATOM     49  C   UNL     1      11.061   4.722   6.377  1.00  0.00     0.031 C 
ATOM     50  C   UNL     1       7.939   1.897   9.143  1.00  0.00     0.029 A 
ATOM     51  N   UNL     1      10.088   1.284   9.069  1.00  0.00    -0.354 N 
ATOM     52  C   UNL     1      12.950   3.467   6.682  1.00  0.00     0.074 A 
ATOM     53  C   UNL     1      12.329   4.588   6.011  1.00  0.00     0.031 C 
ATOM     54  C   UNL     1       8.066   0.785   9.885  1.00  0.00     0.029 A 
ATOM     55  C   UNL     1       9.454   0.335   9.838  1.00  0.00     0.049 A 
ATOM     56  H   UNL     1      11.053   1.263   8.876  1.00  0.00     0.167 HD
ATOM     57  C   UNL     1      14.261   3.142   6.574  1.00  0.00     0.037 A 
ATOM     58  C   UNL     1       9.929  -0.780  10.427  1.00  0.00     0.037 A 
ATOM     59  C   UNL     1      14.883   2.044   7.271  1.00  0.00     0.049 A 
ATOM     60  C   UNL     1      11.393  -1.110  10.303  1.00  0.00     0.074 A 
ATOM     61  C   UNL     1      16.220   1.686   7.289  1.00  0.00     0.029 A 
ATOM     62  N   UNL     1      14.214   1.125   8.067  1.00  0.00    -0.354 N 
ATOM     63  N   UNL     1      12.331  -0.462   9.653  1.00  0.00    -0.248 NA
ATOM     64  C   UNL     1      11.867  -2.315  10.997  1.00  0.00     0.031 C 
ATOM     65  C   UNL     1      16.352   0.520   8.051  1.00  0.00     0.029 A 
ATOM     66  C   UNL     1      15.106   0.184   8.555  1.00  0.00     0.049 A 
ATOM     67  H   UNL     1      13.248   1.140   8.256  1.00  0.00     0.167 HD
ATOM     68  C   UNL     1      13.508  -1.167   9.881  1.00  0.00     0.074 A 
ATOM     69  C   UNL     1      13.168  -2.280  10.743  1.00  0.00     0.031 C 
ATOM     70  C   UNL     1      14.757  -0.917   9.418  1.00  0.00     0.037 A 
BRANCH  57  71
ATOM     71  C   UNL     1      15.128   3.979   5.672  1.00  0.00     0.058 A 
ATOM     72  C   UNL     1      15.499   5.289   6.011  1.00  0.00     0.135 A 
ATOM     73  C   UNL     1      15.659   3.434   4.491  1.00  0.00     0.135 A 
ATOM     74  F   UNL     1      15.011   5.865   7.121  1.00  0.00    -0.206 F 
ATOM     75  C   UNL     1      16.354   6.035   5.205  1.00  0.00     0.059 A 
ATOM     76  C   UNL     1      16.537   4.151   3.684  1.00  0.00     0.059 A 
ATOM     77  F   UNL     1      15.336   2.185   4.119  1.00  0.00    -0.206 F 
ATOM     78  C   UNL     1      16.872   5.455   4.046  1.00  0.00     0.060 A 
BRANCH  78  79
ATOM     79  S   UNL     1      18.008   6.424   3.030  1.00  0.00     0.124 S 
ATOM     80  O   UNL     1      17.104   7.405   2.438  1.00  0.00    -0.237 OA
ATOM     81  O   UNL     1      18.945   6.943   4.021  1.00  0.00    -0.237 OA
ATOM     82  O   UNL     1      18.560   5.441   2.103  1.00  0.00    -0.744 OA
ENDBRANCH  78  79
ENDBRANCH  57  71
BRANCH  58  83
ATOM     83  C   UNL     1       9.012  -1.673  11.187  1.00  0.00     0.058 A 
ATOM     84  C   UNL     1       9.108  -1.798  12.581  1.00  0.00     0.135 A 
ATOM     85  C   UNL     1       8.026  -2.427  10.531  1.00  0.00     0.135 A 
ATOM     86  F   UNL     1      10.038  -1.104  13.254  1.00  0.00    -0.206 F 
ATOM     87  C   UNL     1       8.279  -2.659  13.295  1.00  0.00     0.059 A 
ATOM     88  C   UNL     1       7.167  -3.271  11.226  1.00  0.00     0.059 A 
ATOM     89  F   UNL     1       7.881  -2.331   9.200  1.00  0.00    -0.206 F 
ATOM     90  C   UNL     1       7.311  -3.393  12.607  1.00  0.00     0.060 A 
BRANCH  90  91
ATOM     91  S   UNL     1       6.223  -4.488  13.544  1.00  0.00     0.124 S 
ATOM     92  O   UNL     1       7.124  -5.586  13.870  1.00  0.00    -0.237 OA
ATOM     93  O   UNL     1       5.819  -3.638  14.660  1.00  0.00    -0.237 OA
ATOM     94  O   UNL     1       5.163  -4.802  12.590  1.00  0.00    -0.744 OA
ENDBRANCH  90  91
ENDBRANCH  58  83
BRANCH  70  95
ATOM     95  C   UNL     1      15.859  -1.842   9.856  1.00  0.00     0.058 A 
ATOM     96  C   UNL     1      15.958  -3.156   9.372  1.00  0.00     0.135 A 
ATOM     97  C   UNL     1      16.856  -1.393  10.738  1.00  0.00     0.135 A 
ATOM     98  F   UNL     1      15.028  -3.638   8.532  1.00  0.00    -0.206 F 
ATOM     99  C   UNL     1      16.991  -4.000   9.767  1.00  0.00     0.059 A 
ATOM    100  C   UNL     1      17.915  -2.210  11.122  1.00  0.00     0.059 A 
ATOM    101  F   UNL     1      16.817  -0.141  11.223  1.00  0.00    -0.206 F 
ATOM    102  C   UNL     1      17.966  -3.518  10.642  1.00  0.00     0.060 A 
BRANCH 102 103
ATOM    103  S   UNL     1      19.316  -4.615  11.124  1.00  0.00     0.124 S 
ATOM    104  O   UNL     1      18.640  -5.526  12.042  1.00  0.00    -0.237 OA
ATOM    105  O   UNL     1      19.723  -5.190   9.845  1.00  0.00    -0.237 OA
ATOM    106  O   UNL     1      20.286  -3.712  11.735  1.00  0.00    -0.744 OA
ENDBRANCH 102 103
ENDBRANCH  70  95
ENDBRANCH  44  45
ENDBRANCH  36  39
ENDBRANCH  34  35
ENDBRANCH  33  34
ENDBRANCH  32  33
ENDBRANCH  31  32
ENDBRANCH   1  31
TORSDOF 22
