REMARK SMILES O=C(NCCCCCCNC(=O)c1ccc([C@@H]2CC(O)=Nc3c2ncn3-c2cccc(Cl)c2)cc1)c1ccc(-c2c3nc(c(-c4c(F)cc(S(=O)(=O)[O-])cc4F)c4ccc([nH]4)c(-c4c(F)cc(S(=O)(=O)[O-])cc4F)c4nc(c(-c5c(F)cc(S(=O)(=O)[O-])cc5F)c5ccc2[nH]5)C=C4)C=C3)cc1
REMARK SMILES IDX 6 1 5 2 4 3 3 4 1 5 2 6 36 8 37 9 101 10 38 11 100 12 39 13
REMARK SMILES IDX 40 14 41 15 94 16 42 17 99 18 93 19 95 20 43 21 98 22 92 23
REMARK SMILES IDX 91 24 44 26 78 27 57 28 77 29 58 30 61 31 76 32 96 33 59 34
REMARK SMILES IDX 60 35 75 37 97 38 62 39 45 40 46 41 55 42 47 43 48 44 54 45
REMARK SMILES IDX 56 46 49 47 50 48 51 49 52 50 53 51 79 52 80 53 89 54 81 55
REMARK SMILES IDX 82 56 88 57 90 58 83 59 84 60 85 61 86 62 87 63 63 64 64 65
REMARK SMILES IDX 73 66 65 67 66 68 72 69 74 70 67 71 68 72 69 73 70 74 71 75
REMARK SMILES IDX 7 76 8 77 9 78 10 79 11 80 12 82 13 83 14 84 35 85 15 86
REMARK SMILES IDX 34 87 16 88 17 89 18 90 23 91 19 92 22 93 24 94 21 95 26 96
REMARK SMILES IDX 25 97 20 98 27 100 28 101 33 102 29 103 31 104 30 105 32 106
REMARK H PARENT 3 7 95 25 61 36 10 81 20 99
REMARK Flexibility Score: inf
ROOT
ATOM      1  C   UNL     1       4.186   3.539  -0.151  1.00  0.00     0.002 C 
ENDROOT
BRANCH   1   2
ATOM      2  C   UNL     1       4.707   2.208  -0.710  1.00  0.00     0.021 C 
BRANCH   2   3
ATOM      3  C   UNL     1       4.512   1.001   0.206  1.00  0.00     0.116 C 
BRANCH   3   4
ATOM      4  N   UNL     1       3.131   0.764   0.570  1.00  0.00    -0.352 N 
ATOM      5  O   UNL     1       1.044   0.076   0.686  1.00  0.00    -0.269 OA
ATOM      6  C   UNL     1       2.071   0.113   0.001  1.00  0.00     0.251 C 
ATOM      7  H   UNL     1       2.898   1.169   1.437  1.00  0.00     0.163 HD
BRANCH   6   8
ATOM      8  C   UNL     1       2.053  -0.516  -1.352  1.00  0.00     0.039 A 
ATOM      9  C   UNL     1       3.150  -0.681  -2.198  1.00  0.00     0.014 A 
ATOM     10  C   UNL     1       0.798  -0.981  -1.797  1.00  0.00     0.014 A 
ATOM     11  C   UNL     1       2.994  -1.266  -3.458  1.00  0.00     0.010 A 
ATOM     12  C   UNL     1       0.639  -1.571  -3.051  1.00  0.00     0.010 A 
ATOM     13  C   UNL     1       1.738  -1.700  -3.895  1.00  0.00    -0.014 A 
BRANCH  13  14
ATOM     14  C   UNL     1       1.652  -2.372  -5.194  1.00  0.00     0.031 A 
ATOM     15  C   UNL     1       2.404  -3.660  -5.322  1.00  0.00     0.074 A 
ATOM     16  C   UNL     1       0.840  -1.994  -6.202  1.00  0.00     0.049 A 
ATOM     17  N   UNL     1       3.362  -3.964  -6.139  1.00  0.00    -0.248 NA
ATOM     18  C   UNL     1       2.065  -4.733  -4.375  1.00  0.00     0.031 C 
ATOM     19  C   UNL     1      -0.222  -0.986  -6.184  1.00  0.00     0.029 A 
ATOM     20  N   UNL     1       0.743  -2.525  -7.457  1.00  0.00    -0.354 N 
ATOM     21  C   UNL     1       3.636  -5.318  -5.933  1.00  0.00     0.074 A 
ATOM     22  C   UNL     1       2.882  -5.710  -4.768  1.00  0.00     0.031 C 
ATOM     23  C   UNL     1      -0.983  -1.122  -7.294  1.00  0.00     0.029 A 
ATOM     24  C   UNL     1      -0.382  -2.122  -8.162  1.00  0.00     0.049 A 
ATOM     25  H   UNL     1       1.414  -3.141  -7.830  1.00  0.00     0.167 HD
ATOM     26  C   UNL     1       4.344  -6.075  -6.818  1.00  0.00     0.037 A 
ATOM     27  C   UNL     1      -0.818  -2.616  -9.347  1.00  0.00     0.037 A 
ATOM     28  C   UNL     1       5.093  -5.268  -7.742  1.00  0.00     0.049 A 
ATOM     29  C   UNL     1       0.329  -3.282 -10.013  1.00  0.00     0.074 A 
ATOM     30  C   UNL     1       6.097  -4.327  -7.619  1.00  0.00     0.029 A 
ATOM     31  N   UNL     1       4.630  -5.143  -9.027  1.00  0.00    -0.354 N 
ATOM     32  N   UNL     1       1.378  -2.662 -10.479  1.00  0.00    -0.248 NA
ATOM     33  C   UNL     1       0.481  -4.718  -9.838  1.00  0.00     0.031 C 
ATOM     34  C   UNL     1       5.837  -3.372  -8.645  1.00  0.00     0.029 A 
ATOM     35  C   UNL     1       4.712  -3.811  -9.344  1.00  0.00     0.049 A 
ATOM     36  H   UNL     1       4.303  -5.867  -9.608  1.00  0.00     0.167 HD
ATOM     37  C   UNL     1       2.431  -3.540 -10.276  1.00  0.00     0.074 A 
ATOM     38  C   UNL     1       1.803  -4.824  -9.982  1.00  0.00     0.031 C 
ATOM     39  C   UNL     1       3.709  -3.093 -10.102  1.00  0.00     0.037 A 
BRANCH  26  40
ATOM     40  C   UNL     1       4.154  -7.559  -7.021  1.00  0.00     0.058 A 
ATOM     41  C   UNL     1       5.109  -8.306  -7.742  1.00  0.00     0.135 A 
ATOM     42  C   UNL     1       2.935  -8.221  -6.758  1.00  0.00     0.135 A 
ATOM     43  F   UNL     1       6.296  -7.769  -8.066  1.00  0.00    -0.206 F 
ATOM     44  C   UNL     1       4.852  -9.597  -8.211  1.00  0.00     0.059 A 
ATOM     45  C   UNL     1       2.677  -9.525  -7.170  1.00  0.00     0.059 A 
ATOM     46  F   UNL     1       1.907  -7.596  -6.170  1.00  0.00    -0.206 F 
ATOM     47  C   UNL     1       3.624 -10.191  -7.932  1.00  0.00     0.060 A 
BRANCH  47  48
ATOM     48  S   UNL     1       3.245 -11.810  -8.630  1.00  0.00     0.124 S 
ATOM     49  O   UNL     1       3.063 -11.483 -10.039  1.00  0.00    -0.237 OA
ATOM     50  O   UNL     1       4.444 -12.574  -8.301  1.00  0.00    -0.237 OA
ATOM     51  O   UNL     1       2.039 -12.210  -7.912  1.00  0.00    -0.744 OA
ENDBRANCH  47  48
ENDBRANCH  26  40
BRANCH  27  52
ATOM     52  C   UNL     1      -2.220  -2.817  -9.796  1.00  0.00     0.058 A 
ATOM     53  C   UNL     1      -2.526  -3.062 -11.147  1.00  0.00     0.135 A 
ATOM     54  C   UNL     1      -3.253  -3.059  -8.869  1.00  0.00     0.135 A 
ATOM     55  F   UNL     1      -1.593  -2.884 -12.094  1.00  0.00    -0.206 F 
ATOM     56  C   UNL     1      -3.769  -3.561 -11.550  1.00  0.00     0.059 A 
ATOM     57  C   UNL     1      -4.503  -3.545  -9.248  1.00  0.00     0.059 A 
ATOM     58  F   UNL     1      -3.045  -2.920  -7.551  1.00  0.00    -0.206 F 
ATOM     59  C   UNL     1      -4.746  -3.818 -10.588  1.00  0.00     0.060 A 
BRANCH  59  60
ATOM     60  S   UNL     1      -6.285  -4.630 -11.080  1.00  0.00     0.124 S 
ATOM     61  O   UNL     1      -6.955  -3.575 -11.831  1.00  0.00    -0.237 OA
ATOM     62  O   UNL     1      -5.800  -5.761 -11.864  1.00  0.00    -0.237 OA
ATOM     63  O   UNL     1      -6.906  -4.981  -9.805  1.00  0.00    -0.744 OA
ENDBRANCH  59  60
ENDBRANCH  27  52
BRANCH  39  64
ATOM     64  C   UNL     1       4.029  -1.665 -10.459  1.00  0.00     0.058 A 
ATOM     65  C   UNL     1       3.477  -0.547  -9.809  1.00  0.00     0.135 A 
ATOM     66  C   UNL     1       5.066  -1.425 -11.375  1.00  0.00     0.135 A 
ATOM     67  F   UNL     1       2.556  -0.694  -8.846  1.00  0.00    -0.206 F 
ATOM     68  C   UNL     1       3.916   0.751 -10.078  1.00  0.00     0.059 A 
ATOM     69  C   UNL     1       5.541  -0.142 -11.636  1.00  0.00     0.059 A 
ATOM     70  F   UNL     1       5.676  -2.455 -11.985  1.00  0.00    -0.206 F 
ATOM     71  C   UNL     1       4.955   0.943 -10.988  1.00  0.00     0.060 A 
BRANCH  71  72
ATOM     72  S   UNL     1       5.605   2.611 -11.239  1.00  0.00     0.124 S 
ATOM     73  O   UNL     1       4.555   3.232 -12.040  1.00  0.00    -0.237 OA
ATOM     74  O   UNL     1       5.739   3.110  -9.873  1.00  0.00    -0.237 OA
ATOM     75  O   UNL     1       6.869   2.383 -11.934  1.00  0.00    -0.744 OA
ENDBRANCH  71  72
ENDBRANCH  39  64
ENDBRANCH  13  14
ENDBRANCH   6   8
ENDBRANCH   3   4
ENDBRANCH   2   3
ENDBRANCH   1   2
BRANCH   1  76
ATOM     76  C   UNL     1       4.709   3.943   1.232  1.00  0.00     0.002 C 
BRANCH  76  77
ATOM     77  C   UNL     1       6.232   4.007   1.376  1.00  0.00     0.021 C 
BRANCH  77  78
ATOM     78  C   UNL     1       6.937   4.984   0.436  1.00  0.00     0.116 C 
BRANCH  78  79
ATOM     79  N   UNL     1       6.599   6.370   0.726  1.00  0.00    -0.352 N 
ATOM     80  C   UNL     1       7.435   7.418   1.012  1.00  0.00     0.251 C 
ATOM     81  H   UNL     1       5.638   6.585   0.715  1.00  0.00     0.163 HD
ATOM     82  O   UNL     1       6.976   8.497   1.399  1.00  0.00    -0.269 OA
BRANCH  80  83
ATOM     83  C   UNL     1       8.896   7.255   0.889  1.00  0.00     0.039 A 
ATOM     84  C   UNL     1       9.703   7.606   1.972  1.00  0.00     0.014 A 
ATOM     85  C   UNL     1       9.471   6.766  -0.288  1.00  0.00     0.014 A 
ATOM     86  C   UNL     1      11.081   7.395   1.906  1.00  0.00     0.005 A 
ATOM     87  C   UNL     1      10.848   6.548  -0.350  1.00  0.00     0.005 A 
ATOM     88  C   UNL     1      11.670   6.843   0.753  1.00  0.00    -0.038 A 
BRANCH  88  89
ATOM     89  C   UNL     1      13.169   6.589   0.735  1.00  0.00     0.081 C 
ATOM     90  C   UNL     1      13.879   7.301  -0.436  1.00  0.00     0.111 C 
ATOM     91  C   UNL     1      13.340   5.115   0.666  1.00  0.00     0.093 A 
ATOM     92  C   UNL     1      14.454   6.382  -1.502  1.00  0.00     0.188 C 
ATOM     93  C   UNL     1      14.029   4.518  -0.366  1.00  0.00     0.164 A 
ATOM     94  N   UNL     1      12.811   4.189   1.525  1.00  0.00    -0.238 NA
ATOM     95  N   UNL     1      14.582   5.096  -1.458  1.00  0.00    -0.198 NA
ATOM     96  N   UNL     1      13.883   3.158  -0.161  1.00  0.00    -0.283 N 
ATOM     97  C   UNL     1      13.107   3.029   0.974  1.00  0.00     0.206 A 
BRANCH  92  98
ATOM     98  O   UNL     1      14.914   7.029  -2.591  1.00  0.00    -0.496 OA
ATOM     99  H   UNL     1      14.834   7.961  -2.651  1.00  0.00     0.294 HD
ENDBRANCH  92  98
BRANCH  96 100
ATOM    100  C   UNL     1      14.388   2.111  -0.965  1.00  0.00     0.050 A 
ATOM    101  C   UNL     1      13.595   0.988  -1.232  1.00  0.00     0.027 A 
ATOM    102  C   UNL     1      15.672   2.218  -1.515  1.00  0.00     0.047 A 
ATOM    103  C   UNL     1      14.075  -0.004  -2.089  1.00  0.00     0.004 A 
ATOM    104  C   UNL     1      16.158   1.196  -2.326  1.00  0.00     0.043 A 
ATOM    105  C   UNL     1      15.359   0.095  -2.630  1.00  0.00     0.020 A 
ATOM    106  Cl  UNL     1      17.762   1.286  -2.944  1.00  0.00    -0.084 Cl
ENDBRANCH  96 100
ENDBRANCH  88  89
ENDBRANCH  80  83
ENDBRANCH  78  79
ENDBRANCH  77  78
ENDBRANCH  76  77
ENDBRANCH   1  76
TORSDOF 19
