REMARK SMILES CC[NH2+][C@@]1(C(=O)NCCCCCCNC(=O)c2ccc(-c3c4nc(c(-c5c(F)cc(S(=O)(=O)[O-])cc5F)c5ccc([nH]5)c(-c5c(F)cc(S(=O)(=O)[O-])cc5F)c5nc(c(-c6c(F)cc(S(=O)(=O)[O-])cc6F)c6ccc3[nH]6)C=C5)C=C4)cc2)CC[C@@H](n2cnc3ccccc32)C1
REMARK SMILES IDX 11 1 10 2 9 3 8 4 7 5 5 6 6 7 4 9 83 10 95 11 84 12 85 13
REMARK SMILES IDX 3 14 2 17 1 18 86 19 87 20 94 21 88 22 89 23 93 24 90 25
REMARK SMILES IDX 92 26 91 27 12 28 13 29 14 30 15 31 16 33 17 34 18 35 82 36
REMARK SMILES IDX 19 37 81 38 20 39 21 40 22 41 75 42 23 43 80 44 74 45 76 46
REMARK SMILES IDX 24 47 79 48 73 49 72 50 25 52 59 53 38 54 58 55 39 56 42 57
REMARK SMILES IDX 57 58 77 59 40 60 41 61 56 63 78 64 43 65 26 66 27 67 36 68
REMARK SMILES IDX 28 69 29 70 35 71 37 72 30 73 31 74 32 75 33 76 34 77 60 78
REMARK SMILES IDX 61 79 70 80 62 81 63 82 69 83 71 84 64 85 65 86 66 87 67 88
REMARK SMILES IDX 68 89 44 90 45 91 54 92 46 93 47 94 53 95 55 96 48 97 49 98
REMARK SMILES IDX 50 99 51 100 52 101
REMARK H PARENT 7 8 3 15 3 16 14 32 76 51 42 62
REMARK Flexibility Score: inf
ROOT
ATOM      1  C   UNL     1      -4.560   5.680  -5.615  1.00  0.00     0.002 C 
ENDROOT
BRANCH   1   2
ATOM      2  C   UNL     1      -3.779   4.384  -5.871  1.00  0.00     0.002 C 
BRANCH   2   3
ATOM      3  C   UNL     1      -2.264   4.439  -5.665  1.00  0.00     0.021 C 
BRANCH   3   4
ATOM      4  C   UNL     1      -1.787   4.840  -4.265  1.00  0.00     0.116 C 
BRANCH   4   5
ATOM      5  N   UNL     1      -1.602   3.749  -3.302  1.00  0.00    -0.351 N 
ATOM      6  C   UNL     1      -0.724   2.711  -3.555  1.00  0.00     0.281 C 
ATOM      7  O   UNL     1      -1.102   1.881  -4.396  1.00  0.00    -0.268 OA
ATOM      8  H   UNL     1      -2.112   3.756  -2.460  1.00  0.00     0.163 HD
BRANCH   6   9
ATOM      9  C   UNL     1       0.904   2.686  -2.805  1.00  0.00     0.177 C 
ATOM     10  C   UNL     1       1.253   4.487  -2.802  1.00  0.00     0.081 C 
ATOM     11  C   UNL     1       1.534   2.756  -4.525  1.00  0.00     0.104 C 
ATOM     12  C   UNL     1       2.334   4.825  -3.865  1.00  0.00     0.033 C 
ATOM     13  C   UNL     1       2.854   3.490  -4.404  1.00  0.00     0.096 C 
BRANCH   9  14
ATOM     14  N   UNL     1       1.497   1.304  -1.336  1.00  0.00    -0.334 N 
ATOM     15  H   UNL     1       0.967   0.481  -1.623  1.00  0.00     0.347 HD
ATOM     16  H   UNL     1       2.453   1.659  -1.347  1.00  0.00     0.347 HD
BRANCH  14  17
ATOM     17  C   UNL     1       1.548   1.092   0.208  1.00  0.00     0.257 C 
ATOM     18  C   UNL     1       2.094  -0.318   0.487  1.00  0.00     0.071 C 
ENDBRANCH  14  17
ENDBRANCH   9  14
BRANCH  13  19
ATOM     19  N   UNL     1       3.665   2.711  -3.449  1.00  0.00    -0.327 N 
ATOM     20  C   UNL     1       4.436   3.357  -2.470  1.00  0.00     0.200 A 
ATOM     21  C   UNL     1       2.866   1.776  -2.767  1.00  0.00     0.068 A 
ATOM     22  N   UNL     1       3.753   3.705  -1.385  1.00  0.00    -0.237 NA
ATOM     23  C   UNL     1       2.598   2.975  -1.476  1.00  0.00     0.088 A 
ATOM     24  C   UNL     1       1.500   0.644  -3.263  1.00  0.00     0.028 A 
ATOM     25  C   UNL     1       0.922   3.164  -0.743  1.00  0.00     0.030 A 
ATOM     26  C   UNL     1      -0.090   0.730  -2.414  1.00  0.00     0.002 A 
ATOM     27  C   UNL     1      -0.408   2.027  -1.207  1.00  0.00     0.002 A 
ENDBRANCH  13  19
ENDBRANCH   6   9
ENDBRANCH   4   5
ENDBRANCH   3   4
ENDBRANCH   2   3
ENDBRANCH   1   2
BRANCH   1  28
ATOM     28  C   UNL     1      -3.925   6.990  -6.099  1.00  0.00     0.021 C 
BRANCH  28  29
ATOM     29  C   UNL     1      -3.550   7.061  -7.579  1.00  0.00     0.116 C 
BRANCH  29  30
ATOM     30  N   UNL     1      -4.707   7.139  -8.450  1.00  0.00    -0.352 N 
ATOM     31  C   UNL     1      -5.048   8.097  -9.373  1.00  0.00     0.251 C 
ATOM     32  H   UNL     1      -5.344   6.393  -8.366  1.00  0.00     0.163 HD
ATOM     33  O   UNL     1      -6.144   8.040  -9.925  1.00  0.00    -0.269 OA
BRANCH  31  34
ATOM     34  C   UNL     1      -4.126   9.215  -9.694  1.00  0.00     0.039 A 
ATOM     35  C   UNL     1      -4.653  10.510  -9.758  1.00  0.00     0.014 A 
ATOM     36  C   UNL     1      -2.774   9.001  -9.985  1.00  0.00     0.014 A 
ATOM     37  C   UNL     1      -3.822  11.592 -10.063  1.00  0.00     0.010 A 
ATOM     38  C   UNL     1      -1.936  10.088 -10.257  1.00  0.00     0.010 A 
ATOM     39  C   UNL     1      -2.454  11.392 -10.300  1.00  0.00    -0.014 A 
BRANCH  39  40
ATOM     40  C   UNL     1      -1.564  12.536 -10.623  1.00  0.00     0.031 A 
ATOM     41  C   UNL     1      -1.054  12.725 -12.024  1.00  0.00     0.074 A 
ATOM     42  C   UNL     1      -1.187  13.392  -9.655  1.00  0.00     0.049 A 
ATOM     43  N   UNL     1      -0.201  13.607 -12.479  1.00  0.00    -0.248 NA
ATOM     44  C   UNL     1      -1.556  11.788 -13.040  1.00  0.00     0.031 C 
ATOM     45  C   UNL     1      -1.588  13.312  -8.249  1.00  0.00     0.029 A 
ATOM     46  N   UNL     1      -0.374  14.496  -9.708  1.00  0.00    -0.354 N 
ATOM     47  C   UNL     1      -0.033  13.311 -13.825  1.00  0.00     0.074 A 
ATOM     48  C   UNL     1      -0.880  12.172 -14.114  1.00  0.00     0.031 C 
ATOM     49  C   UNL     1      -1.027  14.331  -7.576  1.00  0.00     0.029 A 
ATOM     50  C   UNL     1      -0.217  15.125  -8.498  1.00  0.00     0.049 A 
ATOM     51  H   UNL     1       0.057  14.808 -10.537  1.00  0.00     0.167 HD
ATOM     52  C   UNL     1       0.759  13.924 -14.737  1.00  0.00     0.037 A 
ATOM     53  C   UNL     1       0.498  16.217  -8.166  1.00  0.00     0.037 A 
ATOM     54  C   UNL     1       1.577  15.076 -14.470  1.00  0.00     0.049 A 
ATOM     55  C   UNL     1       1.283  16.946  -9.218  1.00  0.00     0.074 A 
ATOM     56  C   UNL     1       2.429  15.751 -15.327  1.00  0.00     0.029 A 
ATOM     57  N   UNL     1       1.628  15.739 -13.254  1.00  0.00    -0.354 N 
ATOM     58  N   UNL     1       1.447  16.637 -10.480  1.00  0.00    -0.248 NA
ATOM     59  C   UNL     1       1.973  18.175  -8.801  1.00  0.00     0.031 C 
ATOM     60  C   UNL     1       2.988  16.831 -14.632  1.00  0.00     0.029 A 
ATOM     61  C   UNL     1       2.479  16.828 -13.343  1.00  0.00     0.049 A 
ATOM     62  H   UNL     1       1.132  15.475 -12.445  1.00  0.00     0.167 HD
ATOM     63  C   UNL     1       2.260  17.631 -11.010  1.00  0.00     0.074 A 
ATOM     64  C   UNL     1       2.544  18.561  -9.936  1.00  0.00     0.031 C 
ATOM     65  C   UNL     1       2.736  17.754 -12.272  1.00  0.00     0.037 A 
BRANCH  52  66
ATOM     66  C   UNL     1       0.783  13.330 -16.112  1.00  0.00     0.058 A 
ATOM     67  C   UNL     1      -0.211  13.639 -17.056  1.00  0.00     0.135 A 
ATOM     68  C   UNL     1       1.796  12.424 -16.474  1.00  0.00     0.135 A 
ATOM     69  F   UNL     1      -1.206  14.485 -16.741  1.00  0.00    -0.206 F 
ATOM     70  C   UNL     1      -0.218  13.043 -18.313  1.00  0.00     0.059 A 
ATOM     71  C   UNL     1       1.812  11.825 -17.729  1.00  0.00     0.059 A 
ATOM     72  F   UNL     1       2.760  12.095 -15.598  1.00  0.00    -0.206 F 
ATOM     73  C   UNL     1       0.789  12.127 -18.632  1.00  0.00     0.060 A 
BRANCH  73  74
ATOM     74  S   UNL     1       0.769  11.313 -20.247  1.00  0.00     0.124 S 
ATOM     75  O   UNL     1      -0.010  10.113 -19.956  1.00  0.00    -0.237 OA
ATOM     76  O   UNL     1       0.114  12.296 -21.105  1.00  0.00    -0.237 OA
ATOM     77  O   UNL     1       2.186  11.095 -20.522  1.00  0.00    -0.744 OA
ENDBRANCH  73  74
ENDBRANCH  52  66
BRANCH  53  78
ATOM     78  C   UNL     1       0.485  16.698  -6.765  1.00  0.00     0.058 A 
ATOM     79  C   UNL     1      -0.388  17.723  -6.369  1.00  0.00     0.135 A 
ATOM     80  C   UNL     1       1.318  16.116  -5.796  1.00  0.00     0.135 A 
ATOM     81  F   UNL     1      -1.196  18.304  -7.269  1.00  0.00    -0.206 F 
ATOM     82  C   UNL     1      -0.439  18.160  -5.050  1.00  0.00     0.059 A 
ATOM     83  C   UNL     1       1.279  16.531  -4.470  1.00  0.00     0.059 A 
ATOM     84  F   UNL     1       2.159  15.126  -6.135  1.00  0.00    -0.206 F 
ATOM     85  C   UNL     1       0.399  17.556  -4.108  1.00  0.00     0.060 A 
BRANCH  85  86
ATOM     86  S   UNL     1       0.289  18.055  -2.373  1.00  0.00     0.124 S 
ATOM     87  O   UNL     1       1.289  19.113  -2.308  1.00  0.00    -0.237 OA
ATOM     88  O   UNL     1      -1.101  18.483  -2.249  1.00  0.00    -0.237 OA
ATOM     89  O   UNL     1       0.618  16.823  -1.661  1.00  0.00    -0.744 OA
ENDBRANCH  85  86
ENDBRANCH  53  78
BRANCH  65  90
ATOM     90  C   UNL     1       3.600  18.944 -12.563  1.00  0.00     0.058 A 
ATOM     91  C   UNL     1       4.982  18.911 -12.318  1.00  0.00     0.135 A 
ATOM     92  C   UNL     1       3.050  20.108 -13.122  1.00  0.00     0.135 A 
ATOM     93  F   UNL     1       5.548  17.818 -11.780  1.00  0.00    -0.206 F 
ATOM     94  C   UNL     1       5.794  20.001 -12.613  1.00  0.00     0.059 A 
ATOM     95  C   UNL     1       3.845  21.208 -13.429  1.00  0.00     0.059 A 
ATOM     96  F   UNL     1       1.733  20.182 -13.371  1.00  0.00    -0.206 F 
ATOM     97  C   UNL     1       5.214  21.147 -13.163  1.00  0.00     0.060 A 
BRANCH  97  98
ATOM     98  S   UNL     1       6.267  22.556 -13.579  1.00  0.00     0.124 S 
ATOM     99  O   UNL     1       6.275  23.297 -12.323  1.00  0.00    -0.237 OA
ATOM    100  O   UNL     1       7.530  21.922 -13.948  1.00  0.00    -0.237 OA
ATOM    101  O   UNL     1       5.550  23.190 -14.682  1.00  0.00    -0.744 OA
ENDBRANCH  97  98
ENDBRANCH  65  90
ENDBRANCH  39  40
ENDBRANCH  31  34
ENDBRANCH  29  30
ENDBRANCH  28  29
ENDBRANCH   1  28
TORSDOF 19
