REMARK SMILES Nc1ccc2[nH]cc(C(=O)NCCCCCCNC(=O)c3ccc(-c4c5nc(c(-c6c(F)cc(S(=O)(=O)[O-])cc6F)c6ccc([nH]6)c(-c6c(F)cc(S(=O)(=O)[O-])cc6F)c6nc(c(-c7c(F)cc(S(=O)(=O)[O-])cc7F)c7ccc4[nH]7)C=C6)C=C5)cc3)c2c1
REMARK SMILES IDX 15 1 14 2 13 3 12 4 11 5 9 6 10 7 8 9 2 10 3 11 88 12 4 13
REMARK SMILES IDX 87 14 5 15 6 16 7 17 1 19 16 22 17 23 18 24 19 25 20 27
REMARK SMILES IDX 21 28 22 29 86 30 23 31 85 32 24 33 25 34 26 35 79 36 27 37
REMARK SMILES IDX 84 38 78 39 80 40 28 41 83 42 77 43 76 44 29 46 63 47 42 48
REMARK SMILES IDX 62 49 43 50 46 51 61 52 81 53 44 54 45 55 60 57 82 58 47 59
REMARK SMILES IDX 30 60 31 61 40 62 32 63 33 64 39 65 41 66 34 67 35 68 36 69
REMARK SMILES IDX 37 70 38 71 64 72 65 73 74 74 66 75 67 76 73 77 75 78 68 79
REMARK SMILES IDX 69 80 70 81 71 82 72 83 48 84 49 85 58 86 50 87 51 88 57 89
REMARK SMILES IDX 59 90 52 91 53 92 54 93 55 94 56 95
REMARK H PARENT 11 8 6 18 1 20 1 21 18 26 80 45 46 56
REMARK Flexibility Score: inf
ROOT
ATOM      1  C   UNL     1      -2.163  -4.490   0.914  1.00  0.00     0.002 C 
ENDROOT
BRANCH   1   2
ATOM      2  C   UNL     1      -1.785  -4.354   2.393  1.00  0.00     0.002 C 
BRANCH   2   3
ATOM      3  C   UNL     1      -1.014  -3.104   2.809  1.00  0.00     0.021 C 
BRANCH   3   4
ATOM      4  C   UNL     1      -1.622  -1.757   2.447  1.00  0.00     0.116 C 
BRANCH   4   5
ATOM      5  N   UNL     1      -2.746  -1.337   3.245  1.00  0.00    -0.352 N 
ATOM      6  C   UNL     1      -3.106  -0.081   3.682  1.00  0.00     0.253 C 
ATOM      7  O   UNL     1      -4.133  -0.020   4.365  1.00  0.00    -0.269 OA
ATOM      8  H   UNL     1      -3.352  -2.061   3.522  1.00  0.00     0.163 HD
BRANCH   6   9
ATOM      9  C   UNL     1      -2.282   1.122   3.464  1.00  0.00     0.065 A 
ATOM     10  C   UNL     1       0.411   1.501   0.722  1.00  0.00     0.032 A 
ATOM     11  C   UNL     1       0.959   2.671   1.234  1.00  0.00     0.027 A 
ATOM     12  C   UNL     1      -0.777   1.009   1.276  1.00  0.00     0.036 A 
ATOM     13  C   UNL     1       0.380   3.330   2.321  1.00  0.00     0.029 A 
ATOM     14  C   UNL     1      -1.292   1.529   2.489  1.00  0.00     0.014 A 
ATOM     15  C   UNL     1      -0.723   2.726   2.937  1.00  0.00     0.046 A 
ATOM     16  N   UNL     1      -1.458   3.144   4.015  1.00  0.00    -0.360 N 
ATOM     17  C   UNL     1      -2.378   2.195   4.347  1.00  0.00     0.097 A 
ATOM     18  H   UNL     1      -1.340   4.003   4.481  1.00  0.00     0.166 HD
BRANCH  10  19
ATOM     19  N   UNL     1       0.982   0.871  -0.372  1.00  0.00    -0.399 N 
ATOM     20  H   UNL     1       1.817   1.219  -0.760  1.00  0.00     0.156 HD
ATOM     21  H   UNL     1       0.553   0.075  -0.761  1.00  0.00     0.156 HD
ENDBRANCH  10  19
ENDBRANCH   6   9
ENDBRANCH   4   5
ENDBRANCH   3   4
ENDBRANCH   2   3
ENDBRANCH   1   2
BRANCH   1  22
ATOM     22  C   UNL     1      -1.056  -4.285  -0.129  1.00  0.00     0.021 C 
BRANCH  22  23
ATOM     23  C   UNL     1       0.239  -5.068   0.087  1.00  0.00     0.116 C 
BRANCH  23  24
ATOM     24  N   UNL     1       0.060  -6.486   0.311  1.00  0.00    -0.352 N 
ATOM     25  C   UNL     1      -0.050  -7.591  -0.484  1.00  0.00     0.251 C 
ATOM     26  H   UNL     1       0.004  -6.707   1.268  1.00  0.00     0.163 HD
ATOM     27  O   UNL     1      -0.060  -8.674   0.111  1.00  0.00    -0.269 OA
BRANCH  25  28
ATOM     28  C   UNL     1      -0.196  -7.586  -1.966  1.00  0.00     0.039 A 
ATOM     29  C   UNL     1      -0.128  -6.463  -2.789  1.00  0.00     0.014 A 
ATOM     30  C   UNL     1      -0.465  -8.834  -2.562  1.00  0.00     0.014 A 
ATOM     31  C   UNL     1      -0.399  -6.569  -4.153  1.00  0.00     0.010 A 
ATOM     32  C   UNL     1      -0.716  -8.948  -3.927  1.00  0.00     0.010 A 
ATOM     33  C   UNL     1      -0.724  -7.804  -4.719  1.00  0.00    -0.014 A 
BRANCH  33  34
ATOM     34  C   UNL     1      -1.023  -7.843  -6.150  1.00  0.00     0.031 A 
ATOM     35  C   UNL     1       0.060  -7.382  -7.066  1.00  0.00     0.074 A 
ATOM     36  C   UNL     1      -2.169  -8.331  -6.665  1.00  0.00     0.049 A 
ATOM     37  N   UNL     1       0.054  -6.361  -7.862  1.00  0.00    -0.248 NA
ATOM     38  C   UNL     1       1.339  -8.104  -7.033  1.00  0.00     0.031 C 
ATOM     39  C   UNL     1      -3.237  -9.059  -5.979  1.00  0.00     0.029 A 
ATOM     40  N   UNL     1      -2.573  -8.341  -7.968  1.00  0.00    -0.354 N 
ATOM     41  C   UNL     1       1.258  -6.403  -8.565  1.00  0.00     0.074 A 
ATOM     42  C   UNL     1       2.054  -7.425  -7.932  1.00  0.00     0.031 C 
ATOM     43  C   UNL     1      -4.055  -9.618  -6.898  1.00  0.00     0.029 A 
ATOM     44  C   UNL     1      -3.649  -9.178  -8.223  1.00  0.00     0.049 A 
ATOM     45  H   UNL     1      -2.139  -7.802  -8.668  1.00  0.00     0.167 HD
ATOM     46  C   UNL     1       1.453  -5.702  -9.719  1.00  0.00     0.037 A 
ATOM     47  C   UNL     1      -4.136  -9.531  -9.438  1.00  0.00     0.037 A 
ATOM     48  C   UNL     1       0.463  -4.671  -9.888  1.00  0.00     0.049 A 
ATOM     49  C   UNL     1      -3.727  -8.480 -10.405  1.00  0.00     0.074 A 
ATOM     50  C   UNL     1       0.095  -3.549  -9.172  1.00  0.00     0.029 A 
ATOM     51  N   UNL     1      -0.552  -4.884 -10.789  1.00  0.00    -0.354 N 
ATOM     52  N   UNL     1      -4.181  -7.256 -10.389  1.00  0.00    -0.248 NA
ATOM     53  C   UNL     1      -2.494  -8.673 -11.154  1.00  0.00     0.031 C 
ATOM     54  C   UNL     1      -1.316  -3.447  -9.341  1.00  0.00     0.029 A 
ATOM     55  C   UNL     1      -1.714  -4.493 -10.175  1.00  0.00     0.049 A 
ATOM     56  H   UNL     1      -0.463  -5.247 -11.700  1.00  0.00     0.167 HD
ATOM     57  C   UNL     1      -3.100  -6.469 -10.755  1.00  0.00     0.074 A 
ATOM     58  C   UNL     1      -2.127  -7.400 -11.317  1.00  0.00     0.031 C 
ATOM     59  C   UNL     1      -2.979  -5.179 -10.322  1.00  0.00     0.037 A 
BRANCH  46  60
ATOM     60  C   UNL     1       2.358  -6.125 -10.854  1.00  0.00     0.058 A 
ATOM     61  C   UNL     1       2.612  -5.227 -11.915  1.00  0.00     0.135 A 
ATOM     62  C   UNL     1       2.739  -7.464 -11.087  1.00  0.00     0.135 A 
ATOM     63  F   UNL     1       2.300  -3.926 -11.801  1.00  0.00    -0.206 F 
ATOM     64  C   UNL     1       3.111  -5.647 -13.149  1.00  0.00     0.059 A 
ATOM     65  C   UNL     1       3.288  -7.894 -12.291  1.00  0.00     0.059 A 
ATOM     66  F   UNL     1       2.502  -8.435 -10.198  1.00  0.00    -0.206 F 
ATOM     67  C   UNL     1       3.420  -6.991 -13.334  1.00  0.00     0.060 A 
BRANCH  67  68
ATOM     68  S   UNL     1       3.900  -7.568 -14.973  1.00  0.00     0.124 S 
ATOM     69  O   UNL     1       2.651  -7.415 -15.710  1.00  0.00    -0.237 OA
ATOM     70  O   UNL     1       4.968  -6.637 -15.323  1.00  0.00    -0.237 OA
ATOM     71  O   UNL     1       4.328  -8.943 -14.732  1.00  0.00    -0.744 OA
ENDBRANCH  67  68
ENDBRANCH  46  60
BRANCH  47  72
ATOM     72  C   UNL     1      -4.673 -10.855  -9.845  1.00  0.00     0.058 A 
ATOM     73  C   UNL     1      -5.362 -11.031 -11.057  1.00  0.00     0.135 A 
ATOM     74  C   UNL     1      -4.295 -12.036  -9.172  1.00  0.00     0.135 A 
ATOM     75  F   UNL     1      -5.734  -9.965 -11.783  1.00  0.00    -0.206 F 
ATOM     76  C   UNL     1      -5.626 -12.299 -11.588  1.00  0.00     0.059 A 
ATOM     77  C   UNL     1      -4.561 -13.309  -9.671  1.00  0.00     0.059 A 
ATOM     78  F   UNL     1      -3.568 -11.992  -8.045  1.00  0.00    -0.206 F 
ATOM     79  C   UNL     1      -5.205 -13.433 -10.894  1.00  0.00     0.060 A 
BRANCH  79  80
ATOM     80  S   UNL     1      -5.397 -15.065 -11.649  1.00  0.00     0.124 S 
ATOM     81  O   UNL     1      -6.847 -15.225 -11.659  1.00  0.00    -0.237 OA
ATOM     82  O   UNL     1      -4.766 -14.876 -12.950  1.00  0.00    -0.237 OA
ATOM     83  O   UNL     1      -4.679 -15.949 -10.734  1.00  0.00    -0.744 OA
ENDBRANCH  79  80
ENDBRANCH  47  72
BRANCH  59  84
ATOM     84  C   UNL     1      -4.176  -4.518  -9.689  1.00  0.00     0.058 A 
ATOM     85  C   UNL     1      -4.750  -4.939  -8.476  1.00  0.00     0.135 A 
ATOM     86  C   UNL     1      -4.640  -3.310 -10.232  1.00  0.00     0.135 A 
ATOM     87  F   UNL     1      -4.290  -6.023  -7.836  1.00  0.00    -0.206 F 
ATOM     88  C   UNL     1      -5.760  -4.210  -7.849  1.00  0.00     0.059 A 
ATOM     89  C   UNL     1      -5.626  -2.550  -9.607  1.00  0.00     0.059 A 
ATOM     90  F   UNL     1      -4.087  -2.821 -11.354  1.00  0.00    -0.206 F 
ATOM     91  C   UNL     1      -6.187  -3.011  -8.418  1.00  0.00     0.060 A 
BRANCH  91  92
ATOM     92  S   UNL     1      -7.410  -2.011  -7.542  1.00  0.00     0.124 S 
ATOM     93  O   UNL     1      -8.634  -2.789  -7.731  1.00  0.00    -0.237 OA
ATOM     94  O   UNL     1      -6.882  -1.991  -6.177  1.00  0.00    -0.237 OA
ATOM     95  O   UNL     1      -7.369  -0.732  -8.234  1.00  0.00    -0.744 OA
ENDBRANCH  91  92
ENDBRANCH  59  84
ENDBRANCH  33  34
ENDBRANCH  25  28
ENDBRANCH  23  24
ENDBRANCH  22  23
ENDBRANCH   1  22
TORSDOF 17
