REMARK SMILES Cc1cc([N+](=O)[O-])ccc1N1CCC(CC(=O)NCCCCCCNC(=O)c2ccc(-c3c4nc(c(-c5c(F)cc(S(=O)(=O)[O-])cc5F)c5ccc([nH]5)c(-c5c(F)cc(S(=O)(=O)[O-])cc5F)c5nc(c(-c6c(F)cc(S(=O)(=O)[O-])cc6F)c6ccc3[nH]6)C=C5)C=C4)cc2)CC1
REMARK SMILES IDX 21 1 20 2 19 3 18 4 16 5 17 6 15 8 14 9 11 10 12 11 95 12
REMARK SMILES IDX 13 13 94 14 10 15 1 16 2 17 3 18 4 19 9 20 8 21 5 22 6 23
REMARK SMILES IDX 7 24 22 25 23 26 24 27 25 28 26 29 27 31 28 32 29 33 93 34
REMARK SMILES IDX 30 35 92 36 31 37 32 38 33 39 86 40 34 41 91 42 85 43 87 44
REMARK SMILES IDX 35 45 90 46 84 47 83 48 36 50 70 51 49 52 69 53 50 54 53 55
REMARK SMILES IDX 68 56 88 57 51 58 52 59 67 61 89 62 54 63 37 64 38 65 47 66
REMARK SMILES IDX 39 67 40 68 46 69 48 70 41 71 42 72 43 73 44 74 45 75 71 76
REMARK SMILES IDX 72 77 81 78 73 79 74 80 80 81 82 82 75 83 76 84 77 85 78 86
REMARK SMILES IDX 79 87 55 88 56 89 65 90 57 91 58 92 64 93 66 94 59 95 60 96
REMARK SMILES IDX 61 97 62 98 63 99
REMARK H PARENT 18 7 25 30 87 49 53 60
REMARK Flexibility Score: inf
ROOT
ATOM      1  C   UNL     1      -0.855   6.016   4.788  1.00  0.00     0.002 C 
ENDROOT
BRANCH   1   2
ATOM      2  C   UNL     1      -0.336   5.675   3.405  1.00  0.00     0.021 C 
BRANCH   2   3
ATOM      3  C   UNL     1      -0.778   6.628   2.295  1.00  0.00     0.116 C 
BRANCH   3   4
ATOM      4  N   UNL     1       0.315   7.523   1.958  1.00  0.00    -0.356 N 
ATOM      5  C   UNL     1       1.234   7.462   0.953  1.00  0.00     0.220 C 
ATOM      6  O   UNL     1       2.197   8.230   0.998  1.00  0.00    -0.275 OA
ATOM      7  H   UNL     1       0.407   8.302   2.553  1.00  0.00     0.163 HD
BRANCH   5   8
ATOM      8  C   UNL     1       1.053   6.515  -0.227  1.00  0.00     0.103 C 
BRANCH   8   9
ATOM      9  C   UNL     1       1.780   5.151  -0.133  1.00  0.00     0.002 C 
ATOM     10  N   UNL     1       1.201   2.342  -0.228  1.00  0.00    -0.371 N 
ATOM     11  C   UNL     1       1.579   2.865   1.068  1.00  0.00     0.117 C 
ATOM     12  C   UNL     1       1.929   2.878  -1.364  1.00  0.00     0.117 C 
ATOM     13  C   UNL     1       1.251   4.343   1.054  1.00  0.00     0.025 C 
ATOM     14  C   UNL     1       1.616   4.379  -1.466  1.00  0.00     0.025 C 
BRANCH  10  15
ATOM     15  C   UNL     1       0.522   1.143  -0.254  1.00  0.00     0.040 A 
ATOM     16  C   UNL     1       2.646  -0.273  -0.108  1.00  0.00     0.047 C 
ATOM     17  C   UNL     1       1.152  -0.111  -0.171  1.00  0.00    -0.021 A 
ATOM     18  C   UNL     1       0.367  -1.282  -0.116  1.00  0.00     0.091 A 
ATOM     19  C   UNL     1      -1.030  -1.201  -0.114  1.00  0.00     0.269 A 
ATOM     20  C   UNL     1      -0.885   1.195  -0.248  1.00  0.00     0.033 A 
ATOM     21  C   UNL     1      -1.665   0.040  -0.175  1.00  0.00     0.088 A 
BRANCH  19  22
ATOM     22  N   UNL     1      -1.838  -2.425  -0.046  1.00  0.00     0.062 N 
ATOM     23  O   UNL     1      -1.245  -3.512  -0.065  1.00  0.00    -0.258 OA
ATOM     24  O   UNL     1      -3.071  -2.299   0.002  1.00  0.00    -0.258 OA
ENDBRANCH  19  22
ENDBRANCH  10  15
ENDBRANCH   8   9
ENDBRANCH   5   8
ENDBRANCH   3   4
ENDBRANCH   2   3
ENDBRANCH   1   2
BRANCH   1  25
ATOM     25  C   UNL     1      -2.373   5.953   4.959  1.00  0.00     0.002 C 
BRANCH  25  26
ATOM     26  C   UNL     1      -3.127   4.798   4.279  1.00  0.00     0.021 C 
BRANCH  26  27
ATOM     27  C   UNL     1      -2.603   3.396   4.545  1.00  0.00     0.116 C 
BRANCH  27  28
ATOM     28  N   UNL     1      -2.171   3.297   5.902  1.00  0.00    -0.352 N 
ATOM     29  C   UNL     1      -2.750   2.728   6.996  1.00  0.00     0.251 C 
ATOM     30  H   UNL     1      -1.298   3.716   6.079  1.00  0.00     0.163 HD
ATOM     31  O   UNL     1      -2.288   3.107   8.062  1.00  0.00    -0.269 OA
BRANCH  29  32
ATOM     32  C   UNL     1      -3.599   1.452   6.860  1.00  0.00     0.039 A 
ATOM     33  C   UNL     1      -3.660   0.875   8.136  1.00  0.00     0.014 A 
ATOM     34  C   UNL     1      -3.025   0.638   5.883  1.00  0.00     0.014 A 
ATOM     35  C   UNL     1      -2.526   0.198   8.564  1.00  0.00     0.010 A 
ATOM     36  C   UNL     1      -1.832   0.069   6.238  1.00  0.00     0.010 A 
ATOM     37  C   UNL     1      -1.545  -0.017   7.603  1.00  0.00    -0.014 A 
BRANCH  37  38
ATOM     38  C   UNL     1      -0.169  -0.314   7.902  1.00  0.00     0.031 A 
ATOM     39  C   UNL     1       0.142  -1.749   7.879  1.00  0.00     0.074 A 
ATOM     40  C   UNL     1       0.670   0.744   8.017  1.00  0.00     0.049 A 
ATOM     41  N   UNL     1       1.139  -2.314   8.447  1.00  0.00    -0.248 NA
ATOM     42  C   UNL     1      -0.776  -2.715   7.261  1.00  0.00     0.031 C 
ATOM     43  C   UNL     1       2.130   0.774   8.042  1.00  0.00     0.029 A 
ATOM     44  N   UNL     1       0.324   2.068   8.342  1.00  0.00    -0.354 N 
ATOM     45  C   UNL     1       1.189  -3.612   7.970  1.00  0.00     0.074 A 
ATOM     46  C   UNL     1      -0.106  -3.857   7.406  1.00  0.00     0.031 C 
ATOM     47  C   UNL     1       2.519   1.899   8.680  1.00  0.00     0.029 A 
ATOM     48  C   UNL     1       1.310   2.514   9.226  1.00  0.00     0.049 A 
ATOM     49  H   UNL     1      -0.454   2.575   8.015  1.00  0.00     0.167 HD
ATOM     50  C   UNL     1       2.405  -4.227   7.927  1.00  0.00     0.037 A 
ATOM     51  C   UNL     1       1.065   2.661  10.566  1.00  0.00     0.037 A 
ATOM     52  C   UNL     1       3.376  -3.366   8.613  1.00  0.00     0.049 A 
ATOM     53  C   UNL     1       1.909   1.659  11.351  1.00  0.00     0.074 A 
ATOM     54  C   UNL     1       4.245  -2.400   8.132  1.00  0.00     0.029 A 
ATOM     55  N   UNL     1       3.192  -3.091   9.967  1.00  0.00    -0.354 N 
ATOM     56  N   UNL     1       2.219   0.454  10.936  1.00  0.00    -0.248 NA
ATOM     57  C   UNL     1       2.559   2.002  12.614  1.00  0.00     0.031 C 
ATOM     58  C   UNL     1       4.476  -1.467   9.183  1.00  0.00     0.029 A 
ATOM     59  C   UNL     1       3.766  -1.875  10.302  1.00  0.00     0.049 A 
ATOM     60  H   UNL     1       2.720  -3.680  10.599  1.00  0.00     0.167 HD
ATOM     61  C   UNL     1       3.105  -0.117  11.818  1.00  0.00     0.074 A 
ATOM     62  C   UNL     1       3.282   0.894  12.848  1.00  0.00     0.031 C 
ATOM     63  C   UNL     1       3.664  -1.357  11.661  1.00  0.00     0.037 A 
BRANCH  50  64
ATOM     64  C   UNL     1       2.782  -5.381   7.007  1.00  0.00     0.058 A 
ATOM     65  C   UNL     1       4.147  -5.648   6.752  1.00  0.00     0.135 A 
ATOM     66  C   UNL     1       1.895  -6.211   6.284  1.00  0.00     0.135 A 
ATOM     67  F   UNL     1       5.118  -4.982   7.392  1.00  0.00    -0.206 F 
ATOM     68  C   UNL     1       4.586  -6.601   5.826  1.00  0.00     0.059 A 
ATOM     69  C   UNL     1       2.308  -7.156   5.337  1.00  0.00     0.059 A 
ATOM     70  F   UNL     1       0.575  -6.187   6.470  1.00  0.00    -0.206 F 
ATOM     71  C   UNL     1       3.659  -7.343   5.109  1.00  0.00     0.060 A 
BRANCH  71  72
ATOM     72  S   UNL     1       4.237  -8.566   3.922  1.00  0.00     0.124 S 
ATOM     73  O   UNL     1       4.972  -7.741   2.968  1.00  0.00    -0.237 OA
ATOM     74  O   UNL     1       5.047  -9.445   4.759  1.00  0.00    -0.237 OA
ATOM     75  O   UNL     1       3.004  -9.159   3.410  1.00  0.00    -0.744 OA
ENDBRANCH  71  72
ENDBRANCH  50  64
BRANCH  51  76
ATOM     76  C   UNL     1      -0.328   3.097  10.939  1.00  0.00     0.058 A 
ATOM     77  C   UNL     1      -0.786   4.377  10.550  1.00  0.00     0.135 A 
ATOM     78  C   UNL     1      -1.308   2.199  11.382  1.00  0.00     0.135 A 
ATOM     79  F   UNL     1       0.098   5.306  10.147  1.00  0.00    -0.206 F 
ATOM     80  C   UNL     1      -2.148   4.702  10.476  1.00  0.00     0.059 A 
ATOM     81  C   UNL     1      -2.679   2.499  11.312  1.00  0.00     0.059 A 
ATOM     82  F   UNL     1      -0.961   0.970  11.790  1.00  0.00    -0.206 F 
ATOM     83  C   UNL     1      -3.095   3.731  10.799  1.00  0.00     0.060 A 
BRANCH  83  84
ATOM     84  S   UNL     1      -4.841   4.014  10.357  1.00  0.00     0.124 S 
ATOM     85  O   UNL     1      -5.216   5.089  11.270  1.00  0.00    -0.237 OA
ATOM     86  O   UNL     1      -4.795   4.388   8.946  1.00  0.00    -0.237 OA
ATOM     87  O   UNL     1      -5.474   2.724  10.622  1.00  0.00    -0.744 OA
ENDBRANCH  83  84
ENDBRANCH  51  76
BRANCH  63  88
ATOM     88  C   UNL     1       4.257  -2.174  12.793  1.00  0.00     0.058 A 
ATOM     89  C   UNL     1       3.902  -1.999  14.142  1.00  0.00     0.135 A 
ATOM     90  C   UNL     1       5.086  -3.294  12.528  1.00  0.00     0.135 A 
ATOM     91  F   UNL     1       3.013  -1.071  14.522  1.00  0.00    -0.206 F 
ATOM     92  C   UNL     1       4.412  -2.801  15.161  1.00  0.00     0.059 A 
ATOM     93  C   UNL     1       5.537  -4.158  13.521  1.00  0.00     0.059 A 
ATOM     94  F   UNL     1       5.477  -3.608  11.283  1.00  0.00    -0.206 F 
ATOM     95  C   UNL     1       5.231  -3.876  14.841  1.00  0.00     0.060 A 
BRANCH  95  96
ATOM     96  S   UNL     1       5.874  -4.913  16.161  1.00  0.00     0.124 S 
ATOM     97  O   UNL     1       7.024  -4.131  16.605  1.00  0.00    -0.237 OA
ATOM     98  O   UNL     1       4.753  -4.973  17.095  1.00  0.00    -0.237 OA
ATOM     99  O   UNL     1       6.186  -6.168  15.485  1.00  0.00    -0.744 OA
ENDBRANCH  95  96
ENDBRANCH  63  88
ENDBRANCH  37  38
ENDBRANCH  29  32
ENDBRANCH  27  28
ENDBRANCH  26  27
ENDBRANCH  25  26
ENDBRANCH   1  25
TORSDOF 19
