REMARK SMILES C[C@@H](C(=O)NCCCCCCNC(=O)c1ccc(-c2c3nc(c(-c4c(F)cc(S(=O)(=O)[O-])cc4F)c4ccc([nH]4)c(-c4c(F)cc(S(=O)(=O)[O-])cc4F)c4nc(c(-c5c(F)cc(S(=O)(=O)[O-])cc5F)c5ccc2[nH]5)C=C4)C=C3)cc1)c1ccc(C[C@H]2CCC[C@H]2O)cc1
REMARK SMILES IDX 8 1 7 2 6 3 5 4 3 5 4 6 2 8 1 9 81 10 82 11 93 12 83 13
REMARK SMILES IDX 92 14 84 15 85 16 86 17 87 18 90 19 88 20 89 21 91 22 9 24
REMARK SMILES IDX 10 25 11 26 12 27 13 28 14 30 15 31 16 32 80 33 17 34 79 35
REMARK SMILES IDX 18 36 19 37 20 38 73 39 21 40 78 41 72 42 74 43 22 44 77 45
REMARK SMILES IDX 71 46 70 47 23 49 57 50 36 51 56 52 37 53 40 54 55 55 75 56
REMARK SMILES IDX 38 57 39 58 54 60 76 61 41 62 24 63 25 64 34 65 26 66 27 67
REMARK SMILES IDX 33 68 35 69 28 70 29 71 30 72 31 73 32 74 58 75 59 76 68 77
REMARK SMILES IDX 60 78 61 79 67 80 69 81 62 82 63 83 64 84 65 85 66 86 42 87
REMARK SMILES IDX 43 88 52 89 44 90 45 91 51 92 53 93 46 94 47 95 48 96 49 97
REMARK SMILES IDX 50 98
REMARK H PARENT 5 7 91 23 12 29 74 48 40 59
REMARK Flexibility Score: inf
ROOT
ATOM      1  C   UNL     1       5.064   0.331  -2.863  1.00  0.00     0.002 C 
ENDROOT
BRANCH   1   2
ATOM      2  C   UNL     1       4.312   0.321  -1.525  1.00  0.00     0.021 C 
BRANCH   2   3
ATOM      3  C   UNL     1       3.493   1.592  -1.279  1.00  0.00     0.116 C 
BRANCH   3   4
ATOM      4  N   UNL     1       2.423   1.671  -2.249  1.00  0.00    -0.356 N 
ATOM      5  C   UNL     1       1.134   1.238  -2.144  1.00  0.00     0.227 C 
ATOM      6  O   UNL     1       0.501   1.113  -3.194  1.00  0.00    -0.274 OA
ATOM      7  H   UNL     1       2.658   2.097  -3.105  1.00  0.00     0.163 HD
BRANCH   5   8
ATOM      8  C   UNL     1       0.522   1.004  -0.752  1.00  0.00     0.105 C 
ATOM      9  C   UNL     1       1.043  -0.274  -0.085  1.00  0.00     0.023 C 
BRANCH   8  10
ATOM     10  C   UNL     1      -1.002   1.075  -0.807  1.00  0.00    -0.036 A 
ATOM     11  C   UNL     1      -1.608   2.303  -1.110  1.00  0.00     0.005 A 
ATOM     12  C   UNL     1      -1.829  -0.032  -0.571  1.00  0.00     0.005 A 
ATOM     13  C   UNL     1      -2.994   2.433  -1.111  1.00  0.00     0.004 A 
ATOM     14  C   UNL     1      -3.215   0.112  -0.525  1.00  0.00     0.004 A 
ATOM     15  C   UNL     1      -3.807   1.361  -0.737  1.00  0.00    -0.048 A 
BRANCH  15  16
ATOM     16  C   UNL     1      -5.281   1.558  -0.501  1.00  0.00     0.041 C 
BRANCH  16  17
ATOM     17  C   UNL     1      -5.688   2.073   0.894  1.00  0.00     0.022 C 
ATOM     18  C   UNL     1      -5.115   1.305   2.100  1.00  0.00     0.007 C 
ATOM     19  C   UNL     1      -5.440   3.554   1.226  1.00  0.00     0.117 C 
ATOM     20  C   UNL     1      -5.003   2.323   3.239  1.00  0.00     0.003 C 
ATOM     21  C   UNL     1      -5.671   3.598   2.732  1.00  0.00     0.032 C 
BRANCH  19  22
ATOM     22  O   UNL     1      -4.129   4.021   0.966  1.00  0.00    -0.393 OA
ATOM     23  H   UNL     1      -3.493   3.503   1.484  1.00  0.00     0.210 HD
ENDBRANCH  19  22
ENDBRANCH  16  17
ENDBRANCH  15  16
ENDBRANCH   8  10
ENDBRANCH   5   8
ENDBRANCH   3   4
ENDBRANCH   2   3
ENDBRANCH   1   2
BRANCH   1  24
ATOM     24  C   UNL     1       6.032   1.503  -3.040  1.00  0.00     0.002 C 
BRANCH  24  25
ATOM     25  C   UNL     1       7.070   1.639  -1.924  1.00  0.00     0.021 C 
BRANCH  25  26
ATOM     26  C   UNL     1       7.965   0.417  -1.757  1.00  0.00     0.116 C 
BRANCH  26  27
ATOM     27  N   UNL     1       8.783   0.185  -2.937  1.00  0.00    -0.352 N 
ATOM     28  C   UNL     1      10.148   0.077  -3.035  1.00  0.00     0.251 C 
ATOM     29  H   UNL     1       8.288   0.093  -3.784  1.00  0.00     0.163 HD
ATOM     30  O   UNL     1      10.691   0.114  -4.133  1.00  0.00    -0.269 OA
BRANCH  28  31
ATOM     31  C   UNL     1      10.955  -0.065  -1.805  1.00  0.00     0.039 A 
ATOM     32  C   UNL     1      12.120   0.692  -1.667  1.00  0.00     0.014 A 
ATOM     33  C   UNL     1      10.559  -0.942  -0.790  1.00  0.00     0.014 A 
ATOM     34  C   UNL     1      12.858   0.609  -0.485  1.00  0.00     0.010 A 
ATOM     35  C   UNL     1      11.252  -0.963   0.416  1.00  0.00     0.010 A 
ATOM     36  C   UNL     1      12.413  -0.194   0.579  1.00  0.00    -0.014 A 
BRANCH  36  37
ATOM     37  C   UNL     1      13.150  -0.241   1.868  1.00  0.00     0.031 A 
ATOM     38  C   UNL     1      13.763  -1.532   2.341  1.00  0.00     0.074 A 
ATOM     39  C   UNL     1      13.220   0.864   2.636  1.00  0.00     0.049 A 
ATOM     40  N   UNL     1      14.391  -1.787   3.459  1.00  0.00    -0.248 NA
ATOM     41  C   UNL     1      13.629  -2.697   1.451  1.00  0.00     0.031 C 
ATOM     42  C   UNL     1      12.627   2.162   2.306  1.00  0.00     0.029 A 
ATOM     43  N   UNL     1      13.812   1.073   3.856  1.00  0.00    -0.354 N 
ATOM     44  C   UNL     1      14.722  -3.136   3.411  1.00  0.00     0.074 A 
ATOM     45  C   UNL     1      14.169  -3.662   2.182  1.00  0.00     0.031 C 
ATOM     46  C   UNL     1      12.907   3.036   3.286  1.00  0.00     0.029 A 
ATOM     47  C   UNL     1      13.660   2.354   4.333  1.00  0.00     0.049 A 
ATOM     48  H   UNL     1      14.301   0.371   4.345  1.00  0.00     0.167 HD
ATOM     49  C   UNL     1      15.443  -3.864   4.296  1.00  0.00     0.037 A 
ATOM     50  C   UNL     1      14.072   2.913   5.488  1.00  0.00     0.037 A 
ATOM     51  C   UNL     1      16.002  -3.329   5.511  1.00  0.00     0.049 A 
ATOM     52  C   UNL     1      14.853   2.077   6.467  1.00  0.00     0.074 A 
ATOM     53  C   UNL     1      16.786  -3.972   6.453  1.00  0.00     0.029 A 
ATOM     54  N   UNL     1      15.835  -2.025   5.954  1.00  0.00    -0.354 N 
ATOM     55  N   UNL     1      15.210   0.817   6.375  1.00  0.00    -0.248 NA
ATOM     56  C   UNL     1      15.294   2.738   7.702  1.00  0.00     0.031 C 
ATOM     57  C   UNL     1      17.049  -3.072   7.491  1.00  0.00     0.029 A 
ATOM     58  C   UNL     1      16.481  -1.850   7.167  1.00  0.00     0.049 A 
ATOM     59  H   UNL     1      15.332  -1.326   5.476  1.00  0.00     0.167 HD
ATOM     60  C   UNL     1      15.943   0.545   7.525  1.00  0.00     0.074 A 
ATOM     61  C   UNL     1      15.990   1.775   8.289  1.00  0.00     0.031 C 
ATOM     62  C   UNL     1      16.527  -0.616   7.913  1.00  0.00     0.037 A 
BRANCH  49  63
ATOM     63  C   UNL     1      15.674  -5.319   3.982  1.00  0.00     0.058 A 
ATOM     64  C   UNL     1      16.499  -5.721   2.918  1.00  0.00     0.135 A 
ATOM     65  C   UNL     1      15.095  -6.323   4.774  1.00  0.00     0.135 A 
ATOM     66  F   UNL     1      17.066  -4.805   2.117  1.00  0.00    -0.206 F 
ATOM     67  C   UNL     1      16.716  -7.065   2.633  1.00  0.00     0.059 A 
ATOM     68  C   UNL     1      15.324  -7.674   4.527  1.00  0.00     0.059 A 
ATOM     69  F   UNL     1      14.298  -5.997   5.804  1.00  0.00    -0.206 F 
ATOM     70  C   UNL     1      16.125  -8.035   3.444  1.00  0.00     0.060 A 
BRANCH  70  71
ATOM     71  S   UNL     1      16.423  -9.774   3.063  1.00  0.00     0.124 S 
ATOM     72  O   UNL     1      15.645  -9.941   1.839  1.00  0.00    -0.237 OA
ATOM     73  O   UNL     1      17.873  -9.813   2.902  1.00  0.00    -0.237 OA
ATOM     74  O   UNL     1      15.905 -10.473   4.234  1.00  0.00    -0.744 OA
ENDBRANCH  70  71
ENDBRANCH  49  63
BRANCH  50  75
ATOM     75  C   UNL     1      13.768   4.341   5.776  1.00  0.00     0.058 A 
ATOM     76  C   UNL     1      14.787   5.304   5.815  1.00  0.00     0.135 A 
ATOM     77  C   UNL     1      12.454   4.772   6.017  1.00  0.00     0.135 A 
ATOM     78  F   UNL     1      16.060   4.942   5.597  1.00  0.00    -0.206 F 
ATOM     79  C   UNL     1      14.520   6.638   6.106  1.00  0.00     0.059 A 
ATOM     80  C   UNL     1      12.157   6.106   6.280  1.00  0.00     0.059 A 
ATOM     81  F   UNL     1      11.439   3.895   5.973  1.00  0.00    -0.206 F 
ATOM     82  C   UNL     1      13.200   7.029   6.336  1.00  0.00     0.060 A 
BRANCH  82  83
ATOM     83  S   UNL     1      12.859   8.770   6.678  1.00  0.00     0.124 S 
ATOM     84  O   UNL     1      13.397   8.914   8.026  1.00  0.00    -0.237 OA
ATOM     85  O   UNL     1      13.604   9.441   5.617  1.00  0.00    -0.237 OA
ATOM     86  O   UNL     1      11.406   8.855   6.565  1.00  0.00    -0.744 OA
ENDBRANCH  82  83
ENDBRANCH  50  75
BRANCH  62  87
ATOM     87  C   UNL     1      17.303  -0.607   9.202  1.00  0.00     0.058 A 
ATOM     88  C   UNL     1      16.668  -0.518  10.450  1.00  0.00     0.135 A 
ATOM     89  C   UNL     1      18.702  -0.741   9.187  1.00  0.00     0.135 A 
ATOM     90  F   UNL     1      15.334  -0.382  10.522  1.00  0.00    -0.206 F 
ATOM     91  C   UNL     1      17.393  -0.535  11.637  1.00  0.00     0.059 A 
ATOM     92  C   UNL     1      19.444  -0.793  10.363  1.00  0.00     0.059 A 
ATOM     93  F   UNL     1      19.360  -0.840   8.021  1.00  0.00    -0.206 F 
ATOM     94  C   UNL     1      18.781  -0.677  11.583  1.00  0.00     0.060 A 
BRANCH  94  95
ATOM     95  S   UNL     1      19.705  -0.733  13.133  1.00  0.00     0.124 S 
ATOM     96  O   UNL     1      19.626   0.655  13.573  1.00  0.00    -0.237 OA
ATOM     97  O   UNL     1      18.936  -1.693  13.919  1.00  0.00    -0.237 OA
ATOM     98  O   UNL     1      21.031  -1.187  12.723  1.00  0.00    -0.744 OA
ENDBRANCH  94  95
ENDBRANCH  62  87
ENDBRANCH  36  37
ENDBRANCH  28  31
ENDBRANCH  26  27
ENDBRANCH  25  26
ENDBRANCH  24  25
ENDBRANCH   1  24
TORSDOF 20
