REMARK SMILES CCOc1cc2nccc(Nc3ccc(C(=O)NCCCCCCNC(=O)c4ccc(-c5c6nc(c(-c7c(F)cc(S(=O)(=O)[O-])cc7F)c7ccc([nH]7)c(-c7c(F)cc(S(=O)(=O)[O-])cc7F)c7nc(c(-c8c(F)cc(S(=O)(=O)[O-])cc8F)c8ccc5[nH]8)C=C7)C=C6)cc4)cc3)c2cc1OCC
REMARK SMILES IDX 21 1 20 2 19 3 18 4 16 5 17 6 15 8 12 9 13 10 95 11 14 12
REMARK SMILES IDX 94 13 11 14 10 16 4 17 5 18 98 19 6 20 97 21 7 22 96 23 8 24
REMARK SMILES IDX 9 25 3 26 2 27 1 28 99 29 100 30 101 31 22 32 23 33 24 34
REMARK SMILES IDX 25 35 26 36 27 38 28 39 29 40 93 41 30 42 92 43 31 44 32 45
REMARK SMILES IDX 33 46 86 47 34 48 91 49 85 50 87 51 35 52 90 53 84 54 83 55
REMARK SMILES IDX 36 57 70 58 49 59 69 60 50 61 53 62 68 63 88 64 51 65 52 66
REMARK SMILES IDX 67 68 89 69 54 70 37 71 38 72 47 73 39 74 40 75 46 76 48 77
REMARK SMILES IDX 41 78 42 79 43 80 44 81 45 82 71 83 72 84 81 85 73 86 74 87
REMARK SMILES IDX 80 88 82 89 75 90 76 91 77 92 78 93 79 94 55 95 56 96 65 97
REMARK SMILES IDX 57 98 58 99 64 100 66 101 59 102 60 103 61 104 62 105 63 106
REMARK H PARENT 18 7 11 15 25 37 87 56 53 67
REMARK Flexibility Score: inf
ROOT
ATOM      1  C   UNL     1      15.241   4.348  -0.871  1.00  0.00     0.002 C 
ENDROOT
BRANCH   1   2
ATOM      2  C   UNL     1      13.744   4.018  -0.927  1.00  0.00     0.021 C 
BRANCH   2   3
ATOM      3  C   UNL     1      13.254   3.744  -2.350  1.00  0.00     0.116 C 
BRANCH   3   4
ATOM      4  N   UNL     1      13.631   2.399  -2.738  1.00  0.00    -0.352 N 
ATOM      5  C   UNL     1      12.912   1.238  -2.825  1.00  0.00     0.251 C 
ATOM      6  O   UNL     1      13.508   0.208  -3.140  1.00  0.00    -0.269 OA
ATOM      7  H   UNL     1      14.580   2.303  -2.984  1.00  0.00     0.163 HD
BRANCH   5   8
ATOM      8  C   UNL     1      11.438   1.196  -2.648  1.00  0.00     0.039 A 
ATOM      9  C   UNL     1       8.626   1.080  -2.588  1.00  0.00     0.038 A 
ATOM     10  C   UNL     1       9.356   0.223  -3.417  1.00  0.00     0.027 A 
ATOM     11  C   UNL     1       9.313   1.968  -1.761  1.00  0.00     0.027 A 
ATOM     12  C   UNL     1      10.747   0.286  -3.455  1.00  0.00     0.016 A 
ATOM     13  C   UNL     1      10.714   1.989  -1.752  1.00  0.00     0.016 A 
BRANCH   9  14
ATOM     14  N   UNL     1       7.231   1.029  -2.636  1.00  0.00    -0.355 N 
ATOM     15  H   UNL     1       6.859   0.126  -2.505  1.00  0.00     0.167 HD
BRANCH  14  16
ATOM     16  C   UNL     1       6.252   2.029  -2.837  1.00  0.00     0.050 A 
ATOM     17  C   UNL     1       2.206   1.167  -1.981  1.00  0.00     0.163 A 
ATOM     18  C   UNL     1       2.574   2.369  -2.604  1.00  0.00     0.079 A 
ATOM     19  C   UNL     1       3.197   0.283  -1.562  1.00  0.00     0.161 A 
ATOM     20  C   UNL     1       3.910   2.692  -2.849  1.00  0.00     0.076 A 
ATOM     21  C   UNL     1       4.527   0.574  -1.836  1.00  0.00     0.063 A 
ATOM     22  N   UNL     1       4.219   3.863  -3.432  1.00  0.00    -0.256 NA
ATOM     23  C   UNL     1       4.904   1.755  -2.500  1.00  0.00     0.028 A 
ATOM     24  C   UNL     1       5.524   4.136  -3.667  1.00  0.00     0.114 A 
ATOM     25  C   UNL     1       6.564   3.268  -3.385  1.00  0.00     0.047 A 
BRANCH  17  26
ATOM     26  O   UNL     1       0.902   0.770  -1.881  1.00  0.00    -0.490 OA
BRANCH  26  27
ATOM     27  C   UNL     1       0.025   1.707  -1.254  1.00  0.00     0.226 C 
ATOM     28  C   UNL     1      -1.067   0.900  -0.567  1.00  0.00     0.049 C 
ENDBRANCH  26  27
ENDBRANCH  17  26
BRANCH  19  29
ATOM     29  O   UNL     1       3.026  -0.903  -0.903  1.00  0.00    -0.490 OA
BRANCH  29  30
ATOM     30  C   UNL     1       2.093  -0.917   0.177  1.00  0.00     0.226 C 
ATOM     31  C   UNL     1       2.344   0.149   1.238  1.00  0.00     0.049 C 
ENDBRANCH  29  30
ENDBRANCH  19  29
ENDBRANCH  14  16
ENDBRANCH   9  14
ENDBRANCH   5   8
ENDBRANCH   3   4
ENDBRANCH   2   3
ENDBRANCH   1   2
BRANCH   1  32
ATOM     32  C   UNL     1      15.628   5.655  -1.575  1.00  0.00     0.002 C 
BRANCH  32  33
ATOM     33  C   UNL     1      14.889   6.899  -1.073  1.00  0.00     0.021 C 
BRANCH  33  34
ATOM     34  C   UNL     1      15.100   7.200   0.408  1.00  0.00     0.116 C 
BRANCH  34  35
ATOM     35  N   UNL     1      16.495   7.481   0.703  1.00  0.00    -0.352 N 
ATOM     36  C   UNL     1      17.057   8.584   1.295  1.00  0.00     0.251 C 
ATOM     37  H   UNL     1      17.131   6.777   0.438  1.00  0.00     0.163 HD
ATOM     38  O   UNL     1      18.271   8.752   1.239  1.00  0.00    -0.269 OA
BRANCH  36  39
ATOM     39  C   UNL     1      16.201   9.570   1.988  1.00  0.00     0.039 A 
ATOM     40  C   UNL     1      16.462  10.930   1.810  1.00  0.00     0.014 A 
ATOM     41  C   UNL     1      15.164   9.158   2.832  1.00  0.00     0.014 A 
ATOM     42  C   UNL     1      15.653  11.877   2.440  1.00  0.00     0.010 A 
ATOM     43  C   UNL     1      14.316  10.103   3.405  1.00  0.00     0.010 A 
ATOM     44  C   UNL     1      14.556  11.472   3.220  1.00  0.00    -0.014 A 
BRANCH  44  45
ATOM     45  C   UNL     1      13.647  12.477   3.826  1.00  0.00     0.031 A 
ATOM     46  C   UNL     1      13.551  12.625   5.320  1.00  0.00     0.074 A 
ATOM     47  C   UNL     1      12.876  13.235   3.022  1.00  0.00     0.049 A 
ATOM     48  N   UNL     1      12.827  13.459   6.021  1.00  0.00    -0.248 NA
ATOM     49  C   UNL     1      14.353  11.698   6.132  1.00  0.00     0.031 C 
ATOM     50  C   UNL     1      12.836  13.141   1.560  1.00  0.00     0.029 A 
ATOM     51  N   UNL     1      11.983  14.233   3.315  1.00  0.00    -0.354 N 
ATOM     52  C   UNL     1      13.081  13.156   7.354  1.00  0.00     0.074 A 
ATOM     53  C   UNL     1      13.981  12.023   7.362  1.00  0.00     0.031 C 
ATOM     54  C   UNL     1      11.993  14.070   1.084  1.00  0.00     0.029 A 
ATOM     55  C   UNL     1      11.411  14.804   2.203  1.00  0.00     0.049 A 
ATOM     56  H   UNL     1      11.771  14.513   4.234  1.00  0.00     0.167 HD
ATOM     57  C   UNL     1      12.625  13.780   8.467  1.00  0.00     0.037 A 
ATOM     58  C   UNL     1      10.524  15.811   2.096  1.00  0.00     0.037 A 
ATOM     59  C   UNL     1      11.738  14.915   8.450  1.00  0.00     0.049 A 
ATOM     60  C   UNL     1      10.040  16.496   3.343  1.00  0.00     0.074 A 
ATOM     61  C   UNL     1      11.268  15.659   9.518  1.00  0.00     0.029 A 
ATOM     62  N   UNL     1      11.180  15.467   7.305  1.00  0.00    -0.354 N 
ATOM     63  N   UNL     1      10.349  16.246   4.593  1.00  0.00    -0.248 NA
ATOM     64  C   UNL     1       9.093  17.603   3.164  1.00  0.00     0.031 C 
ATOM     65  C   UNL     1      10.391  16.632   9.022  1.00  0.00     0.029 A 
ATOM     66  C   UNL     1      10.350  16.525   7.641  1.00  0.00     0.049 A 
ATOM     67  H   UNL     1      11.348  15.152   6.387  1.00  0.00     0.167 HD
ATOM     68  C   UNL     1       9.646  17.176   5.351  1.00  0.00     0.074 A 
ATOM     69  C   UNL     1       8.913  18.005   4.415  1.00  0.00     0.031 C 
ATOM     70  C   UNL     1       9.611  17.329   6.699  1.00  0.00     0.037 A 
BRANCH  57  71
ATOM     71  C   UNL     1      13.080  13.239   9.797  1.00  0.00     0.058 A 
ATOM     72  C   UNL     1      14.412  13.362  10.226  1.00  0.00     0.135 A 
ATOM     73  C   UNL     1      12.176  12.593  10.655  1.00  0.00     0.135 A 
ATOM     74  F   UNL     1      15.323  13.960   9.441  1.00  0.00    -0.206 F 
ATOM     75  C   UNL     1      14.841  12.825  11.435  1.00  0.00     0.059 A 
ATOM     76  C   UNL     1      12.577  12.074  11.883  1.00  0.00     0.059 A 
ATOM     77  F   UNL     1      10.890  12.450  10.299  1.00  0.00    -0.206 F 
ATOM     78  C   UNL     1      13.917  12.175  12.254  1.00  0.00     0.060 A 
BRANCH  78  79
ATOM     79  S   UNL     1      14.493  11.459  13.808  1.00  0.00     0.124 S 
ATOM     80  O   UNL     1      15.204  10.275  13.335  1.00  0.00    -0.237 OA
ATOM     81  O   UNL     1      15.329  12.523  14.354  1.00  0.00    -0.237 OA
ATOM     82  O   UNL     1      13.258  11.198  14.540  1.00  0.00    -0.744 OA
ENDBRANCH  78  79
ENDBRANCH  57  71
BRANCH  58  83
ATOM     83  C   UNL     1      10.080  16.258   0.750  1.00  0.00     0.058 A 
ATOM     84  C   UNL     1      10.530  17.473   0.213  1.00  0.00     0.135 A 
ATOM     85  C   UNL     1       9.241  15.461  -0.044  1.00  0.00     0.135 A 
ATOM     86  F   UNL     1      11.329  18.271   0.937  1.00  0.00    -0.206 F 
ATOM     87  C   UNL     1      10.162  17.885  -1.063  1.00  0.00     0.059 A 
ATOM     88  C   UNL     1       8.878  15.841  -1.331  1.00  0.00     0.059 A 
ATOM     89  F   UNL     1       8.799  14.281   0.419  1.00  0.00    -0.206 F 
ATOM     90  C   UNL     1       9.341  17.058  -1.831  1.00  0.00     0.060 A 
BRANCH  90  91
ATOM     91  S   UNL     1       8.936  17.564  -3.517  1.00  0.00     0.124 S 
ATOM     92  O   UNL     1       7.977  18.637  -3.279  1.00  0.00    -0.237 OA
ATOM     93  O   UNL     1      10.238  17.974  -4.035  1.00  0.00    -0.237 OA
ATOM     94  O   UNL     1       8.390  16.347  -4.110  1.00  0.00    -0.744 OA
ENDBRANCH  90  91
ENDBRANCH  58  83
BRANCH  70  95
ATOM     95  C   UNL     1       8.753  18.441   7.236  1.00  0.00     0.058 A 
ATOM     96  C   UNL     1       7.351  18.366   7.209  1.00  0.00     0.135 A 
ATOM     97  C   UNL     1       9.337  19.588   7.797  1.00  0.00     0.135 A 
ATOM     98  F   UNL     1       6.742  17.294   6.678  1.00  0.00    -0.206 F 
ATOM     99  C   UNL     1       6.558  19.405   7.685  1.00  0.00     0.059 A 
ATOM    100  C   UNL     1       8.563  20.628   8.304  1.00  0.00     0.059 A 
ATOM    101  F   UNL     1      10.673  19.706   7.858  1.00  0.00    -0.206 F 
ATOM    102  C   UNL     1       7.174  20.535   8.227  1.00  0.00     0.060 A 
BRANCH 102 103
ATOM    103  S   UNL     1       6.136  21.876   8.845  1.00  0.00     0.124 S 
ATOM    104  O   UNL     1       5.697  22.503   7.603  1.00  0.00    -0.237 OA
ATOM    105  O   UNL     1       5.107  21.159   9.591  1.00  0.00    -0.237 OA
ATOM    106  O   UNL     1       7.054  22.668   9.658  1.00  0.00    -0.744 OA
ENDBRANCH 102 103
ENDBRANCH  70  95
ENDBRANCH  44  45
ENDBRANCH  36  39
ENDBRANCH  34  35
ENDBRANCH  33  34
ENDBRANCH  32  33
ENDBRANCH   1  32
TORSDOF 22
