REMARK SMILES O=C(CSc1ccnc(C(=O)NCCCCCCNC(=O)c2ccc(-c3c4nc(c(-c5c(F)cc(S(=O)(=O)[O-])cc5F)c5ccc([nH]5)c(-c5c(F)cc(S(=O)(=O)[O-])cc5F)c5nc(c(-c6c(F)cc(S(=O)(=O)[O-])cc6F)c6ccc3[nH]6)C=C5)C=C4)cc2)c1)NC[C@@H]1CCCO1
REMARK SMILES IDX 14 1 13 2 12 3 10 4 11 5 9 7 5 8 6 9 88 10 7 11 8 12 4 13
REMARK SMILES IDX 3 14 2 15 1 16 89 17 90 19 91 20 92 21 95 22 93 23 94 24
REMARK SMILES IDX 15 25 16 26 17 27 18 28 19 29 20 30 21 32 22 33 23 34 87 35
REMARK SMILES IDX 24 36 86 37 25 38 26 39 27 40 80 41 28 42 85 43 79 44 81 45
REMARK SMILES IDX 29 46 84 47 78 48 77 49 30 51 64 52 43 53 63 54 44 55 47 56
REMARK SMILES IDX 62 57 82 58 45 59 46 60 61 62 83 63 48 64 31 65 32 66 41 67
REMARK SMILES IDX 33 68 34 69 40 70 42 71 35 72 36 73 37 74 38 75 39 76 65 77
REMARK SMILES IDX 66 78 75 79 67 80 68 81 74 82 76 83 69 84 70 85 71 86 72 87
REMARK SMILES IDX 73 88 49 89 50 90 59 91 51 92 52 93 58 94 60 95 53 96 54 97
REMARK SMILES IDX 55 98 56 99 57 100
REMARK H PARENT 12 6 89 18 19 31 81 50 47 61
REMARK Flexibility Score: inf
ROOT
ATOM      1  C   UNL     1       5.585  -4.524   2.795  1.00  0.00     0.021 C 
ENDROOT
BRANCH   1   2
ATOM      2  C   UNL     1       4.095  -4.381   2.472  1.00  0.00     0.116 C 
BRANCH   2   3
ATOM      3  N   UNL     1       3.303  -4.523   3.679  1.00  0.00    -0.351 N 
ATOM      4  C   UNL     1       2.631  -3.652   4.504  1.00  0.00     0.269 C 
ATOM      5  O   UNL     1       2.060  -4.175   5.466  1.00  0.00    -0.268 OA
ATOM      6  H   UNL     1       3.229  -5.459   3.975  1.00  0.00     0.163 HD
BRANCH   4   7
ATOM      7  C   UNL     1       2.529  -2.159   4.300  1.00  0.00     0.129 A 
ATOM      8  C   UNL     1       3.086  -0.054   3.295  1.00  0.00     0.012 A 
ATOM      9  C   UNL     1       2.077   0.552   4.032  1.00  0.00     0.035 A 
ATOM     10  C   UNL     1       3.354  -1.413   3.476  1.00  0.00     0.049 A 
ATOM     11  C   UNL     1       1.347  -0.243   4.893  1.00  0.00     0.113 A 
ATOM     12  N   UNL     1       1.539  -1.571   5.028  1.00  0.00    -0.251 NA
BRANCH   8  13
ATOM     13  S   UNL     1       4.080   0.860   2.127  1.00  0.00    -0.116 SA
BRANCH  13  14
ATOM     14  C   UNL     1       2.846   1.211   0.826  1.00  0.00     0.174 C 
BRANCH  14  15
ATOM     15  C   UNL     1       2.190  -0.056   0.302  1.00  0.00     0.230 C 
ATOM     16  O   UNL     1       1.034  -0.351   0.594  1.00  0.00    -0.274 OA
ATOM     17  N   UNL     1       2.979  -0.818  -0.534  1.00  0.00    -0.353 N 
ATOM     18  H   UNL     1       3.904  -0.529  -0.709  1.00  0.00     0.163 HD
BRANCH  17  19
ATOM     19  C   UNL     1       2.492  -2.035  -1.166  1.00  0.00     0.147 C 
BRANCH  19  20
ATOM     20  C   UNL     1       2.724  -2.062  -2.679  1.00  0.00     0.137 C 
ATOM     21  C   UNL     1       1.972  -0.987  -3.446  1.00  0.00     0.036 C 
ATOM     22  O   UNL     1       2.281  -3.321  -3.224  1.00  0.00    -0.376 OA
ATOM     23  C   UNL     1       1.879  -1.606  -4.819  1.00  0.00     0.031 C 
ATOM     24  C   UNL     1       1.646  -3.065  -4.490  1.00  0.00     0.160 C 
ENDBRANCH  19  20
ENDBRANCH  17  19
ENDBRANCH  14  15
ENDBRANCH  13  14
ENDBRANCH   8  13
ENDBRANCH   4   7
ENDBRANCH   2   3
ENDBRANCH   1   2
BRANCH   1  25
ATOM     25  C   UNL     1       6.064  -5.984   2.829  1.00  0.00     0.002 C 
BRANCH  25  26
ATOM     26  C   UNL     1       5.903  -6.755   1.511  1.00  0.00     0.002 C 
BRANCH  26  27
ATOM     27  C   UNL     1       6.485  -6.061   0.277  1.00  0.00     0.021 C 
BRANCH  27  28
ATOM     28  C   UNL     1       7.993  -5.844   0.336  1.00  0.00     0.116 C 
BRANCH  28  29
ATOM     29  N   UNL     1       8.719  -7.104   0.280  1.00  0.00    -0.352 N 
ATOM     30  C   UNL     1       9.707  -7.488  -0.596  1.00  0.00     0.251 C 
ATOM     31  H   UNL     1       8.471  -7.770   0.961  1.00  0.00     0.163 HD
ATOM     32  O   UNL     1      10.070  -8.654  -0.653  1.00  0.00    -0.269 OA
BRANCH  30  33
ATOM     33  C   UNL     1      10.315  -6.469  -1.479  1.00  0.00     0.039 A 
ATOM     34  C   UNL     1      10.430  -6.727  -2.847  1.00  0.00     0.014 A 
ATOM     35  C   UNL     1      10.755  -5.255  -0.945  1.00  0.00     0.014 A 
ATOM     36  C   UNL     1      10.936  -5.738  -3.695  1.00  0.00     0.010 A 
ATOM     37  C   UNL     1      11.200  -4.252  -1.797  1.00  0.00     0.010 A 
ATOM     38  C   UNL     1      11.297  -4.484  -3.179  1.00  0.00    -0.014 A 
BRANCH  38  39
ATOM     39  C   UNL     1      11.809  -3.391  -4.043  1.00  0.00     0.031 A 
ATOM     40  C   UNL     1      13.212  -2.890  -3.837  1.00  0.00     0.074 A 
ATOM     41  C   UNL     1      10.989  -2.781  -4.920  1.00  0.00     0.049 A 
ATOM     42  N   UNL     1      13.789  -1.823  -4.322  1.00  0.00    -0.248 NA
ATOM     43  C   UNL     1      14.066  -3.679  -2.933  1.00  0.00     0.031 C 
ATOM     44  C   UNL     1       9.603  -3.164  -5.193  1.00  0.00     0.029 A 
ATOM     45  N   UNL     1      11.197  -1.689  -5.726  1.00  0.00    -0.354 N 
ATOM     46  C   UNL     1      15.059  -1.793  -3.758  1.00  0.00     0.074 A 
ATOM     47  C   UNL     1      15.155  -2.929  -2.867  1.00  0.00     0.031 C 
ATOM     48  C   UNL     1       9.084  -2.320  -6.100  1.00  0.00     0.029 A 
ATOM     49  C   UNL     1      10.083  -1.310  -6.439  1.00  0.00     0.049 A 
ATOM     50  H   UNL     1      12.060  -1.221  -5.787  1.00  0.00     0.167 HD
ATOM     51  C   UNL     1      16.059  -0.905  -3.975  1.00  0.00     0.037 A 
ATOM     52  C   UNL     1       9.884  -0.255  -7.253  1.00  0.00     0.037 A 
ATOM     53  C   UNL     1      15.965   0.199  -4.892  1.00  0.00     0.049 A 
ATOM     54  C   UNL     1      11.012   0.714  -7.489  1.00  0.00     0.074 A 
ATOM     55  C   UNL     1      16.934   1.131  -5.218  1.00  0.00     0.029 A 
ATOM     56  N   UNL     1      14.838   0.513  -5.638  1.00  0.00    -0.354 N 
ATOM     57  N   UNL     1      12.215   0.716  -6.966  1.00  0.00    -0.248 NA
ATOM     58  C   UNL     1      10.760   1.821  -8.422  1.00  0.00     0.031 C 
ATOM     59  C   UNL     1      16.383   2.028  -6.139  1.00  0.00     0.029 A 
ATOM     60  C   UNL     1      15.086   1.628  -6.420  1.00  0.00     0.049 A 
ATOM     61  H   UNL     1      13.989   0.016  -5.615  1.00  0.00     0.167 HD
ATOM     62  C   UNL     1      12.876   1.798  -7.538  1.00  0.00     0.074 A 
ATOM     63  C   UNL     1      11.937   2.432  -8.440  1.00  0.00     0.031 C 
ATOM     64  C   UNL     1      14.147   2.223  -7.337  1.00  0.00     0.037 A 
BRANCH  51  65
ATOM     65  C   UNL     1      17.336  -1.092  -3.205  1.00  0.00     0.058 A 
ATOM     66  C   UNL     1      18.212  -2.155  -3.477  1.00  0.00     0.135 A 
ATOM     67  C   UNL     1      17.700  -0.184  -2.198  1.00  0.00     0.135 A 
ATOM     68  F   UNL     1      17.904  -3.061  -4.418  1.00  0.00    -0.206 F 
ATOM     69  C   UNL     1      19.388  -2.329  -2.756  1.00  0.00     0.059 A 
ATOM     70  C   UNL     1      18.886  -0.323  -1.483  1.00  0.00     0.059 A 
ATOM     71  F   UNL     1      16.898   0.850  -1.897  1.00  0.00    -0.206 F 
ATOM     72  C   UNL     1      19.715  -1.410  -1.758  1.00  0.00     0.060 A 
BRANCH  72  73
ATOM     73  S   UNL     1      21.243  -1.651  -0.828  1.00  0.00     0.124 S 
ATOM     74  O   UNL     1      20.876  -2.759   0.049  1.00  0.00    -0.237 OA
ATOM     75  O   UNL     1      22.204  -1.967  -1.880  1.00  0.00    -0.237 OA
ATOM     76  O   UNL     1      21.444  -0.366  -0.165  1.00  0.00    -0.744 OA
ENDBRANCH  72  73
ENDBRANCH  51  65
BRANCH  52  77
ATOM     77  C   UNL     1       8.566  -0.068  -7.914  1.00  0.00     0.058 A 
ATOM     78  C   UNL     1       8.413  -0.286  -9.291  1.00  0.00     0.135 A 
ATOM     79  C   UNL     1       7.429   0.309  -7.182  1.00  0.00     0.135 A 
ATOM     80  F   UNL     1       9.472  -0.643 -10.034  1.00  0.00    -0.206 F 
ATOM     81  C   UNL     1       7.185  -0.125  -9.924  1.00  0.00     0.059 A 
ATOM     82  C   UNL     1       6.185   0.455  -7.788  1.00  0.00     0.059 A 
ATOM     83  F   UNL     1       7.516   0.512  -5.858  1.00  0.00    -0.206 F 
ATOM     84  C   UNL     1       6.075   0.244  -9.162  1.00  0.00     0.060 A 
BRANCH  84  85
ATOM     85  S   UNL     1       4.470   0.394  -9.976  1.00  0.00     0.124 S 
ATOM     86  O   UNL     1       4.616   1.663 -10.679  1.00  0.00    -0.237 OA
ATOM     87  O   UNL     1       4.435  -0.801 -10.812  1.00  0.00    -0.237 OA
ATOM     88  O   UNL     1       3.530   0.394  -8.858  1.00  0.00    -0.744 OA
ENDBRANCH  84  85
ENDBRANCH  52  77
BRANCH  64  89
ATOM     89  C   UNL     1      14.633   3.390  -8.148  1.00  0.00     0.058 A 
ATOM     90  C   UNL     1      14.263   4.708  -7.843  1.00  0.00     0.135 A 
ATOM     91  C   UNL     1      15.565   3.188  -9.179  1.00  0.00     0.135 A 
ATOM     92  F   UNL     1      13.368   4.952  -6.872  1.00  0.00    -0.206 F 
ATOM     93  C   UNL     1      14.802   5.789  -8.533  1.00  0.00     0.059 A 
ATOM     94  C   UNL     1      16.134   4.255  -9.866  1.00  0.00     0.059 A 
ATOM     95  F   UNL     1      15.956   1.945  -9.503  1.00  0.00    -0.206 F 
ATOM     96  C   UNL     1      15.745   5.552  -9.537  1.00  0.00     0.060 A 
BRANCH  96  97
ATOM     97  S   UNL     1      16.496   6.967 -10.370  1.00  0.00     0.124 S 
ATOM     98  O   UNL     1      15.411   7.405 -11.241  1.00  0.00    -0.237 OA
ATOM     99  O   UNL     1      16.813   7.854  -9.255  1.00  0.00    -0.237 OA
ATOM    100  O   UNL     1      17.651   6.387 -11.048  1.00  0.00    -0.744 OA
ENDBRANCH  96  97
ENDBRANCH  64  89
ENDBRANCH  38  39
ENDBRANCH  30  33
ENDBRANCH  28  29
ENDBRANCH  27  28
ENDBRANCH  26  27
ENDBRANCH  25  26
ENDBRANCH   1  25
TORSDOF 21
