REMARK SMILES CC/C=C/C/C=C/C/C=C/C/C=C/CC/C=C/COCC(=O)NCCCCCCNC(=O)c1ccc(-c2c3nc(c(-c4c(F)cc(S(=O)(=O)[O-])cc4F)c4ccc([nH]4)c(-c4c(F)cc(S(=O)(=O)[O-])cc4F)c4nc(c(-c5c(F)cc(S(=O)(=O)[O-])cc5F)c5ccc2[nH]5)C=C4)C=C3)cc1
REMARK SMILES IDX 20 1 19 2 18 3 17 4 16 5 15 6 14 7 13 8 12 9 11 10 10 11
REMARK SMILES IDX 9 12 8 13 7 14 6 15 5 16 4 17 3 18 2 19 1 20 21 21 22 22
REMARK SMILES IDX 23 23 24 25 25 26 26 27 27 28 28 29 29 30 30 31 31 32 32 34
REMARK SMILES IDX 33 35 34 36 98 37 35 38 97 39 36 40 37 41 38 42 91 43 39 44
REMARK SMILES IDX 96 45 90 46 92 47 40 48 95 49 89 50 88 51 41 53 75 54 54 55
REMARK SMILES IDX 74 56 55 57 58 58 73 59 93 60 56 61 57 62 72 64 94 65 59 66
REMARK SMILES IDX 42 67 43 68 52 69 44 70 45 71 51 72 53 73 46 74 47 75 48 76
REMARK SMILES IDX 49 77 50 78 76 79 77 80 86 81 78 82 79 83 85 84 87 85 80 86
REMARK SMILES IDX 81 87 82 88 83 89 84 90 60 91 61 92 70 93 62 94 63 95 69 96
REMARK SMILES IDX 71 97 64 98 65 99 66 100 67 101 68 102
REMARK H PARENT 23 24 30 33 92 52 58 63
REMARK Flexibility Score: inf
ROOT
ATOM      1  C   UNL     1      -9.845  13.569  -0.616  1.00  0.00     0.260 C 
ENDROOT
BRANCH   1   2
ATOM      2  O   UNL     1      -9.341  14.889  -0.456  1.00  0.00    -0.368 OA
BRANCH   2   3
ATOM      3  C   UNL     1      -7.918  14.982  -0.512  1.00  0.00     0.188 C 
BRANCH   3   4
ATOM      4  C   UNL     1      -7.312  14.255   0.646  1.00  0.00    -0.003 C 
ATOM      5  C   UNL     1      -6.515  13.186   0.499  1.00  0.00    -0.029 C 
BRANCH   5   6
ATOM      6  C   UNL     1      -6.033  12.322   1.630  1.00  0.00     0.031 C 
BRANCH   6   7
ATOM      7  C   UNL     1      -6.620  10.902   1.570  1.00  0.00     0.031 C 
BRANCH   7   8
ATOM      8  C   UNL     1      -6.172  10.132   0.357  1.00  0.00    -0.031 C 
ATOM      9  C   UNL     1      -5.361   9.063   0.394  1.00  0.00    -0.027 C 
BRANCH   9  10
ATOM     10  C   UNL     1      -4.878   8.343  -0.832  1.00  0.00     0.054 C 
BRANCH  10  11
ATOM     11  C   UNL     1      -3.376   8.341  -0.878  1.00  0.00    -0.027 C 
ATOM     12  C   UNL     1      -2.625   7.228  -0.900  1.00  0.00    -0.027 C 
BRANCH  12  13
ATOM     13  C   UNL     1      -1.124   7.225  -0.899  1.00  0.00     0.054 C 
BRANCH  13  14
ATOM     14  C   UNL     1      -0.601   6.491   0.303  1.00  0.00    -0.027 C 
ATOM     15  C   UNL     1       0.171   5.394   0.239  1.00  0.00    -0.027 C 
BRANCH  15  16
ATOM     16  C   UNL     1       0.670   4.644   1.440  1.00  0.00     0.054 C 
BRANCH  16  17
ATOM     17  C   UNL     1       0.197   3.219   1.412  1.00  0.00    -0.027 C 
ATOM     18  C   UNL     1       1.014   2.154   1.373  1.00  0.00    -0.031 C 
BRANCH  18  19
ATOM     19  C   UNL     1       0.534   0.732   1.332  1.00  0.00     0.023 C 
ATOM     20  C   UNL     1       1.019   0.024   0.077  1.00  0.00     0.008 C 
ENDBRANCH  18  19
ENDBRANCH  16  17
ENDBRANCH  15  16
ENDBRANCH  13  14
ENDBRANCH  12  13
ENDBRANCH  10  11
ENDBRANCH   9  10
ENDBRANCH   7   8
ENDBRANCH   6   7
ENDBRANCH   5   6
ENDBRANCH   3   4
ENDBRANCH   2   3
ENDBRANCH   1   2
BRANCH   1  21
ATOM     21  C   UNL     1      -9.488  12.823  -1.908  1.00  0.00     0.246 C 
ATOM     22  O   UNL     1      -8.857  11.765  -1.902  1.00  0.00    -0.272 OA
ATOM     23  N   UNL     1      -9.909  13.338  -3.100  1.00  0.00    -0.354 N 
ATOM     24  H   UNL     1      -9.729  12.788  -3.896  1.00  0.00     0.163 HD
BRANCH  23  25
ATOM     25  C   UNL     1     -10.590  14.598  -3.337  1.00  0.00     0.116 C 
BRANCH  25  26
ATOM     26  C   UNL     1      -9.708  15.559  -4.132  1.00  0.00     0.021 C 
BRANCH  26  27
ATOM     27  C   UNL     1      -9.355  15.068  -5.543  1.00  0.00     0.002 C 
BRANCH  27  28
ATOM     28  C   UNL     1     -10.555  14.720  -6.430  1.00  0.00     0.002 C 
BRANCH  28  29
ATOM     29  C   UNL     1     -11.575  15.846  -6.609  1.00  0.00     0.021 C 
BRANCH  29  30
ATOM     30  C   UNL     1     -11.011  17.123  -7.222  1.00  0.00     0.116 C 
BRANCH  30  31
ATOM     31  N   UNL     1     -10.521  16.912  -8.576  1.00  0.00    -0.352 N 
ATOM     32  C   UNL     1     -10.836  17.588  -9.728  1.00  0.00     0.251 C 
ATOM     33  H   UNL     1      -9.872  16.180  -8.680  1.00  0.00     0.163 HD
ATOM     34  O   UNL     1     -10.472  17.145 -10.816  1.00  0.00    -0.269 OA
BRANCH  32  35
ATOM     35  C   UNL     1     -11.629  18.834  -9.661  1.00  0.00     0.039 A 
ATOM     36  C   UNL     1     -12.674  19.021 -10.569  1.00  0.00     0.014 A 
ATOM     37  C   UNL     1     -11.346  19.815  -8.706  1.00  0.00     0.014 A 
ATOM     38  C   UNL     1     -13.474  20.162 -10.478  1.00  0.00     0.010 A 
ATOM     39  C   UNL     1     -12.192  20.912  -8.567  1.00  0.00     0.010 A 
ATOM     40  C   UNL     1     -13.264  21.099  -9.452  1.00  0.00    -0.014 A 
BRANCH  40  41
ATOM     41  C   UNL     1     -14.164  22.271  -9.285  1.00  0.00     0.031 A 
ATOM     42  C   UNL     1     -13.625  23.670  -9.426  1.00  0.00     0.074 A 
ATOM     43  C   UNL     1     -15.454  22.075  -8.945  1.00  0.00     0.049 A 
ATOM     44  N   UNL     1     -14.242  24.812  -9.261  1.00  0.00    -0.248 NA
ATOM     45  C   UNL     1     -12.201  23.803  -9.773  1.00  0.00     0.031 C 
ATOM     46  C   UNL     1     -16.082  20.770  -8.730  1.00  0.00     0.029 A 
ATOM     47  N   UNL     1     -16.468  22.971  -8.711  1.00  0.00    -0.354 N 
ATOM     48  C   UNL     1     -13.283  25.796  -9.472  1.00  0.00     0.074 A 
ATOM     49  C   UNL     1     -12.031  25.116  -9.723  1.00  0.00     0.031 C 
ATOM     50  C   UNL     1     -17.376  20.948  -8.419  1.00  0.00     0.029 A 
ATOM     51  C   UNL     1     -17.661  22.379  -8.369  1.00  0.00     0.049 A 
ATOM     52  H   UNL     1     -16.351  23.946  -8.781  1.00  0.00     0.167 HD
ATOM     53  C   UNL     1     -13.437  27.142  -9.477  1.00  0.00     0.037 A 
ATOM     54  C   UNL     1     -18.849  22.924  -8.040  1.00  0.00     0.037 A 
ATOM     55  C   UNL     1     -14.691  27.810  -9.244  1.00  0.00     0.049 A 
ATOM     56  C   UNL     1     -18.992  24.423  -8.044  1.00  0.00     0.074 A 
ATOM     57  C   UNL     1     -14.964  29.166  -9.289  1.00  0.00     0.029 A 
ATOM     58  N   UNL     1     -15.881  27.175  -8.916  1.00  0.00    -0.354 N 
ATOM     59  N   UNL     1     -18.091  25.336  -8.316  1.00  0.00    -0.248 NA
ATOM     60  C   UNL     1     -20.314  24.965  -7.703  1.00  0.00     0.031 C 
ATOM     61  C   UNL     1     -16.302  29.356  -8.932  1.00  0.00     0.029 A 
ATOM     62  C   UNL     1     -16.883  28.114  -8.728  1.00  0.00     0.049 A 
ATOM     63  H   UNL     1     -15.996  26.201  -8.830  1.00  0.00     0.167 HD
ATOM     64  C   UNL     1     -18.745  26.559  -8.209  1.00  0.00     0.074 A 
ATOM     65  C   UNL     1     -20.119  26.267  -7.859  1.00  0.00     0.031 C 
ATOM     66  C   UNL     1     -18.251  27.810  -8.385  1.00  0.00     0.037 A 
BRANCH  53  67
ATOM     67  C   UNL     1     -12.219  27.987  -9.743  1.00  0.00     0.058 A 
ATOM     68  C   UNL     1     -11.604  28.022 -11.005  1.00  0.00     0.135 A 
ATOM     69  C   UNL     1     -11.687  28.808  -8.735  1.00  0.00     0.135 A 
ATOM     70  F   UNL     1     -12.060  27.248 -12.003  1.00  0.00    -0.206 F 
ATOM     71  C   UNL     1     -10.489  28.818 -11.251  1.00  0.00     0.059 A 
ATOM     72  C   UNL     1     -10.592  29.636  -8.967  1.00  0.00     0.059 A 
ATOM     73  F   UNL     1     -12.234  28.815  -7.510  1.00  0.00    -0.206 F 
ATOM     74  C   UNL     1      -9.992  29.624 -10.225  1.00  0.00     0.060 A 
BRANCH  74  75
ATOM     75  S   UNL     1      -8.552  30.658 -10.565  1.00  0.00     0.124 S 
ATOM     76  O   UNL     1      -7.491  29.659 -10.658  1.00  0.00    -0.237 OA
ATOM     77  O   UNL     1      -8.923  31.306 -11.819  1.00  0.00    -0.237 OA
ATOM     78  O   UNL     1      -8.482  31.538  -9.403  1.00  0.00    -0.744 OA
ENDBRANCH  74  75
ENDBRANCH  53  67
BRANCH  54  79
ATOM     79  C   UNL     1     -20.000  22.047  -7.692  1.00  0.00     0.058 A 
ATOM     80  C   UNL     1     -21.115  21.946  -8.538  1.00  0.00     0.135 A 
ATOM     81  C   UNL     1     -20.004  21.284  -6.514  1.00  0.00     0.135 A 
ATOM     82  F   UNL     1     -21.163  22.660  -9.673  1.00  0.00    -0.206 F 
ATOM     83  C   UNL     1     -22.201  21.136  -8.220  1.00  0.00     0.059 A 
ATOM     84  C   UNL     1     -21.064  20.444  -6.189  1.00  0.00     0.059 A 
ATOM     85  F   UNL     1     -18.954  21.331  -5.678  1.00  0.00    -0.206 F 
ATOM     86  C   UNL     1     -22.164  20.385  -7.043  1.00  0.00     0.060 A 
BRANCH  86  87
ATOM     87  S   UNL     1     -23.558  19.302  -6.663  1.00  0.00     0.124 S 
ATOM     88  O   UNL     1     -24.592  20.268  -6.309  1.00  0.00    -0.237 OA
ATOM     89  O   UNL     1     -23.749  18.596  -7.926  1.00  0.00    -0.237 OA
ATOM     90  O   UNL     1     -23.056  18.483  -5.564  1.00  0.00    -0.744 OA
ENDBRANCH  86  87
ENDBRANCH  54  79
BRANCH  66  91
ATOM     91  C   UNL     1     -19.208  28.963  -8.242  1.00  0.00     0.058 A 
ATOM     92  C   UNL     1     -19.722  29.350  -6.995  1.00  0.00     0.135 A 
ATOM     93  C   UNL     1     -19.574  29.724  -9.365  1.00  0.00     0.135 A 
ATOM     94  F   UNL     1     -19.410  28.654  -5.889  1.00  0.00    -0.206 F 
ATOM     95  C   UNL     1     -20.584  30.435  -6.869  1.00  0.00     0.059 A 
ATOM     96  C   UNL     1     -20.409  30.831  -9.258  1.00  0.00     0.059 A 
ATOM     97  F   UNL     1     -19.104  29.404 -10.581  1.00  0.00    -0.206 F 
ATOM     98  C   UNL     1     -20.919  31.172  -8.007  1.00  0.00     0.060 A 
BRANCH  98  99
ATOM     99  S   UNL     1     -22.010  32.598  -7.823  1.00  0.00     0.124 S 
ATOM    100  O   UNL     1     -23.295  31.955  -7.569  1.00  0.00    -0.237 OA
ATOM    101  O   UNL     1     -21.417  33.300  -6.689  1.00  0.00    -0.237 OA
ATOM    102  O   UNL     1     -21.894  33.284  -9.107  1.00  0.00    -0.744 OA
ENDBRANCH  98  99
ENDBRANCH  66  91
ENDBRANCH  40  41
ENDBRANCH  32  35
ENDBRANCH  30  31
ENDBRANCH  29  30
ENDBRANCH  28  29
ENDBRANCH  27  28
ENDBRANCH  26  27
ENDBRANCH  25  26
ENDBRANCH  23  25
ENDBRANCH   1  21
TORSDOF 29
