REMARK SMILES Nc1nc(Nc2ccc(C(=O)NCCCCCCNC(=O)c3ccc(-c4c5nc(c(-c6c(F)cc(S(=O)(=O)[O-])cc6F)c6ccc([nH]6)c(-c6c(F)cc(S(=O)(=O)[O-])cc6F)c6nc(c(-c7c(F)cc(S(=O)(=O)[O-])cc7F)c7ccc4[nH]7)C=C6)C=C5)cc3)cc2)ccc1[N+](=O)[O-]
REMARK SMILES IDX 15 1 14 2 13 3 12 4 10 5 11 6 9 8 6 9 7 10 89 11 8 12 88 13
REMARK SMILES IDX 5 14 4 16 2 17 3 18 92 19 91 20 90 21 1 22 93 25 94 26 95 27
REMARK SMILES IDX 16 28 17 29 18 30 19 31 20 32 21 34 22 35 23 36 87 37 24 38
REMARK SMILES IDX 86 39 25 40 26 41 27 42 80 43 28 44 85 45 79 46 81 47 29 48
REMARK SMILES IDX 84 49 78 50 77 51 30 53 64 54 43 55 63 56 44 57 47 58 62 59
REMARK SMILES IDX 82 60 45 61 46 62 61 64 83 65 48 66 31 67 32 68 41 69 33 70
REMARK SMILES IDX 34 71 40 72 42 73 35 74 36 75 37 76 38 77 39 78 65 79 66 80
REMARK SMILES IDX 75 81 67 82 68 83 74 84 76 85 69 86 70 87 71 88 72 89 73 90
REMARK SMILES IDX 49 91 50 92 59 93 51 94 52 95 58 96 60 97 53 98 54 99 55 100
REMARK SMILES IDX 56 101 57 102
REMARK H PARENT 12 7 5 15 1 23 1 24 19 33 81 52 47 63
REMARK Flexibility Score: inf
ROOT
ATOM      1  C   UNL     1       3.377   8.693  -3.198  1.00  0.00     0.002 C 
ENDROOT
BRANCH   1   2
ATOM      2  C   UNL     1       2.511   7.456  -2.924  1.00  0.00     0.021 C 
BRANCH   2   3
ATOM      3  C   UNL     1       2.843   6.782  -1.591  1.00  0.00     0.116 C 
BRANCH   3   4
ATOM      4  N   UNL     1       2.233   7.529  -0.507  1.00  0.00    -0.352 N 
ATOM      5  C   UNL     1       1.112   7.316   0.251  1.00  0.00     0.251 C 
ATOM      6  O   UNL     1       0.814   8.175   1.083  1.00  0.00    -0.269 OA
ATOM      7  H   UNL     1       2.721   8.351  -0.269  1.00  0.00     0.163 HD
BRANCH   5   8
ATOM      8  C   UNL     1       0.298   6.072   0.173  1.00  0.00     0.039 A 
ATOM      9  C   UNL     1      -1.049   3.601   0.307  1.00  0.00     0.040 A 
ATOM     10  C   UNL     1      -1.035   4.452   1.411  1.00  0.00     0.027 A 
ATOM     11  C   UNL     1      -0.506   4.053  -0.899  1.00  0.00     0.027 A 
ATOM     12  C   UNL     1      -0.345   5.666   1.353  1.00  0.00     0.016 A 
ATOM     13  C   UNL     1       0.137   5.293  -0.974  1.00  0.00     0.016 A 
BRANCH   9  14
ATOM     14  N   UNL     1      -1.701   2.360   0.384  1.00  0.00    -0.340 N 
ATOM     15  H   UNL     1      -2.663   2.364   0.594  1.00  0.00     0.168 HD
BRANCH  14  16
ATOM     16  C   UNL     1      -1.083   1.112   0.185  1.00  0.00     0.133 A 
ATOM     17  C   UNL     1       0.878  -0.171   0.023  1.00  0.00     0.204 A 
ATOM     18  N   UNL     1       0.266   1.033   0.101  1.00  0.00    -0.207 NA
ATOM     19  C   UNL     1       0.141  -1.350   0.023  1.00  0.00     0.311 A 
ATOM     20  C   UNL     1      -1.255  -1.280   0.097  1.00  0.00     0.093 A 
ATOM     21  C   UNL     1      -1.870  -0.034   0.188  1.00  0.00     0.054 A 
BRANCH  17  22
ATOM     22  N   UNL     1       2.242  -0.088  -0.140  1.00  0.00    -0.378 N 
ATOM     23  H   UNL     1       2.687   0.790  -0.127  1.00  0.00     0.158 HD
ATOM     24  H   UNL     1       2.773  -0.907  -0.269  1.00  0.00     0.158 HD
ENDBRANCH  17  22
BRANCH  19  25
ATOM     25  N   UNL     1       0.784  -2.661   0.013  1.00  0.00     0.066 N 
ATOM     26  O   UNL     1       0.051  -3.652  -0.136  1.00  0.00    -0.258 OA
ATOM     27  O   UNL     1       2.007  -2.729   0.208  1.00  0.00    -0.258 OA
ENDBRANCH  19  25
ENDBRANCH  14  16
ENDBRANCH   9  14
ENDBRANCH   5   8
ENDBRANCH   3   4
ENDBRANCH   2   3
ENDBRANCH   1   2
BRANCH   1  28
ATOM     28  C   UNL     1       4.877   8.402  -3.343  1.00  0.00     0.002 C 
BRANCH  28  29
ATOM     29  C   UNL     1       5.225   7.362  -4.411  1.00  0.00     0.021 C 
BRANCH  29  30
ATOM     30  C   UNL     1       4.816   7.764  -5.824  1.00  0.00     0.116 C 
BRANCH  30  31
ATOM     31  N   UNL     1       5.555   8.933  -6.279  1.00  0.00    -0.352 N 
ATOM     32  C   UNL     1       6.346   9.073  -7.393  1.00  0.00     0.251 C 
ATOM     33  H   UNL     1       5.477   9.732  -5.710  1.00  0.00     0.163 HD
ATOM     34  O   UNL     1       7.095  10.036  -7.500  1.00  0.00    -0.269 OA
BRANCH  32  35
ATOM     35  C   UNL     1       6.291   8.044  -8.452  1.00  0.00     0.039 A 
ATOM     36  C   UNL     1       7.481   7.565  -9.002  1.00  0.00     0.014 A 
ATOM     37  C   UNL     1       5.059   7.555  -8.897  1.00  0.00     0.014 A 
ATOM     38  C   UNL     1       7.438   6.550  -9.960  1.00  0.00     0.010 A 
ATOM     39  C   UNL     1       5.021   6.495  -9.796  1.00  0.00     0.010 A 
ATOM     40  C   UNL     1       6.210   5.984 -10.340  1.00  0.00    -0.014 A 
BRANCH  40  41
ATOM     41  C   UNL     1       6.134   4.866 -11.315  1.00  0.00     0.031 A 
ATOM     42  C   UNL     1       5.421   5.066 -12.625  1.00  0.00     0.074 A 
ATOM     43  C   UNL     1       6.644   3.660 -10.993  1.00  0.00     0.049 A 
ATOM     44  N   UNL     1       5.136   4.189 -13.552  1.00  0.00    -0.248 NA
ATOM     45  C   UNL     1       4.946   6.428 -12.922  1.00  0.00     0.031 C 
ATOM     46  C   UNL     1       7.337   3.338  -9.743  1.00  0.00     0.029 A 
ATOM     47  N   UNL     1       6.647   2.474 -11.685  1.00  0.00    -0.354 N 
ATOM     48  C   UNL     1       4.448   4.890 -14.537  1.00  0.00     0.074 A 
ATOM     49  C   UNL     1       4.304   6.250 -14.068  1.00  0.00     0.031 C 
ATOM     50  C   UNL     1       7.710   2.048  -9.765  1.00  0.00     0.029 A 
ATOM     51  C   UNL     1       7.244   1.438 -11.005  1.00  0.00     0.049 A 
ATOM     52  H   UNL     1       6.258   2.375 -12.584  1.00  0.00     0.167 HD
ATOM     53  C   UNL     1       4.004   4.446 -15.736  1.00  0.00     0.037 A 
ATOM     54  C   UNL     1       7.381   0.139 -11.337  1.00  0.00     0.037 A 
ATOM     55  C   UNL     1       4.167   3.094 -16.203  1.00  0.00     0.049 A 
ATOM     56  C   UNL     1       6.832  -0.340 -12.657  1.00  0.00     0.074 A 
ATOM     57  C   UNL     1       3.764   2.547 -17.409  1.00  0.00     0.029 A 
ATOM     58  N   UNL     1       4.790   2.080 -15.491  1.00  0.00    -0.354 N 
ATOM     59  N   UNL     1       6.211   0.344 -13.589  1.00  0.00    -0.248 NA
ATOM     60  C   UNL     1       7.005  -1.765 -12.975  1.00  0.00     0.031 C 
ATOM     61  C   UNL     1       4.108   1.192 -17.410  1.00  0.00     0.029 A 
ATOM     62  C   UNL     1       4.775   0.909 -16.229  1.00  0.00     0.049 A 
ATOM     63  H   UNL     1       5.184   2.178 -14.595  1.00  0.00     0.167 HD
ATOM     64  C   UNL     1       5.966  -0.555 -14.621  1.00  0.00     0.074 A 
ATOM     65  C   UNL     1       6.503  -1.832 -14.200  1.00  0.00     0.031 C 
ATOM     66  C   UNL     1       5.355  -0.343 -15.812  1.00  0.00     0.037 A 
BRANCH  53  67
ATOM     67  C   UNL     1       3.319   5.431 -16.642  1.00  0.00     0.058 A 
ATOM     68  C   UNL     1       4.034   6.461 -17.275  1.00  0.00     0.135 A 
ATOM     69  C   UNL     1       1.952   5.307 -16.938  1.00  0.00     0.135 A 
ATOM     70  F   UNL     1       5.339   6.637 -17.015  1.00  0.00    -0.206 F 
ATOM     71  C   UNL     1       3.416   7.340 -18.158  1.00  0.00     0.059 A 
ATOM     72  C   UNL     1       1.319   6.157 -17.840  1.00  0.00     0.059 A 
ATOM     73  F   UNL     1       1.219   4.343 -16.358  1.00  0.00    -0.206 F 
ATOM     74  C   UNL     1       2.059   7.175 -18.440  1.00  0.00     0.060 A 
BRANCH  74  75
ATOM     75  S   UNL     1       1.284   8.304 -19.616  1.00  0.00     0.124 S 
ATOM     76  O   UNL     1       1.263   9.549 -18.854  1.00  0.00    -0.237 OA
ATOM     77  O   UNL     1       2.213   8.266 -20.741  1.00  0.00    -0.237 OA
ATOM     78  O   UNL     1      -0.020   7.698 -19.862  1.00  0.00    -0.744 OA
ENDBRANCH  74  75
ENDBRANCH  53  67
BRANCH  54  79
ATOM     79  C   UNL     1       8.070  -0.810 -10.419  1.00  0.00     0.058 A 
ATOM     80  C   UNL     1       9.290  -1.403 -10.777  1.00  0.00     0.135 A 
ATOM     81  C   UNL     1       7.506  -1.175  -9.186  1.00  0.00     0.135 A 
ATOM     82  F   UNL     1       9.870  -1.089 -11.946  1.00  0.00    -0.206 F 
ATOM     83  C   UNL     1       9.905  -2.354  -9.970  1.00  0.00     0.059 A 
ATOM     84  C   UNL     1       8.118  -2.100  -8.347  1.00  0.00     0.059 A 
ATOM     85  F   UNL     1       6.351  -0.623  -8.784  1.00  0.00    -0.206 F 
ATOM     86  C   UNL     1       9.306  -2.702  -8.759  1.00  0.00     0.060 A 
BRANCH  86  87
ATOM     87  S   UNL     1      10.107  -3.946  -7.723  1.00  0.00     0.124 S 
ATOM     88  O   UNL     1       9.834  -5.167  -8.471  1.00  0.00    -0.237 OA
ATOM     89  O   UNL     1      11.495  -3.494  -7.718  1.00  0.00    -0.237 OA
ATOM     90  O   UNL     1       9.409  -3.817  -6.447  1.00  0.00    -0.744 OA
ENDBRANCH  86  87
ENDBRANCH  54  79
BRANCH  66  91
ATOM     91  C   UNL     1       5.298  -1.486 -16.786  1.00  0.00     0.058 A 
ATOM     92  C   UNL     1       4.439  -2.580 -16.602  1.00  0.00     0.135 A 
ATOM     93  C   UNL     1       6.058  -1.439 -17.968  1.00  0.00     0.135 A 
ATOM     94  F   UNL     1       3.698  -2.678 -15.488  1.00  0.00    -0.206 F 
ATOM     95  C   UNL     1       4.342  -3.592 -17.552  1.00  0.00     0.059 A 
ATOM     96  C   UNL     1       5.954  -2.424 -18.944  1.00  0.00     0.059 A 
ATOM     97  F   UNL     1       6.889  -0.409 -18.196  1.00  0.00    -0.206 F 
ATOM     98  C   UNL     1       5.096  -3.500 -18.724  1.00  0.00     0.060 A 
BRANCH  98  99
ATOM     99  S   UNL     1       4.907  -4.786 -19.977  1.00  0.00     0.124 S 
ATOM    100  O   UNL     1       5.585  -5.914 -19.347  1.00  0.00    -0.237 OA
ATOM    101  O   UNL     1       3.455  -4.900 -20.087  1.00  0.00    -0.237 OA
ATOM    102  O   UNL     1       5.576  -4.224 -21.146  1.00  0.00    -0.744 OA
ENDBRANCH  98  99
ENDBRANCH  66  91
ENDBRANCH  40  41
ENDBRANCH  32  35
ENDBRANCH  30  31
ENDBRANCH  29  30
ENDBRANCH  28  29
ENDBRANCH   1  28
TORSDOF 20
