REMARK SMILES C[C@H](Oc1ccccc1Cl)C(=O)N1CCCC[C@H]1C(=O)NCCCCCCNC(=O)c1ccc(-c2c3nc(c(-c4c(F)cc(S(=O)(=O)[O-])cc4F)c4ccc([nH]4)c(-c4c(F)cc(S(=O)(=O)[O-])cc4F)c4nc(c(-c5c(F)cc(S(=O)(=O)[O-])cc5F)c5ccc2[nH]5)C=C4)C=C3)cc1
REMARK SMILES IDX 24 1 23 2 22 3 21 4 19 5 20 6 18 8 13 9 14 10 15 11 17 12
REMARK SMILES IDX 16 13 11 14 12 15 2 16 1 17 3 18 4 19 5 20 9 21 6 22 8 23
REMARK SMILES IDX 10 24 7 25 25 26 26 27 27 28 28 29 29 30 30 32 31 33 32 34
REMARK SMILES IDX 96 35 33 36 95 37 34 38 35 39 36 40 89 41 37 42 94 43 88 44
REMARK SMILES IDX 90 45 38 46 93 47 87 48 86 49 39 51 73 52 52 53 72 54 53 55
REMARK SMILES IDX 56 56 71 57 91 58 54 59 55 60 70 62 92 63 57 64 40 65 41 66
REMARK SMILES IDX 50 67 42 68 43 69 49 70 51 71 44 72 45 73 46 74 47 75 48 76
REMARK SMILES IDX 74 77 75 78 84 79 76 80 77 81 83 82 85 83 78 84 79 85 80 86
REMARK SMILES IDX 81 87 82 88 58 89 59 90 68 91 60 92 61 93 67 94 69 95 62 96
REMARK SMILES IDX 63 97 64 98 65 99 66 100
REMARK H PARENT 21 7 28 31 90 50 56 61
REMARK Flexibility Score: inf
ROOT
ATOM      1  C   UNL     1       2.517  -0.564  -5.308  1.00  0.00     0.002 C 
ENDROOT
BRANCH   1   2
ATOM      2  C   UNL     1       2.177  -0.746  -3.832  1.00  0.00     0.021 C 
BRANCH   2   3
ATOM      3  C   UNL     1       0.771  -0.307  -3.445  1.00  0.00     0.116 C 
BRANCH   3   4
ATOM      4  N   UNL     1      -0.239  -1.280  -3.753  1.00  0.00    -0.354 N 
ATOM      5  C   UNL     1      -1.224  -1.734  -2.923  1.00  0.00     0.242 C 
ATOM      6  O   UNL     1      -1.900  -2.680  -3.337  1.00  0.00    -0.273 OA
ATOM      7  H   UNL     1      -0.219  -1.661  -4.661  1.00  0.00     0.163 HD
BRANCH   5   8
ATOM      8  C   UNL     1      -1.389  -1.141  -1.481  1.00  0.00     0.174 C 
ATOM      9  N   UNL     1      -1.629   0.324  -1.407  1.00  0.00    -0.327 N 
ATOM     10  C   UNL     1      -2.888   0.742  -2.020  1.00  0.00     0.120 C 
ATOM     11  C   UNL     1      -4.086   0.066  -1.358  1.00  0.00     0.022 C 
ATOM     12  C   UNL     1      -2.553  -1.854  -0.752  1.00  0.00     0.035 C 
ATOM     13  C   UNL     1      -3.921  -1.451  -1.318  1.00  0.00     0.004 C 
BRANCH   9  14
ATOM     14  C   UNL     1      -1.158   1.113  -0.340  1.00  0.00     0.264 C 
ATOM     15  O   UNL     1      -1.932   1.825   0.310  1.00  0.00    -0.271 OA
BRANCH  14  16
ATOM     16  C   UNL     1       0.379   1.312  -0.168  1.00  0.00     0.259 C 
ATOM     17  C   UNL     1       0.807   2.242  -1.317  1.00  0.00     0.064 C 
BRANCH  16  18
ATOM     18  O   UNL     1       1.021   0.052  -0.019  1.00  0.00    -0.479 OA
BRANCH  18  19
ATOM     19  C   UNL     1       2.358  -0.194  -0.110  1.00  0.00     0.139 A 
ATOM     20  C   UNL     1       3.350   0.741  -0.402  1.00  0.00     0.048 A 
ATOM     21  C   UNL     1       2.739  -1.545   0.020  1.00  0.00     0.083 A 
ATOM     22  C   UNL     1       4.658   0.324  -0.693  1.00  0.00     0.004 A 
ATOM     23  C   UNL     1       4.048  -1.958  -0.242  1.00  0.00     0.024 A 
ATOM     24  Cl  UNL     1       1.605  -2.762   0.502  1.00  0.00    -0.080 Cl
ATOM     25  C   UNL     1       5.002  -1.024  -0.632  1.00  0.00     0.002 A 
ENDBRANCH  18  19
ENDBRANCH  16  18
ENDBRANCH  14  16
ENDBRANCH   9  14
ENDBRANCH   5   8
ENDBRANCH   3   4
ENDBRANCH   2   3
ENDBRANCH   1   2
BRANCH   1  26
ATOM     26  C   UNL     1       2.423   0.876  -5.827  1.00  0.00     0.002 C 
BRANCH  26  27
ATOM     27  C   UNL     1       3.206   1.931  -5.036  1.00  0.00     0.021 C 
BRANCH  27  28
ATOM     28  C   UNL     1       4.692   1.642  -4.840  1.00  0.00     0.116 C 
BRANCH  28  29
ATOM     29  N   UNL     1       5.391   1.466  -6.101  1.00  0.00    -0.352 N 
ATOM     30  C   UNL     1       6.477   2.129  -6.614  1.00  0.00     0.251 C 
ATOM     31  H   UNL     1       5.027   0.758  -6.680  1.00  0.00     0.163 HD
ATOM     32  O   UNL     1       6.793   1.947  -7.786  1.00  0.00    -0.269 OA
BRANCH  30  33
ATOM     33  C   UNL     1       7.256   3.068  -5.776  1.00  0.00     0.039 A 
ATOM     34  C   UNL     1       7.687   4.270  -6.345  1.00  0.00     0.014 A 
ATOM     35  C   UNL     1       7.599   2.759  -4.457  1.00  0.00     0.014 A 
ATOM     36  C   UNL     1       8.415   5.182  -5.577  1.00  0.00     0.010 A 
ATOM     37  C   UNL     1       8.265   3.700  -3.671  1.00  0.00     0.010 A 
ATOM     38  C   UNL     1       8.683   4.920  -4.223  1.00  0.00    -0.014 A 
BRANCH  38  39
ATOM     39  C   UNL     1       9.388   5.919  -3.377  1.00  0.00     0.031 A 
ATOM     40  C   UNL     1      10.731   5.603  -2.777  1.00  0.00     0.074 A 
ATOM     41  C   UNL     1       8.785   7.091  -3.096  1.00  0.00     0.049 A 
ATOM     42  N   UNL     1      11.470   6.331  -1.978  1.00  0.00    -0.248 NA
ATOM     43  C   UNL     1      11.306   4.287  -3.092  1.00  0.00     0.031 C 
ATOM     44  C   UNL     1       7.457   7.490  -3.567  1.00  0.00     0.029 A 
ATOM     45  N   UNL     1       9.201   8.155  -2.335  1.00  0.00    -0.354 N 
ATOM     46  C   UNL     1      12.587   5.558  -1.683  1.00  0.00     0.074 A 
ATOM     47  C   UNL     1      12.403   4.285  -2.348  1.00  0.00     0.031 C 
ATOM     48  C   UNL     1       7.173   8.713  -3.094  1.00  0.00     0.029 A 
ATOM     49  C   UNL     1       8.278   9.171  -2.258  1.00  0.00     0.049 A 
ATOM     50  H   UNL     1      10.077   8.187  -1.886  1.00  0.00     0.167 HD
ATOM     51  C   UNL     1      13.675   5.884  -0.943  1.00  0.00     0.037 A 
ATOM     52  C   UNL     1       8.309  10.336  -1.581  1.00  0.00     0.037 A 
ATOM     53  C   UNL     1      13.858   7.161  -0.300  1.00  0.00     0.049 A 
ATOM     54  C   UNL     1       9.531  10.688  -0.780  1.00  0.00     0.074 A 
ATOM     55  C   UNL     1      14.957   7.618   0.407  1.00  0.00     0.029 A 
ATOM     56  N   UNL     1      12.916   8.179  -0.272  1.00  0.00    -0.354 N 
ATOM     57  N   UNL     1      10.618   9.980  -0.584  1.00  0.00    -0.248 NA
ATOM     58  C   UNL     1       9.539  11.999  -0.117  1.00  0.00     0.031 C 
ATOM     59  C   UNL     1      14.658   8.890   0.908  1.00  0.00     0.029 A 
ATOM     60  C   UNL     1      13.395   9.251   0.466  1.00  0.00     0.049 A 
ATOM     61  H   UNL     1      12.036   8.146  -0.712  1.00  0.00     0.167 HD
ATOM     62  C   UNL     1      11.447  10.766   0.210  1.00  0.00     0.074 A 
ATOM     63  C   UNL     1      10.741  12.010   0.443  1.00  0.00     0.031 C 
ATOM     64  C   UNL     1      12.680  10.482   0.699  1.00  0.00     0.037 A 
BRANCH  51  65
ATOM     65  C   UNL     1      14.745   4.837  -0.779  1.00  0.00     0.058 A 
ATOM     66  C   UNL     1      15.547   4.419  -1.854  1.00  0.00     0.135 A 
ATOM     67  C   UNL     1      14.979   4.249   0.475  1.00  0.00     0.135 A 
ATOM     68  F   UNL     1      15.361   4.939  -3.078  1.00  0.00    -0.206 F 
ATOM     69  C   UNL     1      16.507   3.424  -1.704  1.00  0.00     0.059 A 
ATOM     70  C   UNL     1      15.957   3.275   0.656  1.00  0.00     0.059 A 
ATOM     71  F   UNL     1      14.248   4.612   1.540  1.00  0.00    -0.206 F 
ATOM     72  C   UNL     1      16.700   2.853  -0.445  1.00  0.00     0.060 A 
BRANCH  72  73
ATOM     73  S   UNL     1      17.929   1.541  -0.272  1.00  0.00     0.124 S 
ATOM     74  O   UNL     1      17.254   0.425  -0.928  1.00  0.00    -0.237 OA
ATOM     75  O   UNL     1      19.078   2.093  -0.982  1.00  0.00    -0.237 OA
ATOM     76  O   UNL     1      18.090   1.414   1.173  1.00  0.00    -0.744 OA
ENDBRANCH  72  73
ENDBRANCH  51  65
BRANCH  52  77
ATOM     77  C   UNL     1       7.140  11.253  -1.651  1.00  0.00     0.058 A 
ATOM     78  C   UNL     1       7.200  12.454  -2.372  1.00  0.00     0.135 A 
ATOM     79  C   UNL     1       5.922  10.916  -1.040  1.00  0.00     0.135 A 
ATOM     80  F   UNL     1       8.344  12.822  -2.968  1.00  0.00    -0.206 F 
ATOM     81  C   UNL     1       6.094  13.291  -2.484  1.00  0.00     0.059 A 
ATOM     82  C   UNL     1       4.796  11.724  -1.159  1.00  0.00     0.059 A 
ATOM     83  F   UNL     1       5.809   9.768  -0.354  1.00  0.00    -0.206 F 
ATOM     84  C   UNL     1       4.893  12.912  -1.881  1.00  0.00     0.060 A 
BRANCH  84  85
ATOM     85  S   UNL     1       3.442  13.964  -2.104  1.00  0.00     0.124 S 
ATOM     86  O   UNL     1       3.768  15.100  -1.251  1.00  0.00    -0.237 OA
ATOM     87  O   UNL     1       3.466  14.215  -3.542  1.00  0.00    -0.237 OA
ATOM     88  O   UNL     1       2.344  13.121  -1.642  1.00  0.00    -0.744 OA
ENDBRANCH  84  85
ENDBRANCH  52  77
BRANCH  64  89
ATOM     89  C   UNL     1      13.358  11.542   1.524  1.00  0.00     0.058 A 
ATOM     90  C   UNL     1      12.928  11.856   2.823  1.00  0.00     0.135 A 
ATOM     91  C   UNL     1      14.484  12.220   1.026  1.00  0.00     0.135 A 
ATOM     92  F   UNL     1      11.854  11.244   3.346  1.00  0.00    -0.206 F 
ATOM     93  C   UNL     1      13.575  12.821   3.590  1.00  0.00     0.059 A 
ATOM     94  C   UNL     1      15.163  13.167   1.786  1.00  0.00     0.059 A 
ATOM     95  F   UNL     1      14.944  11.951  -0.207  1.00  0.00    -0.206 F 
ATOM     96  C   UNL     1      14.693  13.470   3.062  1.00  0.00     0.060 A 
BRANCH  96  97
ATOM     97  S   UNL     1      15.540  14.699   4.079  1.00  0.00     0.124 S 
ATOM     98  O   UNL     1      14.601  15.815   4.033  1.00  0.00    -0.237 OA
ATOM     99  O   UNL     1      15.652  14.017   5.364  1.00  0.00    -0.237 OA
ATOM    100  O   UNL     1      16.802  14.910   3.375  1.00  0.00    -0.744 OA
ENDBRANCH  96  97
ENDBRANCH  64  89
ENDBRANCH  38  39
ENDBRANCH  30  33
ENDBRANCH  28  29
ENDBRANCH  27  28
ENDBRANCH  26  27
ENDBRANCH   1  26
TORSDOF 20
