REMARK SMILES O=C(CCN1C(=O)/C(=C/C=C/c2ccco2)SC1=S)Nc1ccc(C(=O)NCCCCCCNC(=O)c2ccc(-c3c4nc(c(-c5c(F)cc(S(=O)(=O)[O-])cc5F)c5ccc([nH]5)c(-c5c(F)cc(S(=O)(=O)[O-])cc5F)c5nc(c(-c6c(F)cc(S(=O)(=O)[O-])cc6F)c6ccc3[nH]6)C=C5)C=C4)cc2)c(O)c1
REMARK SMILES IDX 29 1 28 2 27 3 25 4 26 5 24 7 21 8 22 9 105 10 23 11 103 12
REMARK SMILES IDX 20 13 1 14 2 15 3 17 4 18 5 19 6 20 18 21 7 22 8 23 17 24
REMARK SMILES IDX 19 25 9 26 10 27 11 28 12 29 13 30 16 31 14 32 15 33 104 34
REMARK SMILES IDX 30 36 31 37 32 38 33 39 34 40 35 41 36 43 37 44 38 45 102 46
REMARK SMILES IDX 39 47 101 48 40 49 41 50 42 51 95 52 43 53 100 54 94 55
REMARK SMILES IDX 96 56 44 57 99 58 93 59 92 60 45 62 79 63 58 64 78 65 59 66
REMARK SMILES IDX 62 67 77 68 97 69 60 70 61 71 76 73 98 74 63 75 46 76 47 77
REMARK SMILES IDX 56 78 48 79 49 80 55 81 57 82 50 83 51 84 52 85 53 86 54 87
REMARK SMILES IDX 80 88 81 89 90 90 82 91 83 92 89 93 91 94 84 95 85 96 86 97
REMARK SMILES IDX 87 98 88 99 64 100 65 101 74 102 66 103 67 104 73 105 75 106
REMARK SMILES IDX 68 107 69 108 70 109 71 110 72 111
REMARK H PARENT 27 6 20 16 104 35 34 42 96 61 62 72
REMARK Flexibility Score: inf
ROOT
ATOM      1  C   UNL     1       1.194  -7.697  -3.416  1.00  0.00     0.021 C 
ENDROOT
BRANCH   1   2
ATOM      2  C   UNL     1       1.767  -6.312  -3.707  1.00  0.00     0.116 C 
BRANCH   2   3
ATOM      3  N   UNL     1       1.003  -5.545  -4.679  1.00  0.00    -0.352 N 
ATOM      4  C   UNL     1       0.761  -4.193  -4.752  1.00  0.00     0.255 C 
ATOM      5  O   UNL     1       0.032  -3.764  -5.644  1.00  0.00    -0.269 OA
ATOM      6  H   UNL     1       0.593  -6.079  -5.398  1.00  0.00     0.163 HD
BRANCH   4   7
ATOM      7  C   UNL     1       1.333  -3.242  -3.768  1.00  0.00     0.081 A 
ATOM      8  C   UNL     1       2.220  -1.422  -1.807  1.00  0.00     0.044 A 
ATOM      9  C   UNL     1       0.921  -1.333  -2.299  1.00  0.00     0.027 A 
ATOM     10  C   UNL     1       3.087  -2.380  -2.343  1.00  0.00     0.073 A 
ATOM     11  C   UNL     1       0.483  -2.236  -3.278  1.00  0.00     0.020 A 
ATOM     12  C   UNL     1       2.659  -3.258  -3.337  1.00  0.00     0.130 A 
BRANCH   8  13
ATOM     13  N   UNL     1       2.755  -0.581  -0.819  1.00  0.00    -0.326 N 
ATOM     14  O   UNL     1       0.888   0.465   0.089  1.00  0.00    -0.275 OA
ATOM     15  C   UNL     1       2.098   0.278   0.036  1.00  0.00     0.226 C 
ATOM     16  H   UNL     1       3.734  -0.609  -0.723  1.00  0.00     0.169 HD
BRANCH  15  17
ATOM     17  C   UNL     1       3.053   1.059   0.928  1.00  0.00     0.122 C 
BRANCH  17  18
ATOM     18  C   UNL     1       3.905   0.204   1.877  1.00  0.00     0.137 C 
BRANCH  18  19
ATOM     19  N   UNL     1       4.883  -0.682   1.220  1.00  0.00    -0.292 N 
ATOM     20  C   UNL     1       5.922  -0.117   0.489  1.00  0.00     0.266 C 
ATOM     21  C   UNL     1       4.883  -2.063   1.320  1.00  0.00     0.148 C 
ATOM     22  O   UNL     1       6.122   1.078   0.344  1.00  0.00    -0.268 OA
ATOM     23  C   UNL     1       6.703  -1.181  -0.199  1.00  0.00     0.080 C 
ATOM     24  S   UNL     1       6.188  -2.726   0.347  1.00  0.00    -0.054 SA
ATOM     25  S   UNL     1       3.823  -3.041   2.152  1.00  0.00    -0.052 S 
ATOM     26  C   UNL     1       7.606  -0.905  -1.151  1.00  0.00     0.021 C 
BRANCH  26  27
ATOM     27  C   UNL     1       8.313  -1.883  -1.956  1.00  0.00     0.005 C 
ATOM     28  C   UNL     1       9.321  -1.575  -2.788  1.00  0.00     0.047 C 
BRANCH  28  29
ATOM     29  C   UNL     1       9.985  -2.590  -3.531  1.00  0.00     0.126 A 
ATOM     30  C   UNL     1       9.476  -3.694  -4.209  1.00  0.00     0.050 A 
ATOM     31  O   UNL     1      11.353  -2.608  -3.685  1.00  0.00    -0.465 OA
ATOM     32  C   UNL     1      10.568  -4.420  -4.740  1.00  0.00     0.042 A 
ATOM     33  C   UNL     1      11.692  -3.724  -4.377  1.00  0.00     0.195 A 
ENDBRANCH  28  29
ENDBRANCH  26  27
ENDBRANCH  18  19
ENDBRANCH  17  18
ENDBRANCH  15  17
ENDBRANCH   8  13
BRANCH  12  34
ATOM     34  O   UNL     1       3.633  -4.063  -3.857  1.00  0.00    -0.507 OA
ATOM     35  H   UNL     1       3.420  -4.680  -4.530  1.00  0.00     0.293 HD
ENDBRANCH  12  34
ENDBRANCH   4   7
ENDBRANCH   2   3
ENDBRANCH   1   2
BRANCH   1  36
ATOM     36  C   UNL     1       1.088  -8.655  -4.607  1.00  0.00     0.002 C 
BRANCH  36  37
ATOM     37  C   UNL     1       2.346  -8.842  -5.460  1.00  0.00     0.002 C 
BRANCH  37  38
ATOM     38  C   UNL     1       3.623  -9.237  -4.717  1.00  0.00     0.021 C 
BRANCH  38  39
ATOM     39  C   UNL     1       3.515 -10.450  -3.799  1.00  0.00     0.116 C 
BRANCH  39  40
ATOM     40  N   UNL     1       3.101 -11.655  -4.497  1.00  0.00    -0.352 N 
ATOM     41  C   UNL     1       3.665 -12.907  -4.492  1.00  0.00     0.251 C 
ATOM     42  H   UNL     1       2.298 -11.559  -5.058  1.00  0.00     0.163 HD
ATOM     43  O   UNL     1       3.245 -13.765  -5.264  1.00  0.00    -0.269 OA
BRANCH  41  44
ATOM     44  C   UNL     1       4.792 -13.217  -3.583  1.00  0.00     0.039 A 
ATOM     45  C   UNL     1       5.879 -13.939  -4.084  1.00  0.00     0.014 A 
ATOM     46  C   UNL     1       4.782 -12.809  -2.247  1.00  0.00     0.014 A 
ATOM     47  C   UNL     1       6.979 -14.198  -3.262  1.00  0.00     0.010 A 
ATOM     48  C   UNL     1       5.912 -12.999  -1.453  1.00  0.00     0.010 A 
ATOM     49  C   UNL     1       7.021 -13.700  -1.950  1.00  0.00    -0.014 A 
BRANCH  49  50
ATOM     50  C   UNL     1       8.221 -13.895  -1.093  1.00  0.00     0.031 A 
ATOM     51  C   UNL     1       8.126 -14.683   0.185  1.00  0.00     0.074 A 
ATOM     52  C   UNL     1       9.384 -13.306  -1.435  1.00  0.00     0.049 A 
ATOM     53  N   UNL     1       9.050 -14.920   1.080  1.00  0.00    -0.248 NA
ATOM     54  C   UNL     1       6.811 -15.255   0.516  1.00  0.00     0.031 C 
ATOM     55  C   UNL     1       9.588 -12.467  -2.618  1.00  0.00     0.029 A 
ATOM     56  N   UNL     1      10.609 -13.309  -0.815  1.00  0.00    -0.354 N 
ATOM     57  C   UNL     1       8.428 -15.650   2.087  1.00  0.00     0.074 A 
ATOM     58  C   UNL     1       7.034 -15.770   1.716  1.00  0.00     0.031 C 
ATOM     59  C   UNL     1      10.864 -12.050  -2.647  1.00  0.00     0.029 A 
ATOM     60  C   UNL     1      11.558 -12.556  -1.466  1.00  0.00     0.049 A 
ATOM     61  H   UNL     1      10.791 -13.803   0.017  1.00  0.00     0.167 HD
ATOM     62  C   UNL     1       8.971 -16.185   3.207  1.00  0.00     0.037 A 
ATOM     63  C   UNL     1      12.839 -12.288  -1.145  1.00  0.00     0.037 A 
ATOM     64  C   UNL     1      10.364 -16.071   3.559  1.00  0.00     0.049 A 
ATOM     65  C   UNL     1      13.428 -12.900   0.096  1.00  0.00     0.074 A 
ATOM     66  C   UNL     1      11.030 -16.643   4.628  1.00  0.00     0.029 A 
ATOM     67  N   UNL     1      11.302 -15.322   2.860  1.00  0.00    -0.354 N 
ATOM     68  N   UNL     1      12.847 -13.664   0.991  1.00  0.00    -0.248 NA
ATOM     69  C   UNL     1      14.845 -12.626   0.366  1.00  0.00     0.031 C 
ATOM     70  C   UNL     1      12.353 -16.188   4.614  1.00  0.00     0.029 A 
ATOM     71  C   UNL     1      12.531 -15.388   3.496  1.00  0.00     0.049 A 
ATOM     72  H   UNL     1      11.120 -14.819   2.034  1.00  0.00     0.167 HD
ATOM     73  C   UNL     1      13.832 -13.978   1.921  1.00  0.00     0.074 A 
ATOM     74  C   UNL     1      15.049 -13.333   1.470  1.00  0.00     0.031 C 
ATOM     75  C   UNL     1      13.737 -14.734   3.043  1.00  0.00     0.037 A 
BRANCH  62  76
ATOM     76  C   UNL     1       8.051 -16.925   4.143  1.00  0.00     0.058 A 
ATOM     77  C   UNL     1       7.444 -18.141   3.786  1.00  0.00     0.135 A 
ATOM     78  C   UNL     1       7.780 -16.415   5.424  1.00  0.00     0.135 A 
ATOM     79  F   UNL     1       7.657 -18.673   2.572  1.00  0.00    -0.206 F 
ATOM     80  C   UNL     1       6.565 -18.797   4.643  1.00  0.00     0.059 A 
ATOM     81  C   UNL     1       6.932 -17.072   6.311  1.00  0.00     0.059 A 
ATOM     82  F   UNL     1       8.335 -15.260   5.823  1.00  0.00    -0.206 F 
ATOM     83  C   UNL     1       6.312 -18.251   5.902  1.00  0.00     0.060 A 
BRANCH  83  84
ATOM     84  S   UNL     1       5.151 -19.101   6.993  1.00  0.00     0.124 S 
ATOM     85  O   UNL     1       3.878 -18.822   6.334  1.00  0.00    -0.237 OA
ATOM     86  O   UNL     1       5.611 -20.484   6.922  1.00  0.00    -0.237 OA
ATOM     87  O   UNL     1       5.348 -18.442   8.280  1.00  0.00    -0.744 OA
ENDBRANCH  83  84
ENDBRANCH  62  76
BRANCH  63  88
ATOM     88  C   UNL     1      13.644 -11.405  -2.031  1.00  0.00     0.058 A 
ATOM     89  C   UNL     1      14.670 -11.920  -2.836  1.00  0.00     0.135 A 
ATOM     90  C   UNL     1      13.358 -10.034  -2.134  1.00  0.00     0.135 A 
ATOM     91  F   UNL     1      14.988 -13.221  -2.767  1.00  0.00    -0.206 F 
ATOM     92  C   UNL     1      15.382 -11.110  -3.715  1.00  0.00     0.059 A 
ATOM     93  C   UNL     1      14.038  -9.209  -3.024  1.00  0.00     0.059 A 
ATOM     94  F   UNL     1      12.375  -9.494  -1.397  1.00  0.00    -0.206 F 
ATOM     95  C   UNL     1      15.050  -9.757  -3.811  1.00  0.00     0.060 A 
BRANCH  95  96
ATOM     96  S   UNL     1      15.911  -8.735  -5.026  1.00  0.00     0.124 S 
ATOM     97  O   UNL     1      17.234  -8.615  -4.427  1.00  0.00    -0.237 OA
ATOM     98  O   UNL     1      15.824  -9.556  -6.230  1.00  0.00    -0.237 OA
ATOM     99  O   UNL     1      15.117  -7.509  -5.057  1.00  0.00    -0.744 OA
ENDBRANCH  95  96
ENDBRANCH  63  88
BRANCH  75 100
ATOM    100  C   UNL     1      14.988 -14.931   3.857  1.00  0.00     0.058 A 
ATOM    101  C   UNL     1      15.556 -13.890   4.609  1.00  0.00     0.135 A 
ATOM    102  C   UNL     1      15.597 -16.196   3.928  1.00  0.00     0.135 A 
ATOM    103  F   UNL     1      15.020 -12.660   4.573  1.00  0.00    -0.206 F 
ATOM    104  C   UNL     1      16.698 -14.089   5.380  1.00  0.00     0.059 A 
ATOM    105  C   UNL     1      16.719 -16.425   4.717  1.00  0.00     0.059 A 
ATOM    106  F   UNL     1      15.090 -17.230   3.238  1.00  0.00    -0.206 F 
ATOM    107  C   UNL     1      17.270 -15.362   5.430  1.00  0.00     0.060 A 
BRANCH 107 108
ATOM    108  S   UNL     1      18.733 -15.612   6.458  1.00  0.00     0.124 S 
ATOM    109  O   UNL     1      19.757 -14.915   5.687  1.00  0.00    -0.237 OA
ATOM    110  O   UNL     1      18.343 -14.979   7.714  1.00  0.00    -0.237 OA
ATOM    111  O   UNL     1      18.868 -17.065   6.511  1.00  0.00    -0.744 OA
ENDBRANCH 107 108
ENDBRANCH  75 100
ENDBRANCH  49  50
ENDBRANCH  41  44
ENDBRANCH  39  40
ENDBRANCH  38  39
ENDBRANCH  37  38
ENDBRANCH  36  37
ENDBRANCH   1  36
TORSDOF 23
