REMARK SMILES CC[NH+](CC)[C@@H](C(=O)NCCCCCCNC(=O)c1ccc(-c2c3nc(c(-c4c(F)cc(S(=O)(=O)[O-])cc4F)c4ccc([nH]4)c(-c4c(F)cc(S(=O)(=O)[O-])cc4F)c4nc(c(-c5c(F)cc(S(=O)(=O)[O-])cc5F)c5ccc2[nH]5)C=C4)C=C3)cc1)c1ccc(C2CC2)cc1
REMARK SMILES IDX 13 1 12 2 11 3 10 4 9 5 7 6 8 7 6 9 3 10 2 12 1 13 4 14 5 15
REMARK SMILES IDX 85 16 86 17 93 18 87 19 92 20 88 21 89 22 90 23 91 24 14 25
REMARK SMILES IDX 15 26 16 27 17 28 18 30 19 31 20 32 84 33 21 34 83 35 22 36
REMARK SMILES IDX 23 37 24 38 77 39 25 40 82 41 76 42 78 43 26 44 81 45 75 46
REMARK SMILES IDX 74 47 27 49 61 50 40 51 60 52 41 53 44 54 59 55 79 56 42 57
REMARK SMILES IDX 43 58 58 60 80 61 45 62 28 63 29 64 38 65 30 66 31 67 37 68
REMARK SMILES IDX 39 69 32 70 33 71 34 72 35 73 36 74 62 75 63 76 72 77 64 78
REMARK SMILES IDX 65 79 71 80 73 81 66 82 67 83 68 84 69 85 70 86 46 87 47 88
REMARK SMILES IDX 56 89 48 90 49 91 55 92 57 93 50 94 51 95 52 96 53 97 54 98
REMARK H PARENT 9 8 3 11 16 29 78 48 44 59
REMARK Flexibility Score: inf
ROOT
ATOM      1  C   UNL     1       1.988   7.644   2.667  1.00  0.00     0.002 C 
ENDROOT
BRANCH   1   2
ATOM      2  C   UNL     1       1.412   6.258   2.370  1.00  0.00     0.002 C 
BRANCH   2   3
ATOM      3  C   UNL     1       1.248   5.937   0.877  1.00  0.00     0.021 C 
BRANCH   3   4
ATOM      4  C   UNL     1       2.402   5.174   0.206  1.00  0.00     0.116 C 
BRANCH   4   5
ATOM      5  N   UNL     1       2.888   4.022   0.956  1.00  0.00    -0.351 N 
ATOM      6  C   UNL     1       2.808   2.665   0.780  1.00  0.00     0.283 C 
ATOM      7  O   UNL     1       3.380   1.990   1.647  1.00  0.00    -0.268 OA
ATOM      8  H   UNL     1       3.381   4.275   1.769  1.00  0.00     0.163 HD
BRANCH   6   9
ATOM      9  C   UNL     1       2.030   2.010  -0.411  1.00  0.00     0.305 C 
BRANCH   9  10
ATOM     10  N   UNL     1       0.636   1.595   0.014  1.00  0.00    -0.321 N 
ATOM     11  H   UNL     1       0.302   1.152  -0.842  1.00  0.00     0.349 HD
BRANCH  10  12
ATOM     12  C   UNL     1       0.506   0.535   1.032  1.00  0.00     0.259 C 
ATOM     13  C   UNL     1       0.726  -0.913   0.620  1.00  0.00     0.071 C 
ENDBRANCH  10  12
BRANCH  10  14
ATOM     14  C   UNL     1      -0.219   2.744   0.363  1.00  0.00     0.259 C 
ATOM     15  C   UNL     1      -0.307   3.103   1.855  1.00  0.00     0.071 C 
ENDBRANCH  10  14
ENDBRANCH   9  10
BRANCH   9  16
ATOM     16  C   UNL     1       2.790   0.856  -1.111  1.00  0.00     0.019 A 
ATOM     17  C   UNL     1       2.088  -0.023  -1.950  1.00  0.00     0.011 A 
ATOM     18  C   UNL     1       4.153   0.590  -0.927  1.00  0.00     0.011 A 
ATOM     19  C   UNL     1       2.640  -1.254  -2.329  1.00  0.00     0.004 A 
ATOM     20  C   UNL     1       4.716  -0.630  -1.352  1.00  0.00     0.004 A 
ATOM     21  C   UNL     1       3.945  -1.624  -1.974  1.00  0.00    -0.045 A 
BRANCH  21  22
ATOM     22  C   UNL     1       4.400  -3.053  -2.218  1.00  0.00     0.019 C 
ATOM     23  C   UNL     1       5.688  -3.357  -2.934  1.00  0.00     0.009 C 
ATOM     24  C   UNL     1       5.557  -3.677  -1.473  1.00  0.00     0.009 C 
ENDBRANCH  21  22
ENDBRANCH   9  16
ENDBRANCH   6   9
ENDBRANCH   4   5
ENDBRANCH   3   4
ENDBRANCH   2   3
ENDBRANCH   1   2
BRANCH   1  25
ATOM     25  C   UNL     1       1.180   8.821   2.111  1.00  0.00     0.021 C 
BRANCH  25  26
ATOM     26  C   UNL     1      -0.286   8.854   2.538  1.00  0.00     0.116 C 
BRANCH  26  27
ATOM     27  N   UNL     1      -0.428   9.258   3.929  1.00  0.00    -0.352 N 
ATOM     28  C   UNL     1      -0.990  10.414   4.416  1.00  0.00     0.251 C 
ATOM     29  H   UNL     1      -0.079   8.629   4.601  1.00  0.00     0.163 HD
ATOM     30  O   UNL     1      -0.802  10.764   5.579  1.00  0.00    -0.269 OA
BRANCH  28  31
ATOM     31  C   UNL     1      -1.817  11.237   3.510  1.00  0.00     0.039 A 
ATOM     32  C   UNL     1      -1.519  12.591   3.343  1.00  0.00     0.014 A 
ATOM     33  C   UNL     1      -2.853  10.641   2.785  1.00  0.00     0.014 A 
ATOM     34  C   UNL     1      -2.219  13.333   2.389  1.00  0.00     0.010 A 
ATOM     35  C   UNL     1      -3.504  11.367   1.792  1.00  0.00     0.010 A 
ATOM     36  C   UNL     1      -3.187  12.717   1.577  1.00  0.00    -0.014 A 
BRANCH  36  37
ATOM     37  C   UNL     1      -3.854  13.454   0.472  1.00  0.00     0.031 A 
ATOM     38  C   UNL     1      -5.339  13.687   0.505  1.00  0.00     0.074 A 
ATOM     39  C   UNL     1      -3.131  13.841  -0.598  1.00  0.00     0.049 A 
ATOM     40  N   UNL     1      -6.109  14.230  -0.402  1.00  0.00    -0.248 NA
ATOM     41  C   UNL     1      -6.056  13.229   1.706  1.00  0.00     0.031 C 
ATOM     42  C   UNL     1      -1.690  13.633  -0.765  1.00  0.00     0.029 A 
ATOM     43  N   UNL     1      -3.507  14.476  -1.756  1.00  0.00    -0.354 N 
ATOM     44  C   UNL     1      -7.399  14.172   0.112  1.00  0.00     0.074 A 
ATOM     45  C   UNL     1      -7.315  13.495   1.388  1.00  0.00     0.031 C 
ATOM     46  C   UNL     1      -1.304  14.143  -1.945  1.00  0.00     0.029 A 
ATOM     47  C   UNL     1      -2.473  14.673  -2.641  1.00  0.00     0.049 A 
ATOM     48  H   UNL     1      -4.432  14.763  -1.936  1.00  0.00     0.167 HD
ATOM     49  C   UNL     1      -8.545  14.657  -0.423  1.00  0.00     0.037 A 
ATOM     50  C   UNL     1      -2.467  15.201  -3.881  1.00  0.00     0.037 A 
ATOM     51  C   UNL     1      -8.615  15.340  -1.690  1.00  0.00     0.049 A 
ATOM     52  C   UNL     1      -3.759  15.701  -4.469  1.00  0.00     0.074 A 
ATOM     53  C   UNL     1      -9.717  15.923  -2.290  1.00  0.00     0.029 A 
ATOM     54  N   UNL     1      -7.546  15.521  -2.555  1.00  0.00    -0.354 N 
ATOM     55  N   UNL     1      -4.957  15.708  -3.936  1.00  0.00    -0.248 NA
ATOM     56  C   UNL     1      -3.701  16.263  -5.826  1.00  0.00     0.031 C 
ATOM     57  C   UNL     1      -9.328  16.404  -3.545  1.00  0.00     0.029 A 
ATOM     58  C   UNL     1      -7.970  16.173  -3.702  1.00  0.00     0.049 A 
ATOM     59  H   UNL     1      -6.622  15.229  -2.381  1.00  0.00     0.167 HD
ATOM     60  C   UNL     1      -5.792  16.291  -4.884  1.00  0.00     0.074 A 
ATOM     61  C   UNL     1      -4.958  16.640  -6.015  1.00  0.00     0.031 C 
ATOM     62  C   UNL     1      -7.128  16.514  -4.822  1.00  0.00     0.037 A 
BRANCH  49  63
ATOM     63  C   UNL     1      -9.819  14.466   0.355  1.00  0.00     0.058 A 
ATOM     64  C   UNL     1     -10.061  15.153   1.555  1.00  0.00     0.135 A 
ATOM     65  C   UNL     1     -10.832  13.622  -0.129  1.00  0.00     0.135 A 
ATOM     66  F   UNL     1      -9.124  15.964   2.072  1.00  0.00    -0.206 F 
ATOM     67  C   UNL     1     -11.248  14.989   2.262  1.00  0.00     0.059 A 
ATOM     68  C   UNL     1     -12.039  13.465   0.545  1.00  0.00     0.059 A 
ATOM     69  F   UNL     1     -10.655  12.940  -1.272  1.00  0.00    -0.206 F 
ATOM     70  C   UNL     1     -12.232  14.143   1.748  1.00  0.00     0.060 A 
BRANCH  70  71
ATOM     71  S   UNL     1     -13.769  13.949   2.675  1.00  0.00     0.124 S 
ATOM     72  O   UNL     1     -13.318  13.172   3.826  1.00  0.00    -0.237 OA
ATOM     73  O   UNL     1     -14.142  15.332   2.951  1.00  0.00    -0.237 OA
ATOM     74  O   UNL     1     -14.642  13.240   1.744  1.00  0.00    -0.744 OA
ENDBRANCH  70  71
ENDBRANCH  49  63
BRANCH  50  75
ATOM     75  C   UNL     1      -1.194  15.284  -4.648  1.00  0.00     0.058 A 
ATOM     76  C   UNL     1      -0.592  16.521  -4.919  1.00  0.00     0.135 A 
ATOM     77  C   UNL     1      -0.546  14.128  -5.112  1.00  0.00     0.135 A 
ATOM     78  F   UNL     1      -1.176  17.656  -4.505  1.00  0.00    -0.206 F 
ATOM     79  C   UNL     1       0.599  16.612  -5.633  1.00  0.00     0.059 A 
ATOM     80  C   UNL     1       0.660  14.191  -5.803  1.00  0.00     0.059 A 
ATOM     81  F   UNL     1      -1.072  12.917  -4.867  1.00  0.00    -0.206 F 
ATOM     82  C   UNL     1       1.220  15.440  -6.067  1.00  0.00     0.060 A 
BRANCH  82  83
ATOM     83  S   UNL     1       2.792  15.567  -6.946  1.00  0.00     0.124 S 
ATOM     84  O   UNL     1       2.368  16.114  -8.229  1.00  0.00    -0.237 OA
ATOM     85  O   UNL     1       3.551  16.469  -6.085  1.00  0.00    -0.237 OA
ATOM     86  O   UNL     1       3.273  14.189  -6.974  1.00  0.00    -0.744 OA
ENDBRANCH  82  83
ENDBRANCH  50  75
BRANCH  62  87
ATOM     87  C   UNL     1      -7.779  17.180  -6.004  1.00  0.00     0.058 A 
ATOM     88  C   UNL     1      -7.978  16.498  -7.214  1.00  0.00     0.135 A 
ATOM     89  C   UNL     1      -8.278  18.489  -5.899  1.00  0.00     0.135 A 
ATOM     90  F   UNL     1      -7.510  15.249  -7.371  1.00  0.00    -0.206 F 
ATOM     91  C   UNL     1      -8.641  17.092  -8.282  1.00  0.00     0.059 A 
ATOM     92  C   UNL     1      -8.971  19.092  -6.944  1.00  0.00     0.059 A 
ATOM     93  F   UNL     1      -8.121  19.184  -4.761  1.00  0.00    -0.206 F 
ATOM     94  C   UNL     1      -9.142  18.387  -8.134  1.00  0.00     0.060 A 
BRANCH  94  95
ATOM     95  S   UNL     1     -10.056  19.120  -9.508  1.00  0.00     0.124 S 
ATOM     96  O   UNL     1      -8.989  19.367 -10.473  1.00  0.00    -0.237 OA
ATOM     97  O   UNL     1     -10.995  18.059  -9.858  1.00  0.00    -0.237 OA
ATOM     98  O   UNL     1     -10.657  20.313  -8.920  1.00  0.00    -0.744 OA
ENDBRANCH  94  95
ENDBRANCH  62  87
ENDBRANCH  36  37
ENDBRANCH  28  31
ENDBRANCH  26  27
ENDBRANCH  25  26
ENDBRANCH   1  25
TORSDOF 21
