REMARK SMILES O=C1O[C@@H](c2ccc(O)c(O)c2)[C@H](C(=O)NCCCCCCNC(=O)c2ccc(-c3c4nc(c(-c5c(F)cc(S(=O)(=O)[O-])cc5F)c5ccc([nH]5)c(-c5c(F)cc(S(=O)(=O)[O-])cc5F)c5nc(c(-c6c(F)cc(S(=O)(=O)[O-])cc6F)c6ccc3[nH]6)C=C5)C=C4)cc2)/C1=C\c1ccc(O)c(O)c1
REMARK SMILES IDX 20 1 19 2 18 3 17 4 16 5 14 6 15 7 13 9 1 10 2 11 3 12 92 13
REMARK SMILES IDX 4 14 93 15 5 16 6 17 12 18 7 19 10 20 8 21 11 22 9 24 94 26
REMARK SMILES IDX 95 27 101 28 96 29 99 30 97 31 100 32 98 34 21 36 22 37
REMARK SMILES IDX 23 38 24 39 25 41 26 42 27 43 91 44 28 45 90 46 29 47 30 48
REMARK SMILES IDX 31 49 84 50 32 51 89 52 83 53 85 54 33 55 88 56 82 57 81 58
REMARK SMILES IDX 34 60 68 61 47 62 67 63 48 64 51 65 66 66 86 67 49 68 50 69
REMARK SMILES IDX 65 71 87 72 52 73 35 74 36 75 45 76 37 77 38 78 44 79 46 80
REMARK SMILES IDX 39 81 40 82 41 83 42 84 43 85 69 86 70 87 79 88 71 89 72 90
REMARK SMILES IDX 78 91 80 92 73 93 74 94 75 95 76 96 77 97 53 98 54 99 63 100
REMARK SMILES IDX 55 101 56 102 62 103 64 104 57 105 58 106 59 107 60 108
REMARK SMILES IDX 61 109
REMARK H PARENT 16 8 11 23 9 25 100 33 98 35 23 40 85 59 51 70
REMARK Flexibility Score: inf
ROOT
ATOM      1  C   UNL     1       6.118   0.517   3.764  1.00  0.00     0.002 C 
ENDROOT
BRANCH   1   2
ATOM      2  C   UNL     1       5.696   1.824   3.084  1.00  0.00     0.002 C 
BRANCH   2   3
ATOM      3  C   UNL     1       5.158   1.670   1.662  1.00  0.00     0.021 C 
BRANCH   3   4
ATOM      4  C   UNL     1       4.026   0.661   1.526  1.00  0.00     0.116 C 
BRANCH   4   5
ATOM      5  N   UNL     1       2.801   1.081   2.171  1.00  0.00    -0.355 N 
ATOM      6  C   UNL     1       1.520   1.135   1.699  1.00  0.00     0.231 C 
ATOM      7  O   UNL     1       0.642   1.409   2.520  1.00  0.00    -0.274 OA
ATOM      8  H   UNL     1       2.908   1.376   3.104  1.00  0.00     0.163 HD
BRANCH   6   9
ATOM      9  C   UNL     1       1.230   0.964   0.202  1.00  0.00     0.161 C 
ATOM     10  O   UNL     1      -1.854  -0.814  -0.108  1.00  0.00    -0.247 OA
ATOM     11  C   UNL     1      -0.699  -0.424  -0.126  1.00  0.00     0.335 C 
ATOM     12  O   UNL     1       0.395  -1.215  -0.237  1.00  0.00    -0.453 OA
ATOM     13  C   UNL     1      -0.241   0.974  -0.053  1.00  0.00     0.054 C 
ATOM     14  C   UNL     1       1.593  -0.422  -0.327  1.00  0.00     0.224 C 
ATOM     15  C   UNL     1      -1.116   1.975  -0.225  1.00  0.00     0.020 C 
BRANCH  14  16
ATOM     16  C   UNL     1       2.179  -0.436  -1.743  1.00  0.00    -0.002 A 
ATOM     17  C   UNL     1       3.233   0.433  -2.111  1.00  0.00     0.012 A 
ATOM     18  C   UNL     1       1.756  -1.381  -2.690  1.00  0.00     0.057 A 
ATOM     19  C   UNL     1       3.862   0.348  -3.357  1.00  0.00     0.050 A 
ATOM     20  C   UNL     1       2.368  -1.442  -3.938  1.00  0.00     0.157 A 
ATOM     21  C   UNL     1       3.422  -0.597  -4.267  1.00  0.00     0.157 A 
BRANCH  20  22
ATOM     22  O   UNL     1       1.932  -2.364  -4.847  1.00  0.00    -0.504 OA
ATOM     23  H   UNL     1       2.335  -2.416  -5.691  1.00  0.00     0.293 HD
ENDBRANCH  20  22
BRANCH  21  24
ATOM     24  O   UNL     1       3.999  -0.739  -5.497  1.00  0.00    -0.504 OA
ATOM     25  H   UNL     1       4.711  -0.184  -5.747  1.00  0.00     0.293 HD
ENDBRANCH  21  24
ENDBRANCH  14  16
BRANCH  15  26
ATOM     26  C   UNL     1      -0.765   3.393  -0.181  1.00  0.00    -0.021 A 
ATOM     27  C   UNL     1       0.104   3.953  -1.131  1.00  0.00     0.012 A 
ATOM     28  C   UNL     1      -1.336   4.208   0.802  1.00  0.00     0.058 A 
ATOM     29  C   UNL     1       0.429   5.311  -1.084  1.00  0.00     0.051 A 
ATOM     30  C   UNL     1      -1.016   5.558   0.834  1.00  0.00     0.157 A 
ATOM     31  C   UNL     1      -0.136   6.106  -0.095  1.00  0.00     0.157 A 
BRANCH  30  32
ATOM     32  O   UNL     1      -1.577   6.355   1.792  1.00  0.00    -0.504 OA
ATOM     33  H   UNL     1      -1.368   7.268   1.823  1.00  0.00     0.293 HD
ENDBRANCH  30  32
BRANCH  31  34
ATOM     34  O   UNL     1       0.142   7.442   0.003  1.00  0.00    -0.504 OA
ATOM     35  H   UNL     1       0.731   7.844  -0.606  1.00  0.00     0.293 HD
ENDBRANCH  31  34
ENDBRANCH  15  26
ENDBRANCH   6   9
ENDBRANCH   4   5
ENDBRANCH   3   4
ENDBRANCH   2   3
ENDBRANCH   1   2
BRANCH   1  36
ATOM     36  C   UNL     1       7.118  -0.336   2.979  1.00  0.00     0.021 C 
BRANCH  36  37
ATOM     37  C   UNL     1       8.418   0.376   2.625  1.00  0.00     0.116 C 
BRANCH  37  38
ATOM     38  N   UNL     1       9.146   0.803   3.808  1.00  0.00    -0.352 N 
ATOM     39  C   UNL     1      10.446   0.545   4.164  1.00  0.00     0.251 C 
ATOM     40  H   UNL     1       8.634   1.354   4.444  1.00  0.00     0.163 HD
ATOM     41  O   UNL     1      10.838   0.808   5.296  1.00  0.00    -0.269 OA
BRANCH  39  42
ATOM     42  C   UNL     1      11.363  -0.066   3.178  1.00  0.00     0.039 A 
ATOM     43  C   UNL     1      12.189  -1.117   3.578  1.00  0.00     0.014 A 
ATOM     44  C   UNL     1      11.399   0.399   1.860  1.00  0.00     0.014 A 
ATOM     45  C   UNL     1      13.015  -1.740   2.640  1.00  0.00     0.010 A 
ATOM     46  C   UNL     1      12.160  -0.275   0.911  1.00  0.00     0.010 A 
ATOM     47  C   UNL     1      12.984  -1.346   1.292  1.00  0.00    -0.014 A 
BRANCH  47  48
ATOM     48  C   UNL     1      13.815  -2.025   0.266  1.00  0.00     0.031 A 
ATOM     49  C   UNL     1      14.870  -1.250  -0.478  1.00  0.00     0.074 A 
ATOM     50  C   UNL     1      13.578  -3.316  -0.042  1.00  0.00     0.049 A 
ATOM     51  N   UNL     1      15.633  -1.635  -1.468  1.00  0.00    -0.248 NA
ATOM     52  C   UNL     1      15.071   0.151  -0.076  1.00  0.00     0.031 C 
ATOM     53  C   UNL     1      12.558  -4.162   0.582  1.00  0.00     0.029 A 
ATOM     54  N   UNL     1      14.169  -4.140  -0.967  1.00  0.00    -0.354 N 
ATOM     55  C   UNL     1      16.394  -0.524  -1.813  1.00  0.00     0.074 A 
ATOM     56  C   UNL     1      15.957   0.566  -0.970  1.00  0.00     0.031 C 
ATOM     57  C   UNL     1      12.610  -5.388   0.039  1.00  0.00     0.029 A 
ATOM     58  C   UNL     1      13.633  -5.406  -1.003  1.00  0.00     0.049 A 
ATOM     59  H   UNL     1      14.909  -3.852  -1.550  1.00  0.00     0.167 HD
ATOM     60  C   UNL     1      17.385  -0.428  -2.731  1.00  0.00     0.037 A 
ATOM     61  C   UNL     1      13.922  -6.458  -1.794  1.00  0.00     0.037 A 
ATOM     62  C   UNL     1      17.828  -1.525  -3.552  1.00  0.00     0.049 A 
ATOM     63  C   UNL     1      15.013  -6.321  -2.823  1.00  0.00     0.074 A 
ATOM     64  C   UNL     1      18.856  -1.545  -4.478  1.00  0.00     0.029 A 
ATOM     65  N   UNL     1      17.270  -2.795  -3.548  1.00  0.00    -0.354 N 
ATOM     66  N   UNL     1      15.760  -5.278  -3.098  1.00  0.00    -0.248 NA
ATOM     67  C   UNL     1      15.306  -7.504  -3.644  1.00  0.00     0.031 C 
ATOM     68  C   UNL     1      18.882  -2.809  -5.075  1.00  0.00     0.029 A 
ATOM     69  C   UNL     1      17.915  -3.599  -4.474  1.00  0.00     0.049 A 
ATOM     70  H   UNL     1      16.525  -3.083  -2.972  1.00  0.00     0.167 HD
ATOM     71  C   UNL     1      16.636  -5.691  -4.098  1.00  0.00     0.074 A 
ATOM     72  C   UNL     1      16.329  -7.079  -4.373  1.00  0.00     0.031 C 
ATOM     73  C   UNL     1      17.608  -4.985  -4.727  1.00  0.00     0.037 A 
BRANCH  60  74
ATOM     74  C   UNL     1      18.058   0.909  -2.899  1.00  0.00     0.058 A 
ATOM     75  C   UNL     1      18.875   1.457  -1.898  1.00  0.00     0.135 A 
ATOM     76  C   UNL     1      17.913   1.635  -4.093  1.00  0.00     0.135 A 
ATOM     77  F   UNL     1      19.038   0.816  -0.729  1.00  0.00    -0.206 F 
ATOM     78  C   UNL     1      19.498   2.691  -2.060  1.00  0.00     0.059 A 
ATOM     79  C   UNL     1      18.554   2.854  -4.290  1.00  0.00     0.059 A 
ATOM     80  F   UNL     1      17.142   1.160  -5.084  1.00  0.00    -0.206 F 
ATOM     81  C   UNL     1      19.332   3.381  -3.261  1.00  0.00     0.060 A 
BRANCH  81  82
ATOM     82  S   UNL     1      20.150   4.978  -3.455  1.00  0.00     0.124 S 
ATOM     83  O   UNL     1      19.372   5.816  -2.547  1.00  0.00    -0.237 OA
ATOM     84  O   UNL     1      21.515   4.682  -3.031  1.00  0.00    -0.237 OA
ATOM     85  O   UNL     1      19.987   5.274  -4.875  1.00  0.00    -0.744 OA
ENDBRANCH  81  82
ENDBRANCH  60  74
BRANCH  61  86
ATOM     86  C   UNL     1      13.180  -7.738  -1.633  1.00  0.00     0.058 A 
ATOM     87  C   UNL     1      13.817  -8.886  -1.138  1.00  0.00     0.135 A 
ATOM     88  C   UNL     1      11.819  -7.840  -1.966  1.00  0.00     0.135 A 
ATOM     89  F   UNL     1      15.117  -8.843  -0.812  1.00  0.00    -0.206 F 
ATOM     90  C   UNL     1      13.140 -10.093  -0.998  1.00  0.00     0.059 A 
ATOM     91  C   UNL     1      11.113  -9.027  -1.806  1.00  0.00     0.059 A 
ATOM     92  F   UNL     1      11.158  -6.767  -2.428  1.00  0.00    -0.206 F 
ATOM     93  C   UNL     1      11.786 -10.153  -1.332  1.00  0.00     0.060 A 
BRANCH  93  94
ATOM     94  S   UNL     1      10.908 -11.714  -1.107  1.00  0.00     0.124 S 
ATOM     95  O   UNL     1      11.478 -12.528  -2.174  1.00  0.00    -0.237 OA
ATOM     96  O   UNL     1      11.289 -12.084   0.253  1.00  0.00    -0.237 OA
ATOM     97  O   UNL     1       9.508 -11.339  -1.278  1.00  0.00    -0.744 OA
ENDBRANCH  93  94
ENDBRANCH  61  86
BRANCH  73  98
ATOM     98  C   UNL     1      18.452  -5.710  -5.741  1.00  0.00     0.058 A 
ATOM     99  C   UNL     1      17.945  -6.098  -6.990  1.00  0.00     0.135 A 
ATOM    100  C   UNL     1      19.809  -5.961  -5.478  1.00  0.00     0.135 A 
ATOM    101  F   UNL     1      16.654  -5.887  -7.291  1.00  0.00    -0.206 F 
ATOM    102  C   UNL     1      18.748  -6.729  -7.936  1.00  0.00     0.059 A 
ATOM    103  C   UNL     1      20.638  -6.561  -6.421  1.00  0.00     0.059 A 
ATOM    104  F   UNL     1      20.349  -5.601  -4.303  1.00  0.00    -0.206 F 
ATOM    105  C   UNL     1      20.095  -6.950  -7.643  1.00  0.00     0.060 A 
BRANCH 105 106
ATOM    106  S   UNL     1      21.135  -7.729  -8.897  1.00  0.00     0.124 S 
ATOM    107  O   UNL     1      20.645  -9.103  -8.873  1.00  0.00    -0.237 OA
ATOM    108  O   UNL     1      20.807  -6.959 -10.093  1.00  0.00    -0.237 OA
ATOM    109  O   UNL     1      22.488  -7.536  -8.385  1.00  0.00    -0.744 OA
ENDBRANCH 105 106
ENDBRANCH  73  98
ENDBRANCH  47  48
ENDBRANCH  39  42
ENDBRANCH  37  38
ENDBRANCH  36  37
ENDBRANCH   1  36
TORSDOF 22
