REMARK SMILES CCCCCCNC(=O)Oc1cccc(-c2ccc([C@@H](C)C(=O)NCCCCCCNC(=O)c3ccc(-c4c5nc(c(-c6c(F)cc(S(=O)(=O)[O-])cc6F)c6ccc([nH]6)c(-c6c(F)cc(S(=O)(=O)[O-])cc6F)c6nc(c(-c7c(F)cc(S(=O)(=O)[O-])cc7F)c7ccc4[nH]7)C=C6)C=C5)cc3)cc2C(F)(F)F)c1
REMARK SMILES IDX 22 1 23 2 24 3 20 5 21 6 19 7 16 8 17 9 101 10 18 11 100 12
REMARK SMILES IDX 15 13 11 14 12 15 106 16 13 17 14 18 10 19 8 20 7 21 9 23
REMARK SMILES IDX 6 24 5 25 4 26 3 27 2 28 1 29 102 30 103 31 104 32 105 33
REMARK SMILES IDX 25 34 26 35 27 36 28 37 29 38 30 39 31 40 32 41 33 43 34 44
REMARK SMILES IDX 35 45 99 46 36 47 98 48 37 49 38 50 39 51 92 52 40 53 97 54
REMARK SMILES IDX 91 55 93 56 41 57 96 58 90 59 89 60 42 62 76 63 55 64 75 65
REMARK SMILES IDX 56 66 59 67 74 68 94 69 57 70 58 71 73 73 95 74 60 75 43 76
REMARK SMILES IDX 44 77 53 78 45 79 46 80 52 81 54 82 47 83 48 84 49 85 50 86
REMARK SMILES IDX 51 87 77 88 78 89 87 90 79 91 80 92 86 93 88 94 81 95 82 96
REMARK SMILES IDX 83 97 84 98 85 99 61 100 62 101 71 102 63 103 64 104 70 105
REMARK SMILES IDX 72 106 65 107 66 108 67 109 68 110 69 111
REMARK H PARENT 24 4 7 22 31 42 93 61 59 72
REMARK Flexibility Score: inf
ROOT
ATOM      1  C   UNL     1      -3.684  13.541   4.494  1.00  0.00     0.227 C 
ATOM      2  O   UNL     1      -2.720  13.803   3.763  1.00  0.00    -0.274 OA
ATOM      3  N   UNL     1      -3.527  13.811   5.818  1.00  0.00    -0.356 N 
ATOM      4  H   UNL     1      -2.685  14.271   6.038  1.00  0.00     0.163 HD
ENDROOT
BRANCH   1   5
ATOM      5  C   UNL     1      -4.972  12.968   3.881  1.00  0.00     0.105 C 
ATOM      6  C   UNL     1      -6.215  13.828   4.107  1.00  0.00     0.023 C 
BRANCH   5   7
ATOM      7  C   UNL     1      -5.160  11.475   4.104  1.00  0.00    -0.035 A 
ATOM      8  C   UNL     1      -5.317   8.641   4.501  1.00  0.00    -0.006 A 
ATOM      9  C   UNL     1      -5.745   9.561   5.476  1.00  0.00     0.009 A 
ATOM     10  C   UNL     1      -4.893   9.165   3.262  1.00  0.00     0.064 A 
ATOM     11  C   UNL     1      -5.717  10.941   5.261  1.00  0.00     0.005 A 
ATOM     12  C   UNL     1      -4.764  10.569   3.109  1.00  0.00     0.018 A 
BRANCH   8  13
ATOM     13  C   UNL     1      -5.344   7.201   4.840  1.00  0.00    -0.014 A 
ATOM     14  C   UNL     1      -4.302   5.009   4.916  1.00  0.00     0.133 A 
ATOM     15  C   UNL     1      -5.442   4.450   5.485  1.00  0.00     0.047 A 
ATOM     16  C   UNL     1      -4.233   6.371   4.616  1.00  0.00     0.056 A 
ATOM     17  C   UNL     1      -6.534   5.266   5.758  1.00  0.00     0.004 A 
ATOM     18  C   UNL     1      -6.489   6.622   5.425  1.00  0.00     0.009 A 
BRANCH  14  19
ATOM     19  O   UNL     1      -3.309   4.102   4.500  1.00  0.00    -0.410 OA
BRANCH  19  20
ATOM     20  C   UNL     1      -1.963   4.395   4.643  1.00  0.00     0.412 C 
ATOM     21  N   UNL     1      -1.158   3.517   3.969  1.00  0.00    -0.321 N 
ATOM     22  H   UNL     1      -0.186   3.631   4.080  1.00  0.00     0.167 HD
ATOM     23  O   UNL     1      -1.490   5.321   5.289  1.00  0.00    -0.224 OA
BRANCH  21  24
ATOM     24  C   UNL     1      -1.593   2.434   3.108  1.00  0.00     0.119 C 
BRANCH  24  25
ATOM     25  C   UNL     1      -1.013   2.560   1.698  1.00  0.00     0.021 C 
BRANCH  25  26
ATOM     26  C   UNL     1       0.514   2.454   1.618  1.00  0.00     0.002 C 
BRANCH  26  27
ATOM     27  C   UNL     1       1.114   1.154   2.164  1.00  0.00    -0.000 C 
BRANCH  27  28
ATOM     28  C   UNL     1       0.627  -0.128   1.483  1.00  0.00    -0.003 C 
ATOM     29  C   UNL     1       0.997  -0.204   0.010  1.00  0.00     0.004 C 
ENDBRANCH  27  28
ENDBRANCH  26  27
ENDBRANCH  25  26
ENDBRANCH  24  25
ENDBRANCH  21  24
ENDBRANCH  19  20
ENDBRANCH  14  19
ENDBRANCH   8  13
BRANCH  10  30
ATOM     30  C   UNL     1      -4.585   8.329   2.038  1.00  0.00     0.417 C 
ATOM     31  F   UNL     1      -5.143   8.865   0.909  1.00  0.00    -0.166 F 
ATOM     32  F   UNL     1      -3.249   8.260   1.778  1.00  0.00    -0.166 F 
ATOM     33  F   UNL     1      -5.031   7.045   2.060  1.00  0.00    -0.166 F 
ENDBRANCH  10  30
ENDBRANCH   5   7
ENDBRANCH   1   5
BRANCH   3  34
ATOM     34  C   UNL     1      -4.373  13.544   6.962  1.00  0.00     0.116 C 
BRANCH  34  35
ATOM     35  C   UNL     1      -3.893  12.315   7.738  1.00  0.00     0.021 C 
BRANCH  35  36
ATOM     36  C   UNL     1      -2.884  12.639   8.844  1.00  0.00     0.002 C 
BRANCH  36  37
ATOM     37  C   UNL     1      -3.422  13.537   9.965  1.00  0.00     0.002 C 
BRANCH  37  38
ATOM     38  C   UNL     1      -4.698  13.038  10.650  1.00  0.00     0.021 C 
BRANCH  38  39
ATOM     39  C   UNL     1      -4.567  11.673  11.321  1.00  0.00     0.116 C 
BRANCH  39  40
ATOM     40  N   UNL     1      -3.577  11.693  12.386  1.00  0.00    -0.352 N 
ATOM     41  C   UNL     1      -3.731  11.445  13.727  1.00  0.00     0.251 C 
ATOM     42  H   UNL     1      -2.661  11.918  12.104  1.00  0.00     0.163 HD
ATOM     43  O   UNL     1      -2.842  11.759  14.512  1.00  0.00    -0.269 OA
BRANCH  41  44
ATOM     44  C   UNL     1      -4.968  10.804  14.224  1.00  0.00     0.039 A 
ATOM     45  C   UNL     1      -5.558  11.284  15.396  1.00  0.00     0.014 A 
ATOM     46  C   UNL     1      -5.524   9.710  13.555  1.00  0.00     0.014 A 
ATOM     47  C   UNL     1      -6.733  10.696  15.870  1.00  0.00     0.010 A 
ATOM     48  C   UNL     1      -6.731   9.170  13.990  1.00  0.00     0.010 A 
ATOM     49  C   UNL     1      -7.343   9.650  15.158  1.00  0.00    -0.014 A 
BRANCH  49  50
ATOM     50  C   UNL     1      -8.611   9.035  15.626  1.00  0.00     0.031 A 
ATOM     51  C   UNL     1      -8.638   7.590  16.045  1.00  0.00     0.074 A 
ATOM     52  C   UNL     1      -9.747   9.760  15.617  1.00  0.00     0.049 A 
ATOM     53  N   UNL     1      -9.656   6.855  16.413  1.00  0.00    -0.248 NA
ATOM     54  C   UNL     1      -7.355   6.868  16.020  1.00  0.00     0.031 C 
ATOM     55  C   UNL     1      -9.856  11.157  15.191  1.00  0.00     0.029 A 
ATOM     56  N   UNL     1     -11.030   9.420  15.965  1.00  0.00    -0.354 N 
ATOM     57  C   UNL     1      -9.141   5.585  16.649  1.00  0.00     0.074 A 
ATOM     58  C   UNL     1      -7.731   5.636  16.330  1.00  0.00     0.031 C 
ATOM     59  C   UNL     1     -11.130  11.560  15.323  1.00  0.00     0.029 A 
ATOM     60  C   UNL     1     -11.935  10.442  15.806  1.00  0.00     0.049 A 
ATOM     61  H   UNL     1     -11.279   8.527  16.298  1.00  0.00     0.167 HD
ATOM     62  C   UNL     1      -9.780   4.484  17.112  1.00  0.00     0.037 A 
ATOM     63  C   UNL     1     -13.265  10.474  16.019  1.00  0.00     0.037 A 
ATOM     64  C   UNL     1     -11.179   4.449  17.451  1.00  0.00     0.049 A 
ATOM     65  C   UNL     1     -13.953   9.239  16.535  1.00  0.00     0.074 A 
ATOM     66  C   UNL     1     -11.912   3.399  17.976  1.00  0.00     0.029 A 
ATOM     67  N   UNL     1     -12.058   5.513  17.300  1.00  0.00    -0.354 N 
ATOM     68  N   UNL     1     -13.441   8.062  16.806  1.00  0.00    -0.248 NA
ATOM     69  C   UNL     1     -15.398   9.338  16.783  1.00  0.00     0.031 C 
ATOM     70  C   UNL     1     -13.242   3.815  18.104  1.00  0.00     0.029 A 
ATOM     71  C   UNL     1     -13.328   5.139  17.706  1.00  0.00     0.049 A 
ATOM     72  H   UNL     1     -11.814   6.402  16.955  1.00  0.00     0.167 HD
ATOM     73  C   UNL     1     -14.493   7.290  17.285  1.00  0.00     0.074 A 
ATOM     74  C   UNL     1     -15.669   8.136  17.275  1.00  0.00     0.031 C 
ATOM     75  C   UNL     1     -14.486   5.999  17.699  1.00  0.00     0.037 A 
BRANCH  62  76
ATOM     76  C   UNL     1      -8.970   3.228  17.284  1.00  0.00     0.058 A 
ATOM     77  C   UNL     1      -7.992   3.112  18.286  1.00  0.00     0.135 A 
ATOM     78  C   UNL     1      -9.190   2.115  16.456  1.00  0.00     0.135 A 
ATOM     79  F   UNL     1      -7.729   4.150  19.097  1.00  0.00    -0.206 F 
ATOM     80  C   UNL     1      -7.240   1.953  18.440  1.00  0.00     0.059 A 
ATOM     81  C   UNL     1      -8.469   0.934  16.611  1.00  0.00     0.059 A 
ATOM     82  F   UNL     1     -10.112   2.169  15.482  1.00  0.00    -0.206 F 
ATOM     83  C   UNL     1      -7.485   0.869  17.596  1.00  0.00     0.060 A 
BRANCH  83  84
ATOM     84  S   UNL     1      -6.500  -0.629  17.808  1.00  0.00     0.124 S 
ATOM     85  O   UNL     1      -5.212  -0.210  17.264  1.00  0.00    -0.237 OA
ATOM     86  O   UNL     1      -6.542  -0.829  19.253  1.00  0.00    -0.237 OA
ATOM     87  O   UNL     1      -7.220  -1.625  17.020  1.00  0.00    -0.744 OA
ENDBRANCH  83  84
ENDBRANCH  62  76
BRANCH  63  88
ATOM     88  C   UNL     1     -14.027  11.727  15.771  1.00  0.00     0.058 A 
ATOM     89  C   UNL     1     -14.550  12.476  16.836  1.00  0.00     0.135 A 
ATOM     90  C   UNL     1     -14.236  12.208  14.469  1.00  0.00     0.135 A 
ATOM     91  F   UNL     1     -14.381  12.054  18.098  1.00  0.00    -0.206 F 
ATOM     92  C   UNL     1     -15.268  13.648  16.620  1.00  0.00     0.059 A 
ATOM     93  C   UNL     1     -14.929  13.391  14.229  1.00  0.00     0.059 A 
ATOM     94  F   UNL     1     -13.741  11.539  13.417  1.00  0.00    -0.206 F 
ATOM     95  C   UNL     1     -15.450  14.098  15.312  1.00  0.00     0.060 A 
BRANCH  95  96
ATOM     96  S   UNL     1     -16.342  15.646  15.045  1.00  0.00     0.124 S 
ATOM     97  O   UNL     1     -17.716  15.244  15.322  1.00  0.00    -0.237 OA
ATOM     98  O   UNL     1     -15.724  16.530  16.029  1.00  0.00    -0.237 OA
ATOM     99  O   UNL     1     -16.045  15.967  13.652  1.00  0.00    -0.744 OA
ENDBRANCH  95  96
ENDBRANCH  63  88
BRANCH  75 100
ATOM    100  C   UNL     1     -15.780   5.430  18.214  1.00  0.00     0.058 A 
ATOM    101  C   UNL     1     -16.844   5.115  17.356  1.00  0.00     0.135 A 
ATOM    102  C   UNL     1     -15.934   5.150  19.582  1.00  0.00     0.135 A 
ATOM    103  F   UNL     1     -16.750   5.369  16.041  1.00  0.00    -0.206 F 
ATOM    104  C   UNL     1     -18.027   4.564  17.838  1.00  0.00     0.059 A 
ATOM    105  C   UNL     1     -17.097   4.573  20.082  1.00  0.00     0.059 A 
ATOM    106  F   UNL     1     -14.942   5.423  20.445  1.00  0.00    -0.206 F 
ATOM    107  C   UNL     1     -18.143   4.295  19.204  1.00  0.00     0.060 A 
BRANCH 107 108
ATOM    108  S   UNL     1     -19.670   3.548  19.812  1.00  0.00     0.124 S 
ATOM    109  O   UNL     1     -20.591   4.678  19.758  1.00  0.00    -0.237 OA
ATOM    110  O   UNL     1     -19.909   2.488  18.838  1.00  0.00    -0.237 OA
ATOM    111  O   UNL     1     -19.314   3.091  21.152  1.00  0.00    -0.744 OA
ENDBRANCH 107 108
ENDBRANCH  75 100
ENDBRANCH  49  50
ENDBRANCH  41  44
ENDBRANCH  39  40
ENDBRANCH  38  39
ENDBRANCH  37  38
ENDBRANCH  36  37
ENDBRANCH  35  36
ENDBRANCH  34  35
ENDBRANCH   3  34
TORSDOF 26
