REMARK SMILES COc1ccc(-c2cc(Cl)cc3c2O[C@@H](C(F)(F)F)C(C(=O)NCCCCNC(=O)c2ccc(-c4c5nc(c(-c6c(F)cc(S(=O)(=O)[O-])cc6F)c6ccc([nH]6)c(-c6c(F)cc(S(=O)(=O)[O-])cc6F)c6nc(c(-c7c(F)cc(S(=O)(=O)[O-])cc7F)c7ccc4[nH]7)C=C6)C=C5)cc2)=C3)cc1C
REMARK SMILES IDX 26 1 25 2 24 3 23 4 21 5 22 6 20 8 7 9 8 10 13 11 9 12 12 13
REMARK SMILES IDX 14 14 10 15 11 16 97 17 15 18 6 19 3 20 4 21 99 22 5 23
REMARK SMILES IDX 98 24 100 25 2 26 1 27 16 28 17 29 18 30 19 31 27 32 28 33
REMARK SMILES IDX 29 34 30 36 31 37 32 38 96 39 33 40 95 41 34 42 35 43 36 44
REMARK SMILES IDX 89 45 37 46 94 47 88 48 90 49 38 50 93 51 87 52 86 53 39 55
REMARK SMILES IDX 73 56 52 57 72 58 53 59 56 60 71 61 91 62 54 63 55 64 70 66
REMARK SMILES IDX 92 67 57 68 40 69 41 70 50 71 42 72 43 73 49 74 51 75 44 76
REMARK SMILES IDX 45 77 46 78 47 79 48 80 74 81 75 82 84 83 76 84 77 85 83 86
REMARK SMILES IDX 85 87 78 88 79 89 80 90 81 91 82 92 58 93 59 94 68 95 60 96
REMARK SMILES IDX 61 97 67 98 69 99 62 100 63 101 64 102 65 103 66 104
REMARK H PARENT 23 7 28 35 90 54 56 65
REMARK Flexibility Score: inf
ROOT
ATOM      1  C   UNL     1      -5.180  -7.493   0.525  1.00  0.00     0.023 C 
ENDROOT
BRANCH   1   2
ATOM      2  C   UNL     1      -3.858  -7.585   1.515  1.00  0.00     0.023 C 
BRANCH   2   3
ATOM      3  C   UNL     1      -2.367  -8.031   1.194  1.00  0.00     0.116 C 
BRANCH   3   4
ATOM      4  N   UNL     1      -1.155  -7.144   1.063  1.00  0.00    -0.352 N 
ATOM      5  C   UNL     1       0.233  -7.315   1.232  1.00  0.00     0.251 C 
ATOM      6  O   UNL     1       1.009  -6.519   0.690  1.00  0.00    -0.270 OA
ATOM      7  H   UNL     1      -1.390  -6.226   0.797  1.00  0.00     0.163 HD
BRANCH   5   8
ATOM      8  C   UNL     1       0.893  -8.376   2.186  1.00  0.00     0.067 C 
ATOM      9  C   UNL     1       0.896  -5.266   4.463  1.00  0.00     0.026 A 
ATOM     10  C   UNL     1       1.895  -5.034   5.448  1.00  0.00     0.033 A 
ATOM     11  C   UNL     1       0.780  -6.594   4.041  1.00  0.00     0.135 A 
ATOM     12  C   UNL     1       2.837  -6.013   5.771  1.00  0.00     0.042 A 
ATOM     13  C   UNL     1       1.986  -7.315   3.965  1.00  0.00     0.019 A 
ATOM     14  O   UNL     1      -0.433  -7.329   3.755  1.00  0.00    -0.475 OA
ATOM     15  Cl  UNL     1       4.014  -5.706   6.989  1.00  0.00    -0.084 Cl
ATOM     16  C   UNL     1       2.937  -7.142   4.967  1.00  0.00     0.032 A 
ATOM     17  C   UNL     1       2.114  -8.228   2.773  1.00  0.00     0.025 C 
ATOM     18  C   UNL     1      -0.042  -8.698   3.299  1.00  0.00     0.314 C 
BRANCH   9  19
ATOM     19  C   UNL     1       0.684  -4.080   3.554  1.00  0.00    -0.014 A 
ATOM     20  C   UNL     1       0.521  -1.575   2.193  1.00  0.00     0.121 A 
ATOM     21  C   UNL     1      -0.613  -2.191   2.744  1.00  0.00     0.047 A 
ATOM     22  C   UNL     1       1.765  -2.196   2.297  1.00  0.00    -0.008 A 
ATOM     23  C   UNL     1      -0.537  -3.429   3.414  1.00  0.00     0.013 A 
ATOM     24  C   UNL     1       1.816  -3.460   2.933  1.00  0.00     0.016 A 
ATOM     25  C   UNL     1       3.031  -1.549   1.801  1.00  0.00     0.048 C 
BRANCH  20  26
ATOM     26  O   UNL     1       0.351  -0.303   1.706  1.00  0.00    -0.496 OA
ATOM     27  C   UNL     1       0.621  -0.185   0.307  1.00  0.00     0.278 C 
ENDBRANCH  20  26
ENDBRANCH   9  19
BRANCH  18  28
ATOM     28  C   UNL     1      -0.721 -10.010   2.801  1.00  0.00     0.429 C 
ATOM     29  F   UNL     1       0.081 -11.065   3.159  1.00  0.00    -0.167 F 
ATOM     30  F   UNL     1      -1.924 -10.262   3.352  1.00  0.00    -0.167 F 
ATOM     31  F   UNL     1      -0.830 -10.132   1.455  1.00  0.00    -0.167 F 
ENDBRANCH  18  28
ENDBRANCH   5   8
ENDBRANCH   3   4
ENDBRANCH   2   3
ENDBRANCH   1   2
BRANCH   1  32
ATOM     32  C   UNL     1      -5.478  -8.643  -0.562  1.00  0.00     0.116 C 
BRANCH  32  33
ATOM     33  N   UNL     1      -6.489  -8.684  -1.907  1.00  0.00    -0.352 N 
ATOM     34  C   UNL     1      -6.739  -8.594  -3.371  1.00  0.00     0.251 C 
ATOM     35  H   UNL     1      -7.380  -8.858  -1.526  1.00  0.00     0.163 HD
ATOM     36  O   UNL     1      -7.714  -9.317  -3.686  1.00  0.00    -0.269 OA
BRANCH  34  37
ATOM     37  C   UNL     1      -6.073  -7.918  -4.709  1.00  0.00     0.039 A 
ATOM     38  C   UNL     1      -5.874  -8.635  -5.952  1.00  0.00     0.014 A 
ATOM     39  C   UNL     1      -5.443  -6.684  -4.766  1.00  0.00     0.014 A 
ATOM     40  C   UNL     1      -4.683  -8.394  -6.806  1.00  0.00     0.010 A 
ATOM     41  C   UNL     1      -4.324  -6.421  -5.639  1.00  0.00     0.010 A 
ATOM     42  C   UNL     1      -3.743  -7.403  -6.446  1.00  0.00    -0.014 A 
BRANCH  42  43
ATOM     43  C   UNL     1      -2.175  -7.495  -6.447  1.00  0.00     0.031 A 
ATOM     44  C   UNL     1      -1.383  -6.568  -7.262  1.00  0.00     0.074 A 
ATOM     45  C   UNL     1      -1.306  -8.098  -5.560  1.00  0.00     0.049 A 
ATOM     46  N   UNL     1      -0.485  -6.876  -8.142  1.00  0.00    -0.248 NA
ATOM     47  C   UNL     1      -1.514  -5.143  -7.012  1.00  0.00     0.031 C 
ATOM     48  C   UNL     1       0.169  -8.165  -5.442  1.00  0.00     0.029 A 
ATOM     49  N   UNL     1      -1.581  -8.887  -4.470  1.00  0.00    -0.354 N 
ATOM     50  C   UNL     1       0.257  -5.716  -8.315  1.00  0.00     0.074 A 
ATOM     51  C   UNL     1      -0.612  -4.654  -7.859  1.00  0.00     0.031 C 
ATOM     52  C   UNL     1       0.523  -9.275  -4.742  1.00  0.00     0.029 A 
ATOM     53  C   UNL     1      -0.693  -9.960  -4.378  1.00  0.00     0.049 A 
ATOM     54  H   UNL     1      -2.312  -8.717  -3.833  1.00  0.00     0.167 HD
ATOM     55  C   UNL     1       1.627  -5.727  -8.433  1.00  0.00     0.037 A 
ATOM     56  C   UNL     1      -1.167 -11.205  -4.718  1.00  0.00     0.037 A 
ATOM     57  C   UNL     1       2.189  -7.064  -8.136  1.00  0.00     0.049 A 
ATOM     58  C   UNL     1      -0.636 -11.573  -6.118  1.00  0.00     0.074 A 
ATOM     59  C   UNL     1       3.031  -7.598  -7.167  1.00  0.00     0.029 A 
ATOM     60  N   UNL     1       1.637  -8.167  -8.755  1.00  0.00    -0.354 N 
ATOM     61  N   UNL     1       0.313 -10.871  -6.683  1.00  0.00    -0.248 NA
ATOM     62  C   UNL     1      -1.051 -12.663  -7.011  1.00  0.00     0.031 C 
ATOM     63  C   UNL     1       2.922  -9.030  -7.203  1.00  0.00     0.029 A 
ATOM     64  C   UNL     1       2.035  -9.367  -8.209  1.00  0.00     0.049 A 
ATOM     65  H   UNL     1       1.015  -8.102  -9.516  1.00  0.00     0.167 HD
ATOM     66  C   UNL     1       0.567 -11.275  -7.957  1.00  0.00     0.074 A 
ATOM     67  C   UNL     1      -0.290 -12.440  -8.109  1.00  0.00     0.031 C 
ATOM     68  C   UNL     1       1.448 -10.593  -8.757  1.00  0.00     0.037 A 
BRANCH  55  69
ATOM     69  C   UNL     1       2.480  -4.458  -8.549  1.00  0.00     0.058 A 
ATOM     70  C   UNL     1       3.886  -4.495  -8.421  1.00  0.00     0.135 A 
ATOM     71  C   UNL     1       1.981  -3.174  -8.877  1.00  0.00     0.135 A 
ATOM     72  F   UNL     1       4.542  -5.652  -8.254  1.00  0.00    -0.206 F 
ATOM     73  C   UNL     1       4.700  -3.358  -8.523  1.00  0.00     0.059 A 
ATOM     74  C   UNL     1       2.757  -2.012  -8.898  1.00  0.00     0.059 A 
ATOM     75  F   UNL     1       0.731  -2.989  -9.317  1.00  0.00    -0.206 F 
ATOM     76  C   UNL     1       4.125  -2.113  -8.739  1.00  0.00     0.060 A 
BRANCH  76  77
ATOM     77  S   UNL     1       5.176  -0.663  -8.939  1.00  0.00     0.124 S 
ATOM     78  O   UNL     1       5.909  -0.634  -7.678  1.00  0.00    -0.237 OA
ATOM     79  O   UNL     1       5.957  -1.014 -10.121  1.00  0.00    -0.237 OA
ATOM     80  O   UNL     1       4.223   0.429  -9.127  1.00  0.00    -0.744 OA
ENDBRANCH  76  77
ENDBRANCH  55  69
BRANCH  56  81
ATOM     81  C   UNL     1      -2.571 -11.465  -4.068  1.00  0.00     0.058 A 
ATOM     82  C   UNL     1      -2.591 -11.317  -2.655  1.00  0.00     0.135 A 
ATOM     83  C   UNL     1      -3.573 -10.734  -4.660  1.00  0.00     0.135 A 
ATOM     84  F   UNL     1      -2.097 -12.299  -1.890  1.00  0.00    -0.206 F 
ATOM     85  C   UNL     1      -2.989 -10.122  -2.001  1.00  0.00     0.059 A 
ATOM     86  C   UNL     1      -3.911  -9.520  -4.019  1.00  0.00     0.059 A 
ATOM     87  F   UNL     1      -3.771 -10.854  -5.984  1.00  0.00    -0.206 F 
ATOM     88  C   UNL     1      -3.554  -9.111  -2.751  1.00  0.00     0.060 A 
BRANCH  88  89
ATOM     89  S   UNL     1      -3.420  -7.149  -2.316  1.00  0.00     0.124 S 
ATOM     90  O   UNL     1      -4.784  -6.664  -2.116  1.00  0.00    -0.237 OA
ATOM     91  O   UNL     1      -2.620  -7.128  -1.138  1.00  0.00    -0.237 OA
ATOM     92  O   UNL     1      -2.734  -6.541  -3.453  1.00  0.00    -0.744 OA
ENDBRANCH  88  89
ENDBRANCH  56  81
BRANCH  68  93
ATOM     93  C   UNL     1       1.848 -10.991 -10.159  1.00  0.00     0.058 A 
ATOM     94  C   UNL     1       2.155 -12.313 -10.504  1.00  0.00     0.135 A 
ATOM     95  C   UNL     1       2.102 -10.024 -11.166  1.00  0.00     0.135 A 
ATOM     96  F   UNL     1       2.029 -13.304  -9.607  1.00  0.00    -0.206 F 
ATOM     97  C   UNL     1       2.624 -12.657 -11.776  1.00  0.00     0.059 A 
ATOM     98  C   UNL     1       2.632 -10.333 -12.410  1.00  0.00     0.059 A 
ATOM     99  F   UNL     1       1.807  -8.727 -11.009  1.00  0.00    -0.206 F 
ATOM    100  C   UNL     1       2.856 -11.659 -12.723  1.00  0.00     0.060 A 
BRANCH 100 101
ATOM    101  S   UNL     1       3.423 -12.096 -14.373  1.00  0.00     0.124 S 
ATOM    102  O   UNL     1       4.453 -13.093 -14.100  1.00  0.00    -0.237 OA
ATOM    103  O   UNL     1       2.193 -12.605 -14.974  1.00  0.00    -0.237 OA
ATOM    104  O   UNL     1       3.910 -10.832 -14.918  1.00  0.00    -0.744 OA
ENDBRANCH 100 101
ENDBRANCH  68  93
ENDBRANCH  42  43
ENDBRANCH  34  37
ENDBRANCH  32  33
ENDBRANCH   1  32
TORSDOF 17
