REMARK SMILES CC(C)C(=O)Nc1ccc2c([C@H](C(=O)NCCCCNC(=O)c3ccc(-c4c5nc(c(-c6c(F)cc(S(=O)(=O)[O-])cc6F)c6ccc([nH]6)c(-c6c(F)cc(S(=O)(=O)[O-])cc6F)c6nc(c(-c7c(F)cc(S(=O)(=O)[O-])cc7F)c7ccc4[nH]7)C=C6)C=C5)cc3)[NH+]3CC[NH+](CC(=O)N(C)C)CC3)c[nH]c2c1
REMARK SMILES IDX 17 1 16 2 15 3 13 4 14 5 12 7 11 8 7 9 8 10 104 11 9 12
REMARK SMILES IDX 103 13 10 14 102 15 101 16 6 18 4 19 5 20 2 22 1 23 3 24
REMARK SMILES IDX 89 25 90 26 100 27 91 29 99 30 92 31 93 33 94 34 95 35 96 36
REMARK SMILES IDX 97 37 98 38 18 39 19 40 20 41 21 42 22 44 23 45 24 46 88 47
REMARK SMILES IDX 25 48 87 49 26 50 27 51 28 52 81 53 29 54 86 55 80 56 82 57
REMARK SMILES IDX 30 58 85 59 79 60 78 61 31 63 65 64 44 65 64 66 45 67 48 68
REMARK SMILES IDX 63 69 83 70 46 71 47 72 62 74 84 75 49 76 32 77 33 78 42 79
REMARK SMILES IDX 34 80 35 81 41 82 43 83 36 84 37 85 38 86 39 87 40 88 66 89
REMARK SMILES IDX 67 90 76 91 68 92 69 93 75 94 77 95 70 96 71 97 72 98 73 99
REMARK SMILES IDX 74 100 50 101 51 102 60 103 52 104 53 105 59 106 61 107
REMARK SMILES IDX 54 108 55 109 56 110 57 111 58 112
REMARK H PARENT 15 6 102 17 6 21 89 28 92 32 20 43 82 62 48 73
REMARK Flexibility Score: inf
ROOT
ATOM      1  C   UNL     1       1.834   4.947  -1.450  1.00  0.00     0.023 C 
ENDROOT
BRANCH   1   2
ATOM      2  C   UNL     1       1.468   3.676  -2.235  1.00  0.00     0.116 C 
BRANCH   2   3
ATOM      3  N   UNL     1       0.525   3.974  -3.300  1.00  0.00    -0.351 N 
ATOM      4  C   UNL     1       0.631   3.977  -4.671  1.00  0.00     0.283 C 
ATOM      5  O   UNL     1      -0.325   4.496  -5.259  1.00  0.00    -0.268 OA
ATOM      6  H   UNL     1      -0.370   4.224  -2.975  1.00  0.00     0.163 HD
BRANCH   4   7
ATOM      7  C   UNL     1       1.852   3.343  -5.418  1.00  0.00     0.308 C 
BRANCH   7   8
ATOM      8  C   UNL     1       1.549   2.800  -6.823  1.00  0.00     0.044 A 
ATOM      9  C   UNL     1       4.005   1.521 -10.008  1.00  0.00     0.043 A 
ATOM     10  C   UNL     1       4.659   1.780  -8.811  1.00  0.00     0.027 A 
ATOM     11  C   UNL     1       2.638   1.785 -10.151  1.00  0.00     0.052 A 
ATOM     12  C   UNL     1       3.945   2.171  -7.681  1.00  0.00     0.013 A 
ATOM     13  C   UNL     1       1.931   2.151  -8.996  1.00  0.00     0.048 A 
ATOM     14  C   UNL     1       2.548   2.342  -7.761  1.00  0.00     0.009 A 
ATOM     15  N   UNL     1       0.592   2.394  -8.809  1.00  0.00    -0.361 N 
ATOM     16  C   UNL     1       0.347   2.740  -7.506  1.00  0.00     0.094 A 
ATOM     17  H   UNL     1      -0.094   2.329  -9.512  1.00  0.00     0.166 HD
BRANCH   9  18
ATOM     18  N   UNL     1       4.702   1.006 -11.102  1.00  0.00    -0.326 N 
ATOM     19  C   UNL     1       5.557  -0.059 -11.150  1.00  0.00     0.226 C 
ATOM     20  O   UNL     1       6.226  -0.215 -12.179  1.00  0.00    -0.274 OA
ATOM     21  H   UNL     1       4.558   1.474 -11.956  1.00  0.00     0.169 HD
BRANCH  19  22
ATOM     22  C   UNL     1       5.628  -1.117 -10.034  1.00  0.00     0.072 C 
ATOM     23  C   UNL     1       6.566  -0.782  -8.881  1.00  0.00     0.018 C 
ATOM     24  C   UNL     1       4.265  -1.618  -9.556  1.00  0.00     0.018 C 
ENDBRANCH  19  22
ENDBRANCH   9  18
ENDBRANCH   7   8
BRANCH   7  25
ATOM     25  N   UNL     1       2.953   4.296  -5.592  1.00  0.00    -0.312 N 
ATOM     26  C   UNL     1       2.831   5.439  -6.497  1.00  0.00     0.325 C 
ATOM     27  C   UNL     1       3.973   4.422  -4.585  1.00  0.00     0.325 C 
ATOM     28  H   UNL     1       3.347   3.601  -6.227  1.00  0.00     0.349 HD
ATOM     29  C   UNL     1       2.967   6.839  -5.843  1.00  0.00     0.325 C 
ATOM     30  C   UNL     1       3.837   5.771  -3.875  1.00  0.00     0.325 C 
ATOM     31  N   UNL     1       3.880   6.968  -4.697  1.00  0.00    -0.318 N 
ATOM     32  H   UNL     1       3.510   7.735  -4.135  1.00  0.00     0.348 HD
BRANCH  31  33
ATOM     33  C   UNL     1       5.212   7.515  -4.963  1.00  0.00     0.364 C 
BRANCH  33  34
ATOM     34  C   UNL     1       6.202   6.514  -5.564  1.00  0.00     0.277 C 
ATOM     35  O   UNL     1       6.260   6.384  -6.791  1.00  0.00    -0.268 OA
ATOM     36  N   UNL     1       6.987   5.732  -4.710  1.00  0.00    -0.344 N 
ATOM     37  C   UNL     1       7.094   5.858  -3.262  1.00  0.00     0.146 C 
ATOM     38  C   UNL     1       7.760   4.650  -5.297  1.00  0.00     0.146 C 
ENDBRANCH  33  34
ENDBRANCH  31  33
ENDBRANCH   7  25
ENDBRANCH   4   7
ENDBRANCH   2   3
ENDBRANCH   1   2
BRANCH   1  39
ATOM     39  C   UNL     1       0.901   5.329  -0.320  1.00  0.00     0.023 C 
BRANCH  39  40
ATOM     40  C   UNL     1       1.015   4.432   0.890  1.00  0.00     0.116 C 
BRANCH  40  41
ATOM     41  N   UNL     1       2.298   4.559   1.581  1.00  0.00    -0.352 N 
ATOM     42  C   UNL     1       2.580   5.062   2.832  1.00  0.00     0.251 C 
ATOM     43  H   UNL     1       3.079   4.235   1.075  1.00  0.00     0.163 HD
ATOM     44  O   UNL     1       3.747   5.210   3.190  1.00  0.00    -0.269 OA
BRANCH  42  45
ATOM     45  C   UNL     1       1.466   5.461   3.716  1.00  0.00     0.039 A 
ATOM     46  C   UNL     1       1.508   6.686   4.383  1.00  0.00     0.014 A 
ATOM     47  C   UNL     1       0.332   4.656   3.796  1.00  0.00     0.014 A 
ATOM     48  C   UNL     1       0.361   7.151   5.033  1.00  0.00     0.010 A 
ATOM     49  C   UNL     1      -0.844   5.190   4.295  1.00  0.00     0.010 A 
ATOM     50  C   UNL     1      -0.844   6.435   4.938  1.00  0.00    -0.014 A 
BRANCH  50  51
ATOM     51  C   UNL     1      -2.117   6.925   5.529  1.00  0.00     0.031 A 
ATOM     52  C   UNL     1      -2.866   6.040   6.494  1.00  0.00     0.074 A 
ATOM     53  C   UNL     1      -2.654   8.093   5.121  1.00  0.00     0.049 A 
ATOM     54  N   UNL     1      -4.069   6.180   6.985  1.00  0.00    -0.248 NA
ATOM     55  C   UNL     1      -2.196   4.794   6.909  1.00  0.00     0.031 C 
ATOM     56  C   UNL     1      -2.071   9.003   4.130  1.00  0.00     0.029 A 
ATOM     57  N   UNL     1      -3.825   8.711   5.483  1.00  0.00    -0.354 N 
ATOM     58  C   UNL     1      -4.314   5.023   7.716  1.00  0.00     0.074 A 
ATOM     59  C   UNL     1      -3.169   4.160   7.544  1.00  0.00     0.031 C 
ATOM     60  C   UNL     1      -2.865  10.078   3.995  1.00  0.00     0.029 A 
ATOM     61  C   UNL     1      -4.032   9.918   4.855  1.00  0.00     0.049 A 
ATOM     62  H   UNL     1      -4.457   8.327   6.132  1.00  0.00     0.167 HD
ATOM     63  C   UNL     1      -5.377   4.721   8.496  1.00  0.00     0.037 A 
ATOM     64  C   UNL     1      -5.050  10.793   4.964  1.00  0.00     0.037 A 
ATOM     65  C   UNL     1      -6.467   5.626   8.737  1.00  0.00     0.049 A 
ATOM     66  C   UNL     1      -6.182  10.478   5.904  1.00  0.00     0.074 A 
ATOM     67  C   UNL     1      -7.548   5.467   9.585  1.00  0.00     0.029 A 
ATOM     68  N   UNL     1      -6.598   6.873   8.145  1.00  0.00    -0.354 N 
ATOM     69  N   UNL     1      -6.369   9.404   6.636  1.00  0.00    -0.248 NA
ATOM     70  C   UNL     1      -7.236  11.492   6.043  1.00  0.00     0.031 C 
ATOM     71  C   UNL     1      -8.345   6.612   9.490  1.00  0.00     0.029 A 
ATOM     72  C   UNL     1      -7.743   7.496   8.608  1.00  0.00     0.049 A 
ATOM     73  H   UNL     1      -5.970   7.258   7.492  1.00  0.00     0.167 HD
ATOM     74  C   UNL     1      -7.548   9.624   7.339  1.00  0.00     0.074 A 
ATOM     75  C   UNL     1      -8.024  10.937   6.954  1.00  0.00     0.031 C 
ATOM     76  C   UNL     1      -8.182   8.813   8.221  1.00  0.00     0.037 A 
BRANCH  63  77
ATOM     77  C   UNL     1      -5.387   3.375   9.168  1.00  0.00     0.058 A 
ATOM     78  C   UNL     1      -4.485   3.059  10.197  1.00  0.00     0.135 A 
ATOM     79  C   UNL     1      -6.308   2.389   8.780  1.00  0.00     0.135 A 
ATOM     80  F   UNL     1      -3.569   3.958  10.594  1.00  0.00    -0.206 F 
ATOM     81  C   UNL     1      -4.466   1.801  10.788  1.00  0.00     0.059 A 
ATOM     82  C   UNL     1      -6.328   1.133   9.380  1.00  0.00     0.059 A 
ATOM     83  F   UNL     1      -7.191   2.636   7.800  1.00  0.00    -0.206 F 
ATOM     84  C   UNL     1      -5.389   0.842  10.369  1.00  0.00     0.060 A 
BRANCH  84  85
ATOM     85  S   UNL     1      -5.348  -0.789  11.141  1.00  0.00     0.124 S 
ATOM     86  O   UNL     1      -4.181  -1.384  10.497  1.00  0.00    -0.237 OA
ATOM     87  O   UNL     1      -5.193  -0.463  12.555  1.00  0.00    -0.237 OA
ATOM     88  O   UNL     1      -6.635  -1.370  10.773  1.00  0.00    -0.744 OA
ENDBRANCH  84  85
ENDBRANCH  63  77
BRANCH  64  89
ATOM     89  C   UNL     1      -5.021  12.071   4.203  1.00  0.00     0.058 A 
ATOM     90  C   UNL     1      -4.778  13.288   4.858  1.00  0.00     0.135 A 
ATOM     91  C   UNL     1      -5.215  12.105   2.814  1.00  0.00     0.135 A 
ATOM     92  F   UNL     1      -4.590  13.308   6.186  1.00  0.00    -0.206 F 
ATOM     93  C   UNL     1      -4.745  14.496   4.168  1.00  0.00     0.059 A 
ATOM     94  C   UNL     1      -5.165  13.298   2.098  1.00  0.00     0.059 A 
ATOM     95  F   UNL     1      -5.431  10.966   2.138  1.00  0.00    -0.206 F 
ATOM     96  C   UNL     1      -4.939  14.490   2.786  1.00  0.00     0.060 A 
BRANCH  96  97
ATOM     97  S   UNL     1      -4.845  16.058   1.892  1.00  0.00     0.124 S 
ATOM     98  O   UNL     1      -6.116  16.676   2.249  1.00  0.00    -0.237 OA
ATOM     99  O   UNL     1      -3.652  16.670   2.470  1.00  0.00    -0.237 OA
ATOM    100  O   UNL     1      -4.713  15.640   0.499  1.00  0.00    -0.744 OA
ENDBRANCH  96  97
ENDBRANCH  64  89
BRANCH  76 101
ATOM    101  C   UNL     1      -9.436   9.334   8.858  1.00  0.00     0.058 A 
ATOM    102  C   UNL     1     -10.648   9.392   8.154  1.00  0.00     0.135 A 
ATOM    103  C   UNL     1      -9.439   9.714  10.210  1.00  0.00     0.135 A 
ATOM    104  F   UNL     1     -10.693   9.043   6.858  1.00  0.00    -0.206 F 
ATOM    105  C   UNL     1     -11.819   9.826   8.764  1.00  0.00     0.059 A 
ATOM    106  C   UNL     1     -10.603  10.128  10.847  1.00  0.00     0.059 A 
ATOM    107  F   UNL     1      -8.306   9.664  10.929  1.00  0.00    -0.206 F 
ATOM    108  C   UNL     1     -11.787  10.189  10.112  1.00  0.00     0.060 A 
BRANCH 108 109
ATOM    109  S   UNL     1     -13.323  10.707  10.906  1.00  0.00     0.124 S 
ATOM    110  O   UNL     1     -13.480  12.060  10.384  1.00  0.00    -0.237 OA
ATOM    111  O   UNL     1     -14.279   9.721  10.412  1.00  0.00    -0.237 OA
ATOM    112  O   UNL     1     -13.016  10.613  12.330  1.00  0.00    -0.744 OA
ENDBRANCH 108 109
ENDBRANCH  76 101
ENDBRANCH  50  51
ENDBRANCH  42  45
ENDBRANCH  40  41
ENDBRANCH  39  40
ENDBRANCH   1  39
TORSDOF 20
