REMARK SMILES Cc1cc(C)c2c(C(=O)NCCCCNC(=O)c3ccc(-c4c5nc(c(-c6c(F)cc(S(=O)(=O)[O-])cc6F)c6ccc([nH]6)c(-c6c(F)cc(S(=O)(=O)[O-])cc6F)c6nc(c(-c7c(F)cc(S(=O)(=O)[O-])cc7F)c7ccc4[nH]7)C=C6)C=C5)cc3)cc(-c3ccco3)nc2c1
REMARK SMILES IDX 13 1 12 2 11 3 10 4 8 5 9 6 7 8 1 9 2 10 3 11 93 12 4 13
REMARK SMILES IDX 92 14 5 15 6 16 91 17 85 18 84 19 86 20 87 21 90 22 88 23
REMARK SMILES IDX 89 24 14 25 15 26 16 27 17 29 18 30 19 31 83 32 20 33 82 34
REMARK SMILES IDX 21 35 22 36 23 37 76 38 24 39 81 40 75 41 77 42 25 43 80 44
REMARK SMILES IDX 74 45 73 46 26 48 60 49 39 50 59 51 40 52 43 53 58 54 78 55
REMARK SMILES IDX 41 56 42 57 57 59 79 60 44 61 27 62 28 63 37 64 29 65 30 66
REMARK SMILES IDX 36 67 38 68 31 69 32 70 33 71 34 72 35 73 61 74 62 75 71 76
REMARK SMILES IDX 63 77 64 78 70 79 72 80 65 81 66 82 67 83 68 84 69 85 45 86
REMARK SMILES IDX 46 87 55 88 47 89 48 90 54 91 56 92 49 93 50 94 51 95 52 96
REMARK SMILES IDX 53 97
REMARK H PARENT 10 7 15 28 77 47 43 58
REMARK Flexibility Score: inf
ROOT
ATOM      1  C   UNL     1       0.738   4.698  -5.280  1.00  0.00     0.023 C 
ENDROOT
BRANCH   1   2
ATOM      2  C   UNL     1       1.468   3.384  -4.979  1.00  0.00     0.023 C 
BRANCH   2   3
ATOM      3  C   UNL     1       0.590   2.167  -4.695  1.00  0.00     0.116 C 
BRANCH   3   4
ATOM      4  N   UNL     1      -0.374   1.845  -5.736  1.00  0.00    -0.352 N 
ATOM      5  C   UNL     1      -1.102   0.692  -5.947  1.00  0.00     0.252 C 
ATOM      6  O   UNL     1      -1.894   0.651  -6.887  1.00  0.00    -0.269 OA
ATOM      7  H   UNL     1      -0.532   2.562  -6.391  1.00  0.00     0.163 HD
BRANCH   5   8
ATOM      8  C   UNL     1      -0.886  -0.540  -5.143  1.00  0.00     0.051 A 
ATOM      9  C   UNL     1       0.935  -0.581   0.236  1.00  0.00     0.044 C 
ATOM     10  C   UNL     1       0.244  -0.619  -1.093  1.00  0.00    -0.049 A 
ATOM     11  C   UNL     1      -0.639   0.382  -1.479  1.00  0.00     0.007 A 
ATOM     12  C   UNL     1       0.440  -1.699  -1.958  1.00  0.00     0.032 A 
ATOM     13  C   UNL     1      -1.175   0.395  -2.775  1.00  0.00    -0.041 A 
ATOM     14  C   UNL     1      -0.078  -1.719  -3.244  1.00  0.00     0.072 A 
ATOM     15  C   UNL     1      -2.314   1.351  -3.035  1.00  0.00     0.045 C 
ATOM     16  C   UNL     1      -0.739  -0.576  -3.731  1.00  0.00     0.016 A 
ATOM     17  N   UNL     1       0.093  -2.836  -3.968  1.00  0.00    -0.244 NA
ATOM     18  C   UNL     1      -0.327  -2.849  -5.249  1.00  0.00     0.107 A 
ATOM     19  C   UNL     1      -0.733  -1.707  -5.901  1.00  0.00     0.046 A 
BRANCH  18  20
ATOM     20  C   UNL     1      -0.354  -4.151  -5.891  1.00  0.00     0.152 A 
ATOM     21  C   UNL     1       0.163  -4.676  -7.059  1.00  0.00     0.052 A 
ATOM     22  O   UNL     1      -1.126  -5.095  -5.270  1.00  0.00    -0.463 OA
ATOM     23  C   UNL     1      -0.315  -6.008  -7.151  1.00  0.00     0.043 A 
ATOM     24  C   UNL     1      -1.103  -6.210  -6.043  1.00  0.00     0.196 A 
ENDBRANCH  18  20
ENDBRANCH   5   8
ENDBRANCH   3   4
ENDBRANCH   2   3
ENDBRANCH   1   2
BRANCH   1  25
ATOM     25  C   UNL     1      -0.427   5.071  -4.365  1.00  0.00     0.116 C 
BRANCH  25  26
ATOM     26  N   UNL     1      -0.036   5.302  -2.982  1.00  0.00    -0.352 N 
ATOM     27  C   UNL     1      -0.082   6.459  -2.235  1.00  0.00     0.251 C 
ATOM     28  H   UNL     1       0.314   4.512  -2.509  1.00  0.00     0.163 HD
ATOM     29  O   UNL     1       0.367   6.474  -1.096  1.00  0.00    -0.269 OA
BRANCH  27  30
ATOM     30  C   UNL     1      -0.637   7.696  -2.829  1.00  0.00     0.039 A 
ATOM     31  C   UNL     1       0.156   8.847  -2.851  1.00  0.00     0.014 A 
ATOM     32  C   UNL     1      -1.918   7.712  -3.386  1.00  0.00     0.014 A 
ATOM     33  C   UNL     1      -0.293   9.984  -3.529  1.00  0.00     0.010 A 
ATOM     34  C   UNL     1      -2.344   8.830  -4.103  1.00  0.00     0.010 A 
ATOM     35  C   UNL     1      -1.525   9.966  -4.202  1.00  0.00    -0.014 A 
BRANCH  35  36
ATOM     36  C   UNL     1      -1.960  11.102  -5.054  1.00  0.00     0.031 A 
ATOM     37  C   UNL     1      -3.146  11.934  -4.657  1.00  0.00     0.074 A 
ATOM     38  C   UNL     1      -1.336  11.330  -6.227  1.00  0.00     0.049 A 
ATOM     39  N   UNL     1      -3.755  12.876  -5.330  1.00  0.00    -0.248 NA
ATOM     40  C   UNL     1      -3.734  11.658  -3.338  1.00  0.00     0.031 C 
ATOM     41  C   UNL     1      -0.185  10.579  -6.733  1.00  0.00     0.029 A 
ATOM     42  N   UNL     1      -1.594  12.246  -7.216  1.00  0.00    -0.354 N 
ATOM     43  C   UNL     1      -4.800  13.304  -4.521  1.00  0.00     0.074 A 
ATOM     44  C   UNL     1      -4.766  12.490  -3.324  1.00  0.00     0.031 C 
ATOM     45  C   UNL     1       0.168  11.070  -7.933  1.00  0.00     0.029 A 
ATOM     46  C   UNL     1      -0.752  12.142  -8.299  1.00  0.00     0.049 A 
ATOM     47  H   UNL     1      -2.313  12.915  -7.157  1.00  0.00     0.167 HD
ATOM     48  C   UNL     1      -5.696  14.294  -4.749  1.00  0.00     0.037 A 
ATOM     49  C   UNL     1      -0.731  12.825  -9.461  1.00  0.00     0.037 A 
ATOM     50  C   UNL     1      -5.723  15.106  -5.938  1.00  0.00     0.049 A 
ATOM     51  C   UNL     1      -1.749  13.906  -9.699  1.00  0.00     0.074 A 
ATOM     52  C   UNL     1      -6.590  16.137  -6.258  1.00  0.00     0.029 A 
ATOM     53  N   UNL     1      -4.840  14.984  -7.001  1.00  0.00    -0.354 N 
ATOM     54  N   UNL     1      -2.728  14.300  -8.921  1.00  0.00    -0.248 NA
ATOM     55  C   UNL     1      -1.658  14.638 -10.970  1.00  0.00     0.031 C 
ATOM     56  C   UNL     1      -6.247  16.622  -7.525  1.00  0.00     0.029 A 
ATOM     57  C   UNL     1      -5.141  15.921  -7.977  1.00  0.00     0.049 A 
ATOM     58  H   UNL     1      -4.107  14.329  -7.054  1.00  0.00     0.167 HD
ATOM     59  C   UNL     1      -3.348  15.349  -9.591  1.00  0.00     0.074 A 
ATOM     60  C   UNL     1      -2.632  15.528 -10.838  1.00  0.00     0.031 C 
ATOM     61  C   UNL     1      -4.410  16.098  -9.206  1.00  0.00     0.037 A 
BRANCH  48  62
ATOM     62  C   UNL     1      -6.719  14.562  -3.682  1.00  0.00     0.058 A 
ATOM     63  C   UNL     1      -6.369  15.187  -2.475  1.00  0.00     0.135 A 
ATOM     64  C   UNL     1      -8.069  14.232  -3.882  1.00  0.00     0.135 A 
ATOM     65  F   UNL     1      -5.088  15.506  -2.226  1.00  0.00    -0.206 F 
ATOM     66  C   UNL     1      -7.317  15.458  -1.494  1.00  0.00     0.059 A 
ATOM     67  C   UNL     1      -9.039  14.516  -2.924  1.00  0.00     0.059 A 
ATOM     68  F   UNL     1      -8.457  13.630  -5.017  1.00  0.00    -0.206 F 
ATOM     69  C   UNL     1      -8.650  15.120  -1.729  1.00  0.00     0.060 A 
BRANCH  69  70
ATOM     70  S   UNL     1      -9.870  15.493  -0.452  1.00  0.00     0.124 S 
ATOM     71  O   UNL     1      -9.544  14.495   0.562  1.00  0.00    -0.237 OA
ATOM     72  O   UNL     1      -9.549  16.874  -0.107  1.00  0.00    -0.237 OA
ATOM     73  O   UNL     1     -11.146  15.300  -1.133  1.00  0.00    -0.744 OA
ENDBRANCH  69  70
ENDBRANCH  48  62
BRANCH  49  74
ATOM     74  C   UNL     1       0.311  12.526 -10.479  1.00  0.00     0.058 A 
ATOM     75  C   UNL     1       1.367  13.421 -10.707  1.00  0.00     0.135 A 
ATOM     76  C   UNL     1       0.283  11.341 -11.230  1.00  0.00     0.135 A 
ATOM     77  F   UNL     1       1.430  14.570 -10.018  1.00  0.00    -0.206 F 
ATOM     78  C   UNL     1       2.354  13.158 -11.650  1.00  0.00     0.059 A 
ATOM     79  C   UNL     1       1.271  11.046 -12.165  1.00  0.00     0.059 A 
ATOM     80  F   UNL     1      -0.699  10.446 -11.039  1.00  0.00    -0.206 F 
ATOM     81  C   UNL     1       2.299  11.965 -12.373  1.00  0.00     0.060 A 
BRANCH  81  82
ATOM     82  S   UNL     1       3.618  11.608 -13.553  1.00  0.00     0.124 S 
ATOM     83  O   UNL     1       3.303  12.534 -14.635  1.00  0.00    -0.237 OA
ATOM     84  O   UNL     1       4.815  11.917 -12.776  1.00  0.00    -0.237 OA
ATOM     85  O   UNL     1       3.425  10.193 -13.855  1.00  0.00    -0.744 OA
ENDBRANCH  81  82
ENDBRANCH  49  74
BRANCH  61  86
ATOM     86  C   UNL     1      -4.833  17.217 -10.116  1.00  0.00     0.058 A 
ATOM     87  C   UNL     1      -5.519  16.976 -11.316  1.00  0.00     0.135 A 
ATOM     88  C   UNL     1      -4.585  18.552  -9.757  1.00  0.00     0.135 A 
ATOM     89  F   UNL     1      -5.776  15.717 -11.707  1.00  0.00    -0.206 F 
ATOM     90  C   UNL     1      -5.924  18.020 -12.142  1.00  0.00     0.059 A 
ATOM     91  C   UNL     1      -5.000  19.612 -10.556  1.00  0.00     0.059 A 
ATOM     92  F   UNL     1      -3.940  18.835  -8.614  1.00  0.00    -0.206 F 
ATOM     93  C   UNL     1      -5.659  19.335 -11.754  1.00  0.00     0.060 A 
BRANCH  93  94
ATOM     94  S   UNL     1      -6.208  20.682 -12.823  1.00  0.00     0.124 S 
ATOM     95  O   UNL     1      -5.234  20.612 -13.907  1.00  0.00    -0.237 OA
ATOM     96  O   UNL     1      -7.568  20.276 -13.165  1.00  0.00    -0.237 OA
ATOM     97  O   UNL     1      -6.109  21.859 -11.965  1.00  0.00    -0.744 OA
ENDBRANCH  93  94
ENDBRANCH  61  86
ENDBRANCH  35  36
ENDBRANCH  27  30
ENDBRANCH  25  26
ENDBRANCH   1  25
TORSDOF 15
