REMARK SMILES Cc1c(C(=O)NCCCCNC(=O)c2ccc(-c3c4nc(c(-c5c(F)cc(S(=O)(=O)[O-])cc5F)c5ccc([nH]5)c(-c5c(F)cc(S(=O)(=O)[O-])cc5F)c5nc(c(-c6c(F)cc(S(=O)(=O)[O-])cc6F)c6ccc3[nH]6)C=C5)C=C4)cc2)sc2c1=C(CSc1nncn1-c1ccccc1)CC(=O)N=2
REMARK SMILES IDX 8 1 7 2 6 3 4 4 5 5 3 7 1 8 2 9 82 10 80 11 81 12 83 13
REMARK SMILES IDX 100 14 97 15 98 16 99 17 84 18 85 19 86 20 87 21 90 22 88 23
REMARK SMILES IDX 89 24 91 25 92 26 96 27 93 28 95 29 94 30 9 31 10 32 11 33
REMARK SMILES IDX 12 34 13 36 14 37 15 38 79 39 16 40 78 41 17 42 18 43 19 44
REMARK SMILES IDX 72 45 20 46 77 47 71 48 73 49 21 50 76 51 70 52 69 53 22 55
REMARK SMILES IDX 56 56 35 57 55 58 36 59 39 60 54 61 74 62 37 63 38 64 53 66
REMARK SMILES IDX 75 67 40 68 23 69 24 70 33 71 25 72 26 73 32 74 34 75 27 76
REMARK SMILES IDX 28 77 29 78 30 79 31 80 57 81 58 82 67 83 59 84 60 85 66 86
REMARK SMILES IDX 68 87 61 88 62 89 63 90 64 91 65 92 41 93 42 94 51 95 43 96
REMARK SMILES IDX 44 97 50 98 52 99 45 100 46 101 47 102 48 103 49 104
REMARK H PARENT 6 6 11 35 73 54 39 65
REMARK Flexibility Score: inf
ROOT
ATOM      1  C   UNL     1       0.082  -2.710   1.699  1.00  0.00     0.023 C 
ENDROOT
BRANCH   1   2
ATOM      2  C   UNL     1       1.025  -2.893   0.493  1.00  0.00     0.116 C 
BRANCH   2   3
ATOM      3  N   UNL     1       0.354  -3.479  -0.648  1.00  0.00    -0.351 N 
ATOM      4  C   UNL     1       0.034  -3.073  -1.905  1.00  0.00     0.261 C 
ATOM      5  O   UNL     1      -0.447  -3.973  -2.606  1.00  0.00    -0.268 OA
ATOM      6  H   UNL     1       0.056  -4.401  -0.470  1.00  0.00     0.163 HD
BRANCH   4   7
ATOM      7  C   UNL     1       0.227  -1.688  -2.494  1.00  0.00     0.098 A 
ATOM      8  C   UNL     1       0.265   0.067  -0.614  1.00  0.00     0.047 C 
ATOM      9  C   UNL     1       0.366  -0.426  -2.014  1.00  0.00    -0.018 A 
ATOM     10  C   UNL     1       0.442   0.583  -3.083  1.00  0.00     0.016 A 
ATOM     11  S   UNL     1      -0.028  -1.652  -4.278  1.00  0.00    -0.110 S 
ATOM     12  C   UNL     1      -0.273   0.072  -4.281  1.00  0.00     0.128 A 
ATOM     13  C   UNL     1       0.422   1.931  -2.989  1.00  0.00    -0.040 C 
ATOM     14  N   UNL     1      -1.019   0.702  -5.114  1.00  0.00    -0.202 NA
ATOM     15  C   UNL     1      -0.886   2.557  -3.455  1.00  0.00     0.135 C 
ATOM     16  C   UNL     1      -1.219   2.049  -4.865  1.00  0.00     0.251 C 
ATOM     17  O   UNL     1      -1.700   2.812  -5.689  1.00  0.00    -0.272 OA
BRANCH  13  18
ATOM     18  C   UNL     1       1.587   2.741  -3.568  1.00  0.00     0.110 C 
BRANCH  18  19
ATOM     19  S   UNL     1       3.200   2.287  -2.918  1.00  0.00    -0.081 SA
BRANCH  19  20
ATOM     20  C   UNL     1       3.183   3.079  -1.379  1.00  0.00     0.195 A 
ATOM     21  N   UNL     1       2.691   4.283  -1.177  1.00  0.00    -0.123 NA
ATOM     22  N   UNL     1       3.491   2.482  -0.170  1.00  0.00    -0.277 N 
ATOM     23  N   UNL     1       2.656   4.507   0.173  1.00  0.00    -0.138 NA
ATOM     24  C   UNL     1       3.128   3.432   0.759  1.00  0.00     0.231 A 
BRANCH  22  25
ATOM     25  C   UNL     1       3.906   1.158   0.115  1.00  0.00     0.049 A 
ATOM     26  C   UNL     1       4.654   0.401  -0.798  1.00  0.00     0.027 A 
ATOM     27  C   UNL     1       3.455   0.564   1.296  1.00  0.00     0.027 A 
ATOM     28  C   UNL     1       4.851  -0.961  -0.590  1.00  0.00     0.002 A 
ATOM     29  C   UNL     1       3.646  -0.795   1.489  1.00  0.00     0.002 A 
ATOM     30  C   UNL     1       4.320  -1.563   0.539  1.00  0.00     0.000 A 
ENDBRANCH  22  25
ENDBRANCH  19  20
ENDBRANCH  18  19
ENDBRANCH  13  18
ENDBRANCH   4   7
ENDBRANCH   2   3
ENDBRANCH   1   2
BRANCH   1  31
ATOM     31  C   UNL     1       0.064  -3.845   2.744  1.00  0.00     0.023 C 
BRANCH  31  32
ATOM     32  C   UNL     1       1.346  -4.023   3.554  1.00  0.00     0.116 C 
BRANCH  32  33
ATOM     33  N   UNL     1       1.684  -2.885   4.423  1.00  0.00    -0.352 N 
ATOM     34  C   UNL     1       2.840  -2.675   5.172  1.00  0.00     0.251 C 
ATOM     35  H   UNL     1       1.002  -2.178   4.485  1.00  0.00     0.163 HD
ATOM     36  O   UNL     1       2.822  -1.917   6.136  1.00  0.00    -0.269 OA
BRANCH  34  37
ATOM     37  C   UNL     1       4.099  -3.332   4.760  1.00  0.00     0.039 A 
ATOM     38  C   UNL     1       5.129  -3.695   5.631  1.00  0.00     0.014 A 
ATOM     39  C   UNL     1       4.250  -3.561   3.403  1.00  0.00     0.014 A 
ATOM     40  C   UNL     1       6.264  -4.322   5.102  1.00  0.00     0.010 A 
ATOM     41  C   UNL     1       5.259  -4.318   2.903  1.00  0.00     0.010 A 
ATOM     42  C   UNL     1       6.316  -4.616   3.730  1.00  0.00    -0.014 A 
BRANCH  42  43
ATOM     43  C   UNL     1       7.396  -5.340   3.092  1.00  0.00     0.031 A 
ATOM     44  C   UNL     1       7.550  -6.726   3.583  1.00  0.00     0.074 A 
ATOM     45  C   UNL     1       7.993  -4.918   1.956  1.00  0.00     0.049 A 
ATOM     46  N   UNL     1       8.455  -7.150   4.394  1.00  0.00    -0.248 NA
ATOM     47  C   UNL     1       6.486  -7.706   3.311  1.00  0.00     0.031 C 
ATOM     48  C   UNL     1       7.688  -3.750   1.118  1.00  0.00     0.029 A 
ATOM     49  N   UNL     1       8.969  -5.536   1.248  1.00  0.00    -0.354 N 
ATOM     50  C   UNL     1       8.229  -8.512   4.535  1.00  0.00     0.074 A 
ATOM     51  C   UNL     1       6.895  -8.744   4.046  1.00  0.00     0.031 C 
ATOM     52  C   UNL     1       8.313  -3.872  -0.076  1.00  0.00     0.029 A 
ATOM     53  C   UNL     1       9.186  -5.032  -0.028  1.00  0.00     0.049 A 
ATOM     54  H   UNL     1       9.488  -6.290   1.612  1.00  0.00     0.167 HD
ATOM     55  C   UNL     1       9.257  -9.361   4.815  1.00  0.00     0.037 A 
ATOM     56  C   UNL     1      10.007  -5.567  -0.969  1.00  0.00     0.037 A 
ATOM     57  C   UNL     1      10.453  -8.621   5.149  1.00  0.00     0.049 A 
ATOM     58  C   UNL     1      10.981  -6.428  -0.236  1.00  0.00     0.074 A 
ATOM     59  C   UNL     1      10.774  -7.688   6.118  1.00  0.00     0.029 A 
ATOM     60  N   UNL     1      11.404  -8.479   4.163  1.00  0.00    -0.354 N 
ATOM     61  N   UNL     1      11.869  -5.960   0.602  1.00  0.00    -0.248 NA
ATOM     62  C   UNL     1      10.639  -7.832  -0.053  1.00  0.00     0.031 C 
ATOM     63  C   UNL     1      11.574  -6.720   5.443  1.00  0.00     0.029 A 
ATOM     64  C   UNL     1      11.770  -7.157   4.131  1.00  0.00     0.049 A 
ATOM     65  H   UNL     1      11.756  -9.195   3.586  1.00  0.00     0.167 HD
ATOM     66  C   UNL     1      11.869  -6.856   1.662  1.00  0.00     0.074 A 
ATOM     67  C   UNL     1      11.152  -8.030   1.165  1.00  0.00     0.031 C 
ATOM     68  C   UNL     1      12.183  -6.458   2.932  1.00  0.00     0.037 A 
BRANCH  55  69
ATOM     69  C   UNL     1       9.312 -10.821   4.449  1.00  0.00     0.058 A 
ATOM     70  C   UNL     1      10.350 -11.612   4.981  1.00  0.00     0.135 A 
ATOM     71  C   UNL     1       8.566 -11.410   3.406  1.00  0.00     0.135 A 
ATOM     72  F   UNL     1      11.120 -11.151   5.980  1.00  0.00    -0.206 F 
ATOM     73  C   UNL     1      10.679 -12.861   4.458  1.00  0.00     0.059 A 
ATOM     74  C   UNL     1       8.840 -12.679   2.908  1.00  0.00     0.059 A 
ATOM     75  F   UNL     1       7.602 -10.751   2.752  1.00  0.00    -0.206 F 
ATOM     76  C   UNL     1       9.926 -13.377   3.409  1.00  0.00     0.060 A 
BRANCH  76  77
ATOM     77  S   UNL     1      10.416 -14.941   2.666  1.00  0.00     0.124 S 
ATOM     78  O   UNL     1      11.665 -14.570   2.010  1.00  0.00    -0.237 OA
ATOM     79  O   UNL     1      10.538 -15.805   3.835  1.00  0.00    -0.237 OA
ATOM     80  O   UNL     1       9.301 -15.252   1.776  1.00  0.00    -0.744 OA
ENDBRANCH  76  77
ENDBRANCH  55  69
BRANCH  56  81
ATOM     81  C   UNL     1       9.774  -5.682  -2.437  1.00  0.00     0.058 A 
ATOM     82  C   UNL     1      10.783  -6.163  -3.293  1.00  0.00     0.135 A 
ATOM     83  C   UNL     1       8.478  -5.616  -2.989  1.00  0.00     0.135 A 
ATOM     84  F   UNL     1      12.047  -6.264  -2.854  1.00  0.00    -0.206 F 
ATOM     85  C   UNL     1      10.512  -6.627  -4.586  1.00  0.00     0.059 A 
ATOM     86  C   UNL     1       8.185  -6.063  -4.278  1.00  0.00     0.059 A 
ATOM     87  F   UNL     1       7.432  -5.203  -2.259  1.00  0.00    -0.206 F 
ATOM     88  C   UNL     1       9.201  -6.601  -5.059  1.00  0.00     0.060 A 
BRANCH  88  89
ATOM     89  S   UNL     1       8.801  -7.403  -6.631  1.00  0.00     0.124 S 
ATOM     90  O   UNL     1       9.388  -6.482  -7.597  1.00  0.00    -0.237 OA
ATOM     91  O   UNL     1       9.465  -8.695  -6.495  1.00  0.00    -0.237 OA
ATOM     92  O   UNL     1       7.341  -7.454  -6.621  1.00  0.00    -0.744 OA
ENDBRANCH  88  89
ENDBRANCH  56  81
BRANCH  68  93
ATOM     93  C   UNL     1      12.810  -5.099   3.130  1.00  0.00     0.058 A 
ATOM     94  C   UNL     1      12.187  -3.875   2.828  1.00  0.00     0.135 A 
ATOM     95  C   UNL     1      14.034  -5.037   3.813  1.00  0.00     0.135 A 
ATOM     96  F   UNL     1      10.969  -3.837   2.272  1.00  0.00    -0.206 F 
ATOM     97  C   UNL     1      12.772  -2.649   3.153  1.00  0.00     0.059 A 
ATOM     98  C   UNL     1      14.620  -3.828   4.177  1.00  0.00     0.059 A 
ATOM     99  F   UNL     1      14.652  -6.170   4.188  1.00  0.00    -0.206 F 
ATOM    100  C   UNL     1      13.990  -2.636   3.830  1.00  0.00     0.060 A 
BRANCH 100 101
ATOM    101  S   UNL     1      14.714  -1.053   4.311  1.00  0.00     0.124 S 
ATOM    102  O   UNL     1      15.142  -0.510   3.027  1.00  0.00    -0.237 OA
ATOM    103  O   UNL     1      13.591  -0.370   4.946  1.00  0.00    -0.237 OA
ATOM    104  O   UNL     1      15.794  -1.434   5.219  1.00  0.00    -0.744 OA
ENDBRANCH 100 101
ENDBRANCH  68  93
ENDBRANCH  42  43
ENDBRANCH  34  37
ENDBRANCH  32  33
ENDBRANCH  31  32
ENDBRANCH   1  31
TORSDOF 18
