REMARK SMILES CC1=C(C)C[C@@H](C(=O)N[C@H](C)C(C)(C)C)[C@@H](C(=O)NCCCCNC(=O)c2ccc(-c3c4nc(c(-c5c(F)cc(S(=O)(=O)[O-])cc5F)c5ccc([nH]5)c(-c5c(F)cc(S(=O)(=O)[O-])cc5F)c5nc(c(-c6c(F)cc(S(=O)(=O)[O-])cc6F)c6ccc3[nH]6)C=C5)C=C4)cc2)C1
REMARK SMILES IDX 21 1 20 2 19 3 17 4 18 5 16 7 1 8 2 9 3 10 93 11 4 12 5 13
REMARK SMILES IDX 6 14 7 15 8 16 9 17 10 19 11 20 12 21 13 22 14 23 15 24
REMARK SMILES IDX 22 25 23 26 24 27 25 28 26 30 27 31 28 32 92 33 29 34 91 35
REMARK SMILES IDX 30 36 31 37 32 38 85 39 33 40 90 41 84 42 86 43 34 44 89 45
REMARK SMILES IDX 83 46 82 47 35 49 69 50 48 51 68 52 49 53 52 54 67 55 87 56
REMARK SMILES IDX 50 57 51 58 66 60 88 61 53 62 36 63 37 64 46 65 38 66 39 67
REMARK SMILES IDX 45 68 47 69 40 70 41 71 42 72 43 73 44 74 70 75 71 76 80 77
REMARK SMILES IDX 72 78 73 79 79 80 81 81 74 82 75 83 76 84 77 85 78 86 54 87
REMARK SMILES IDX 55 88 64 89 56 90 57 91 63 92 65 93 58 94 59 95 60 96 61 97
REMARK SMILES IDX 62 98
REMARK H PARENT 19 6 9 18 24 29 86 48 52 59
REMARK Flexibility Score: inf
ROOT
ATOM      1  C   UNL     1      -3.954  -0.662   2.104  1.00  0.00     0.023 C 
ENDROOT
BRANCH   1   2
ATOM      2  C   UNL     1      -4.039  -0.349   0.608  1.00  0.00     0.116 C 
BRANCH   2   3
ATOM      3  N   UNL     1      -2.749  -0.363  -0.070  1.00  0.00    -0.356 N 
ATOM      4  C   UNL     1      -2.161  -1.187  -0.974  1.00  0.00     0.224 C 
ATOM      5  O   UNL     1      -1.180  -0.703  -1.554  1.00  0.00    -0.275 OA
ATOM      6  H   UNL     1      -2.177   0.397   0.183  1.00  0.00     0.163 HD
BRANCH   4   7
ATOM      7  C   UNL     1      -2.574  -2.642  -1.288  1.00  0.00     0.095 C 
ATOM      8  C   UNL     1       0.151  -5.535  -1.171  1.00  0.00     0.039 C 
ATOM      9  C   UNL     1      -1.234  -4.936  -1.177  1.00  0.00    -0.074 C 
ATOM     10  C   UNL     1      -2.356  -5.588  -0.805  1.00  0.00    -0.074 C 
ATOM     11  C   UNL     1      -1.263  -3.462  -1.571  1.00  0.00     0.045 C 
ATOM     12  C   UNL     1      -2.425  -6.983  -0.240  1.00  0.00     0.039 C 
ATOM     13  C   UNL     1      -3.675  -4.847  -0.810  1.00  0.00     0.045 C 
ATOM     14  C   UNL     1      -3.500  -3.394  -0.324  1.00  0.00     0.095 C 
BRANCH  14  15
ATOM     15  C   UNL     1      -3.058  -3.495   1.138  1.00  0.00     0.224 C 
ATOM     16  O   UNL     1      -3.794  -4.005   1.980  1.00  0.00    -0.275 OA
ATOM     17  N   UNL     1      -1.791  -3.043   1.398  1.00  0.00    -0.353 N 
ATOM     18  H   UNL     1      -1.537  -2.202   0.953  1.00  0.00     0.163 HD
BRANCH  17  19
ATOM     19  C   UNL     1      -0.776  -3.640   2.243  1.00  0.00     0.084 C 
ATOM     20  C   UNL     1      -1.065  -5.080   2.691  1.00  0.00     0.031 C 
BRANCH  19  21
ATOM     21  C   UNL     1      -0.191  -2.677   3.323  1.00  0.00    -0.018 C 
ATOM     22  C   UNL     1       1.222  -3.189   3.688  1.00  0.00     0.013 C 
ATOM     23  C   UNL     1      -0.004  -1.236   2.788  1.00  0.00     0.013 C 
ATOM     24  C   UNL     1      -1.071  -2.614   4.580  1.00  0.00     0.013 C 
ENDBRANCH  19  21
ENDBRANCH  17  19
ENDBRANCH  14  15
ENDBRANCH   4   7
ENDBRANCH   2   3
ENDBRANCH   1   2
BRANCH   1  25
ATOM     25  C   UNL     1      -3.678   0.518   3.026  1.00  0.00     0.023 C 
BRANCH  25  26
ATOM     26  C   UNL     1      -4.855   1.454   3.209  1.00  0.00     0.116 C 
BRANCH  26  27
ATOM     27  N   UNL     1      -6.060   0.804   3.716  1.00  0.00    -0.352 N 
ATOM     28  C   UNL     1      -7.020   1.339   4.545  1.00  0.00     0.251 C 
ATOM     29  H   UNL     1      -6.204  -0.127   3.430  1.00  0.00     0.163 HD
ATOM     30  O   UNL     1      -7.968   0.669   4.940  1.00  0.00    -0.269 OA
BRANCH  28  31
ATOM     31  C   UNL     1      -6.836   2.731   4.992  1.00  0.00     0.039 A 
ATOM     32  C   UNL     1      -6.776   3.001   6.360  1.00  0.00     0.014 A 
ATOM     33  C   UNL     1      -6.553   3.719   4.048  1.00  0.00     0.014 A 
ATOM     34  C   UNL     1      -6.342   4.256   6.784  1.00  0.00     0.010 A 
ATOM     35  C   UNL     1      -6.010   4.920   4.473  1.00  0.00     0.010 A 
ATOM     36  C   UNL     1      -5.910   5.205   5.843  1.00  0.00    -0.014 A 
BRANCH  36  37
ATOM     37  C   UNL     1      -5.391   6.530   6.256  1.00  0.00     0.031 A 
ATOM     38  C   UNL     1      -6.108   7.767   5.789  1.00  0.00     0.074 A 
ATOM     39  C   UNL     1      -4.247   6.619   6.963  1.00  0.00     0.049 A 
ATOM     40  N   UNL     1      -5.767   9.021   5.924  1.00  0.00    -0.248 NA
ATOM     41  C   UNL     1      -7.349   7.563   5.021  1.00  0.00     0.031 C 
ATOM     42  C   UNL     1      -3.430   5.487   7.408  1.00  0.00     0.029 A 
ATOM     43  N   UNL     1      -3.567   7.717   7.426  1.00  0.00    -0.354 N 
ATOM     44  C   UNL     1      -6.731   9.746   5.234  1.00  0.00     0.074 A 
ATOM     45  C   UNL     1      -7.624   8.793   4.617  1.00  0.00     0.031 C 
ATOM     46  C   UNL     1      -2.378   5.948   8.106  1.00  0.00     0.029 A 
ATOM     47  C   UNL     1      -2.428   7.407   8.130  1.00  0.00     0.049 A 
ATOM     48  H   UNL     1      -3.867   8.641   7.268  1.00  0.00     0.167 HD
ATOM     49  C   UNL     1      -6.884  11.088   5.156  1.00  0.00     0.037 A 
ATOM     50  C   UNL     1      -1.530   8.213   8.730  1.00  0.00     0.037 A 
ATOM     51  C   UNL     1      -6.025  12.022   5.828  1.00  0.00     0.049 A 
ATOM     52  C   UNL     1      -1.747   9.701   8.674  1.00  0.00     0.074 A 
ATOM     53  C   UNL     1      -6.123  13.400   5.880  1.00  0.00     0.029 A 
ATOM     54  N   UNL     1      -4.915  11.668   6.581  1.00  0.00    -0.354 N 
ATOM     55  N   UNL     1      -2.698  10.372   8.066  1.00  0.00    -0.248 NA
ATOM     56  C   UNL     1      -0.779  10.543   9.389  1.00  0.00     0.031 C 
ATOM     57  C   UNL     1      -5.055  13.881   6.644  1.00  0.00     0.029 A 
ATOM     58  C   UNL     1      -4.314  12.801   7.099  1.00  0.00     0.049 A 
ATOM     59  H   UNL     1      -4.601  10.746   6.726  1.00  0.00     0.167 HD
ATOM     60  C   UNL     1      -2.458  11.712   8.346  1.00  0.00     0.074 A 
ATOM     61  C   UNL     1      -1.278  11.755   9.188  1.00  0.00     0.031 C 
ATOM     62  C   UNL     1      -3.147  12.809   7.944  1.00  0.00     0.037 A 
BRANCH  49  63
ATOM     63  C   UNL     1      -8.036  11.606   4.341  1.00  0.00     0.058 A 
ATOM     64  C   UNL     1      -9.367  11.429   4.753  1.00  0.00     0.135 A 
ATOM     65  C   UNL     1      -7.810  12.282   3.132  1.00  0.00     0.135 A 
ATOM     66  F   UNL     1      -9.641  10.769   5.890  1.00  0.00    -0.206 F 
ATOM     67  C   UNL     1     -10.434  11.868   3.978  1.00  0.00     0.059 A 
ATOM     68  C   UNL     1      -8.863  12.758   2.355  1.00  0.00     0.059 A 
ATOM     69  F   UNL     1      -6.558  12.475   2.687  1.00  0.00    -0.206 F 
ATOM     70  C   UNL     1     -10.172  12.530   2.779  1.00  0.00     0.060 A 
BRANCH  70  71
ATOM     71  S   UNL     1     -11.568  13.092   1.782  1.00  0.00     0.124 S 
ATOM     72  O   UNL     1     -12.039  11.835   1.209  1.00  0.00    -0.237 OA
ATOM     73  O   UNL     1     -12.441  13.698   2.782  1.00  0.00    -0.237 OA
ATOM     74  O   UNL     1     -10.958  14.023   0.839  1.00  0.00    -0.744 OA
ENDBRANCH  70  71
ENDBRANCH  49  63
BRANCH  50  75
ATOM     75  C   UNL     1      -0.378   7.629   9.468  1.00  0.00     0.058 A 
ATOM     76  C   UNL     1      -0.330   7.663  10.870  1.00  0.00     0.135 A 
ATOM     77  C   UNL     1       0.685   7.008   8.794  1.00  0.00     0.135 A 
ATOM     78  F   UNL     1      -1.320   8.249  11.559  1.00  0.00    -0.206 F 
ATOM     79  C   UNL     1       0.736   7.117  11.578  1.00  0.00     0.059 A 
ATOM     80  C   UNL     1       1.752   6.435   9.481  1.00  0.00     0.059 A 
ATOM     81  F   UNL     1       0.680   6.932   7.454  1.00  0.00    -0.206 F 
ATOM     82  C   UNL     1       1.773   6.502  10.874  1.00  0.00     0.060 A 
BRANCH  82  83
ATOM     83  S   UNL     1       3.126   5.749  11.805  1.00  0.00     0.124 S 
ATOM     84  O   UNL     1       3.864   6.925  12.253  1.00  0.00    -0.237 OA
ATOM     85  O   UNL     1       2.412   5.010  12.841  1.00  0.00    -0.237 OA
ATOM     86  O   UNL     1       3.799   4.923  10.807  1.00  0.00    -0.744 OA
ENDBRANCH  82  83
ENDBRANCH  50  75
BRANCH  62  87
ATOM     87  C   UNL     1      -2.663  14.143   8.432  1.00  0.00     0.058 A 
ATOM     88  C   UNL     1      -1.516  14.747   7.897  1.00  0.00     0.135 A 
ATOM     89  C   UNL     1      -3.400  14.856   9.392  1.00  0.00     0.135 A 
ATOM     90  F   UNL     1      -0.777  14.102   6.981  1.00  0.00    -0.206 F 
ATOM     91  C   UNL     1      -1.105  16.009   8.310  1.00  0.00     0.059 A 
ATOM     92  C   UNL     1      -3.021  16.129   9.800  1.00  0.00     0.059 A 
ATOM     93  F   UNL     1      -4.512  14.324   9.924  1.00  0.00    -0.206 F 
ATOM     94  C   UNL     1      -1.866  16.694   9.260  1.00  0.00     0.060 A 
BRANCH  94  95
ATOM     95  S   UNL     1      -1.348  18.351   9.751  1.00  0.00     0.124 S 
ATOM     96  O   UNL     1      -0.212  18.058  10.618  1.00  0.00    -0.237 OA
ATOM     97  O   UNL     1      -1.025  18.972   8.470  1.00  0.00    -0.237 OA
ATOM     98  O   UNL     1      -2.528  18.890  10.422  1.00  0.00    -0.744 OA
ENDBRANCH  94  95
ENDBRANCH  62  87
ENDBRANCH  36  37
ENDBRANCH  28  31
ENDBRANCH  26  27
ENDBRANCH  25  26
ENDBRANCH   1  25
TORSDOF 17
