REMARK SMILES Cc1ccc(C)c(OCc2ccc(C(=O)NCCCCNC(=O)c3ccc(-c4c5nc(c(-c6c(F)cc(S(=O)(=O)[O-])cc6F)c6ccc([nH]6)c(-c6c(F)cc(S(=O)(=O)[O-])cc6F)c6nc(c(-c7c(F)cc(S(=O)(=O)[O-])cc7F)c7ccc4[nH]7)C=C6)C=C5)cc3)cc2)c1C
REMARK SMILES IDX 18 1 17 2 16 3 14 4 15 5 13 7 10 8 11 9 91 10 12 11 90 12
REMARK SMILES IDX 9 13 8 14 7 15 1 16 2 17 3 18 92 19 4 20 93 21 5 22 6 23
REMARK SMILES IDX 19 24 20 25 21 26 22 27 23 29 24 30 25 31 89 32 26 33 88 34
REMARK SMILES IDX 27 35 28 36 29 37 82 38 30 39 87 40 81 41 83 42 31 43 86 44
REMARK SMILES IDX 80 45 79 46 32 48 66 49 45 50 65 51 46 52 49 53 64 54 84 55
REMARK SMILES IDX 47 56 48 57 63 59 85 60 50 61 33 62 34 63 43 64 35 65 36 66
REMARK SMILES IDX 42 67 44 68 37 69 38 70 39 71 40 72 41 73 67 74 68 75 77 76
REMARK SMILES IDX 69 77 70 78 76 79 78 80 71 81 72 82 73 83 74 84 75 85 51 86
REMARK SMILES IDX 52 87 61 88 53 89 54 90 60 91 62 92 55 93 56 94 57 95 58 96
REMARK SMILES IDX 59 97
REMARK H PARENT 16 6 21 28 83 47 49 58
REMARK Flexibility Score: inf
ROOT
ATOM      1  C   UNL     1       4.525   3.641   6.786  1.00  0.00     0.023 C 
ENDROOT
BRANCH   1   2
ATOM      2  C   UNL     1       5.589   2.863   6.011  1.00  0.00     0.116 C 
BRANCH   2   3
ATOM      3  N   UNL     1       5.231   1.468   5.950  1.00  0.00    -0.352 N 
ATOM      4  C   UNL     1       4.335   0.789   5.170  1.00  0.00     0.251 C 
ATOM      5  O   UNL     1       4.167  -0.402   5.442  1.00  0.00    -0.269 OA
ATOM      6  H   UNL     1       5.720   0.899   6.588  1.00  0.00     0.163 HD
BRANCH   4   7
ATOM      7  C   UNL     1       3.618   1.376   3.992  1.00  0.00     0.039 A 
ATOM      8  C   UNL     1       2.477   2.161   1.493  1.00  0.00    -0.011 A 
ATOM      9  C   UNL     1       2.430   0.837   1.936  1.00  0.00     0.008 A 
ATOM     10  C   UNL     1       3.004   3.105   2.382  1.00  0.00     0.008 A 
ATOM     11  C   UNL     1       2.996   0.450   3.152  1.00  0.00     0.014 A 
ATOM     12  C   UNL     1       3.545   2.720   3.619  1.00  0.00     0.014 A 
BRANCH   8  13
ATOM     13  C   UNL     1       2.188   2.584   0.058  1.00  0.00     0.265 C 
BRANCH  13  14
ATOM     14  O   UNL     1       0.993   2.187  -0.613  1.00  0.00    -0.488 OA
BRANCH  14  15
ATOM     15  C   UNL     1       0.632   0.871  -0.685  1.00  0.00     0.125 A 
ATOM     16  C   UNL     1      -2.626  -1.004   0.100  1.00  0.00     0.045 C 
ATOM     17  C   UNL     1      -1.203  -0.690  -0.270  1.00  0.00    -0.044 A 
ATOM     18  C   UNL     1      -0.321  -1.746  -0.526  1.00  0.00     0.004 A 
ATOM     19  C   UNL     1      -0.730   0.633  -0.369  1.00  0.00    -0.006 A 
ATOM     20  C   UNL     1       0.993  -1.500  -0.923  1.00  0.00     0.007 A 
ATOM     21  C   UNL     1      -1.626   1.818  -0.093  1.00  0.00     0.049 C 
ATOM     22  C   UNL     1       1.481  -0.190  -1.049  1.00  0.00    -0.009 A 
ATOM     23  C   UNL     1       2.902  -0.017  -1.504  1.00  0.00     0.048 C 
ENDBRANCH  14  15
ENDBRANCH  13  14
ENDBRANCH   8  13
ENDBRANCH   4   7
ENDBRANCH   2   3
ENDBRANCH   1   2
BRANCH   1  24
ATOM     24  C   UNL     1       4.627   3.478   8.305  1.00  0.00     0.023 C 
BRANCH  24  25
ATOM     25  C   UNL     1       5.963   3.911   8.895  1.00  0.00     0.116 C 
BRANCH  25  26
ATOM     26  N   UNL     1       6.358   5.248   8.477  1.00  0.00    -0.352 N 
ATOM     27  C   UNL     1       7.199   6.122   9.114  1.00  0.00     0.251 C 
ATOM     28  H   UNL     1       5.971   5.565   7.629  1.00  0.00     0.163 HD
ATOM     29  O   UNL     1       7.339   7.266   8.691  1.00  0.00    -0.269 OA
BRANCH  27  30
ATOM     30  C   UNL     1       7.892   5.680  10.337  1.00  0.00     0.039 A 
ATOM     31  C   UNL     1       7.807   6.479  11.477  1.00  0.00     0.014 A 
ATOM     32  C   UNL     1       8.582   4.465  10.364  1.00  0.00     0.014 A 
ATOM     33  C   UNL     1       8.381   6.033  12.665  1.00  0.00     0.010 A 
ATOM     34  C   UNL     1       9.088   3.989  11.568  1.00  0.00     0.010 A 
ATOM     35  C   UNL     1       9.001   4.773  12.726  1.00  0.00    -0.014 A 
BRANCH  35  36
ATOM     36  C   UNL     1       9.568   4.274  14.001  1.00  0.00     0.031 A 
ATOM     37  C   UNL     1      11.049   4.060  14.135  1.00  0.00     0.074 A 
ATOM     38  C   UNL     1       8.738   3.987  15.023  1.00  0.00     0.049 A 
ATOM     39  N   UNL     1      11.731   3.646  15.171  1.00  0.00    -0.248 NA
ATOM     40  C   UNL     1      11.871   4.318  12.941  1.00  0.00     0.031 C 
ATOM     41  C   UNL     1       7.277   4.093  14.981  1.00  0.00     0.029 A 
ATOM     42  N   UNL     1       9.002   3.549  16.295  1.00  0.00    -0.354 N 
ATOM     43  C   UNL     1      13.055   3.588  14.755  1.00  0.00     0.074 A 
ATOM     44  C   UNL     1      13.075   3.949  13.355  1.00  0.00     0.031 C 
ATOM     45  C   UNL     1       6.778   3.764  16.184  1.00  0.00     0.029 A 
ATOM     46  C   UNL     1       7.877   3.398  17.071  1.00  0.00     0.049 A 
ATOM     47  H   UNL     1       9.911   3.361  16.622  1.00  0.00     0.167 HD
ATOM     48  C   UNL     1      14.158   3.291  15.482  1.00  0.00     0.037 A 
ATOM     49  C   UNL     1       7.750   3.015  18.355  1.00  0.00     0.037 A 
ATOM     50  C   UNL     1      14.127   2.956  16.882  1.00  0.00     0.049 A 
ATOM     51  C   UNL     1       8.991   2.712  19.149  1.00  0.00     0.074 A 
ATOM     52  C   UNL     1      15.190   2.696  17.729  1.00  0.00     0.029 A 
ATOM     53  N   UNL     1      12.972   2.834  17.641  1.00  0.00    -0.354 N 
ATOM     54  N   UNL     1      10.245   2.739  18.761  1.00  0.00    -0.248 NA
ATOM     55  C   UNL     1       8.804   2.342  20.558  1.00  0.00     0.031 C 
ATOM     56  C   UNL     1      14.675   2.376  18.990  1.00  0.00     0.029 A 
ATOM     57  C   UNL     1      13.294   2.485  18.942  1.00  0.00     0.049 A 
ATOM     58  H   UNL     1      12.058   2.975  17.305  1.00  0.00     0.167 HD
ATOM     59  C   UNL     1      10.997   2.412  19.884  1.00  0.00     0.074 A 
ATOM     60  C   UNL     1      10.057   2.210  20.968  1.00  0.00     0.031 C 
ATOM     61  C   UNL     1      12.342   2.289  20.007  1.00  0.00     0.037 A 
BRANCH  48  62
ATOM     62  C   UNL     1      15.487   3.326  14.778  1.00  0.00     0.058 A 
ATOM     63  C   UNL     1      16.061   4.533  14.348  1.00  0.00     0.135 A 
ATOM     64  C   UNL     1      16.209   2.143  14.553  1.00  0.00     0.135 A 
ATOM     65  F   UNL     1      15.406   5.693  14.521  1.00  0.00    -0.206 F 
ATOM     66  C   UNL     1      17.288   4.564  13.693  1.00  0.00     0.059 A 
ATOM     67  C   UNL     1      17.452   2.153  13.926  1.00  0.00     0.059 A 
ATOM     68  F   UNL     1      15.707   0.960  14.941  1.00  0.00    -0.206 F 
ATOM     69  C   UNL     1      17.976   3.368  13.486  1.00  0.00     0.060 A 
BRANCH  69  70
ATOM     70  S   UNL     1      19.570   3.426  12.640  1.00  0.00     0.124 S 
ATOM     71  O   UNL     1      19.159   3.690  11.265  1.00  0.00    -0.237 OA
ATOM     72  O   UNL     1      20.244   4.527  13.322  1.00  0.00    -0.237 OA
ATOM     73  O   UNL     1      20.133   2.102  12.884  1.00  0.00    -0.744 OA
ENDBRANCH  69  70
ENDBRANCH  48  62
BRANCH  49  74
ATOM     74  C   UNL     1       6.402   2.938  18.977  1.00  0.00     0.058 A 
ATOM     75  C   UNL     1       5.999   3.867  19.947  1.00  0.00     0.135 A 
ATOM     76  C   UNL     1       5.483   1.946  18.602  1.00  0.00     0.135 A 
ATOM     77  F   UNL     1       6.843   4.833  20.341  1.00  0.00    -0.206 F 
ATOM     78  C   UNL     1       4.741   3.806  20.538  1.00  0.00     0.059 A 
ATOM     79  C   UNL     1       4.210   1.879  19.160  1.00  0.00     0.059 A 
ATOM     80  F   UNL     1       5.812   1.045  17.663  1.00  0.00    -0.206 F 
ATOM     81  C   UNL     1       3.852   2.808  20.136  1.00  0.00     0.060 A 
BRANCH  81  82
ATOM     82  S   UNL     1       2.205   2.766  20.875  1.00  0.00     0.124 S 
ATOM     83  O   UNL     1       2.495   2.255  22.209  1.00  0.00    -0.237 OA
ATOM     84  O   UNL     1       1.799   4.166  20.800  1.00  0.00    -0.237 OA
ATOM     85  O   UNL     1       1.468   1.860  19.998  1.00  0.00    -0.744 OA
ENDBRANCH  81  82
ENDBRANCH  49  74
BRANCH  61  86
ATOM     86  C   UNL     1      12.877   1.946  21.370  1.00  0.00     0.058 A 
ATOM     87  C   UNL     1      12.719   0.667  21.924  1.00  0.00     0.135 A 
ATOM     88  C   UNL     1      13.584   2.903  22.116  1.00  0.00     0.135 A 
ATOM     89  F   UNL     1      12.047  -0.282  21.253  1.00  0.00    -0.206 F 
ATOM     90  C   UNL     1      13.213   0.357  23.186  1.00  0.00     0.059 A 
ATOM     91  C   UNL     1      14.112   2.606  23.368  1.00  0.00     0.059 A 
ATOM     92  F   UNL     1      13.774   4.138  21.627  1.00  0.00    -0.206 F 
ATOM     93  C   UNL     1      13.907   1.335  23.902  1.00  0.00     0.060 A 
BRANCH  93  94
ATOM     94  S   UNL     1      14.555   0.917  25.534  1.00  0.00     0.124 S 
ATOM     95  O   UNL     1      13.341   0.927  26.343  1.00  0.00    -0.237 OA
ATOM     96  O   UNL     1      15.155  -0.394  25.307  1.00  0.00    -0.237 OA
ATOM     97  O   UNL     1      15.503   1.993  25.808  1.00  0.00    -0.744 OA
ENDBRANCH  93  94
ENDBRANCH  61  86
ENDBRANCH  35  36
ENDBRANCH  27  30
ENDBRANCH  25  26
ENDBRANCH  24  25
ENDBRANCH   1  24
TORSDOF 17
