REMARK SMILES O=C1OC(c2ccc(Cl)cc2)=N/C1=C/Nc1ccc(O)c(C(=O)NCCCCNC(=O)c2ccc(-c3c4nc(c(-c5c(F)cc(S(=O)(=O)[O-])cc5F)c5ccc([nH]5)c(-c5c(F)cc(S(=O)(=O)[O-])cc5F)c5nc(c(-c6c(F)cc(S(=O)(=O)[O-])cc6F)c6ccc3[nH]6)C=C5)C=C4)cc2)c1
REMARK SMILES IDX 26 1 25 2 24 3 22 4 23 5 21 7 16 8 17 9 98 10 18 11 19 12
REMARK SMILES IDX 15 13 14 15 1 16 2 17 3 18 13 19 4 20 12 21 5 22 6 23 11 24
REMARK SMILES IDX 7 25 10 26 8 27 9 28 20 29 27 31 28 32 29 33 30 34 31 36
REMARK SMILES IDX 32 37 33 38 97 39 34 40 96 41 35 42 36 43 37 44 90 45 38 46
REMARK SMILES IDX 95 47 89 48 91 49 39 50 94 51 88 52 87 53 40 55 74 56 53 57
REMARK SMILES IDX 73 58 54 59 57 60 72 61 92 62 55 63 56 64 71 66 93 67 58 68
REMARK SMILES IDX 41 69 42 70 51 71 43 72 44 73 50 74 52 75 45 76 46 77 47 78
REMARK SMILES IDX 48 79 49 80 75 81 76 82 85 83 77 84 78 85 84 86 86 87 79 88
REMARK SMILES IDX 80 89 81 90 82 91 83 92 59 93 60 94 69 95 61 96 62 97 68 98
REMARK SMILES IDX 70 99 63 100 64 101 65 102 66 103 67 104
REMARK H PARENT 24 6 15 14 20 30 29 35 91 54 57 65
REMARK Flexibility Score: inf
ROOT
ATOM      1  C   UNL     1      -2.804 -10.134  -0.037  1.00  0.00     0.023 C 
ENDROOT
BRANCH   1   2
ATOM      2  C   UNL     1      -2.086  -9.439  -1.198  1.00  0.00     0.116 C 
BRANCH   2   3
ATOM      3  N   UNL     1      -2.862  -8.305  -1.641  1.00  0.00    -0.352 N 
ATOM      4  C   UNL     1      -2.879  -6.994  -1.248  1.00  0.00     0.255 C 
ATOM      5  O   UNL     1      -3.767  -6.298  -1.752  1.00  0.00    -0.269 OA
ATOM      6  H   UNL     1      -3.500  -8.515  -2.361  1.00  0.00     0.163 HD
BRANCH   4   7
ATOM      7  C   UNL     1      -1.872  -6.329  -0.358  1.00  0.00     0.083 A 
ATOM      8  C   UNL     1      -0.839  -4.140   0.107  1.00  0.00     0.039 A 
ATOM      9  C   UNL     1       0.016  -4.749   1.023  1.00  0.00     0.030 A 
ATOM     10  C   UNL     1      -1.750  -4.941  -0.588  1.00  0.00     0.043 A 
ATOM     11  C   UNL     1      -0.114  -6.102   1.313  1.00  0.00     0.049 A 
ATOM     12  C   UNL     1      -1.074  -6.878   0.653  1.00  0.00     0.128 A 
BRANCH   8  13
ATOM     13  N   UNL     1      -0.773  -2.772  -0.180  1.00  0.00    -0.360 N 
ATOM     14  H   UNL     1      -1.615  -2.331  -0.436  1.00  0.00     0.166 HD
BRANCH  13  15
ATOM     15  C   UNL     1       0.347  -1.989  -0.140  1.00  0.00     0.119 C 
ATOM     16  O   UNL     1      -1.891   0.040   0.002  1.00  0.00    -0.244 OA
ATOM     17  C   UNL     1      -0.702   0.275  -0.010  1.00  0.00     0.365 C 
ATOM     18  O   UNL     1      -0.093   1.493   0.084  1.00  0.00    -0.402 OA
ATOM     19  C   UNL     1       0.452  -0.659  -0.113  1.00  0.00     0.168 C 
ATOM     20  C   UNL     1       1.234   1.251  -0.012  1.00  0.00     0.231 C 
ATOM     21  N   UNL     1       1.633   0.029  -0.134  1.00  0.00    -0.204 NA
BRANCH  20  22
ATOM     22  C   UNL     1       2.081   2.435  -0.028  1.00  0.00     0.037 A 
ATOM     23  C   UNL     1       1.986   3.391   0.986  1.00  0.00     0.015 A 
ATOM     24  C   UNL     1       3.020   2.567  -1.056  1.00  0.00     0.015 A 
ATOM     25  C   UNL     1       2.847   4.489   0.969  1.00  0.00     0.021 A 
ATOM     26  C   UNL     1       3.864   3.676  -1.078  1.00  0.00     0.021 A 
ATOM     27  C   UNL     1       3.778   4.630  -0.063  1.00  0.00     0.041 A 
ATOM     28  Cl  UNL     1       4.834   5.987  -0.081  1.00  0.00    -0.084 Cl
ENDBRANCH  20  22
ENDBRANCH  13  15
ENDBRANCH   8  13
BRANCH  12  29
ATOM     29  O   UNL     1      -1.218  -8.155   1.104  1.00  0.00    -0.507 OA
ATOM     30  H   UNL     1      -0.660  -8.478   1.783  1.00  0.00     0.293 HD
ENDBRANCH  12  29
ENDBRANCH   4   7
ENDBRANCH   2   3
ENDBRANCH   1   2
BRANCH   1  31
ATOM     31  C   UNL     1      -3.854 -11.155  -0.472  1.00  0.00     0.023 C 
BRANCH  31  32
ATOM     32  C   UNL     1      -3.291 -12.343  -1.239  1.00  0.00     0.116 C 
BRANCH  32  33
ATOM     33  N   UNL     1      -2.246 -13.050  -0.512  1.00  0.00    -0.352 N 
ATOM     34  C   UNL     1      -1.954 -14.390  -0.523  1.00  0.00     0.251 C 
ATOM     35  H   UNL     1      -1.673 -12.492   0.063  1.00  0.00     0.163 HD
ATOM     36  O   UNL     1      -1.114 -14.845   0.247  1.00  0.00    -0.269 OA
BRANCH  34  37
ATOM     37  C   UNL     1      -2.696 -15.279  -1.439  1.00  0.00     0.039 A 
ATOM     38  C   UNL     1      -3.239 -16.459  -0.932  1.00  0.00     0.014 A 
ATOM     39  C   UNL     1      -2.894 -14.924  -2.777  1.00  0.00     0.014 A 
ATOM     40  C   UNL     1      -4.034 -17.254  -1.756  1.00  0.00     0.010 A 
ATOM     41  C   UNL     1      -3.759 -15.671  -3.569  1.00  0.00     0.010 A 
ATOM     42  C   UNL     1      -4.334 -16.847  -3.069  1.00  0.00    -0.014 A 
BRANCH  42  43
ATOM     43  C   UNL     1      -5.267 -17.642  -3.906  1.00  0.00     0.031 A 
ATOM     44  C   UNL     1      -4.795 -18.286  -5.180  1.00  0.00     0.074 A 
ATOM     45  C   UNL     1      -6.553 -17.761  -3.520  1.00  0.00     0.049 A 
ATOM     46  N   UNL     1      -5.457 -19.055  -6.007  1.00  0.00    -0.248 NA
ATOM     47  C   UNL     1      -3.410 -18.015  -5.596  1.00  0.00     0.031 C 
ATOM     48  C   UNL     1      -7.145 -17.119  -2.342  1.00  0.00     0.029 A 
ATOM     49  N   UNL     1      -7.594 -18.468  -4.067  1.00  0.00    -0.354 N 
ATOM     50  C   UNL     1      -4.571 -19.359  -7.034  1.00  0.00     0.074 A 
ATOM     51  C   UNL     1      -3.348 -18.637  -6.763  1.00  0.00     0.031 C 
ATOM     52  C   UNL     1      -8.426 -17.500  -2.229  1.00  0.00     0.029 A 
ATOM     53  C   UNL     1      -8.761 -18.380  -3.344  1.00  0.00     0.049 A 
ATOM     54  H   UNL     1      -7.513 -18.988  -4.899  1.00  0.00     0.167 HD
ATOM     55  C   UNL     1      -4.752 -20.188  -8.090  1.00  0.00     0.037 A 
ATOM     56  C   UNL     1      -9.963 -18.949  -3.553  1.00  0.00     0.037 A 
ATOM     57  C   UNL     1      -5.974 -20.908  -8.346  1.00  0.00     0.049 A 
ATOM     58  C   UNL     1     -10.138 -19.867  -4.732  1.00  0.00     0.074 A 
ATOM     59  C   UNL     1      -6.242 -21.816  -9.355  1.00  0.00     0.029 A 
ATOM     60  N   UNL     1      -7.135 -20.794  -7.594  1.00  0.00    -0.354 N 
ATOM     61  N   UNL     1      -9.261 -20.215  -5.645  1.00  0.00    -0.248 NA
ATOM     62  C   UNL     1     -11.461 -20.481  -4.902  1.00  0.00     0.031 C 
ATOM     63  C   UNL     1      -7.582 -22.206  -9.249  1.00  0.00     0.029 A 
ATOM     64  C   UNL     1      -8.132 -21.592  -8.135  1.00  0.00     0.049 A 
ATOM     65  H   UNL     1      -7.237 -20.230  -6.794  1.00  0.00     0.167 HD
ATOM     66  C   UNL     1      -9.922 -21.102  -6.487  1.00  0.00     0.074 A 
ATOM     67  C   UNL     1     -11.260 -21.261  -5.954  1.00  0.00     0.031 C 
ATOM     68  C   UNL     1      -9.465 -21.728  -7.602  1.00  0.00     0.037 A 
BRANCH  55  69
ATOM     69  C   UNL     1      -3.602 -20.362  -9.048  1.00  0.00     0.058 A 
ATOM     70  C   UNL     1      -2.419 -21.020  -8.672  1.00  0.00     0.135 A 
ATOM     71  C   UNL     1      -3.697 -19.898 -10.370  1.00  0.00     0.135 A 
ATOM     72  F   UNL     1      -2.265 -21.470  -7.416  1.00  0.00    -0.206 F 
ATOM     73  C   UNL     1      -1.362 -21.185  -9.561  1.00  0.00     0.059 A 
ATOM     74  C   UNL     1      -2.664 -20.082 -11.287  1.00  0.00     0.059 A 
ATOM     75  F   UNL     1      -4.802 -19.260 -10.786  1.00  0.00    -0.206 F 
ATOM     76  C   UNL     1      -1.495 -20.715 -10.868  1.00  0.00     0.060 A 
BRANCH  76  77
ATOM     77  S   UNL     1      -0.117 -20.948 -12.011  1.00  0.00     0.124 S 
ATOM     78  O   UNL     1       0.867 -20.012 -11.476  1.00  0.00    -0.237 OA
ATOM     79  O   UNL     1       0.195 -22.363 -11.835  1.00  0.00    -0.237 OA
ATOM     80  O   UNL     1      -0.684 -20.590 -13.307  1.00  0.00    -0.744 OA
ENDBRANCH  76  77
ENDBRANCH  55  69
BRANCH  56  81
ATOM     81  C   UNL     1     -11.085 -18.687  -2.610  1.00  0.00     0.058 A 
ATOM     82  C   UNL     1     -11.585 -19.699  -1.777  1.00  0.00     0.135 A 
ATOM     83  C   UNL     1     -11.672 -17.415  -2.515  1.00  0.00     0.135 A 
ATOM     84  F   UNL     1     -11.062 -20.933  -1.832  1.00  0.00    -0.206 F 
ATOM     85  C   UNL     1     -12.638 -19.467  -0.898  1.00  0.00     0.059 A 
ATOM     86  C   UNL     1     -12.705 -17.150  -1.623  1.00  0.00     0.059 A 
ATOM     87  F   UNL     1     -11.220 -16.407  -3.277  1.00  0.00    -0.206 F 
ATOM     88  C   UNL     1     -13.190 -18.186  -0.826  1.00  0.00     0.060 A 
BRANCH  88  89
ATOM     89  S   UNL     1     -14.525 -17.884   0.352  1.00  0.00     0.124 S 
ATOM     90  O   UNL     1     -15.632 -18.604  -0.267  1.00  0.00    -0.237 OA
ATOM     91  O   UNL     1     -13.988 -18.468   1.577  1.00  0.00    -0.237 OA
ATOM     92  O   UNL     1     -14.643 -16.429   0.359  1.00  0.00    -0.744 OA
ENDBRANCH  88  89
ENDBRANCH  56  81
BRANCH  68  93
ATOM     93  C   UNL     1     -10.422 -22.654  -8.306  1.00  0.00     0.058 A 
ATOM     94  C   UNL     1     -11.557 -22.174  -8.980  1.00  0.00     0.135 A 
ATOM     95  C   UNL     1     -10.197 -24.041  -8.313  1.00  0.00     0.135 A 
ATOM     96  F   UNL     1     -11.822 -20.858  -9.004  1.00  0.00    -0.206 F 
ATOM     97  C   UNL     1     -12.461 -23.038  -9.589  1.00  0.00     0.059 A 
ATOM     98  C   UNL     1     -11.068 -24.920  -8.948  1.00  0.00     0.059 A 
ATOM     99  F   UNL     1      -9.119 -24.555  -7.699  1.00  0.00    -0.206 F 
ATOM    100  C   UNL     1     -12.210 -24.410  -9.563  1.00  0.00     0.060 A 
BRANCH 100 101
ATOM    101  S   UNL     1     -13.397 -25.521 -10.348  1.00  0.00     0.124 S 
ATOM    102  O   UNL     1     -14.511 -25.471  -9.408  1.00  0.00    -0.237 OA
ATOM    103  O   UNL     1     -13.625 -24.874 -11.636  1.00  0.00    -0.237 OA
ATOM    104  O   UNL     1     -12.683 -26.793 -10.409  1.00  0.00    -0.744 OA
ENDBRANCH 100 101
ENDBRANCH  68  93
ENDBRANCH  42  43
ENDBRANCH  34  37
ENDBRANCH  32  33
ENDBRANCH  31  32
ENDBRANCH   1  31
TORSDOF 18
