REMARK SMILES CCOC(=O)c1c(-c2cccc3ccccc23)csc1NC(=O)[C@H]1CC=CC[C@H]1C(=O)NCCCCNC(=O)c1ccc(-c2c3nc(c(-c4c(F)cc(S(=O)(=O)[O-])cc4F)c4ccc([nH]4)c(-c4c(F)cc(S(=O)(=O)[O-])cc4F)c4nc(c(-c5c(F)cc(S(=O)(=O)[O-])cc5F)c5ccc2[nH]5)C=C4)C=C3)cc1
REMARK SMILES IDX 33 1 32 2 30 3 31 4 29 6 24 7 25 8 26 9 28 10 27 11 22 12
REMARK SMILES IDX 21 13 23 15 20 16 6 17 7 18 18 19 19 20 4 21 5 22 3 23 2 24
REMARK SMILES IDX 1 25 8 26 9 27 17 28 10 29 12 30 16 31 11 32 13 33 15 34
REMARK SMILES IDX 14 35 34 36 35 37 36 38 37 39 38 40 39 42 40 43 41 44 105 45
REMARK SMILES IDX 42 46 104 47 43 48 44 49 45 50 98 51 46 52 103 53 97 54
REMARK SMILES IDX 99 55 47 56 102 57 96 58 95 59 48 61 82 62 61 63 81 64 62 65
REMARK SMILES IDX 65 66 80 67 100 68 63 69 64 70 79 72 101 73 66 74 49 75
REMARK SMILES IDX 50 76 59 77 51 78 52 79 58 80 60 81 53 82 54 83 55 84 56 85
REMARK SMILES IDX 57 86 83 87 84 88 93 89 85 90 86 91 92 92 94 93 87 94 88 95
REMARK SMILES IDX 89 96 90 97 91 98 67 99 68 100 77 101 69 102 70 103 76 104
REMARK SMILES IDX 78 105 71 106 72 107 73 108 74 109 75 110
REMARK H PARENT 32 5 21 14 37 41 99 60 65 71
REMARK Flexibility Score: inf
ROOT
ATOM      1  C   UNL     1       4.486   0.637   5.162  1.00  0.00     0.116 C 
ENDROOT
BRANCH   1   2
ATOM      2  N   UNL     1       4.065  -0.101   6.335  1.00  0.00    -0.356 N 
ATOM      3  C   UNL     1       4.592  -1.168   6.978  1.00  0.00     0.224 C 
ATOM      4  O   UNL     1       3.895  -1.659   7.875  1.00  0.00    -0.275 OA
ATOM      5  H   UNL     1       3.237   0.240   6.743  1.00  0.00     0.163 HD
BRANCH   3   6
ATOM      6  C   UNL     1       5.942  -1.804   6.660  1.00  0.00     0.095 C 
ATOM      7  C   UNL     1       5.925  -2.825   5.503  1.00  0.00     0.095 C 
ATOM      8  C   UNL     1       7.214  -3.673   5.552  1.00  0.00     0.041 C 
ATOM      9  C   UNL     1       8.455  -2.890   5.904  1.00  0.00    -0.030 C 
ATOM     10  C   UNL     1       7.169  -0.893   6.717  1.00  0.00     0.041 C 
ATOM     11  C   UNL     1       8.435  -1.645   6.407  1.00  0.00    -0.030 C 
BRANCH   7  12
ATOM     12  C   UNL     1       5.834  -2.225   4.106  1.00  0.00     0.229 C 
ATOM     13  N   UNL     1       4.928  -2.609   3.164  1.00  0.00    -0.317 N 
ATOM     14  H   UNL     1       4.955  -2.034   2.365  1.00  0.00     0.170 HD
ATOM     15  O   UNL     1       6.596  -1.311   3.766  1.00  0.00    -0.274 OA
BRANCH  13  16
ATOM     16  C   UNL     1       3.980  -3.608   3.059  1.00  0.00     0.110 A 
ATOM     17  C   UNL     1       2.930  -3.626   2.145  1.00  0.00     0.102 A 
ATOM     18  C   UNL     1       2.253  -4.904   2.160  1.00  0.00     0.010 A 
ATOM     19  C   UNL     1       2.745  -5.734   3.147  1.00  0.00     0.076 A 
ATOM     20  S   UNL     1       4.063  -5.034   3.968  1.00  0.00    -0.125 S 
BRANCH  17  21
ATOM     21  C   UNL     1       2.639  -2.506   1.245  1.00  0.00     0.341 C 
ATOM     22  O   UNL     1       3.506  -1.723   0.873  1.00  0.00    -0.246 OA
BRANCH  21  23
ATOM     23  O   UNL     1       1.327  -2.440   0.891  1.00  0.00    -0.462 OA
BRANCH  23  24
ATOM     24  C   UNL     1       0.980  -1.567  -0.196  1.00  0.00     0.230 C 
ATOM     25  C   UNL     1       0.910  -0.111   0.224  1.00  0.00     0.049 C 
ENDBRANCH  23  24
ENDBRANCH  21  23
ENDBRANCH  17  21
BRANCH  18  26
ATOM     26  C   UNL     1       1.259  -5.399   1.206  1.00  0.00    -0.009 A 
ATOM     27  C   UNL     1      -0.040  -5.660   1.667  1.00  0.00     0.009 A 
ATOM     28  C   UNL     1       1.593  -5.586  -0.170  1.00  0.00    -0.010 A 
ATOM     29  C   UNL     1      -1.020  -6.099   0.783  1.00  0.00     0.001 A 
ATOM     30  C   UNL     1       0.575  -6.015  -1.056  1.00  0.00    -0.018 A 
ATOM     31  C   UNL     1       2.883  -5.367  -0.719  1.00  0.00     0.009 A 
ATOM     32  C   UNL     1      -0.715  -6.271  -0.566  1.00  0.00     0.009 A 
ATOM     33  C   UNL     1       0.856  -6.178  -2.424  1.00  0.00     0.009 A 
ATOM     34  C   UNL     1       3.145  -5.523  -2.081  1.00  0.00     0.001 A 
ATOM     35  C   UNL     1       2.129  -5.926  -2.935  1.00  0.00     0.001 A 
ENDBRANCH  18  26
ENDBRANCH  13  16
ENDBRANCH   7  12
ENDBRANCH   3   6
ENDBRANCH   1   2
BRANCH   1  36
ATOM     36  C   UNL     1       3.669   0.220   3.943  1.00  0.00     0.023 C 
BRANCH  36  37
ATOM     37  C   UNL     1       2.366   0.977   3.739  1.00  0.00     0.023 C 
BRANCH  37  38
ATOM     38  C   UNL     1       2.509   2.475   3.525  1.00  0.00     0.116 C 
BRANCH  38  39
ATOM     39  N   UNL     1       3.443   2.849   2.472  1.00  0.00    -0.352 N 
ATOM     40  C   UNL     1       3.370   3.923   1.613  1.00  0.00     0.251 C 
ATOM     41  H   UNL     1       4.224   2.261   2.360  1.00  0.00     0.163 HD
ATOM     42  O   UNL     1       4.215   4.086   0.740  1.00  0.00    -0.269 OA
BRANCH  40  43
ATOM     43  C   UNL     1       2.220   4.845   1.722  1.00  0.00     0.039 A 
ATOM     44  C   UNL     1       1.470   5.123   0.577  1.00  0.00     0.014 A 
ATOM     45  C   UNL     1       1.830   5.348   2.965  1.00  0.00     0.014 A 
ATOM     46  C   UNL     1       0.272   5.828   0.696  1.00  0.00     0.010 A 
ATOM     47  C   UNL     1       0.596   5.973   3.093  1.00  0.00     0.010 A 
ATOM     48  C   UNL     1      -0.199   6.211   1.962  1.00  0.00    -0.014 A 
BRANCH  48  49
ATOM     49  C   UNL     1      -1.528   6.847   2.136  1.00  0.00     0.031 A 
ATOM     50  C   UNL     1      -1.625   8.232   2.712  1.00  0.00     0.074 A 
ATOM     51  C   UNL     1      -2.645   6.138   1.881  1.00  0.00     0.049 A 
ATOM     52  N   UNL     1      -2.688   8.910   3.056  1.00  0.00    -0.248 NA
ATOM     53  C   UNL     1      -0.355   8.927   2.980  1.00  0.00     0.031 C 
ATOM     54  C   UNL     1      -2.682   4.754   1.402  1.00  0.00     0.029 A 
ATOM     55  N   UNL     1      -3.968   6.478   2.010  1.00  0.00    -0.354 N 
ATOM     56  C   UNL     1      -2.217  10.089   3.620  1.00  0.00     0.074 A 
ATOM     57  C   UNL     1      -0.772  10.018   3.605  1.00  0.00     0.031 C 
ATOM     58  C   UNL     1      -3.962   4.369   1.263  1.00  0.00     0.029 A 
ATOM     59  C   UNL     1      -4.834   5.467   1.667  1.00  0.00     0.049 A 
ATOM     60  H   UNL     1      -4.269   7.362   2.320  1.00  0.00     0.167 HD
ATOM     61  C   UNL     1      -2.924  11.143   4.092  1.00  0.00     0.037 A 
ATOM     62  C   UNL     1      -6.180   5.429   1.678  1.00  0.00     0.037 A 
ATOM     63  C   UNL     1      -4.358  11.236   4.043  1.00  0.00     0.049 A 
ATOM     64  C   UNL     1      -6.944   6.650   2.105  1.00  0.00     0.074 A 
ATOM     65  C   UNL     1      -5.165  12.302   4.398  1.00  0.00     0.029 A 
ATOM     66  N   UNL     1      -5.199  10.226   3.599  1.00  0.00    -0.354 N 
ATOM     67  N   UNL     1      -6.482   7.788   2.563  1.00  0.00    -0.248 NA
ATOM     68  C   UNL     1      -8.409   6.588   2.006  1.00  0.00     0.031 C 
ATOM     69  C   UNL     1      -6.498  11.930   4.183  1.00  0.00     0.029 A 
ATOM     70  C   UNL     1      -6.517  10.641   3.673  1.00  0.00     0.049 A 
ATOM     71  H   UNL     1      -4.901   9.344   3.278  1.00  0.00     0.167 HD
ATOM     72  C   UNL     1      -7.597   8.584   2.796  1.00  0.00     0.074 A 
ATOM     73  C   UNL     1      -8.756   7.802   2.416  1.00  0.00     0.031 C 
ATOM     74  C   UNL     1      -7.655   9.848   3.283  1.00  0.00     0.037 A 
BRANCH  61  75
ATOM     75  C   UNL     1      -2.145  12.278   4.691  1.00  0.00     0.058 A 
ATOM     76  C   UNL     1      -1.393  13.155   3.893  1.00  0.00     0.135 A 
ATOM     77  C   UNL     1      -2.139  12.484   6.079  1.00  0.00     0.135 A 
ATOM     78  F   UNL     1      -1.351  12.989   2.561  1.00  0.00    -0.206 F 
ATOM     79  C   UNL     1      -0.628  14.172   4.453  1.00  0.00     0.059 A 
ATOM     80  C   UNL     1      -1.399  13.510   6.660  1.00  0.00     0.059 A 
ATOM     81  F   UNL     1      -2.840  11.673   6.886  1.00  0.00    -0.206 F 
ATOM     82  C   UNL     1      -0.629  14.335   5.839  1.00  0.00     0.060 A 
BRANCH  82  83
ATOM     83  S   UNL     1       0.387  15.640   6.563  1.00  0.00     0.124 S 
ATOM     84  O   UNL     1       1.704  15.010   6.567  1.00  0.00    -0.237 OA
ATOM     85  O   UNL     1       0.214  16.738   5.618  1.00  0.00    -0.237 OA
ATOM     86  O   UNL     1      -0.216  15.847   7.875  1.00  0.00    -0.744 OA
ENDBRANCH  82  83
ENDBRANCH  61  75
BRANCH  62  87
ATOM     87  C   UNL     1      -6.883   4.201   1.230  1.00  0.00     0.058 A 
ATOM     88  C   UNL     1      -7.472   4.134  -0.041  1.00  0.00     0.135 A 
ATOM     89  C   UNL     1      -6.938   3.057   2.040  1.00  0.00     0.135 A 
ATOM     90  F   UNL     1      -7.446   5.206  -0.848  1.00  0.00    -0.206 F 
ATOM     91  C   UNL     1      -8.094   2.977  -0.495  1.00  0.00     0.059 A 
ATOM     92  C   UNL     1      -7.541   1.882   1.602  1.00  0.00     0.059 A 
ATOM     93  F   UNL     1      -6.372   3.067   3.257  1.00  0.00    -0.206 F 
ATOM     94  C   UNL     1      -8.120   1.853   0.333  1.00  0.00     0.060 A 
BRANCH  94  95
ATOM     95  S   UNL     1      -8.855   0.326  -0.295  1.00  0.00     0.124 S 
ATOM     96  O   UNL     1     -10.278   0.593  -0.123  1.00  0.00    -0.237 OA
ATOM     97  O   UNL     1      -8.373   0.292  -1.672  1.00  0.00    -0.237 OA
ATOM     98  O   UNL     1      -8.291  -0.698   0.580  1.00  0.00    -0.744 OA
ENDBRANCH  94  95
ENDBRANCH  62  87
BRANCH  74  99
ATOM     99  C   UNL     1      -9.013  10.470   3.416  1.00  0.00     0.058 A 
ATOM    100  C   UNL     1      -9.866  10.140   4.480  1.00  0.00     0.135 A 
ATOM    101  C   UNL     1      -9.442  11.445   2.502  1.00  0.00     0.135 A 
ATOM    102  F   UNL     1      -9.501   9.208   5.374  1.00  0.00    -0.206 F 
ATOM    103  C   UNL     1     -11.107  10.749   4.628  1.00  0.00     0.059 A 
ATOM    104  C   UNL     1     -10.672  12.079   2.641  1.00  0.00     0.059 A 
ATOM    105  F   UNL     1      -8.657  11.798   1.472  1.00  0.00    -0.206 F 
ATOM    106  C   UNL     1     -11.501  11.718   3.702  1.00  0.00     0.060 A 
BRANCH 106 107
ATOM    107  S   UNL     1     -13.096  12.535   3.923  1.00  0.00     0.124 S 
ATOM    108  O   UNL     1     -14.013  11.538   3.382  1.00  0.00    -0.237 OA
ATOM    109  O   UNL     1     -13.155  12.733   5.368  1.00  0.00    -0.237 OA
ATOM    110  O   UNL     1     -12.959  13.757   3.136  1.00  0.00    -0.744 OA
ENDBRANCH 106 107
ENDBRANCH  74  99
ENDBRANCH  48  49
ENDBRANCH  40  43
ENDBRANCH  38  39
ENDBRANCH  37  38
ENDBRANCH  36  37
ENDBRANCH   1  36
TORSDOF 20
