REMARK SMILES Cc1ccc(S(=O)(=O)N2C[C@@H](CC(=O)NCCCCNC(=O)c3ccc(-c4c5nc(c(-c6c(F)cc(S(=O)(=O)[O-])cc6F)c6ccc([nH]6)c(-c6c(F)cc(S(=O)(=O)[O-])cc6F)c6nc(c(-c7c(F)cc(S(=O)(=O)[O-])cc7F)c7ccc4[nH]7)C=C6)C=C5)cc3)c3ccccc32)c(C)c1
REMARK SMILES IDX 17 1 16 2 15 3 13 4 14 5 12 7 11 8 9 9 10 10 94 11 89 12
REMARK SMILES IDX 93 13 90 14 92 15 91 16 6 17 7 18 8 19 5 20 1 21 2 22 3 23
REMARK SMILES IDX 97 24 4 25 95 26 96 27 18 28 19 29 20 30 21 31 22 33 23 34
REMARK SMILES IDX 24 35 88 36 25 37 87 38 26 39 27 40 28 41 81 42 29 43 86 44
REMARK SMILES IDX 80 45 82 46 30 47 85 48 79 49 78 50 31 52 65 53 44 54 64 55
REMARK SMILES IDX 45 56 48 57 63 58 83 59 46 60 47 61 62 63 84 64 49 65 32 66
REMARK SMILES IDX 33 67 42 68 34 69 35 70 41 71 43 72 36 73 37 74 38 75 39 76
REMARK SMILES IDX 40 77 66 78 67 79 76 80 68 81 69 82 75 83 77 84 70 85 71 86
REMARK SMILES IDX 72 87 73 88 74 89 50 90 51 91 60 92 52 93 53 94 59 95 61 96
REMARK SMILES IDX 54 97 55 98 56 99 57 100 58 101
REMARK H PARENT 15 6 20 32 82 51 48 62
REMARK Flexibility Score: inf
ROOT
ATOM      1  C   UNL     1      -0.196  -7.668   1.881  1.00  0.00     0.023 C 
ENDROOT
BRANCH   1   2
ATOM      2  C   UNL     1       0.238  -7.922   0.446  1.00  0.00     0.116 C 
BRANCH   2   3
ATOM      3  N   UNL     1      -0.825  -8.623  -0.253  1.00  0.00    -0.356 N 
ATOM      4  C   UNL     1      -1.961  -8.090  -0.794  1.00  0.00     0.220 C 
ATOM      5  O   UNL     1      -2.915  -8.831  -1.030  1.00  0.00    -0.275 OA
ATOM      6  H   UNL     1      -0.714  -9.597  -0.347  1.00  0.00     0.163 HD
BRANCH   4   7
ATOM      7  C   UNL     1      -1.998  -6.626  -1.178  1.00  0.00     0.110 C 
BRANCH   7   8
ATOM      8  C   UNL     1      -3.063  -5.785  -0.451  1.00  0.00     0.051 C 
ATOM      9  N   UNL     1      -2.189  -3.509  -0.479  1.00  0.00    -0.265 N 
ATOM     10  C   UNL     1      -3.178  -4.422  -1.170  1.00  0.00     0.144 C 
ATOM     11  C   UNL     1      -2.052  -4.046   0.850  1.00  0.00     0.055 A 
ATOM     12  C   UNL     1      -2.663  -5.300   0.917  1.00  0.00    -0.018 A 
ATOM     13  C   UNL     1      -1.410  -3.502   1.952  1.00  0.00     0.027 A 
ATOM     14  C   UNL     1      -2.848  -5.917   2.144  1.00  0.00     0.006 A 
ATOM     15  C   UNL     1      -1.495  -4.178   3.171  1.00  0.00     0.002 A 
ATOM     16  C   UNL     1      -2.244  -5.356   3.275  1.00  0.00     0.000 A 
BRANCH   9  17
ATOM     17  S   UNL     1      -2.644  -1.857  -0.597  1.00  0.00     0.264 S 
ATOM     18  O   UNL     1      -3.540  -1.571   0.502  1.00  0.00    -0.201 OA
ATOM     19  O   UNL     1      -3.046  -1.617  -1.972  1.00  0.00    -0.201 OA
BRANCH  17  20
ATOM     20  C   UNL     1      -1.143  -0.919  -0.371  1.00  0.00     0.090 A 
ATOM     21  C   UNL     1       2.549   1.259   0.070  1.00  0.00     0.044 C 
ATOM     22  C   UNL     1       1.270   0.487  -0.064  1.00  0.00    -0.051 A 
ATOM     23  C   UNL     1       1.287  -0.881  -0.337  1.00  0.00     0.005 A 
ATOM     24  C   UNL     1       0.039   1.149   0.035  1.00  0.00     0.008 A 
ATOM     25  C   UNL     1       0.090  -1.578  -0.501  1.00  0.00     0.023 A 
ATOM     26  C   UNL     1      -1.184   0.464  -0.110  1.00  0.00    -0.030 A 
ATOM     27  C   UNL     1      -2.437   1.296  -0.060  1.00  0.00     0.046 C 
ENDBRANCH  17  20
ENDBRANCH   9  17
ENDBRANCH   7   8
ENDBRANCH   4   7
ENDBRANCH   2   3
ENDBRANCH   1   2
BRANCH   1  28
ATOM     28  C   UNL     1       0.212  -8.713   2.899  1.00  0.00     0.023 C 
BRANCH  28  29
ATOM     29  C   UNL     1       1.698  -8.749   3.176  1.00  0.00     0.116 C 
BRANCH  29  30
ATOM     30  N   UNL     1       2.237  -7.491   3.680  1.00  0.00    -0.352 N 
ATOM     31  C   UNL     1       3.123  -7.285   4.714  1.00  0.00     0.251 C 
ATOM     32  H   UNL     1       1.925  -6.680   3.218  1.00  0.00     0.163 HD
ATOM     33  O   UNL     1       3.408  -6.144   5.065  1.00  0.00    -0.269 OA
BRANCH  31  34
ATOM     34  C   UNL     1       3.678  -8.456   5.425  1.00  0.00     0.039 A 
ATOM     35  C   UNL     1       3.716  -8.454   6.819  1.00  0.00     0.014 A 
ATOM     36  C   UNL     1       4.053  -9.596   4.714  1.00  0.00     0.014 A 
ATOM     37  C   UNL     1       4.041  -9.632   7.494  1.00  0.00     0.010 A 
ATOM     38  C   UNL     1       4.212 -10.798   5.384  1.00  0.00     0.010 A 
ATOM     39  C   UNL     1       4.234 -10.830   6.783  1.00  0.00    -0.014 A 
BRANCH  39  40
ATOM     40  C   UNL     1       4.478 -12.118   7.482  1.00  0.00     0.031 A 
ATOM     41  C   UNL     1       5.723 -12.915   7.181  1.00  0.00     0.074 A 
ATOM     42  C   UNL     1       3.556 -12.594   8.345  1.00  0.00     0.049 A 
ATOM     43  N   UNL     1       6.108 -14.062   7.678  1.00  0.00    -0.248 NA
ATOM     44  C   UNL     1       6.634 -12.380   6.154  1.00  0.00     0.031 C 
ATOM     45  C   UNL     1       2.266 -11.964   8.644  1.00  0.00     0.029 A 
ATOM     46  N   UNL     1       3.563 -13.715   9.135  1.00  0.00    -0.354 N 
ATOM     47  C   UNL     1       7.287 -14.385   7.014  1.00  0.00     0.074 A 
ATOM     48  C   UNL     1       7.507 -13.365   6.017  1.00  0.00     0.031 C 
ATOM     49  C   UNL     1       1.637 -12.673   9.595  1.00  0.00     0.029 A 
ATOM     50  C   UNL     1       2.456 -13.827   9.945  1.00  0.00     0.049 A 
ATOM     51  H   UNL     1       4.291 -14.377   9.124  1.00  0.00     0.167 HD
ATOM     52  C   UNL     1       8.137 -15.413   7.244  1.00  0.00     0.037 A 
ATOM     53  C   UNL     1       2.145 -14.751  10.875  1.00  0.00     0.037 A 
ATOM     54  C   UNL     1       7.930 -16.401   8.269  1.00  0.00     0.049 A 
ATOM     55  C   UNL     1       3.126 -15.860  11.145  1.00  0.00     0.074 A 
ATOM     56  C   UNL     1       8.757 -17.447   8.637  1.00  0.00     0.029 A 
ATOM     57  N   UNL     1       6.816 -16.460   9.094  1.00  0.00    -0.354 N 
ATOM     58  N   UNL     1       4.278 -16.103  10.564  1.00  0.00    -0.248 NA
ATOM     59  C   UNL     1       2.774 -16.809  12.208  1.00  0.00     0.031 C 
ATOM     60  C   UNL     1       8.119 -18.168   9.652  1.00  0.00     0.029 A 
ATOM     61  C   UNL     1       6.925 -17.535   9.959  1.00  0.00     0.049 A 
ATOM     62  H   UNL     1       6.060 -15.830   9.068  1.00  0.00     0.167 HD
ATOM     63  C   UNL     1       4.801 -17.218  11.210  1.00  0.00     0.074 A 
ATOM     64  C   UNL     1       3.850 -17.583  12.240  1.00  0.00     0.031 C 
ATOM     65  C   UNL     1       5.962 -17.881  10.975  1.00  0.00     0.037 A 
BRANCH  52  66
ATOM     66  C   UNL     1       9.373 -15.503   6.387  1.00  0.00     0.058 A 
ATOM     67  C   UNL     1      10.400 -14.547   6.467  1.00  0.00     0.135 A 
ATOM     68  C   UNL     1       9.543 -16.567   5.487  1.00  0.00     0.135 A 
ATOM     69  F   UNL     1      10.284 -13.495   7.293  1.00  0.00    -0.206 F 
ATOM     70  C   UNL     1      11.534 -14.624   5.665  1.00  0.00     0.059 A 
ATOM     71  C   UNL     1      10.685 -16.684   4.699  1.00  0.00     0.059 A 
ATOM     72  F   UNL     1       8.593 -17.507   5.364  1.00  0.00    -0.206 F 
ATOM     73  C   UNL     1      11.668 -15.699   4.785  1.00  0.00     0.060 A 
BRANCH  73  74
ATOM     74  S   UNL     1      13.152 -15.791   3.762  1.00  0.00     0.124 S 
ATOM     75  O   UNL     1      12.918 -14.707   2.812  1.00  0.00    -0.237 OA
ATOM     76  O   UNL     1      14.215 -15.562   4.735  1.00  0.00    -0.237 OA
ATOM     77  O   UNL     1      13.097 -17.138   3.202  1.00  0.00    -0.744 OA
ENDBRANCH  73  74
ENDBRANCH  52  66
BRANCH  53  78
ATOM     78  C   UNL     1       0.878 -14.637  11.650  1.00  0.00     0.058 A 
ATOM     79  C   UNL     1       0.891 -14.325  13.018  1.00  0.00     0.135 A 
ATOM     80  C   UNL     1      -0.371 -14.827  11.038  1.00  0.00     0.135 A 
ATOM     81  F   UNL     1       2.058 -14.135  13.652  1.00  0.00    -0.206 F 
ATOM     82  C   UNL     1      -0.284 -14.228  13.758  1.00  0.00     0.059 A 
ATOM     83  C   UNL     1      -1.561 -14.707  11.749  1.00  0.00     0.059 A 
ATOM     84  F   UNL     1      -0.442 -15.107   9.727  1.00  0.00    -0.206 F 
ATOM     85  C   UNL     1      -1.507 -14.419  13.112  1.00  0.00     0.060 A 
BRANCH  85  86
ATOM     86  S   UNL     1      -3.028 -14.248  14.071  1.00  0.00     0.124 S 
ATOM     87  O   UNL     1      -2.997 -15.455  14.889  1.00  0.00    -0.237 OA
ATOM     88  O   UNL     1      -2.804 -12.991  14.778  1.00  0.00    -0.237 OA
ATOM     89  O   UNL     1      -4.067 -14.206  13.046  1.00  0.00    -0.744 OA
ENDBRANCH  85  86
ENDBRANCH  53  78
BRANCH  65  90
ATOM     90  C   UNL     1       6.276 -19.045  11.873  1.00  0.00     0.058 A 
ATOM     91  C   UNL     1       5.542 -20.241  11.822  1.00  0.00     0.135 A 
ATOM     92  C   UNL     1       7.335 -18.964  12.793  1.00  0.00     0.135 A 
ATOM     93  F   UNL     1       4.521 -20.371  10.961  1.00  0.00    -0.206 F 
ATOM     94  C   UNL     1       5.811 -21.294  12.689  1.00  0.00     0.059 A 
ATOM     95  C   UNL     1       7.645 -20.019  13.643  1.00  0.00     0.059 A 
ATOM     96  F   UNL     1       8.082 -17.851  12.869  1.00  0.00    -0.206 F 
ATOM     97  C   UNL     1       6.861 -21.170  13.601  1.00  0.00     0.060 A 
BRANCH  97  98
ATOM     98  S   UNL     1       7.188 -22.536  14.734  1.00  0.00     0.124 S 
ATOM     99  O   UNL     1       6.080 -22.408  15.674  1.00  0.00    -0.237 OA
ATOM    100  O   UNL     1       7.138 -23.695  13.848  1.00  0.00    -0.237 OA
ATOM    101  O   UNL     1       8.509 -22.222  15.271  1.00  0.00    -0.744 OA
ENDBRANCH  97  98
ENDBRANCH  65  90
ENDBRANCH  39  40
ENDBRANCH  31  34
ENDBRANCH  29  30
ENDBRANCH  28  29
ENDBRANCH   1  28
TORSDOF 17
