REMARK SMILES Cc1ccc(S(=O)(=O)Nc2cc(C(=O)NCCCCNC(=O)c3ccc(-c4c5nc(c(-c6c(F)cc(S(=O)(=O)[O-])cc6F)c6ccc([nH]6)c(-c6c(F)cc(S(=O)(=O)[O-])cc6F)c6nc(c(-c7c(F)cc(S(=O)(=O)[O-])cc7F)c7ccc4[nH]7)C=C6)C=C5)cc3)cnc2N2CCCC2)c(C)c1
REMARK SMILES IDX 17 1 16 2 15 3 13 4 14 5 12 7 10 8 11 9 91 10 90 11 89 12
REMARK SMILES IDX 9 13 6 15 7 16 8 17 5 18 1 19 2 20 3 21 99 22 4 23 97 24
REMARK SMILES IDX 98 25 92 26 93 27 96 28 94 29 95 30 18 31 19 32 20 33 21 34
REMARK SMILES IDX 22 36 23 37 24 38 88 39 25 40 87 41 26 42 27 43 28 44 81 45
REMARK SMILES IDX 29 46 86 47 80 48 82 49 30 50 85 51 79 52 78 53 31 55 65 56
REMARK SMILES IDX 44 57 64 58 45 59 48 60 63 61 83 62 46 63 47 64 62 66 84 67
REMARK SMILES IDX 49 68 32 69 33 70 42 71 34 72 35 73 41 74 43 75 36 76 37 77
REMARK SMILES IDX 38 78 39 79 40 80 66 81 67 82 76 83 68 84 69 85 75 86 77 87
REMARK SMILES IDX 70 88 71 89 72 90 73 91 74 92 50 93 51 94 60 95 52 96 53 97
REMARK SMILES IDX 59 98 61 99 54 100 55 101 56 102 57 103 58 104
REMARK H PARENT 15 6 9 14 20 35 82 54 48 65
REMARK Flexibility Score: inf
ROOT
ATOM      1  C   UNL     1       0.114  -2.037   3.978  1.00  0.00     0.023 C 
ENDROOT
BRANCH   1   2
ATOM      2  C   UNL     1       1.045  -1.823   2.784  1.00  0.00     0.116 C 
BRANCH   2   3
ATOM      3  N   UNL     1       2.023  -2.891   2.693  1.00  0.00    -0.352 N 
ATOM      4  C   UNL     1       2.046  -4.063   1.981  1.00  0.00     0.252 C 
ATOM      5  O   UNL     1       3.047  -4.774   2.075  1.00  0.00    -0.269 OA
ATOM      6  H   UNL     1       2.823  -2.747   3.249  1.00  0.00     0.163 HD
BRANCH   4   7
ATOM      7  C   UNL     1       0.965  -4.486   1.058  1.00  0.00     0.060 A 
ATOM      8  C   UNL     1      -1.201  -4.367   0.037  1.00  0.00     0.092 A 
ATOM      9  C   UNL     1      -0.352  -4.046   1.091  1.00  0.00     0.046 A 
ATOM     10  C   UNL     1      -0.797  -5.310  -0.933  1.00  0.00     0.153 A 
ATOM     11  N   UNL     1       0.442  -5.835  -0.909  1.00  0.00    -0.236 NA
ATOM     12  C   UNL     1       1.300  -5.385   0.048  1.00  0.00     0.127 A 
BRANCH   8  13
ATOM     13  N   UNL     1      -2.478  -3.756  -0.098  1.00  0.00    -0.276 N 
ATOM     14  H   UNL     1      -3.249  -4.346  -0.265  1.00  0.00     0.180 HD
BRANCH  13  15
ATOM     15  S   UNL     1      -2.770  -2.113   0.006  1.00  0.00     0.262 S 
ATOM     16  O   UNL     1      -3.006  -1.852   1.416  1.00  0.00    -0.201 OA
ATOM     17  O   UNL     1      -3.792  -1.865  -0.986  1.00  0.00    -0.201 OA
BRANCH  15  18
ATOM     18  C   UNL     1      -1.359  -1.102  -0.451  1.00  0.00     0.090 A 
ATOM     19  C   UNL     1       2.356   1.095  -0.300  1.00  0.00     0.044 C 
ATOM     20  C   UNL     1       1.058   0.352  -0.429  1.00  0.00    -0.051 A 
ATOM     21  C   UNL     1       1.005  -0.926  -0.988  1.00  0.00     0.005 A 
ATOM     22  C   UNL     1      -0.136   0.956  -0.030  1.00  0.00     0.008 A 
ATOM     23  C   UNL     1      -0.201  -1.640  -1.022  1.00  0.00     0.023 A 
ATOM     24  C   UNL     1      -1.354   0.252  -0.048  1.00  0.00    -0.030 A 
ATOM     25  C   UNL     1      -2.588   1.027   0.336  1.00  0.00     0.046 C 
ENDBRANCH  15  18
ENDBRANCH  13  15
ENDBRANCH   8  13
BRANCH  10  26
ATOM     26  N   UNL     1      -1.673  -5.769  -1.879  1.00  0.00    -0.355 N 
ATOM     27  C   UNL     1      -2.298  -5.028  -2.955  1.00  0.00     0.118 C 
ATOM     28  C   UNL     1      -2.039  -7.175  -1.883  1.00  0.00     0.118 C 
ATOM     29  C   UNL     1      -3.595  -5.812  -3.138  1.00  0.00     0.023 C 
ATOM     30  C   UNL     1      -3.144  -7.258  -2.943  1.00  0.00     0.023 C 
ENDBRANCH  10  26
ENDBRANCH   4   7
ENDBRANCH   2   3
ENDBRANCH   1   2
BRANCH   1  31
ATOM     31  C   UNL     1       0.683  -1.525   5.302  1.00  0.00     0.023 C 
BRANCH  31  32
ATOM     32  C   UNL     1       0.884  -0.014   5.363  1.00  0.00     0.116 C 
BRANCH  32  33
ATOM     33  N   UNL     1      -0.340   0.740   5.147  1.00  0.00    -0.352 N 
ATOM     34  C   UNL     1      -0.679   1.969   5.661  1.00  0.00     0.251 C 
ATOM     35  H   UNL     1      -1.009   0.318   4.561  1.00  0.00     0.163 HD
ATOM     36  O   UNL     1      -1.795   2.438   5.467  1.00  0.00    -0.269 OA
BRANCH  34  37
ATOM     37  C   UNL     1       0.307   2.701   6.483  1.00  0.00     0.039 A 
ATOM     38  C   UNL     1      -0.083   3.178   7.736  1.00  0.00     0.014 A 
ATOM     39  C   UNL     1       1.617   2.885   6.030  1.00  0.00     0.014 A 
ATOM     40  C   UNL     1       0.860   3.793   8.562  1.00  0.00     0.010 A 
ATOM     41  C   UNL     1       2.568   3.441   6.879  1.00  0.00     0.010 A 
ATOM     42  C   UNL     1       2.198   3.903   8.152  1.00  0.00    -0.014 A 
BRANCH  42  43
ATOM     43  C   UNL     1       3.224   4.513   9.033  1.00  0.00     0.031 A 
ATOM     44  C   UNL     1       3.888   5.802   8.630  1.00  0.00     0.074 A 
ATOM     45  C   UNL     1       3.603   3.875  10.158  1.00  0.00     0.049 A 
ATOM     46  N   UNL     1       4.851   6.455   9.226  1.00  0.00    -0.248 NA
ATOM     47  C   UNL     1       3.429   6.422   7.377  1.00  0.00     0.031 C 
ATOM     48  C   UNL     1       3.071   2.593  10.627  1.00  0.00     0.029 A 
ATOM     49  N   UNL     1       4.533   4.214  11.108  1.00  0.00    -0.354 N 
ATOM     50  C   UNL     1       5.132   7.544   8.409  1.00  0.00     0.074 A 
ATOM     51  C   UNL     1       4.264   7.444   7.257  1.00  0.00     0.031 C 
ATOM     52  C   UNL     1       3.667   2.266  11.786  1.00  0.00     0.029 A 
ATOM     53  C   UNL     1       4.641   3.298  12.129  1.00  0.00     0.049 A 
ATOM     54  H   UNL     1       5.073   5.036  11.064  1.00  0.00     0.167 HD
ATOM     55  C   UNL     1       6.019   8.547   8.612  1.00  0.00     0.037 A 
ATOM     56  C   UNL     1       5.434   3.295  13.217  1.00  0.00     0.037 A 
ATOM     57  C   UNL     1       6.841   8.671   9.787  1.00  0.00     0.049 A 
ATOM     58  C   UNL     1       6.378   4.445  13.440  1.00  0.00     0.074 A 
ATOM     59  C   UNL     1       7.713   9.692  10.123  1.00  0.00     0.029 A 
ATOM     60  N   UNL     1       6.885   7.749  10.821  1.00  0.00    -0.354 N 
ATOM     61  N   UNL     1       6.582   5.502  12.690  1.00  0.00    -0.248 NA
ATOM     62  C   UNL     1       7.193   4.409  14.663  1.00  0.00     0.031 C 
ATOM     63  C   UNL     1       8.305   9.373  11.350  1.00  0.00     0.029 A 
ATOM     64  C   UNL     1       7.776   8.171  11.793  1.00  0.00     0.049 A 
ATOM     65  H   UNL     1       6.361   6.916  10.859  1.00  0.00     0.167 HD
ATOM     66  C   UNL     1       7.519   6.273  13.368  1.00  0.00     0.074 A 
ATOM     67  C   UNL     1       7.840   5.563  14.589  1.00  0.00     0.031 C 
ATOM     68  C   UNL     1       8.063   7.463  13.013  1.00  0.00     0.037 A 
BRANCH  55  69
ATOM     69  C   UNL     1       6.139   9.599   7.546  1.00  0.00     0.058 A 
ATOM     70  C   UNL     1       5.137  10.561   7.345  1.00  0.00     0.135 A 
ATOM     71  C   UNL     1       7.290   9.672   6.745  1.00  0.00     0.135 A 
ATOM     72  F   UNL     1       4.009  10.525   8.072  1.00  0.00    -0.206 F 
ATOM     73  C   UNL     1       5.261  11.546   6.370  1.00  0.00     0.059 A 
ATOM     74  C   UNL     1       7.445  10.664   5.780  1.00  0.00     0.059 A 
ATOM     75  F   UNL     1       8.276   8.775   6.895  1.00  0.00    -0.206 F 
ATOM     76  C   UNL     1       6.419  11.588   5.592  1.00  0.00     0.060 A 
BRANCH  76  77
ATOM     77  S   UNL     1       6.573  12.880   4.341  1.00  0.00     0.124 S 
ATOM     78  O   UNL     1       5.689  12.376   3.294  1.00  0.00    -0.237 OA
ATOM     79  O   UNL     1       6.101  14.065   5.052  1.00  0.00    -0.237 OA
ATOM     80  O   UNL     1       7.997  12.873   4.019  1.00  0.00    -0.744 OA
ENDBRANCH  76  77
ENDBRANCH  55  69
BRANCH  56  81
ATOM     81  C   UNL     1       5.347   2.188  14.205  1.00  0.00     0.058 A 
ATOM     82  C   UNL     1       4.777   2.399  15.469  1.00  0.00     0.135 A 
ATOM     83  C   UNL     1       5.844   0.908  13.916  1.00  0.00     0.135 A 
ATOM     84  F   UNL     1       4.292   3.608  15.791  1.00  0.00    -0.206 F 
ATOM     85  C   UNL     1       4.727   1.390  16.425  1.00  0.00     0.059 A 
ATOM     86  C   UNL     1       5.786  -0.124  14.848  1.00  0.00     0.059 A 
ATOM     87  F   UNL     1       6.382   0.650  12.714  1.00  0.00    -0.206 F 
ATOM     88  C   UNL     1       5.240   0.132  16.106  1.00  0.00     0.060 A 
BRANCH  88  89
ATOM     89  S   UNL     1       5.154  -1.181  17.344  1.00  0.00     0.124 S 
ATOM     90  O   UNL     1       6.248  -0.813  18.235  1.00  0.00    -0.237 OA
ATOM     91  O   UNL     1       3.807  -1.012  17.882  1.00  0.00    -0.237 OA
ATOM     92  O   UNL     1       5.358  -2.393  16.557  1.00  0.00    -0.744 OA
ENDBRANCH  88  89
ENDBRANCH  56  81
BRANCH  68  93
ATOM     93  C   UNL     1       9.018   8.099  13.982  1.00  0.00     0.058 A 
ATOM     94  C   UNL     1      10.329   7.625  14.145  1.00  0.00     0.135 A 
ATOM     95  C   UNL     1       8.627   9.225  14.724  1.00  0.00     0.135 A 
ATOM     96  F   UNL     1      10.748   6.548  13.462  1.00  0.00    -0.206 F 
ATOM     97  C   UNL     1      11.212   8.231  15.031  1.00  0.00     0.059 A 
ATOM     98  C   UNL     1       9.501   9.860  15.598  1.00  0.00     0.059 A 
ATOM     99  F   UNL     1       7.387   9.722  14.594  1.00  0.00    -0.206 F 
ATOM    100  C   UNL     1      10.789   9.348  15.755  1.00  0.00     0.060 A 
BRANCH 100 101
ATOM    101  S   UNL     1      11.950  10.146  16.883  1.00  0.00     0.124 S 
ATOM    102  O   UNL     1      11.909   9.247  18.031  1.00  0.00    -0.237 OA
ATOM    103  O   UNL     1      13.192  10.138  16.116  1.00  0.00    -0.237 OA
ATOM    104  O   UNL     1      11.362  11.465  17.096  1.00  0.00    -0.744 OA
ENDBRANCH 100 101
ENDBRANCH  68  93
ENDBRANCH  42  43
ENDBRANCH  34  37
ENDBRANCH  32  33
ENDBRANCH  31  32
ENDBRANCH   1  31
TORSDOF 18
