REMARK SMILES CC[C@](C)(NC(=O)[C@H]1CNc2ccccc2O1)C(=O)NCCCCNC(=O)c1ccc(-c2c3nc(c(-c4c(F)cc(S(=O)(=O)[O-])cc4F)c4ccc([nH]4)c(-c4c(F)cc(S(=O)(=O)[O-])cc4F)c4nc(c(-c5c(F)cc(S(=O)(=O)[O-])cc5F)c5ccc2[nH]5)C=C4)C=C3)cc1
REMARK SMILES IDX 23 1 22 2 21 3 20 4 18 5 19 6 3 8 4 9 2 10 1 11 5 12 6 13
REMARK SMILES IDX 7 15 8 16 9 17 17 18 10 19 16 20 11 21 15 23 12 24 14 25
REMARK SMILES IDX 13 26 24 27 25 28 26 29 27 31 28 32 29 33 93 34 30 35 92 36
REMARK SMILES IDX 31 37 32 38 33 39 86 40 34 41 91 42 85 43 87 44 35 45 90 46
REMARK SMILES IDX 84 47 83 48 36 50 70 51 49 52 69 53 50 54 53 55 68 56 88 57
REMARK SMILES IDX 51 58 52 59 67 61 89 62 54 63 37 64 38 65 47 66 39 67 40 68
REMARK SMILES IDX 46 69 48 70 41 71 42 72 43 73 44 74 45 75 71 76 72 77 81 78
REMARK SMILES IDX 73 79 74 80 80 81 82 82 75 83 76 84 77 85 78 86 79 87 55 88
REMARK SMILES IDX 56 89 65 90 57 91 58 92 64 93 66 94 59 95 60 96 61 97 62 98
REMARK SMILES IDX 63 99
REMARK H PARENT 20 7 5 14 10 22 25 30 87 49 53 60
REMARK Flexibility Score: inf
ROOT
ATOM      1  C   UNL     1       4.813  -1.632   7.463  1.00  0.00     0.023 C 
ENDROOT
BRANCH   1   2
ATOM      2  C   UNL     1       4.357  -2.873   6.687  1.00  0.00     0.023 C 
BRANCH   2   3
ATOM      3  C   UNL     1       2.901  -3.333   6.833  1.00  0.00     0.116 C 
BRANCH   3   4
ATOM      4  N   UNL     1       1.872  -2.343   6.551  1.00  0.00    -0.354 N 
ATOM      5  C   UNL     1       1.039  -2.106   5.494  1.00  0.00     0.245 C 
ATOM      6  O   UNL     1       0.142  -1.281   5.701  1.00  0.00    -0.272 OA
ATOM      7  H   UNL     1       1.749  -1.700   7.286  1.00  0.00     0.163 HD
BRANCH   5   8
ATOM      8  C   UNL     1       1.149  -2.823   4.105  1.00  0.00     0.116 C 
ATOM      9  C   UNL     1       0.022  -2.316   3.175  1.00  0.00     0.045 C 
BRANCH   8  10
ATOM     10  C   UNL     1       0.963  -4.357   4.365  1.00  0.00     0.035 C 
ATOM     11  C   UNL     1       0.240  -5.177   3.300  1.00  0.00     0.007 C 
ENDBRANCH   8  10
BRANCH   8  12
ATOM     12  N   UNL     1       2.455  -2.581   3.430  1.00  0.00    -0.339 N 
ATOM     13  C   UNL     1       3.022  -1.424   2.934  1.00  0.00     0.263 C 
ATOM     14  H   UNL     1       3.011  -3.386   3.320  1.00  0.00     0.164 HD
ATOM     15  O   UNL     1       3.898  -1.578   2.078  1.00  0.00    -0.271 OA
BRANCH  13  16
ATOM     16  C   UNL     1       2.658  -0.031   3.498  1.00  0.00     0.281 C 
ATOM     17  C   UNL     1       3.400   0.065   4.819  1.00  0.00     0.168 C 
ATOM     18  O   UNL     1       3.044   1.086   2.674  1.00  0.00    -0.477 OA
ATOM     19  N   UNL     1       2.929   1.211   5.560  1.00  0.00    -0.378 N 
ATOM     20  C   UNL     1       3.064   2.288   3.373  1.00  0.00     0.143 A 
ATOM     21  C   UNL     1       2.985   2.367   4.782  1.00  0.00     0.077 A 
ATOM     22  H   UNL     1       2.611   1.181   6.491  1.00  0.00     0.160 HD
ATOM     23  C   UNL     1       3.235   3.451   2.626  1.00  0.00     0.049 A 
ATOM     24  C   UNL     1       2.964   3.615   5.408  1.00  0.00     0.029 A 
ATOM     25  C   UNL     1       3.276   4.692   3.271  1.00  0.00     0.004 A 
ATOM     26  C   UNL     1       3.123   4.775   4.655  1.00  0.00     0.002 A 
ENDBRANCH  13  16
ENDBRANCH   8  12
ENDBRANCH   5   8
ENDBRANCH   3   4
ENDBRANCH   2   3
ENDBRANCH   1   2
BRANCH   1  27
ATOM     27  C   UNL     1       4.361  -1.510   8.907  1.00  0.00     0.116 C 
BRANCH  27  28
ATOM     28  N   UNL     1       5.143  -2.351   9.786  1.00  0.00    -0.352 N 
ATOM     29  C   UNL     1       5.949  -1.974  10.833  1.00  0.00     0.251 C 
ATOM     30  H   UNL     1       5.092  -3.319   9.612  1.00  0.00     0.163 HD
ATOM     31  O   UNL     1       6.738  -2.792  11.308  1.00  0.00    -0.269 OA
BRANCH  29  32
ATOM     32  C   UNL     1       5.885  -0.598  11.386  1.00  0.00     0.039 A 
ATOM     33  C   UNL     1       7.073   0.034  11.766  1.00  0.00     0.014 A 
ATOM     34  C   UNL     1       4.661   0.050  11.588  1.00  0.00     0.014 A 
ATOM     35  C   UNL     1       7.037   1.315  12.328  1.00  0.00     0.010 A 
ATOM     36  C   UNL     1       4.631   1.354  12.083  1.00  0.00     0.010 A 
ATOM     37  C   UNL     1       5.816   1.990  12.485  1.00  0.00    -0.014 A 
BRANCH  37  38
ATOM     38  C   UNL     1       5.750   3.326  13.134  1.00  0.00     0.031 A 
ATOM     39  C   UNL     1       5.051   3.479  14.461  1.00  0.00     0.074 A 
ATOM     40  C   UNL     1       6.276   4.406  12.522  1.00  0.00     0.049 A 
ATOM     41  N   UNL     1       4.828   4.563  15.160  1.00  0.00    -0.248 NA
ATOM     42  C   UNL     1       4.508   2.253  15.069  1.00  0.00     0.031 C 
ATOM     43  C   UNL     1       6.945   4.400  11.220  1.00  0.00     0.029 A 
ATOM     44  N   UNL     1       6.321   5.721  12.913  1.00  0.00    -0.354 N 
ATOM     45  C   UNL     1       4.099   4.155  16.272  1.00  0.00     0.074 A 
ATOM     46  C   UNL     1       3.880   2.732  16.134  1.00  0.00     0.031 C 
ATOM     47  C   UNL     1       7.350   5.647  10.929  1.00  0.00     0.029 A 
ATOM     48  C   UNL     1       6.947   6.546  12.008  1.00  0.00     0.049 A 
ATOM     49  H   UNL     1       5.942   6.044  13.762  1.00  0.00     0.167 HD
ATOM     50  C   UNL     1       3.670   4.892  17.324  1.00  0.00     0.037 A 
ATOM     51  C   UNL     1       7.168   7.874  12.042  1.00  0.00     0.037 A 
ATOM     52  C   UNL     1       3.931   6.298  17.484  1.00  0.00     0.049 A 
ATOM     53  C   UNL     1       6.705   8.669  13.234  1.00  0.00     0.074 A 
ATOM     54  C   UNL     1       3.599   7.119  18.548  1.00  0.00     0.029 A 
ATOM     55  N   UNL     1       4.593   7.090  16.559  1.00  0.00    -0.354 N 
ATOM     56  N   UNL     1       6.064   8.255  14.301  1.00  0.00    -0.248 NA
ATOM     57  C   UNL     1       7.000  10.109  13.230  1.00  0.00     0.031 C 
ATOM     58  C   UNL     1       4.035   8.415  18.251  1.00  0.00     0.029 A 
ATOM     59  C   UNL     1       4.670   8.393  17.020  1.00  0.00     0.049 A 
ATOM     60  H   UNL     1       4.956   6.772  15.700  1.00  0.00     0.167 HD
ATOM     61  C   UNL     1       5.902   9.378  15.106  1.00  0.00     0.074 A 
ATOM     62  C   UNL     1       6.520  10.486  14.407  1.00  0.00     0.031 C 
ATOM     63  C   UNL     1       5.298   9.482  16.315  1.00  0.00     0.037 A 
BRANCH  50  64
ATOM     64  C   UNL     1       2.878   4.187  18.391  1.00  0.00     0.058 A 
ATOM     65  C   UNL     1       3.483   3.288  19.283  1.00  0.00     0.135 A 
ATOM     66  C   UNL     1       1.504   4.432  18.539  1.00  0.00     0.135 A 
ATOM     67  F   UNL     1       4.791   3.005  19.175  1.00  0.00    -0.206 F 
ATOM     68  C   UNL     1       2.748   2.632  20.265  1.00  0.00     0.059 A 
ATOM     69  C   UNL     1       0.753   3.807  19.531  1.00  0.00     0.059 A 
ATOM     70  F   UNL     1       0.876   5.283  17.713  1.00  0.00    -0.206 F 
ATOM     71  C   UNL     1       1.381   2.896  20.379  1.00  0.00     0.060 A 
BRANCH  71  72
ATOM     72  S   UNL     1       0.438   2.036  21.655  1.00  0.00     0.124 S 
ATOM     73  O   UNL     1       0.301   0.706  21.068  1.00  0.00    -0.237 OA
ATOM     74  O   UNL     1       1.320   2.127  22.814  1.00  0.00    -0.237 OA
ATOM     75  O   UNL     1      -0.795   2.811  21.747  1.00  0.00    -0.744 OA
ENDBRANCH  71  72
ENDBRANCH  50  64
BRANCH  51  76
ATOM     76  C   UNL     1       7.891   8.536  10.924  1.00  0.00     0.058 A 
ATOM     77  C   UNL     1       9.208   8.988  11.089  1.00  0.00     0.135 A 
ATOM     78  C   UNL     1       7.288   8.718   9.671  1.00  0.00     0.135 A 
ATOM     79  F   UNL     1       9.823   8.842  12.273  1.00  0.00    -0.206 F 
ATOM     80  C   UNL     1       9.899   9.611  10.056  1.00  0.00     0.059 A 
ATOM     81  C   UNL     1       7.966   9.319   8.615  1.00  0.00     0.059 A 
ATOM     82  F   UNL     1       6.034   8.288   9.459  1.00  0.00    -0.206 F 
ATOM     83  C   UNL     1       9.269   9.771   8.821  1.00  0.00     0.060 A 
BRANCH  83  84
ATOM     84  S   UNL     1      10.192  10.536   7.469  1.00  0.00     0.124 S 
ATOM     85  O   UNL     1      10.151  11.944   7.847  1.00  0.00    -0.237 OA
ATOM     86  O   UNL     1      11.493   9.883   7.575  1.00  0.00    -0.237 OA
ATOM     87  O   UNL     1       9.413  10.175   6.288  1.00  0.00    -0.744 OA
ENDBRANCH  83  84
ENDBRANCH  51  76
BRANCH  63  88
ATOM     88  C   UNL     1       5.300  10.831  16.976  1.00  0.00     0.058 A 
ATOM     89  C   UNL     1       4.451  11.861  16.545  1.00  0.00     0.135 A 
ATOM     90  C   UNL     1       6.122  11.076  18.087  1.00  0.00     0.135 A 
ATOM     91  F   UNL     1       3.651  11.678  15.483  1.00  0.00    -0.206 F 
ATOM     92  C   UNL     1       4.430  13.097  17.183  1.00  0.00     0.059 A 
ATOM     93  C   UNL     1       6.102  12.297  18.753  1.00  0.00     0.059 A 
ATOM     94  F   UNL     1       6.945  10.118  18.544  1.00  0.00    -0.206 F 
ATOM     95  C   UNL     1       5.260  13.306  18.287  1.00  0.00     0.060 A 
BRANCH  95  96
ATOM     96  S   UNL     1       5.198  14.900  19.131  1.00  0.00     0.124 S 
ATOM     97  O   UNL     1       5.970  15.743  18.222  1.00  0.00    -0.237 OA
ATOM     98  O   UNL     1       3.765  15.174  19.185  1.00  0.00    -0.237 OA
ATOM     99  O   UNL     1       5.826  14.626  20.420  1.00  0.00    -0.744 OA
ENDBRANCH  95  96
ENDBRANCH  63  88
ENDBRANCH  37  38
ENDBRANCH  29  32
ENDBRANCH  27  28
ENDBRANCH   1  27
TORSDOF 17
