REMARK SMILES C[C@@](NC(=O)c1cc(Br)c[nH]1)(C(=O)NCCCCNC(=O)c1ccc(-c2c3nc(c(-c4c(F)cc(S(=O)(=O)[O-])cc4F)c4ccc([nH]4)c(-c4c(F)cc(S(=O)(=O)[O-])cc4F)c4nc(c(-c5c(F)cc(S(=O)(=O)[O-])cc5F)c5ccc2[nH]5)C=C4)C=C3)cc1)C(F)(F)F
REMARK SMILES IDX 17 1 16 2 15 3 14 4 12 5 13 6 2 8 1 9 3 10 4 11 5 13 6 14
REMARK SMILES IDX 7 15 11 16 8 17 10 18 9 20 88 21 89 22 90 23 91 24 18 25
REMARK SMILES IDX 19 26 20 27 21 29 22 30 23 31 87 32 24 33 86 34 25 35 26 36
REMARK SMILES IDX 27 37 80 38 28 39 85 40 79 41 81 42 29 43 84 44 78 45 77 46
REMARK SMILES IDX 30 48 64 49 43 50 63 51 44 52 47 53 62 54 82 55 45 56 46 57
REMARK SMILES IDX 61 59 83 60 48 61 31 62 32 63 41 64 33 65 34 66 40 67 42 68
REMARK SMILES IDX 35 69 36 70 37 71 38 72 39 73 65 74 66 75 75 76 67 77 68 78
REMARK SMILES IDX 74 79 76 80 69 81 70 82 71 83 72 84 73 85 49 86 50 87 59 88
REMARK SMILES IDX 51 89 52 90 58 91 60 92 53 93 54 94 55 95 56 96 57 97
REMARK H PARENT 14 7 3 12 11 19 19 28 81 47 47 58
REMARK Flexibility Score: inf
ROOT
ATOM      1  C   UNL     1      -2.761  -1.384  -2.909  1.00  0.00     0.023 C 
ENDROOT
BRANCH   1   2
ATOM      2  C   UNL     1      -1.265  -1.222  -2.623  1.00  0.00     0.023 C 
BRANCH   2   3
ATOM      3  C   UNL     1      -0.879   0.115  -1.997  1.00  0.00     0.116 C 
BRANCH   3   4
ATOM      4  N   UNL     1      -1.376   0.225  -0.635  1.00  0.00    -0.354 N 
ATOM      5  C   UNL     1      -0.845   0.829   0.466  1.00  0.00     0.254 C 
ATOM      6  O   UNL     1      -1.508   0.757   1.504  1.00  0.00    -0.272 OA
ATOM      7  H   UNL     1      -2.245  -0.212  -0.482  1.00  0.00     0.163 HD
BRANCH   5   8
ATOM      8  C   UNL     1       0.559   1.456   0.458  1.00  0.00     0.212 C 
ATOM      9  C   UNL     1       1.579   0.295   0.422  1.00  0.00     0.056 C 
BRANCH   8  10
ATOM     10  N   UNL     1       0.829   2.345  -0.713  1.00  0.00    -0.329 N 
ATOM     11  C   UNL     1       0.143   3.426  -1.208  1.00  0.00     0.268 C 
ATOM     12  H   UNL     1       1.642   2.115  -1.219  1.00  0.00     0.165 HD
ATOM     13  O   UNL     1       0.777   4.190  -1.936  1.00  0.00    -0.268 OA
BRANCH  11  14
ATOM     14  C   UNL     1      -1.283   3.533  -1.024  1.00  0.00     0.105 A 
ATOM     15  C   UNL     1      -2.232   3.620  -2.037  1.00  0.00     0.049 A 
ATOM     16  N   UNL     1      -1.978   3.628   0.164  1.00  0.00    -0.356 N 
ATOM     17  C   UNL     1      -3.500   3.601  -1.434  1.00  0.00     0.036 A 
ATOM     18  C   UNL     1      -3.330   3.598  -0.076  1.00  0.00     0.098 A 
ATOM     19  H   UNL     1      -1.566   3.705   1.054  1.00  0.00     0.166 HD
ATOM     20  Br  UNL     1      -5.116   3.558  -2.376  1.00  0.00    -0.049 Br
ENDBRANCH  11  14
ENDBRANCH   8  10
BRANCH   8  21
ATOM     21  C   UNL     1       0.774   2.197   1.796  1.00  0.00     0.420 C 
ATOM     22  F   UNL     1       0.723   1.387   2.875  1.00  0.00    -0.168 F 
ATOM     23  F   UNL     1       2.012   2.766   1.808  1.00  0.00    -0.168 F 
ATOM     24  F   UNL     1      -0.107   3.207   1.982  1.00  0.00    -0.168 F 
ENDBRANCH   8  21
ENDBRANCH   5   8
ENDBRANCH   3   4
ENDBRANCH   2   3
ENDBRANCH   1   2
BRANCH   1  25
ATOM     25  C   UNL     1      -3.360  -0.341  -3.849  1.00  0.00     0.116 C 
BRANCH  25  26
ATOM     26  N   UNL     1      -2.727  -0.344  -5.159  1.00  0.00    -0.352 N 
ATOM     27  C   UNL     1      -3.309  -0.436  -6.401  1.00  0.00     0.251 C 
ATOM     28  H   UNL     1      -1.745  -0.269  -5.156  1.00  0.00     0.163 HD
ATOM     29  O   UNL     1      -2.610  -0.592  -7.397  1.00  0.00    -0.269 OA
BRANCH  27  30
ATOM     30  C   UNL     1      -4.781  -0.377  -6.522  1.00  0.00     0.039 A 
ATOM     31  C   UNL     1      -5.437  -1.351  -7.279  1.00  0.00     0.014 A 
ATOM     32  C   UNL     1      -5.509   0.625  -5.875  1.00  0.00     0.014 A 
ATOM     33  C   UNL     1      -6.832  -1.361  -7.329  1.00  0.00     0.010 A 
ATOM     34  C   UNL     1      -6.901   0.577  -5.875  1.00  0.00     0.010 A 
ATOM     35  C   UNL     1      -7.575  -0.418  -6.599  1.00  0.00    -0.014 A 
BRANCH  35  36
ATOM     36  C   UNL     1      -9.059  -0.465  -6.574  1.00  0.00     0.031 A 
ATOM     37  C   UNL     1      -9.860   0.656  -7.178  1.00  0.00     0.074 A 
ATOM     38  C   UNL     1      -9.683  -1.484  -5.952  1.00  0.00     0.049 A 
ATOM     39  N   UNL     1     -11.157   0.827  -7.194  1.00  0.00    -0.248 NA
ATOM     40  C   UNL     1      -9.102   1.738  -7.826  1.00  0.00     0.031 C 
ATOM     41  C   UNL     1      -9.015  -2.603  -5.282  1.00  0.00     0.029 A 
ATOM     42  N   UNL     1     -11.019  -1.738  -5.768  1.00  0.00    -0.354 N 
ATOM     43  C   UNL     1     -11.370   2.039  -7.840  1.00  0.00     0.074 A 
ATOM     44  C   UNL     1     -10.068   2.583  -8.159  1.00  0.00     0.031 C 
ATOM     45  C   UNL     1      -9.944  -3.429  -4.774  1.00  0.00     0.029 A 
ATOM     46  C   UNL     1     -11.270  -2.886  -5.054  1.00  0.00     0.049 A 
ATOM     47  H   UNL     1     -11.731  -1.154  -6.114  1.00  0.00     0.167 HD
ATOM     48  C   UNL     1     -12.545   2.633  -8.159  1.00  0.00     0.037 A 
ATOM     49  C   UNL     1     -12.436  -3.437  -4.663  1.00  0.00     0.037 A 
ATOM     50  C   UNL     1     -13.839   2.077  -7.862  1.00  0.00     0.049 A 
ATOM     51  C   UNL     1     -13.728  -2.767  -5.043  1.00  0.00     0.074 A 
ATOM     52  C   UNL     1     -15.087   2.577  -8.189  1.00  0.00     0.029 A 
ATOM     53  N   UNL     1     -14.052   0.894  -7.169  1.00  0.00    -0.354 N 
ATOM     54  N   UNL     1     -13.912  -1.651  -5.706  1.00  0.00    -0.248 NA
ATOM     55  C   UNL     1     -14.970  -3.435  -4.631  1.00  0.00     0.031 C 
ATOM     56  C   UNL     1     -16.056   1.712  -7.668  1.00  0.00     0.029 A 
ATOM     57  C   UNL     1     -15.410   0.653  -7.049  1.00  0.00     0.049 A 
ATOM     58  H   UNL     1     -13.341   0.311  -6.816  1.00  0.00     0.167 HD
ATOM     59  C   UNL     1     -15.289  -1.493  -5.809  1.00  0.00     0.074 A 
ATOM     60  C   UNL     1     -15.891  -2.635  -5.151  1.00  0.00     0.031 C 
ATOM     61  C   UNL     1     -15.992  -0.493  -6.396  1.00  0.00     0.037 A 
BRANCH  48  62
ATOM     62  C   UNL     1     -12.480   3.951  -8.878  1.00  0.00     0.058 A 
ATOM     63  C   UNL     1     -12.074   4.035 -10.220  1.00  0.00     0.135 A 
ATOM     64  C   UNL     1     -12.849   5.141  -8.230  1.00  0.00     0.135 A 
ATOM     65  F   UNL     1     -11.696   2.929 -10.882  1.00  0.00    -0.206 F 
ATOM     66  C   UNL     1     -12.006   5.254 -10.885  1.00  0.00     0.059 A 
ATOM     67  C   UNL     1     -12.812   6.370  -8.884  1.00  0.00     0.059 A 
ATOM     68  F   UNL     1     -13.245   5.118  -6.948  1.00  0.00    -0.206 F 
ATOM     69  C   UNL     1     -12.374   6.417 -10.207  1.00  0.00     0.060 A 
BRANCH  69  70
ATOM     70  S   UNL     1     -12.279   7.993 -11.082  1.00  0.00     0.124 S 
ATOM     71  O   UNL     1     -10.840   8.238 -11.085  1.00  0.00    -0.237 OA
ATOM     72  O   UNL     1     -12.868   7.669 -12.378  1.00  0.00    -0.237 OA
ATOM     73  O   UNL     1     -13.068   8.893 -10.248  1.00  0.00    -0.744 OA
ENDBRANCH  69  70
ENDBRANCH  48  62
BRANCH  49  74
ATOM     74  C   UNL     1     -12.433  -4.704  -3.886  1.00  0.00     0.058 A 
ATOM     75  C   UNL     1     -12.831  -5.912  -4.476  1.00  0.00     0.135 A 
ATOM     76  C   UNL     1     -12.014  -4.735  -2.547  1.00  0.00     0.135 A 
ATOM     77  F   UNL     1     -13.245  -5.930  -5.753  1.00  0.00    -0.206 F 
ATOM     78  C   UNL     1     -12.827  -7.106  -3.764  1.00  0.00     0.059 A 
ATOM     79  C   UNL     1     -11.981  -5.921  -1.820  1.00  0.00     0.059 A 
ATOM     80  F   UNL     1     -11.606  -3.608  -1.943  1.00  0.00    -0.206 F 
ATOM     81  C   UNL     1     -12.398  -7.101  -2.436  1.00  0.00     0.060 A 
BRANCH  81  82
ATOM     82  S   UNL     1     -12.343  -8.666  -1.535  1.00  0.00     0.124 S 
ATOM     83  O   UNL     1     -13.754  -8.884  -1.238  1.00  0.00    -0.237 OA
ATOM     84  O   UNL     1     -11.750  -9.567  -2.518  1.00  0.00    -0.237 OA
ATOM     85  O   UNL     1     -11.495  -8.360  -0.387  1.00  0.00    -0.744 OA
ENDBRANCH  81  82
ENDBRANCH  49  74
BRANCH  61  86
ATOM     86  C   UNL     1     -17.491  -0.601  -6.379  1.00  0.00     0.058 A 
ATOM     87  C   UNL     1     -18.232  -0.352  -5.214  1.00  0.00     0.135 A 
ATOM     88  C   UNL     1     -18.194  -0.905  -7.555  1.00  0.00     0.135 A 
ATOM     89  F   UNL     1     -17.605  -0.064  -4.063  1.00  0.00    -0.206 F 
ATOM     90  C   UNL     1     -19.622  -0.421  -5.211  1.00  0.00     0.059 A 
ATOM     91  C   UNL     1     -19.584  -0.957  -7.580  1.00  0.00     0.059 A 
ATOM     92  F   UNL     1     -17.531  -1.142  -8.698  1.00  0.00    -0.206 F 
ATOM     93  C   UNL     1     -20.289  -0.723  -6.400  1.00  0.00     0.060 A 
BRANCH  93  94
ATOM     94  S   UNL     1     -22.094  -0.774  -6.393  1.00  0.00     0.124 S 
ATOM     95  O   UNL     1     -22.349  -2.060  -5.751  1.00  0.00    -0.237 OA
ATOM     96  O   UNL     1     -22.439   0.406  -5.608  1.00  0.00    -0.237 OA
ATOM     97  O   UNL     1     -22.440  -0.700  -7.809  1.00  0.00    -0.744 OA
ENDBRANCH  93  94
ENDBRANCH  61  86
ENDBRANCH  35  36
ENDBRANCH  27  30
ENDBRANCH  25  26
ENDBRANCH   1  25
TORSDOF 17
