REMARK SMILES O=C(NCCCCNC(=O)[C@@H]1CC=CC[C@@H]1C(=O)N1CCN(C(=O)c2sc3cc([N+](=O)[O-])ccc3c2Cl)CC1)c1ccc(-c2c3nc(c(-c4c(F)cc(S(=O)(=O)[O-])cc4F)c4ccc([nH]4)c(-c4c(F)cc(S(=O)(=O)[O-])cc4F)c4nc(c(-c5c(F)cc(S(=O)(=O)[O-])cc5F)c5ccc2[nH]5)C=C4)C=C3)cc1
REMARK SMILES IDX 5 1 4 2 3 3 1 4 2 5 40 7 41 8 105 9 42 10 104 11 43 12 44 13
REMARK SMILES IDX 45 14 98 15 46 16 103 17 97 18 99 19 47 20 102 21 96 22
REMARK SMILES IDX 95 23 48 25 82 26 61 27 81 28 62 29 65 30 80 31 100 32 63 33
REMARK SMILES IDX 64 34 79 36 101 37 66 38 49 39 50 40 59 41 51 42 52 43 58 44
REMARK SMILES IDX 60 45 53 46 54 47 55 48 56 49 57 50 83 51 84 52 93 53 85 54
REMARK SMILES IDX 86 55 92 56 94 57 87 58 88 59 89 60 90 61 91 62 67 63 68 64
REMARK SMILES IDX 77 65 69 66 70 67 76 68 78 69 71 70 72 71 73 72 74 73 75 74
REMARK SMILES IDX 6 75 7 76 8 77 9 78 10 80 11 81 12 82 16 83 13 84 15 85
REMARK SMILES IDX 14 86 17 87 18 88 19 89 20 90 39 91 21 92 38 93 22 94 23 95
REMARK SMILES IDX 24 96 25 97 26 98 36 99 27 100 35 101 37 102 28 103 34 104
REMARK SMILES IDX 29 105 33 106 30 107 31 108 32 109
REMARK H PARENT 3 6 99 24 65 35 8 79
REMARK Flexibility Score: inf
ROOT
ATOM      1  C   UNL     1       9.131  -7.349   3.424  1.00  0.00     0.023 C 
ENDROOT
BRANCH   1   2
ATOM      2  C   UNL     1       8.573  -7.672   2.050  1.00  0.00     0.116 C 
BRANCH   2   3
ATOM      3  N   UNL     1       9.422  -7.226   0.939  1.00  0.00    -0.352 N 
ATOM      4  O   UNL     1      10.118  -7.314  -1.222  1.00  0.00    -0.269 OA
ATOM      5  C   UNL     1       9.193  -7.357  -0.430  1.00  0.00     0.251 C 
ATOM      6  H   UNL     1      10.261  -6.778   1.193  1.00  0.00     0.163 HD
BRANCH   5   7
ATOM      7  C   UNL     1       7.802  -7.543  -0.897  1.00  0.00     0.039 A 
ATOM      8  C   UNL     1       7.456  -8.263  -2.041  1.00  0.00     0.014 A 
ATOM      9  C   UNL     1       6.810  -6.966  -0.121  1.00  0.00     0.014 A 
ATOM     10  C   UNL     1       6.100  -8.387  -2.349  1.00  0.00     0.010 A 
ATOM     11  C   UNL     1       5.528  -7.403  -0.216  1.00  0.00     0.010 A 
ATOM     12  C   UNL     1       5.141  -7.939  -1.421  1.00  0.00    -0.014 A 
BRANCH  12  13
ATOM     13  C   UNL     1       3.710  -7.991  -1.663  1.00  0.00     0.031 A 
ATOM     14  C   UNL     1       3.231  -9.321  -2.078  1.00  0.00     0.074 A 
ATOM     15  C   UNL     1       2.861  -6.971  -1.397  1.00  0.00     0.049 A 
ATOM     16  N   UNL     1       2.956  -9.698  -3.278  1.00  0.00    -0.248 NA
ATOM     17  C   UNL     1       3.257 -10.409  -1.091  1.00  0.00     0.031 C 
ATOM     18  C   UNL     1       3.114  -5.693  -0.709  1.00  0.00     0.029 A 
ATOM     19  N   UNL     1       1.527  -6.899  -1.649  1.00  0.00    -0.354 N 
ATOM     20  C   UNL     1       2.523 -11.010  -3.164  1.00  0.00     0.074 A 
ATOM     21  C   UNL     1       2.939 -11.454  -1.858  1.00  0.00     0.031 C 
ATOM     22  C   UNL     1       1.943  -5.084  -0.419  1.00  0.00     0.029 A 
ATOM     23  C   UNL     1       0.874  -5.821  -1.061  1.00  0.00     0.049 A 
ATOM     24  H   UNL     1       1.058  -7.561  -2.206  1.00  0.00     0.167 HD
ATOM     25  C   UNL     1       1.630 -11.520  -4.053  1.00  0.00     0.037 A 
ATOM     26  C   UNL     1      -0.454  -5.547  -1.120  1.00  0.00     0.037 A 
ATOM     27  C   UNL     1       1.523 -10.673  -5.221  1.00  0.00     0.049 A 
ATOM     28  C   UNL     1      -0.968  -6.243  -2.328  1.00  0.00     0.074 A 
ATOM     29  C   UNL     1       2.407 -10.242  -6.191  1.00  0.00     0.029 A 
ATOM     30  N   UNL     1       0.457  -9.805  -5.273  1.00  0.00    -0.354 N 
ATOM     31  N   UNL     1      -0.618  -5.935  -3.548  1.00  0.00    -0.248 NA
ATOM     32  C   UNL     1      -1.513  -7.579  -2.155  1.00  0.00     0.031 C 
ATOM     33  C   UNL     1       2.046  -8.886  -6.450  1.00  0.00     0.029 A 
ATOM     34  C   UNL     1       0.922  -8.579  -5.681  1.00  0.00     0.049 A 
ATOM     35  H   UNL     1      -0.478 -10.025  -5.056  1.00  0.00     0.167 HD
ATOM     36  C   UNL     1      -0.494  -7.154  -4.201  1.00  0.00     0.074 A 
ATOM     37  C   UNL     1      -1.148  -8.120  -3.320  1.00  0.00     0.031 C 
ATOM     38  C   UNL     1       0.362  -7.310  -5.255  1.00  0.00     0.037 A 
BRANCH  25  39
ATOM     39  C   UNL     1       0.587 -12.551  -3.704  1.00  0.00     0.058 A 
ATOM     40  C   UNL     1      -0.176 -13.130  -4.737  1.00  0.00     0.135 A 
ATOM     41  C   UNL     1       0.122 -12.795  -2.392  1.00  0.00     0.135 A 
ATOM     42  F   UNL     1       0.170 -12.955  -6.022  1.00  0.00    -0.206 F 
ATOM     43  C   UNL     1      -1.353 -13.835  -4.489  1.00  0.00     0.059 A 
ATOM     44  C   UNL     1      -1.016 -13.543  -2.119  1.00  0.00     0.059 A 
ATOM     45  F   UNL     1       0.684 -12.240  -1.312  1.00  0.00    -0.206 F 
ATOM     46  C   UNL     1      -1.770 -14.024  -3.175  1.00  0.00     0.060 A 
BRANCH  46  47
ATOM     47  S   UNL     1      -3.342 -14.839  -2.856  1.00  0.00     0.124 S 
ATOM     48  O   UNL     1      -4.287 -13.866  -3.391  1.00  0.00    -0.237 OA
ATOM     49  O   UNL     1      -3.196 -16.077  -3.614  1.00  0.00    -0.237 OA
ATOM     50  O   UNL     1      -3.350 -14.997  -1.404  1.00  0.00    -0.744 OA
ENDBRANCH  46  47
ENDBRANCH  25  39
BRANCH  26  51
ATOM     51  C   UNL     1      -1.345  -5.079  -0.023  1.00  0.00     0.058 A 
ATOM     52  C   UNL     1      -2.677  -4.706  -0.285  1.00  0.00     0.135 A 
ATOM     53  C   UNL     1      -1.014  -5.281   1.332  1.00  0.00     0.135 A 
ATOM     54  F   UNL     1      -3.084  -4.502  -1.547  1.00  0.00    -0.206 F 
ATOM     55  C   UNL     1      -3.639  -4.606   0.727  1.00  0.00     0.059 A 
ATOM     56  C   UNL     1      -1.955  -5.182   2.358  1.00  0.00     0.059 A 
ATOM     57  F   UNL     1       0.219  -5.667   1.691  1.00  0.00    -0.206 F 
ATOM     58  C   UNL     1      -3.273  -4.869   2.046  1.00  0.00     0.060 A 
BRANCH  58  59
ATOM     59  S   UNL     1      -4.544  -4.898   3.333  1.00  0.00     0.124 S 
ATOM     60  O   UNL     1      -4.916  -3.489   3.417  1.00  0.00    -0.237 OA
ATOM     61  O   UNL     1      -5.545  -5.791   2.759  1.00  0.00    -0.237 OA
ATOM     62  O   UNL     1      -3.835  -5.422   4.497  1.00  0.00    -0.744 OA
ENDBRANCH  58  59
ENDBRANCH  26  51
BRANCH  38  63
ATOM     63  C   UNL     1       0.927  -6.068  -5.905  1.00  0.00     0.058 A 
ATOM     64  C   UNL     1       1.801  -5.157  -5.284  1.00  0.00     0.135 A 
ATOM     65  C   UNL     1       0.683  -5.879  -7.275  1.00  0.00     0.135 A 
ATOM     66  F   UNL     1       2.160  -5.310  -4.002  1.00  0.00    -0.206 F 
ATOM     67  C   UNL     1       2.381  -4.095  -5.985  1.00  0.00     0.059 A 
ATOM     68  C   UNL     1       1.273  -4.847  -8.000  1.00  0.00     0.059 A 
ATOM     69  F   UNL     1      -0.101  -6.742  -7.942  1.00  0.00    -0.206 F 
ATOM     70  C   UNL     1       2.115  -3.951  -7.346  1.00  0.00     0.060 A 
BRANCH  70  71
ATOM     71  S   UNL     1       2.923  -2.624  -8.269  1.00  0.00     0.124 S 
ATOM     72  O   UNL     1       2.297  -1.432  -7.707  1.00  0.00    -0.237 OA
ATOM     73  O   UNL     1       4.331  -2.817  -7.933  1.00  0.00    -0.237 OA
ATOM     74  O   UNL     1       2.577  -2.913  -9.659  1.00  0.00    -0.744 OA
ENDBRANCH  70  71
ENDBRANCH  38  63
ENDBRANCH  12  13
ENDBRANCH   5   7
ENDBRANCH   2   3
ENDBRANCH   1   2
BRANCH   1  75
ATOM     75  C   UNL     1       9.231  -5.849   3.742  1.00  0.00     0.023 C 
BRANCH  75  76
ATOM     76  C   UNL     1       7.942  -5.026   3.640  1.00  0.00     0.116 C 
BRANCH  76  77
ATOM     77  N   UNL     1       6.860  -5.573   4.443  1.00  0.00    -0.356 N 
ATOM     78  C   UNL     1       6.078  -5.001   5.405  1.00  0.00     0.224 C 
ATOM     79  H   UNL     1       6.656  -6.518   4.261  1.00  0.00     0.163 HD
ATOM     80  O   UNL     1       5.170  -5.685   5.873  1.00  0.00    -0.275 OA
BRANCH  78  81
ATOM     81  C   UNL     1       6.339  -3.571   5.839  1.00  0.00     0.095 C 
ATOM     82  C   UNL     1       7.350  -3.468   6.992  1.00  0.00     0.041 C 
ATOM     83  C   UNL     1       5.032  -2.795   6.119  1.00  0.00     0.095 C 
ATOM     84  C   UNL     1       7.406  -2.077   7.577  1.00  0.00    -0.030 C 
ATOM     85  C   UNL     1       5.430  -1.306   6.250  1.00  0.00     0.041 C 
ATOM     86  C   UNL     1       6.563  -1.094   7.221  1.00  0.00    -0.030 C 
BRANCH  83  87
ATOM     87  C   UNL     1       4.293  -3.204   7.403  1.00  0.00     0.226 C 
ATOM     88  O   UNL     1       4.817  -3.920   8.258  1.00  0.00    -0.275 OA
ATOM     89  N   UNL     1       3.075  -2.592   7.654  1.00  0.00    -0.339 N 
ATOM     90  C   UNL     1       2.662  -2.435   9.050  1.00  0.00     0.141 C 
ATOM     91  C   UNL     1       2.122  -2.051   6.671  1.00  0.00     0.141 C 
ATOM     92  C   UNL     1       2.461  -0.943   9.331  1.00  0.00     0.141 C 
ATOM     93  C   UNL     1       1.724  -0.593   6.993  1.00  0.00     0.141 C 
ATOM     94  N   UNL     1       1.442  -0.397   8.428  1.00  0.00    -0.334 N 
ATOM     95  C   UNL     1       0.354   0.275   8.983  1.00  0.00     0.265 C 
ATOM     96  O   UNL     1       0.297   0.491  10.194  1.00  0.00    -0.268 OA
BRANCH  95  97
ATOM     97  C   UNL     1      -0.685   0.740   8.094  1.00  0.00     0.112 A 
ATOM     98  S   UNL     1      -0.971   2.416   8.007  1.00  0.00    -0.128 S 
ATOM     99  C   UNL     1      -1.574   0.024   7.324  1.00  0.00     0.072 A 
ATOM    100  C   UNL     1      -2.252   2.216   6.879  1.00  0.00     0.043 A 
ATOM    101  C   UNL     1      -2.463   0.869   6.569  1.00  0.00     0.012 A 
ATOM    102  Cl  UNL     1      -1.650  -1.690   7.251  1.00  0.00    -0.082 Cl
ATOM    103  C   UNL     1      -3.025   3.247   6.312  1.00  0.00     0.105 A 
ATOM    104  C   UNL     1      -3.477   0.559   5.623  1.00  0.00     0.018 A 
ATOM    105  C   UNL     1      -4.025   2.900   5.394  1.00  0.00     0.270 A 
ATOM    106  C   UNL     1      -4.247   1.572   5.038  1.00  0.00     0.086 A 
BRANCH 105 107
ATOM    107  N   UNL     1      -4.852   3.965   4.811  1.00  0.00     0.062 N 
ATOM    108  O   UNL     1      -4.639   5.128   5.186  1.00  0.00    -0.258 OA
ATOM    109  O   UNL     1      -5.719   3.645   3.987  1.00  0.00    -0.258 OA
ENDBRANCH 105 107
ENDBRANCH  95  97
ENDBRANCH  83  87
ENDBRANCH  78  81
ENDBRANCH  76  77
ENDBRANCH  75  76
ENDBRANCH   1  75
TORSDOF 17
