REMARK SMILES CC(C)Cc1cc2c(cc1Cl)C=C(C(=O)NCCCCNC(=O)c1ccc(-c3c4nc(c(-c5c(F)cc(S(=O)(=O)[O-])cc5F)c5ccc([nH]5)c(-c5c(F)cc(S(=O)(=O)[O-])cc5F)c5nc(c(-c6c(F)cc(S(=O)(=O)[O-])cc6F)c6ccc3[nH]6)C=C5)C=C4)cc1)[C@H](C(F)(F)F)O2
REMARK SMILES IDX 19 1 18 2 17 3 16 4 14 5 15 6 13 8 5 9 6 10 10 11 7 12 9 13
REMARK SMILES IDX 11 14 8 15 95 16 12 17 90 18 4 19 2 20 1 21 3 22 91 23 92 24
REMARK SMILES IDX 93 25 94 26 20 27 21 28 22 29 23 31 24 32 25 33 89 34 26 35
REMARK SMILES IDX 88 36 27 37 28 38 29 39 82 40 30 41 87 42 81 43 83 44 31 45
REMARK SMILES IDX 86 46 80 47 79 48 32 50 66 51 45 52 65 53 46 54 49 55 64 56
REMARK SMILES IDX 84 57 47 58 48 59 63 61 85 62 50 63 33 64 34 65 43 66 35 67
REMARK SMILES IDX 36 68 42 69 44 70 37 71 38 72 39 73 40 74 41 75 67 76 68 77
REMARK SMILES IDX 77 78 69 79 70 80 76 81 78 82 71 83 72 84 73 85 74 86 75 87
REMARK SMILES IDX 51 88 52 89 61 90 53 91 54 92 60 93 62 94 55 95 56 96 57 97
REMARK SMILES IDX 58 98 59 99
REMARK H PARENT 16 7 21 30 83 49 49 60
REMARK Flexibility Score: inf
ROOT
ATOM      1  C   UNL     1      -7.071   6.830   4.355  1.00  0.00     0.023 C 
ENDROOT
BRANCH   1   2
ATOM      2  C   UNL     1      -6.628   5.624   3.524  1.00  0.00     0.023 C 
BRANCH   2   3
ATOM      3  C   UNL     1      -6.646   5.851   2.013  1.00  0.00     0.116 C 
BRANCH   3   4
ATOM      4  N   UNL     1      -5.480   6.592   1.571  1.00  0.00    -0.352 N 
ATOM      5  C   UNL     1      -4.321   6.297   0.940  1.00  0.00     0.251 C 
ATOM      6  O   UNL     1      -3.612   7.264   0.645  1.00  0.00    -0.270 OA
ATOM      7  H   UNL     1      -5.549   7.551   1.785  1.00  0.00     0.163 HD
BRANCH   5   8
ATOM      8  C   UNL     1      -3.861   4.920   0.590  1.00  0.00     0.067 C 
ATOM      9  C   UNL     1      -1.217   1.071  -1.369  1.00  0.00    -0.025 A 
ATOM     10  C   UNL     1      -2.324   1.179  -0.506  1.00  0.00     0.052 A 
ATOM     11  C   UNL     1      -0.695   2.254  -1.919  1.00  0.00     0.045 A 
ATOM     12  C   UNL     1      -2.867   2.422  -0.181  1.00  0.00     0.128 A 
ATOM     13  C   UNL     1      -1.237   3.501  -1.581  1.00  0.00     0.032 A 
ATOM     14  Cl  UNL     1       0.593   2.246  -3.071  1.00  0.00    -0.084 Cl
ATOM     15  C   UNL     1      -2.326   3.587  -0.711  1.00  0.00     0.019 A 
ATOM     16  O   UNL     1      -3.969   2.419   0.626  1.00  0.00    -0.475 OA
ATOM     17  C   UNL     1      -2.924   4.870  -0.375  1.00  0.00     0.025 C 
ATOM     18  C   UNL     1      -4.278   3.667   1.315  1.00  0.00     0.314 C 
BRANCH   9  19
ATOM     19  C   UNL     1      -0.692  -0.314  -1.683  1.00  0.00     0.040 C 
BRANCH  19  20
ATOM     20  C   UNL     1       0.755  -0.634  -1.247  1.00  0.00    -0.013 C 
ATOM     21  C   UNL     1       1.034  -0.292   0.217  1.00  0.00     0.008 C 
ATOM     22  C   UNL     1       1.044  -2.118  -1.496  1.00  0.00     0.008 C 
ENDBRANCH  19  20
ENDBRANCH   9  19
BRANCH  18  23
ATOM     23  C   UNL     1      -3.771   3.582   2.764  1.00  0.00     0.429 C 
ATOM     24  F   UNL     1      -2.647   2.838   2.879  1.00  0.00    -0.167 F 
ATOM     25  F   UNL     1      -3.500   4.792   3.300  1.00  0.00    -0.167 F 
ATOM     26  F   UNL     1      -4.715   3.002   3.550  1.00  0.00    -0.167 F 
ENDBRANCH  18  23
ENDBRANCH   5   8
ENDBRANCH   3   4
ENDBRANCH   2   3
ENDBRANCH   1   2
BRANCH   1  27
ATOM     27  C   UNL     1      -8.500   7.297   4.110  1.00  0.00     0.116 C 
BRANCH  27  28
ATOM     28  N   UNL     1      -9.501   6.250   4.276  1.00  0.00    -0.352 N 
ATOM     29  C   UNL     1     -10.803   6.386   4.703  1.00  0.00     0.251 C 
ATOM     30  H   UNL     1      -9.211   5.336   4.057  1.00  0.00     0.163 HD
ATOM     31  O   UNL     1     -11.516   5.401   4.862  1.00  0.00    -0.269 OA
BRANCH  29  32
ATOM     32  C   UNL     1     -11.301   7.740   5.016  1.00  0.00     0.039 A 
ATOM     33  C   UNL     1     -11.128   8.773   4.095  1.00  0.00     0.014 A 
ATOM     34  C   UNL     1     -11.832   7.995   6.283  1.00  0.00     0.014 A 
ATOM     35  C   UNL     1     -11.310  10.086   4.506  1.00  0.00     0.010 A 
ATOM     36  C   UNL     1     -12.097   9.313   6.664  1.00  0.00     0.010 A 
ATOM     37  C   UNL     1     -11.781  10.372   5.800  1.00  0.00    -0.014 A 
BRANCH  37  38
ATOM     38  C   UNL     1     -11.903  11.792   6.221  1.00  0.00     0.031 A 
ATOM     39  C   UNL     1     -11.032  12.350   7.316  1.00  0.00     0.074 A 
ATOM     40  C   UNL     1     -12.741  12.600   5.543  1.00  0.00     0.049 A 
ATOM     41  N   UNL     1     -10.970  13.575   7.772  1.00  0.00    -0.248 NA
ATOM     42  C   UNL     1     -10.114  11.417   7.991  1.00  0.00     0.031 C 
ATOM     43  C   UNL     1     -13.622  12.172   4.454  1.00  0.00     0.029 A 
ATOM     44  N   UNL     1     -12.957  13.950   5.634  1.00  0.00    -0.354 N 
ATOM     45  C   UNL     1     -10.032  13.556   8.798  1.00  0.00     0.074 A 
ATOM     46  C   UNL     1      -9.560  12.193   8.912  1.00  0.00     0.031 C 
ATOM     47  C   UNL     1     -14.225  13.249   3.928  1.00  0.00     0.029 A 
ATOM     48  C   UNL     1     -13.823  14.432   4.682  1.00  0.00     0.049 A 
ATOM     49  H   UNL     1     -12.533  14.520   6.316  1.00  0.00     0.167 HD
ATOM     50  C   UNL     1      -9.597  14.584   9.565  1.00  0.00     0.037 A 
ATOM     51  C   UNL     1     -14.251  15.685   4.441  1.00  0.00     0.037 A 
ATOM     52  C   UNL     1     -10.042  15.946   9.422  1.00  0.00     0.049 A 
ATOM     53  C   UNL     1     -13.763  16.803   5.313  1.00  0.00     0.074 A 
ATOM     54  C   UNL     1      -9.650  17.060  10.144  1.00  0.00     0.029 A 
ATOM     55  N   UNL     1     -10.970  16.381   8.487  1.00  0.00    -0.354 N 
ATOM     56  N   UNL     1     -12.893  16.759   6.293  1.00  0.00    -0.248 NA
ATOM     57  C   UNL     1     -14.328  18.136   5.063  1.00  0.00     0.031 C 
ATOM     58  C   UNL     1     -10.362  18.165   9.663  1.00  0.00     0.029 A 
ATOM     59  C   UNL     1     -11.173  17.744   8.622  1.00  0.00     0.049 A 
ATOM     60  H   UNL     1     -11.418  15.806   7.825  1.00  0.00     0.167 HD
ATOM     61  C   UNL     1     -12.809  18.057   6.782  1.00  0.00     0.074 A 
ATOM     62  C   UNL     1     -13.698  18.867   5.973  1.00  0.00     0.031 C 
ATOM     63  C   UNL     1     -12.070  18.531   7.814  1.00  0.00     0.037 A 
BRANCH  50  64
ATOM     64  C   UNL     1      -8.590  14.281  10.640  1.00  0.00     0.058 A 
ATOM     65  C   UNL     1      -7.239  14.050  10.339  1.00  0.00     0.135 A 
ATOM     66  C   UNL     1      -8.970  14.282  11.992  1.00  0.00     0.135 A 
ATOM     67  F   UNL     1      -6.827  14.021   9.062  1.00  0.00    -0.206 F 
ATOM     68  C   UNL     1      -6.302  13.815  11.341  1.00  0.00     0.059 A 
ATOM     69  C   UNL     1      -8.046  14.069  13.011  1.00  0.00     0.059 A 
ATOM     70  F   UNL     1     -10.250  14.497  12.334  1.00  0.00    -0.206 F 
ATOM     71  C   UNL     1      -6.715  13.827  12.674  1.00  0.00     0.060 A 
BRANCH  71  72
ATOM     72  S   UNL     1      -5.484  13.534  13.963  1.00  0.00     0.124 S 
ATOM     73  O   UNL     1      -5.255  12.099  13.824  1.00  0.00    -0.237 OA
ATOM     74  O   UNL     1      -4.382  14.395  13.544  1.00  0.00    -0.237 OA
ATOM     75  O   UNL     1      -6.167  13.945  15.186  1.00  0.00    -0.744 OA
ENDBRANCH  71  72
ENDBRANCH  50  64
BRANCH  51  76
ATOM     76  C   UNL     1     -15.192  15.933   3.320  1.00  0.00     0.058 A 
ATOM     77  C   UNL     1     -14.762  16.568   2.148  1.00  0.00     0.135 A 
ATOM     78  C   UNL     1     -16.521  15.485   3.376  1.00  0.00     0.135 A 
ATOM     79  F   UNL     1     -13.501  17.016   2.051  1.00  0.00    -0.206 F 
ATOM     80  C   UNL     1     -15.615  16.747   1.064  1.00  0.00     0.059 A 
ATOM     81  C   UNL     1     -17.387  15.633   2.298  1.00  0.00     0.059 A 
ATOM     82  F   UNL     1     -16.974  14.857   4.473  1.00  0.00    -0.206 F 
ATOM     83  C   UNL     1     -16.924  16.269   1.147  1.00  0.00     0.060 A 
BRANCH  83  84
ATOM     84  S   UNL     1     -18.000  16.427  -0.295  1.00  0.00     0.124 S 
ATOM     85  O   UNL     1     -18.365  17.837  -0.235  1.00  0.00    -0.237 OA
ATOM     86  O   UNL     1     -17.111  16.043  -1.388  1.00  0.00    -0.237 OA
ATOM     87  O   UNL     1     -19.076  15.481  -0.013  1.00  0.00    -0.744 OA
ENDBRANCH  83  84
ENDBRANCH  51  76
BRANCH  63  88
ATOM     88  C   UNL     1     -12.198  19.990   8.137  1.00  0.00     0.058 A 
ATOM     89  C   UNL     1     -13.308  20.481   8.840  1.00  0.00     0.135 A 
ATOM     90  C   UNL     1     -11.176  20.890   7.801  1.00  0.00     0.135 A 
ATOM     91  F   UNL     1     -14.314  19.658   9.176  1.00  0.00    -0.206 F 
ATOM     92  C   UNL     1     -13.404  21.822   9.195  1.00  0.00     0.059 A 
ATOM     93  C   UNL     1     -11.243  22.232   8.161  1.00  0.00     0.059 A 
ATOM     94  F   UNL     1     -10.092  20.464   7.133  1.00  0.00    -0.206 F 
ATOM     95  C   UNL     1     -12.364  22.689   8.854  1.00  0.00     0.060 A 
BRANCH  95  96
ATOM     96  S   UNL     1     -12.479  24.417   9.363  1.00  0.00     0.124 S 
ATOM     97  O   UNL     1     -13.463  24.937   8.420  1.00  0.00    -0.237 OA
ATOM     98  O   UNL     1     -12.925  24.306  10.749  1.00  0.00    -0.237 OA
ATOM     99  O   UNL     1     -11.117  24.914   9.188  1.00  0.00    -0.744 OA
ENDBRANCH  95  96
ENDBRANCH  63  88
ENDBRANCH  37  38
ENDBRANCH  29  32
ENDBRANCH  27  28
ENDBRANCH   1  27
TORSDOF 17
