REMARK SMILES O=C(NCCCCNC(=O)c1ccc([C@H]2CCCN(C(=O)c3ccc4[nH]ccc4c3)C2)cc1)c1ccc(-c2c3nc(c(-c4c(F)cc(S(=O)(=O)[O-])cc4F)c4ccc([nH]4)c(-c4c(F)cc(S(=O)(=O)[O-])cc4F)c4nc(c(-c5c(F)cc(S(=O)(=O)[O-])cc5F)c5ccc2[nH]5)C=C4)C=C3)cc1
REMARK SMILES IDX 5 1 4 2 3 3 1 4 2 5 34 7 35 8 99 9 36 10 98 11 37 12 38 13
REMARK SMILES IDX 39 14 92 15 40 16 97 17 91 18 93 19 41 20 96 21 90 22 89 23
REMARK SMILES IDX 42 25 76 26 55 27 75 28 56 29 59 30 74 31 94 32 57 33 58 34
REMARK SMILES IDX 73 36 95 37 60 38 43 39 44 40 53 41 45 42 46 43 52 44 54 45
REMARK SMILES IDX 47 46 48 47 49 48 50 49 51 50 77 51 78 52 87 53 79 54 80 55
REMARK SMILES IDX 86 56 88 57 81 58 82 59 83 60 84 61 85 62 61 63 62 64 71 65
REMARK SMILES IDX 63 66 64 67 70 68 72 69 65 70 66 71 67 72 68 73 69 74 6 75
REMARK SMILES IDX 7 76 8 77 9 78 10 80 11 81 12 82 33 83 13 84 32 85 14 86
REMARK SMILES IDX 15 87 16 88 31 89 17 90 19 91 18 92 20 93 21 94 22 95 23 96
REMARK SMILES IDX 30 97 24 98 29 99 25 100 28 101 26 102 27 103
REMARK H PARENT 3 6 93 24 59 35 8 79 26 104
REMARK Flexibility Score: inf
ROOT
ATOM      1  C   UNL     1       4.523  10.858 -15.048  1.00  0.00     0.023 C 
ENDROOT
BRANCH   1   2
ATOM      2  C   UNL     1       3.776  10.105 -16.138  1.00  0.00     0.116 C 
BRANCH   2   3
ATOM      3  N   UNL     1       2.335  10.319 -16.108  1.00  0.00    -0.352 N 
ATOM      4  O   UNL     1       0.318  10.938 -16.920  1.00  0.00    -0.269 OA
ATOM      5  C   UNL     1       1.499  10.689 -17.139  1.00  0.00     0.251 C 
ATOM      6  H   UNL     1       1.901  10.180 -15.235  1.00  0.00     0.163 HD
BRANCH   5   7
ATOM      7  C   UNL     1       2.053  10.817 -18.506  1.00  0.00     0.039 A 
ATOM      8  C   UNL     1       2.905   9.834 -19.009  1.00  0.00     0.014 A 
ATOM      9  C   UNL     1       1.764  11.953 -19.268  1.00  0.00     0.014 A 
ATOM     10  C   UNL     1       3.610  10.073 -20.179  1.00  0.00     0.010 A 
ATOM     11  C   UNL     1       2.392  12.137 -20.506  1.00  0.00     0.010 A 
ATOM     12  C   UNL     1       3.351  11.217 -20.954  1.00  0.00    -0.014 A 
BRANCH  12  13
ATOM     13  C   UNL     1       4.057  11.362 -22.255  1.00  0.00     0.031 A 
ATOM     14  C   UNL     1       5.011  12.496 -22.521  1.00  0.00     0.074 A 
ATOM     15  C   UNL     1       3.881  10.394 -23.177  1.00  0.00     0.049 A 
ATOM     16  N   UNL     1       5.759  12.706 -23.575  1.00  0.00    -0.248 NA
ATOM     17  C   UNL     1       5.140  13.530 -21.483  1.00  0.00     0.031 C 
ATOM     18  C   UNL     1       2.958   9.262 -23.040  1.00  0.00     0.029 A 
ATOM     19  N   UNL     1       4.488  10.178 -24.387  1.00  0.00    -0.354 N 
ATOM     20  C   UNL     1       6.439  13.895 -23.335  1.00  0.00     0.074 A 
ATOM     21  C   UNL     1       5.992  14.378 -22.045  1.00  0.00     0.031 C 
ATOM     22  C   UNL     1       3.110   8.438 -24.085  1.00  0.00     0.029 A 
ATOM     23  C   UNL     1       4.086   9.015 -25.000  1.00  0.00     0.049 A 
ATOM     24  H   UNL     1       5.147  10.795 -24.778  1.00  0.00     0.167 HD
ATOM     25  C   UNL     1       7.358  14.517 -24.114  1.00  0.00     0.037 A 
ATOM     26  C   UNL     1       4.449   8.473 -26.177  1.00  0.00     0.037 A 
ATOM     27  C   UNL     1       7.804  14.020 -25.393  1.00  0.00     0.049 A 
ATOM     28  C   UNL     1       5.476   9.178 -27.012  1.00  0.00     0.074 A 
ATOM     29  C   UNL     1       8.735  14.575 -26.256  1.00  0.00     0.029 A 
ATOM     30  N   UNL     1       7.358  12.850 -25.992  1.00  0.00    -0.354 N 
ATOM     31  N   UNL     1       6.113  10.297 -26.760  1.00  0.00    -0.248 NA
ATOM     32  C   UNL     1       5.832   8.553 -28.291  1.00  0.00     0.031 C 
ATOM     33  C   UNL     1       8.827  13.759 -27.390  1.00  0.00     0.029 A 
ATOM     34  C   UNL     1       7.986  12.672 -27.216  1.00  0.00     0.049 A 
ATOM     35  H   UNL     1       6.693  12.236 -25.605  1.00  0.00     0.167 HD
ATOM     36  C   UNL     1       6.944  10.512 -27.851  1.00  0.00     0.074 A 
ATOM     37  C   UNL     1       6.757   9.386 -28.745  1.00  0.00     0.031 C 
ATOM     38  C   UNL     1       7.777  11.553 -28.099  1.00  0.00     0.037 A 
BRANCH  25  39
ATOM     39  C   UNL     1       7.951  15.807 -23.614  1.00  0.00     0.058 A 
ATOM     40  C   UNL     1       8.887  15.830 -22.568  1.00  0.00     0.135 A 
ATOM     41  C   UNL     1       7.637  17.028 -24.236  1.00  0.00     0.135 A 
ATOM     42  F   UNL     1       9.213  14.696 -21.929  1.00  0.00    -0.206 F 
ATOM     43  C   UNL     1       9.482  17.017 -22.148  1.00  0.00     0.059 A 
ATOM     44  C   UNL     1       8.237  18.224 -23.847  1.00  0.00     0.059 A 
ATOM     45  F   UNL     1       6.749  17.065 -25.241  1.00  0.00    -0.206 F 
ATOM     46  C   UNL     1       9.152  18.209 -22.796  1.00  0.00     0.060 A 
BRANCH  46  47
ATOM     47  S   UNL     1       9.953  19.735 -22.255  1.00  0.00     0.124 S 
ATOM     48  O   UNL     1       9.292  19.973 -20.975  1.00  0.00    -0.237 OA
ATOM     49  O   UNL     1      11.356  19.342 -22.179  1.00  0.00    -0.237 OA
ATOM     50  O   UNL     1       9.627  20.685 -23.314  1.00  0.00    -0.744 OA
ENDBRANCH  46  47
ENDBRANCH  25  39
BRANCH  26  51
ATOM     51  C   UNL     1       3.813   7.211 -26.635  1.00  0.00     0.058 A 
ATOM     52  C   UNL     1       4.538   6.014 -26.718  1.00  0.00     0.135 A 
ATOM     53  C   UNL     1       2.453   7.178 -26.981  1.00  0.00     0.135 A 
ATOM     54  F   UNL     1       5.841   5.995 -26.399  1.00  0.00    -0.206 F 
ATOM     55  C   UNL     1       3.944   4.832 -27.149  1.00  0.00     0.059 A 
ATOM     56  C   UNL     1       1.829   6.003 -27.383  1.00  0.00     0.059 A 
ATOM     57  F   UNL     1       1.709   8.292 -26.896  1.00  0.00    -0.206 F 
ATOM     58  C   UNL     1       2.587   4.838 -27.480  1.00  0.00     0.060 A 
BRANCH  58  59
ATOM     59  S   UNL     1       1.808   3.296 -28.002  1.00  0.00     0.124 S 
ATOM     60  O   UNL     1       2.272   3.188 -29.380  1.00  0.00    -0.237 OA
ATOM     61  O   UNL     1       2.369   2.331 -27.061  1.00  0.00    -0.237 OA
ATOM     62  O   UNL     1       0.384   3.567 -27.832  1.00  0.00    -0.744 OA
ENDBRANCH  58  59
ENDBRANCH  26  51
BRANCH  38  63
ATOM     63  C   UNL     1       8.546  11.508 -29.389  1.00  0.00     0.058 A 
ATOM     64  C   UNL     1       7.914  11.720 -30.625  1.00  0.00     0.135 A 
ATOM     65  C   UNL     1       9.924  11.246 -29.390  1.00  0.00     0.135 A 
ATOM     66  F   UNL     1       6.596  11.967 -30.676  1.00  0.00    -0.206 F 
ATOM     67  C   UNL     1       8.616  11.632 -31.822  1.00  0.00     0.059 A 
ATOM     68  C   UNL     1      10.651  11.180 -30.575  1.00  0.00     0.059 A 
ATOM     69  F   UNL     1      10.577  11.046 -28.235  1.00  0.00    -0.206 F 
ATOM     70  C   UNL     1       9.983  11.355 -31.787  1.00  0.00     0.060 A 
BRANCH  70  71
ATOM     71  S   UNL     1      10.883  11.236 -33.347  1.00  0.00     0.124 S 
ATOM     72  O   UNL     1      10.471   9.919 -33.823  1.00  0.00    -0.237 OA
ATOM     73  O   UNL     1      10.363  12.373 -34.099  1.00  0.00    -0.237 OA
ATOM     74  O   UNL     1      12.281  11.348 -32.940  1.00  0.00    -0.744 OA
ENDBRANCH  70  71
ENDBRANCH  38  63
ENDBRANCH  12  13
ENDBRANCH   5   7
ENDBRANCH   2   3
ENDBRANCH   1   2
BRANCH   1  75
ATOM     75  C   UNL     1       4.190  10.434 -13.623  1.00  0.00     0.023 C 
BRANCH  75  76
ATOM     76  C   UNL     1       4.290   8.936 -13.352  1.00  0.00     0.116 C 
BRANCH  76  77
ATOM     77  N   UNL     1       5.621   8.400 -13.600  1.00  0.00    -0.352 N 
ATOM     78  C   UNL     1       6.492   7.796 -12.721  1.00  0.00     0.251 C 
ATOM     79  H   UNL     1       5.943   8.480 -14.527  1.00  0.00     0.163 HD
ATOM     80  O   UNL     1       7.629   7.509 -13.052  1.00  0.00    -0.269 OA
BRANCH  78  81
ATOM     81  C   UNL     1       6.035   7.537 -11.342  1.00  0.00     0.039 A 
ATOM     82  C   UNL     1       6.748   8.087 -10.282  1.00  0.00     0.014 A 
ATOM     83  C   UNL     1       4.876   6.798 -11.108  1.00  0.00     0.014 A 
ATOM     84  C   UNL     1       6.228   7.996  -8.990  1.00  0.00     0.005 A 
ATOM     85  C   UNL     1       4.347   6.736  -9.820  1.00  0.00     0.005 A 
ATOM     86  C   UNL     1       4.985   7.381  -8.747  1.00  0.00    -0.043 A 
BRANCH  86  87
ATOM     87  C   UNL     1       4.381   7.429  -7.344  1.00  0.00     0.039 C 
ATOM     88  C   UNL     1       4.327   8.883  -6.807  1.00  0.00     0.012 C 
ATOM     89  C   UNL     1       2.966   6.814  -7.237  1.00  0.00     0.128 C 
ATOM     90  C   UNL     1       3.703   8.962  -5.412  1.00  0.00     0.022 C 
ATOM     91  N   UNL     1       2.438   6.928  -5.883  1.00  0.00    -0.338 N 
ATOM     92  C   UNL     1       2.334   8.292  -5.372  1.00  0.00     0.120 C 
BRANCH  91  93
ATOM     93  C   UNL     1       2.183   5.765  -5.167  1.00  0.00     0.253 C 
ATOM     94  O   UNL     1       2.353   4.630  -5.605  1.00  0.00    -0.269 OA
BRANCH  93  95
ATOM     95  C   UNL     1       1.712   5.884  -3.780  1.00  0.00     0.040 A 
ATOM     96  C   UNL     1       2.627   5.662  -2.750  1.00  0.00     0.016 A 
ATOM     97  C   UNL     1       0.363   6.167  -3.528  1.00  0.00     0.024 A 
ATOM     98  C   UNL     1       2.221   5.742  -1.417  1.00  0.00     0.027 A 
ATOM     99  C   UNL     1      -0.060   6.242  -2.189  1.00  0.00     0.000 A 
ATOM    100  C   UNL     1       0.873   6.033  -1.170  1.00  0.00     0.045 A 
ATOM    101  C   UNL     1      -1.314   6.489  -1.563  1.00  0.00     0.028 A 
ATOM    102  N   UNL     1       0.200   6.159   0.025  1.00  0.00    -0.361 N 
ATOM    103  C   UNL     1      -1.123   6.429  -0.202  1.00  0.00     0.083 A 
ATOM    104  H   UNL     1       0.612   6.067   0.914  1.00  0.00     0.166 HD
ENDBRANCH  93  95
ENDBRANCH  91  93
ENDBRANCH  86  87
ENDBRANCH  78  81
ENDBRANCH  76  77
ENDBRANCH  75  76
ENDBRANCH   1  75
TORSDOF 17
