REMARK SMILES CC1=C(C(=O)NCCCCNC(=O)c2ccc(-c3c4nc(c(-c5c(F)cc(S(=O)(=O)[O-])cc5F)c5ccc([nH]5)c(-c5c(F)cc(S(=O)(=O)[O-])cc5F)c5nc(c(-c6c(F)cc(S(=O)(=O)[O-])cc6F)c6ccc3[nH]6)C=C5)C=C4)cc2)N2C(=O)[C@H](NC(=O)c3cc(C(F)(F)F)nn3C)[C@@H]2SC1
REMARK SMILES IDX 8 1 7 2 6 3 4 4 5 5 3 7 1 8 2 9 99 10 80 11 98 12 81 13
REMARK SMILES IDX 97 14 82 15 83 16 84 17 85 18 86 20 87 21 88 22 95 23 89 24
REMARK SMILES IDX 94 25 96 26 90 27 91 28 92 29 93 30 9 31 10 32 11 33 12 34
REMARK SMILES IDX 13 36 14 37 15 38 79 39 16 40 78 41 17 42 18 43 19 44 72 45
REMARK SMILES IDX 20 46 77 47 71 48 73 49 21 50 76 51 70 52 69 53 22 55 56 56
REMARK SMILES IDX 35 57 55 58 36 59 39 60 54 61 74 62 37 63 38 64 53 66 75 67
REMARK SMILES IDX 40 68 23 69 24 70 33 71 25 72 26 73 32 74 34 75 27 76 28 77
REMARK SMILES IDX 29 78 30 79 31 80 57 81 58 82 67 83 59 84 60 85 66 86 68 87
REMARK SMILES IDX 61 88 62 89 63 90 64 91 65 92 41 93 42 94 51 95 43 96 44 97
REMARK SMILES IDX 50 98 52 99 45 100 46 101 47 102 48 103 49 104
REMARK H PARENT 6 6 84 19 11 35 73 54 39 65
REMARK Flexibility Score: inf
ROOT
ATOM      1  C   UNL     1       0.741  -2.339   0.607  1.00  0.00     0.023 C 
ENDROOT
BRANCH   1   2
ATOM      2  C   UNL     1      -0.501  -1.482   0.331  1.00  0.00     0.116 C 
BRANCH   2   3
ATOM      3  N   UNL     1      -0.990  -0.957   1.585  1.00  0.00    -0.351 N 
ATOM      4  C   UNL     1      -0.719   0.190   2.256  1.00  0.00     0.268 C 
ATOM      5  O   UNL     1      -1.013   0.228   3.455  1.00  0.00    -0.268 OA
ATOM      6  H   UNL     1      -1.642  -1.540   2.037  1.00  0.00     0.163 HD
BRANCH   4   7
ATOM      7  C   UNL     1      -0.158   1.447   1.622  1.00  0.00     0.110 C 
ATOM      8  C   UNL     1       2.006   0.567   0.620  1.00  0.00     0.043 C 
ATOM      9  C   UNL     1       0.989   1.629   0.917  1.00  0.00    -0.034 C 
ATOM     10  C   UNL     1       1.467   2.972   0.367  1.00  0.00     0.104 C 
ATOM     11  N   UNL     1      -0.835   2.567   2.004  1.00  0.00    -0.290 N 
ATOM     12  S   UNL     1       0.420   4.415   0.679  1.00  0.00    -0.129 SA
ATOM     13  C   UNL     1      -2.049   2.907   2.470  1.00  0.00     0.253 C 
ATOM     14  C   UNL     1      -0.164   3.809   2.282  1.00  0.00     0.181 C 
ATOM     15  O   UNL     1      -3.113   2.329   2.526  1.00  0.00    -0.272 OA
ATOM     16  C   UNL     1      -1.531   4.341   2.803  1.00  0.00     0.206 C 
BRANCH  16  17
ATOM     17  N   UNL     1      -2.135   5.461   2.045  1.00  0.00    -0.336 N 
ATOM     18  C   UNL     1      -2.245   6.778   2.409  1.00  0.00     0.270 C 
ATOM     19  H   UNL     1      -2.507   5.229   1.163  1.00  0.00     0.164 HD
ATOM     20  O   UNL     1      -2.821   7.551   1.647  1.00  0.00    -0.268 OA
BRANCH  18  21
ATOM     21  C   UNL     1      -1.726   7.189   3.689  1.00  0.00     0.126 A 
ATOM     22  C   UNL     1      -0.500   6.961   4.291  1.00  0.00     0.069 A 
ATOM     23  N   UNL     1      -2.407   7.985   4.576  1.00  0.00    -0.262 N 
ATOM     24  C   UNL     1      -0.558   7.588   5.565  1.00  0.00     0.167 A 
ATOM     25  N   UNL     1      -1.737   8.216   5.724  1.00  0.00    -0.168 NA
ATOM     26  C   UNL     1      -3.744   8.520   4.450  1.00  0.00     0.174 C 
BRANCH  24  27
ATOM     27  C   UNL     1       0.510   7.578   6.628  1.00  0.00     0.435 C 
ATOM     28  F   UNL     1       1.001   8.818   6.891  1.00  0.00    -0.164 F 
ATOM     29  F   UNL     1       0.071   7.063   7.807  1.00  0.00    -0.164 F 
ATOM     30  F   UNL     1       1.578   6.816   6.254  1.00  0.00    -0.164 F 
ENDBRANCH  24  27
ENDBRANCH  18  21
ENDBRANCH  16  17
ENDBRANCH   4   7
ENDBRANCH   2   3
ENDBRANCH   1   2
BRANCH   1  31
ATOM     31  C   UNL     1       0.476  -3.817   0.867  1.00  0.00     0.023 C 
BRANCH  31  32
ATOM     32  C   UNL     1       0.045  -4.597  -0.361  1.00  0.00     0.116 C 
BRANCH  32  33
ATOM     33  N   UNL     1       1.011  -4.547  -1.452  1.00  0.00    -0.352 N 
ATOM     34  C   UNL     1       1.314  -5.530  -2.364  1.00  0.00     0.251 C 
ATOM     35  H   UNL     1       1.509  -3.703  -1.547  1.00  0.00     0.163 HD
ATOM     36  O   UNL     1       2.216  -5.366  -3.179  1.00  0.00    -0.269 OA
BRANCH  34  37
ATOM     37  C   UNL     1       0.567  -6.802  -2.305  1.00  0.00     0.039 A 
ATOM     38  C   UNL     1       1.277  -8.002  -2.260  1.00  0.00     0.014 A 
ATOM     39  C   UNL     1      -0.826  -6.793  -2.199  1.00  0.00     0.014 A 
ATOM     40  C   UNL     1       0.589  -9.194  -2.031  1.00  0.00     0.010 A 
ATOM     41  C   UNL     1      -1.494  -7.965  -1.877  1.00  0.00     0.010 A 
ATOM     42  C   UNL     1      -0.795  -9.179  -1.796  1.00  0.00    -0.014 A 
BRANCH  42  43
ATOM     43  C   UNL     1      -1.544 -10.421  -1.486  1.00  0.00     0.031 A 
ATOM     44  C   UNL     1      -2.631 -10.883  -2.418  1.00  0.00     0.074 A 
ATOM     45  C   UNL     1      -1.300 -11.085  -0.339  1.00  0.00     0.049 A 
ATOM     46  N   UNL     1      -3.461 -11.884  -2.287  1.00  0.00    -0.248 NA
ATOM     47  C   UNL     1      -2.835 -10.092  -3.644  1.00  0.00     0.031 C 
ATOM     48  C   UNL     1      -0.314 -10.699   0.674  1.00  0.00     0.029 A 
ATOM     49  N   UNL     1      -1.873 -12.220   0.177  1.00  0.00    -0.354 N 
ATOM     50  C   UNL     1      -4.296 -11.829  -3.397  1.00  0.00     0.074 A 
ATOM     51  C   UNL     1      -3.913 -10.661  -4.159  1.00  0.00     0.031 C 
ATOM     52  C   UNL     1      -0.333 -11.595   1.673  1.00  0.00     0.029 A 
ATOM     53  C   UNL     1      -1.355 -12.599   1.393  1.00  0.00     0.049 A 
ATOM     54  H   UNL     1      -2.589 -12.717  -0.282  1.00  0.00     0.167 HD
ATOM     55  C   UNL     1      -5.273 -12.691  -3.765  1.00  0.00     0.037 A 
ATOM     56  C   UNL     1      -1.672 -13.637   2.191  1.00  0.00     0.037 A 
ATOM     57  C   UNL     1      -5.618 -13.873  -3.023  1.00  0.00     0.049 A 
ATOM     58  C   UNL     1      -2.744 -14.596   1.748  1.00  0.00     0.074 A 
ATOM     59  C   UNL     1      -6.547 -14.848  -3.340  1.00  0.00     0.029 A 
ATOM     60  N   UNL     1      -5.041 -14.246  -1.818  1.00  0.00    -0.354 N 
ATOM     61  N   UNL     1      -3.481 -14.565   0.663  1.00  0.00    -0.248 NA
ATOM     62  C   UNL     1      -3.024 -15.736   2.632  1.00  0.00     0.031 C 
ATOM     63  C   UNL     1      -6.556 -15.793  -2.309  1.00  0.00     0.029 A 
ATOM     64  C   UNL     1      -5.602 -15.430  -1.372  1.00  0.00     0.049 A 
ATOM     65  H   UNL     1      -4.336 -13.743  -1.349  1.00  0.00     0.167 HD
ATOM     66  C   UNL     1      -4.289 -15.695   0.719  1.00  0.00     0.074 A 
ATOM     67  C   UNL     1      -3.944 -16.394   1.940  1.00  0.00     0.031 C 
ATOM     68  C   UNL     1      -5.231 -16.117  -0.160  1.00  0.00     0.037 A 
BRANCH  55  69
ATOM     69  C   UNL     1      -6.022 -12.391  -5.033  1.00  0.00     0.058 A 
ATOM     70  C   UNL     1      -5.410 -12.506  -6.293  1.00  0.00     0.135 A 
ATOM     71  C   UNL     1      -7.372 -12.007  -4.994  1.00  0.00     0.135 A 
ATOM     72  F   UNL     1      -4.116 -12.850  -6.387  1.00  0.00    -0.206 F 
ATOM     73  C   UNL     1      -6.101 -12.220  -7.465  1.00  0.00     0.059 A 
ATOM     74  C   UNL     1      -8.090 -11.745  -6.156  1.00  0.00     0.059 A 
ATOM     75  F   UNL     1      -8.004 -11.879  -3.817  1.00  0.00    -0.206 F 
ATOM     76  C   UNL     1      -7.441 -11.839  -7.387  1.00  0.00     0.060 A 
BRANCH  76  77
ATOM     77  S   UNL     1      -8.323 -11.476  -8.919  1.00  0.00     0.124 S 
ATOM     78  O   UNL     1      -7.758 -10.180  -9.279  1.00  0.00    -0.237 OA
ATOM     79  O   UNL     1      -7.939 -12.595  -9.773  1.00  0.00    -0.237 OA
ATOM     80  O   UNL     1      -9.724 -11.458  -8.508  1.00  0.00    -0.744 OA
ENDBRANCH  76  77
ENDBRANCH  55  69
BRANCH  56  81
ATOM     81  C   UNL     1      -0.944 -13.844   3.472  1.00  0.00     0.058 A 
ATOM     82  C   UNL     1      -0.043 -14.908   3.623  1.00  0.00     0.135 A 
ATOM     83  C   UNL     1      -1.129 -12.984   4.565  1.00  0.00     0.135 A 
ATOM     84  F   UNL     1       0.165 -15.761   2.608  1.00  0.00    -0.206 F 
ATOM     85  C   UNL     1       0.635 -15.127   4.818  1.00  0.00     0.059 A 
ATOM     86  C   UNL     1      -0.444 -13.167   5.763  1.00  0.00     0.059 A 
ATOM     87  F   UNL     1      -1.966 -11.940   4.465  1.00  0.00    -0.206 F 
ATOM     88  C   UNL     1       0.427 -14.249   5.884  1.00  0.00     0.060 A 
BRANCH  88  89
ATOM     89  S   UNL     1       1.343 -14.516   7.418  1.00  0.00     0.124 S 
ATOM     90  O   UNL     1       0.649 -15.671   7.976  1.00  0.00    -0.237 OA
ATOM     91  O   UNL     1       2.697 -14.760   6.928  1.00  0.00    -0.237 OA
ATOM     92  O   UNL     1       1.162 -13.260   8.138  1.00  0.00    -0.744 OA
ENDBRANCH  88  89
ENDBRANCH  56  81
BRANCH  68  93
ATOM     93  C   UNL     1      -5.928 -17.414   0.142  1.00  0.00     0.058 A 
ATOM     94  C   UNL     1      -6.896 -17.513   1.153  1.00  0.00     0.135 A 
ATOM     95  C   UNL     1      -5.665 -18.555  -0.632  1.00  0.00     0.135 A 
ATOM     96  F   UNL     1      -7.179 -16.452   1.924  1.00  0.00    -0.206 F 
ATOM     97  C   UNL     1      -7.565 -18.707   1.400  1.00  0.00     0.059 A 
ATOM     98  C   UNL     1      -6.341 -19.752  -0.420  1.00  0.00     0.059 A 
ATOM     99  F   UNL     1      -4.756 -18.509  -1.619  1.00  0.00    -0.206 F 
ATOM    100  C   UNL     1      -7.282 -19.821   0.606  1.00  0.00     0.060 A 
BRANCH 100 101
ATOM    101  S   UNL     1      -8.186 -21.353   0.910  1.00  0.00     0.124 S 
ATOM    102  O   UNL     1      -7.544 -21.835   2.129  1.00  0.00    -0.237 OA
ATOM    103  O   UNL     1      -9.560 -20.883   1.060  1.00  0.00    -0.237 OA
ATOM    104  O   UNL     1      -7.928 -22.143  -0.290  1.00  0.00    -0.744 OA
ENDBRANCH 100 101
ENDBRANCH  68  93
ENDBRANCH  42  43
ENDBRANCH  34  37
ENDBRANCH  32  33
ENDBRANCH  31  32
ENDBRANCH   1  31
TORSDOF 17
