REMARK SMILES C[C@H]1OCC[C@@H]1C(=O)Nc1ccc(Cl)c(C(=O)NCCCCNC(=O)c2ccc(-c3c4nc(c(-c5c(F)cc(S(=O)(=O)[O-])cc5F)c5ccc([nH]5)c(-c5c(F)cc(S(=O)(=O)[O-])cc5F)c5nc(c(-c6c(F)cc(S(=O)(=O)[O-])cc6F)c6ccc3[nH]6)C=C5)C=C4)cc2)c1
REMARK SMILES IDX 21 1 20 2 19 3 18 4 16 5 17 6 15 8 10 9 11 10 92 11 12 12
REMARK SMILES IDX 13 13 14 14 9 15 7 16 8 17 6 19 1 20 2 21 3 22 4 23 5 24
REMARK SMILES IDX 22 25 23 26 24 27 25 29 26 30 27 31 91 32 28 33 90 34 29 35
REMARK SMILES IDX 30 36 31 37 84 38 32 39 89 40 83 41 85 42 33 43 88 44 82 45
REMARK SMILES IDX 81 46 34 48 68 49 47 50 67 51 48 52 51 53 66 54 86 55 49 56
REMARK SMILES IDX 50 57 65 59 87 60 52 61 35 62 36 63 45 64 37 65 38 66 44 67
REMARK SMILES IDX 46 68 39 69 40 70 41 71 42 72 43 73 69 74 70 75 79 76 71 77
REMARK SMILES IDX 72 78 78 79 80 80 73 81 74 82 75 83 76 84 77 85 53 86 54 87
REMARK SMILES IDX 63 88 55 89 56 90 62 91 64 92 57 93 58 94 59 95 60 96 61 97
REMARK H PARENT 18 7 9 18 23 28 85 47 51 58
REMARK Flexibility Score: inf
ROOT
ATOM      1  C   UNL     1      -2.613   4.695   7.897  1.00  0.00     0.023 C 
ENDROOT
BRANCH   1   2
ATOM      2  C   UNL     1      -3.179   3.692   6.899  1.00  0.00     0.023 C 
BRANCH   2   3
ATOM      3  C   UNL     1      -2.306   3.367   5.699  1.00  0.00     0.116 C 
BRANCH   3   4
ATOM      4  N   UNL     1      -1.017   2.761   5.984  1.00  0.00    -0.352 N 
ATOM      5  C   UNL     1      -0.287   1.867   5.226  1.00  0.00     0.252 C 
ATOM      6  O   UNL     1       0.832   1.527   5.607  1.00  0.00    -0.269 OA
ATOM      7  H   UNL     1      -0.607   3.024   6.839  1.00  0.00     0.163 HD
BRANCH   5   8
ATOM      8  C   UNL     1      -0.869   1.202   4.034  1.00  0.00     0.060 A 
ATOM      9  C   UNL     1      -1.181  -0.865   2.816  1.00  0.00     0.042 A 
ATOM     10  C   UNL     1      -2.205  -0.273   2.092  1.00  0.00     0.028 A 
ATOM     11  C   UNL     1      -0.620  -0.177   3.890  1.00  0.00     0.041 A 
ATOM     12  C   UNL     1      -2.398   1.099   2.175  1.00  0.00     0.023 A 
ATOM     13  C   UNL     1      -1.613   1.850   3.044  1.00  0.00     0.053 A 
ATOM     14  Cl  UNL     1      -1.486   3.537   2.693  1.00  0.00    -0.083 Cl
BRANCH   9  15
ATOM     15  N   UNL     1      -0.685  -2.118   2.451  1.00  0.00    -0.326 N 
ATOM     16  C   UNL     1      -0.262  -2.544   1.217  1.00  0.00     0.230 C 
ATOM     17  O   UNL     1      -0.037  -3.755   1.086  1.00  0.00    -0.274 OA
ATOM     18  H   UNL     1      -0.632  -2.784   3.174  1.00  0.00     0.169 HD
BRANCH  16  19
ATOM     19  C   UNL     1       0.046  -1.609   0.029  1.00  0.00     0.110 C 
ATOM     20  C   UNL     1       2.081  -0.163  -0.467  1.00  0.00     0.039 C 
ATOM     21  C   UNL     1       0.827  -0.345   0.385  1.00  0.00     0.127 C 
ATOM     22  O   UNL     1      -0.044   0.764   0.116  1.00  0.00    -0.378 OA
ATOM     23  C   UNL     1      -0.979   0.370  -0.888  1.00  0.00     0.161 C 
ATOM     24  C   UNL     1      -1.127  -1.138  -0.806  1.00  0.00     0.044 C 
ENDBRANCH  16  19
ENDBRANCH   9  15
ENDBRANCH   5   8
ENDBRANCH   3   4
ENDBRANCH   2   3
ENDBRANCH   1   2
BRANCH   1  25
ATOM     25  C   UNL     1      -1.946   5.941   7.321  1.00  0.00     0.116 C 
BRANCH  25  26
ATOM     26  N   UNL     1      -2.808   6.746   6.465  1.00  0.00    -0.352 N 
ATOM     27  C   UNL     1      -3.214   8.056   6.593  1.00  0.00     0.251 C 
ATOM     28  H   UNL     1      -3.154   6.281   5.669  1.00  0.00     0.163 HD
ATOM     29  O   UNL     1      -3.994   8.539   5.776  1.00  0.00    -0.269 OA
BRANCH  27  30
ATOM     30  C   UNL     1      -2.759   8.863   7.746  1.00  0.00     0.039 A 
ATOM     31  C   UNL     1      -3.714   9.537   8.512  1.00  0.00     0.014 A 
ATOM     32  C   UNL     1      -1.412   8.905   8.108  1.00  0.00     0.014 A 
ATOM     33  C   UNL     1      -3.335  10.141   9.713  1.00  0.00     0.010 A 
ATOM     34  C   UNL     1      -1.050   9.434   9.344  1.00  0.00     0.010 A 
ATOM     35  C   UNL     1      -2.012  10.032  10.172  1.00  0.00    -0.014 A 
BRANCH  35  36
ATOM     36  C   UNL     1      -1.624  10.472  11.539  1.00  0.00     0.031 A 
ATOM     37  C   UNL     1      -0.589  11.544  11.727  1.00  0.00     0.074 A 
ATOM     38  C   UNL     1      -2.130   9.826  12.610  1.00  0.00     0.049 A 
ATOM     39  N   UNL     1      -0.030  11.966  12.832  1.00  0.00    -0.248 NA
ATOM     40  C   UNL     1      -0.095  12.209  10.511  1.00  0.00     0.031 C 
ATOM     41  C   UNL     1      -3.100   8.729  12.560  1.00  0.00     0.029 A 
ATOM     42  N   UNL     1      -1.883   9.982  13.952  1.00  0.00    -0.354 N 
ATOM     43  C   UNL     1       0.894  12.928  12.445  1.00  0.00     0.074 A 
ATOM     44  C   UNL     1       0.851  12.998  11.000  1.00  0.00     0.031 C 
ATOM     45  C   UNL     1      -3.377   8.324  13.809  1.00  0.00     0.029 A 
ATOM     46  C   UNL     1      -2.573   9.099  14.749  1.00  0.00     0.049 A 
ATOM     47  H   UNL     1      -1.268  10.663  14.310  1.00  0.00     0.167 HD
ATOM     48  C   UNL     1       1.692  13.697  13.225  1.00  0.00     0.037 A 
ATOM     49  C   UNL     1      -2.551   8.919  16.084  1.00  0.00     0.037 A 
ATOM     50  C   UNL     1       1.709  13.647  14.663  1.00  0.00     0.049 A 
ATOM     51  C   UNL     1      -1.658   9.784  16.928  1.00  0.00     0.074 A 
ATOM     52  C   UNL     1       2.426  14.438  15.543  1.00  0.00     0.029 A 
ATOM     53  N   UNL     1       0.976  12.755  15.434  1.00  0.00    -0.354 N 
ATOM     54  N   UNL     1      -0.838  10.735  16.549  1.00  0.00    -0.248 NA
ATOM     55  C   UNL     1      -1.682   9.553  18.380  1.00  0.00     0.031 C 
ATOM     56  C   UNL     1       2.156  14.001  16.844  1.00  0.00     0.029 A 
ATOM     57  C   UNL     1       1.242  12.962  16.777  1.00  0.00     0.049 A 
ATOM     58  H   UNL     1       0.359  12.076  15.078  1.00  0.00     0.167 HD
ATOM     59  C   UNL     1      -0.262  11.226  17.715  1.00  0.00     0.074 A 
ATOM     60  C   UNL     1      -0.836  10.477  18.814  1.00  0.00     0.031 C 
ATOM     61  C   UNL     1       0.660  12.209  17.860  1.00  0.00     0.037 A 
BRANCH  48  62
ATOM     62  C   UNL     1       2.610  14.667  12.535  1.00  0.00     0.058 A 
ATOM     63  C   UNL     1       2.118  15.823  11.908  1.00  0.00     0.135 A 
ATOM     64  C   UNL     1       3.998  14.456  12.526  1.00  0.00     0.135 A 
ATOM     65  F   UNL     1       0.798  16.065  11.875  1.00  0.00    -0.206 F 
ATOM     66  C   UNL     1       2.967  16.721  11.270  1.00  0.00     0.059 A 
ATOM     67  C   UNL     1       4.868  15.354  11.915  1.00  0.00     0.059 A 
ATOM     68  F   UNL     1       4.520  13.367  13.111  1.00  0.00    -0.206 F 
ATOM     69  C   UNL     1       4.341  16.476  11.276  1.00  0.00     0.060 A 
BRANCH  69  70
ATOM     70  S   UNL     1       5.430  17.650  10.443  1.00  0.00     0.124 S 
ATOM     71  O   UNL     1       5.189  17.324   9.041  1.00  0.00    -0.237 OA
ATOM     72  O   UNL     1       4.907  18.937  10.892  1.00  0.00    -0.237 OA
ATOM     73  O   UNL     1       6.754  17.305  10.950  1.00  0.00    -0.744 OA
ENDBRANCH  69  70
ENDBRANCH  48  62
BRANCH  49  74
ATOM     74  C   UNL     1      -3.413   7.879  16.707  1.00  0.00     0.058 A 
ATOM     75  C   UNL     1      -4.545   8.238  17.453  1.00  0.00     0.135 A 
ATOM     76  C   UNL     1      -3.137   6.512  16.553  1.00  0.00     0.135 A 
ATOM     77  F   UNL     1      -4.846   9.533  17.634  1.00  0.00    -0.206 F 
ATOM     78  C   UNL     1      -5.369   7.279  18.035  1.00  0.00     0.059 A 
ATOM     79  C   UNL     1      -3.958   5.534  17.106  1.00  0.00     0.059 A 
ATOM     80  F   UNL     1      -2.075   6.117  15.834  1.00  0.00    -0.206 F 
ATOM     81  C   UNL     1      -5.068   5.928  17.853  1.00  0.00     0.060 A 
BRANCH  81  82
ATOM     82  S   UNL     1      -6.175   4.690  18.562  1.00  0.00     0.124 S 
ATOM     83  O   UNL     1      -5.816   4.750  19.974  1.00  0.00    -0.237 OA
ATOM     84  O   UNL     1      -7.491   5.217  18.213  1.00  0.00    -0.237 OA
ATOM     85  O   UNL     1      -5.796   3.465  17.864  1.00  0.00    -0.744 OA
ENDBRANCH  81  82
ENDBRANCH  49  74
BRANCH  61  86
ATOM     86  C   UNL     1       1.097  12.547  19.257  1.00  0.00     0.058 A 
ATOM     87  C   UNL     1       1.979  11.719  19.969  1.00  0.00     0.135 A 
ATOM     88  C   UNL     1       0.684  13.744  19.863  1.00  0.00     0.135 A 
ATOM     89  F   UNL     1       2.394  10.559  19.437  1.00  0.00    -0.206 F 
ATOM     90  C   UNL     1       2.429  12.062  21.239  1.00  0.00     0.059 A 
ATOM     91  C   UNL     1       1.140  14.118  21.123  1.00  0.00     0.059 A 
ATOM     92  F   UNL     1      -0.153  14.574  19.220  1.00  0.00    -0.206 F 
ATOM     93  C   UNL     1       2.007  13.267  21.807  1.00  0.00     0.060 A 
BRANCH  93  94
ATOM     94  S   UNL     1       2.641  13.727  23.433  1.00  0.00     0.124 S 
ATOM     95  O   UNL     1       1.871  12.850  24.308  1.00  0.00    -0.237 OA
ATOM     96  O   UNL     1       4.063  13.416  23.316  1.00  0.00    -0.237 OA
ATOM     97  O   UNL     1       2.324  15.149  23.531  1.00  0.00    -0.744 OA
ENDBRANCH  93  94
ENDBRANCH  61  86
ENDBRANCH  35  36
ENDBRANCH  27  30
ENDBRANCH  25  26
ENDBRANCH   1  25
TORSDOF 16
