REMARK SMILES Nc1cccc(CC(=O)N2CC(C(=O)NCCCCNC(=O)c3ccc(-c4c5nc(c(-c6c(F)cc(S(=O)(=O)[O-])cc6F)c6ccc([nH]6)c(-c6c(F)cc(S(=O)(=O)[O-])cc6F)c6nc(c(-c7c(F)cc(S(=O)(=O)[O-])cc7F)c7ccc4[nH]7)C=C6)C=C5)cc3)C2)c1
REMARK SMILES IDX 17 1 16 2 15 3 13 4 14 5 12 7 8 8 9 9 10 10 11 11 89 12 7 13
REMARK SMILES IDX 6 14 2 15 3 16 90 17 4 18 5 19 1 20 18 23 19 24 20 25 21 26
REMARK SMILES IDX 22 28 23 29 24 30 88 31 25 32 87 33 26 34 27 35 28 36 81 37
REMARK SMILES IDX 29 38 86 39 80 40 82 41 30 42 85 43 79 44 78 45 31 47 65 48
REMARK SMILES IDX 44 49 64 50 45 51 48 52 63 53 83 54 46 55 47 56 62 58 84 59
REMARK SMILES IDX 49 60 32 61 33 62 42 63 34 64 35 65 41 66 43 67 36 68 37 69
REMARK SMILES IDX 38 70 39 71 40 72 66 73 67 74 76 75 68 76 69 77 75 78 77 79
REMARK SMILES IDX 70 80 71 81 72 82 73 83 74 84 50 85 51 86 60 87 52 88 53 89
REMARK SMILES IDX 59 90 61 91 54 92 55 93 56 94 57 95 58 96
REMARK H PARENT 15 6 1 21 1 22 20 27 82 46 48 57
REMARK Flexibility Score: inf
ROOT
ATOM      1  C   UNL     1       1.895   3.350  -4.396  1.00  0.00     0.023 C 
ENDROOT
BRANCH   1   2
ATOM      2  C   UNL     1       0.505   3.869  -4.764  1.00  0.00     0.116 C 
BRANCH   2   3
ATOM      3  N   UNL     1      -0.115   3.052  -5.787  1.00  0.00    -0.356 N 
ATOM      4  C   UNL     1      -1.172   2.179  -5.733  1.00  0.00     0.226 C 
ATOM      5  O   UNL     1      -1.455   1.614  -6.801  1.00  0.00    -0.275 OA
ATOM      6  H   UNL     1       0.293   3.139  -6.679  1.00  0.00     0.163 HD
BRANCH   4   7
ATOM      7  C   UNL     1      -1.972   1.915  -4.459  1.00  0.00     0.117 C 
ATOM      8  C   UNL     1      -2.724   2.849  -1.277  1.00  0.00     0.227 C 
ATOM      9  O   UNL     1      -3.727   3.558  -1.125  1.00  0.00    -0.275 OA
ATOM     10  N   UNL     1      -2.292   2.530  -2.527  1.00  0.00    -0.341 N 
ATOM     11  C   UNL     1      -2.758   3.050  -3.802  1.00  0.00     0.134 C 
ATOM     12  C   UNL     1      -1.312   1.634  -3.104  1.00  0.00     0.134 C 
BRANCH   8  13
ATOM     13  C   UNL     1      -1.893   2.476  -0.064  1.00  0.00     0.135 C 
BRANCH  13  14
ATOM     14  C   UNL     1      -1.164   1.159  -0.055  1.00  0.00    -0.037 A 
ATOM     15  C   UNL     1       0.951  -0.065  -0.025  1.00  0.00     0.032 A 
ATOM     16  C   UNL     1       0.235  -1.262  -0.020  1.00  0.00     0.025 A 
ATOM     17  C   UNL     1       0.242   1.137  -0.064  1.00  0.00     0.029 A 
ATOM     18  C   UNL     1      -1.162  -1.259   0.002  1.00  0.00     0.002 A 
ATOM     19  C   UNL     1      -1.862  -0.053  -0.007  1.00  0.00     0.004 A 
BRANCH  15  20
ATOM     20  N   UNL     1       2.333  -0.067  -0.109  1.00  0.00    -0.399 N 
ATOM     21  H   UNL     1       2.827  -0.918  -0.081  1.00  0.00     0.156 HD
ATOM     22  H   UNL     1       2.821   0.784  -0.197  1.00  0.00     0.156 HD
ENDBRANCH  15  20
ENDBRANCH  13  14
ENDBRANCH   8  13
ENDBRANCH   4   7
ENDBRANCH   2   3
ENDBRANCH   1   2
BRANCH   1  23
ATOM     23  C   UNL     1       2.937   3.460  -5.515  1.00  0.00     0.023 C 
BRANCH  23  24
ATOM     24  C   UNL     1       3.140   4.858  -6.091  1.00  0.00     0.116 C 
BRANCH  24  25
ATOM     25  N   UNL     1       3.526   5.837  -5.087  1.00  0.00    -0.352 N 
ATOM     26  C   UNL     1       4.499   6.806  -5.151  1.00  0.00     0.251 C 
ATOM     27  H   UNL     1       3.021   5.800  -4.243  1.00  0.00     0.163 HD
ATOM     28  O   UNL     1       4.772   7.462  -4.149  1.00  0.00    -0.269 OA
BRANCH  26  29
ATOM     29  C   UNL     1       5.235   7.031  -6.414  1.00  0.00     0.039 A 
ATOM     30  C   UNL     1       6.628   7.138  -6.373  1.00  0.00     0.014 A 
ATOM     31  C   UNL     1       4.559   7.120  -7.635  1.00  0.00     0.014 A 
ATOM     32  C   UNL     1       7.348   7.259  -7.564  1.00  0.00     0.010 A 
ATOM     33  C   UNL     1       5.283   7.172  -8.824  1.00  0.00     0.010 A 
ATOM     34  C   UNL     1       6.684   7.237  -8.802  1.00  0.00    -0.014 A 
BRANCH  34  35
ATOM     35  C   UNL     1       7.438   7.269 -10.082  1.00  0.00     0.031 A 
ATOM     36  C   UNL     1       7.275   8.429 -11.027  1.00  0.00     0.074 A 
ATOM     37  C   UNL     1       8.216   6.223 -10.424  1.00  0.00     0.049 A 
ATOM     38  N   UNL     1       7.783   8.599 -12.221  1.00  0.00    -0.248 NA
ATOM     39  C   UNL     1       6.407   9.530 -10.582  1.00  0.00     0.031 C 
ATOM     40  C   UNL     1       8.421   5.019  -9.615  1.00  0.00     0.029 A 
ATOM     41  N   UNL     1       8.972   5.997 -11.548  1.00  0.00    -0.354 N 
ATOM     42  C   UNL     1       7.289   9.817 -12.674  1.00  0.00     0.074 A 
ATOM     43  C   UNL     1       6.399  10.318 -11.648  1.00  0.00     0.031 C 
ATOM     44  C   UNL     1       9.262   4.193 -10.257  1.00  0.00     0.029 A 
ATOM     45  C   UNL     1       9.628   4.788 -11.539  1.00  0.00     0.049 A 
ATOM     46  H   UNL     1       9.039   6.640 -12.290  1.00  0.00     0.167 HD
ATOM     47  C   UNL     1       7.571  10.470 -13.826  1.00  0.00     0.037 A 
ATOM     48  C   UNL     1      10.427   4.218 -12.463  1.00  0.00     0.037 A 
ATOM     49  C   UNL     1       8.474   9.979 -14.834  1.00  0.00     0.049 A 
ATOM     50  C   UNL     1      10.717   4.960 -13.740  1.00  0.00     0.074 A 
ATOM     51  C   UNL     1       8.861  10.588 -16.015  1.00  0.00     0.029 A 
ATOM     52  N   UNL     1       9.134   8.759 -14.779  1.00  0.00    -0.354 N 
ATOM     53  N   UNL     1      10.284   6.136 -14.126  1.00  0.00    -0.248 NA
ATOM     54  C   UNL     1      11.609   4.301 -14.704  1.00  0.00     0.031 C 
ATOM     55  C   UNL     1       9.726   9.721 -16.692  1.00  0.00     0.029 A 
ATOM     56  C   UNL     1       9.913   8.591 -15.912  1.00  0.00     0.049 A 
ATOM     57  H   UNL     1       9.059   8.109 -14.044  1.00  0.00     0.167 HD
ATOM     58  C   UNL     1      10.873   6.370 -15.364  1.00  0.00     0.074 A 
ATOM     59  C   UNL     1      11.701   5.219 -15.656  1.00  0.00     0.031 C 
ATOM     60  C   UNL     1      10.742   7.443 -16.183  1.00  0.00     0.037 A 
BRANCH  47  61
ATOM     61  C   UNL     1       6.899  11.797 -14.055  1.00  0.00     0.058 A 
ATOM     62  C   UNL     1       7.246  12.934 -13.307  1.00  0.00     0.135 A 
ATOM     63  C   UNL     1       5.921  11.944 -15.052  1.00  0.00     0.135 A 
ATOM     64  F   UNL     1       8.164  12.847 -12.331  1.00  0.00    -0.206 F 
ATOM     65  C   UNL     1       6.626  14.161 -13.516  1.00  0.00     0.059 A 
ATOM     66  C   UNL     1       5.307  13.169 -15.298  1.00  0.00     0.059 A 
ATOM     67  F   UNL     1       5.551  10.891 -15.797  1.00  0.00    -0.206 F 
ATOM     68  C   UNL     1       5.655  14.268 -14.514  1.00  0.00     0.060 A 
BRANCH  68  69
ATOM     69  S   UNL     1       4.860  15.867 -14.773  1.00  0.00     0.124 S 
ATOM     70  O   UNL     1       3.982  15.947 -13.609  1.00  0.00    -0.237 OA
ATOM     71  O   UNL     1       5.995  16.785 -14.774  1.00  0.00    -0.237 OA
ATOM     72  O   UNL     1       4.185  15.708 -16.057  1.00  0.00    -0.744 OA
ENDBRANCH  68  69
ENDBRANCH  47  61
BRANCH  48  73
ATOM     73  C   UNL     1      11.029   2.883 -12.207  1.00  0.00     0.058 A 
ATOM     74  C   UNL     1      12.404   2.748 -11.965  1.00  0.00     0.135 A 
ATOM     75  C   UNL     1      10.246   1.718 -12.195  1.00  0.00     0.135 A 
ATOM     76  F   UNL     1      13.195   3.833 -11.972  1.00  0.00    -0.206 F 
ATOM     77  C   UNL     1      12.988   1.506 -11.741  1.00  0.00     0.059 A 
ATOM     78  C   UNL     1      10.803   0.466 -11.948  1.00  0.00     0.059 A 
ATOM     79  F   UNL     1       8.923   1.794 -12.403  1.00  0.00    -0.206 F 
ATOM     80  C   UNL     1      12.177   0.369 -11.735  1.00  0.00     0.060 A 
BRANCH  80  81
ATOM     81  S   UNL     1      12.937  -1.235 -11.402  1.00  0.00     0.124 S 
ATOM     82  O   UNL     1      13.628  -1.498 -12.659  1.00  0.00    -0.237 OA
ATOM     83  O   UNL     1      13.789  -0.940 -10.254  1.00  0.00    -0.237 OA
ATOM     84  O   UNL     1      11.792  -2.095 -11.118  1.00  0.00    -0.744 OA
ENDBRANCH  80  81
ENDBRANCH  48  73
BRANCH  60  85
ATOM     85  C   UNL     1      11.540   7.442 -17.457  1.00  0.00     0.058 A 
ATOM     86  C   UNL     1      11.196   6.623 -18.544  1.00  0.00     0.135 A 
ATOM     87  C   UNL     1      12.632   8.311 -17.610  1.00  0.00     0.135 A 
ATOM     88  F   UNL     1      10.165   5.769 -18.446  1.00  0.00    -0.206 F 
ATOM     89  C   UNL     1      11.921   6.650 -19.731  1.00  0.00     0.059 A 
ATOM     90  C   UNL     1      13.355   8.374 -18.798  1.00  0.00     0.059 A 
ATOM     91  F   UNL     1      12.997   9.123 -16.605  1.00  0.00    -0.206 F 
ATOM     92  C   UNL     1      12.998   7.530 -19.849  1.00  0.00     0.060 A 
BRANCH  92  93
ATOM     93  S   UNL     1      13.908   7.582 -21.407  1.00  0.00     0.124 S 
ATOM     94  O   UNL     1      14.685   6.350 -21.335  1.00  0.00    -0.237 OA
ATOM     95  O   UNL     1      12.834   7.598 -22.396  1.00  0.00    -0.237 OA
ATOM     96  O   UNL     1      14.679   8.818 -21.309  1.00  0.00    -0.744 OA
ENDBRANCH  92  93
ENDBRANCH  60  85
ENDBRANCH  34  35
ENDBRANCH  26  29
ENDBRANCH  24  25
ENDBRANCH  23  24
ENDBRANCH   1  23
TORSDOF 17
