REMARK SMILES O=C(NCCCCNC(=O)c1sccc1NS(=O)(=O)N1CCCC1)c1ccc(-c2c3nc(c(-c4c(F)cc(S(=O)(=O)[O-])cc4F)c4ccc([nH]4)c(-c4c(F)cc(S(=O)(=O)[O-])cc4F)c4nc(c(-c5c(F)cc(S(=O)(=O)[O-])cc5F)c5ccc2[nH]5)C=C4)C=C3)cc1
REMARK SMILES IDX 5 1 4 2 3 3 1 4 2 5 25 7 26 8 90 9 27 10 89 11 28 12 29 13
REMARK SMILES IDX 30 14 83 15 31 16 88 17 82 18 84 19 32 20 87 21 81 22 80 23
REMARK SMILES IDX 33 25 67 26 46 27 66 28 47 29 50 30 65 31 85 32 48 33 49 34
REMARK SMILES IDX 64 36 86 37 51 38 34 39 35 40 44 41 36 42 37 43 43 44 45 45
REMARK SMILES IDX 38 46 39 47 40 48 41 49 42 50 68 51 69 52 78 53 70 54 71 55
REMARK SMILES IDX 77 56 79 57 72 58 73 59 74 60 75 61 76 62 52 63 53 64 62 65
REMARK SMILES IDX 54 66 55 67 61 68 63 69 56 70 57 71 58 72 59 73 60 74 6 75
REMARK SMILES IDX 7 76 8 77 9 78 10 80 11 81 12 82 15 83 13 84 14 85 16 86
REMARK SMILES IDX 17 88 18 89 19 90 20 91 21 92 24 93 22 94 23 95
REMARK H PARENT 3 6 84 24 50 35 8 79 16 87
REMARK Flexibility Score: inf
ROOT
ATOM      1  C   UNL     1       5.073  -0.702   2.134  1.00  0.00     0.023 C 
ENDROOT
BRANCH   1   2
ATOM      2  C   UNL     1       4.683  -0.772   0.663  1.00  0.00     0.116 C 
BRANCH   2   3
ATOM      3  N   UNL     1       3.244  -0.855   0.458  1.00  0.00    -0.352 N 
ATOM      4  O   UNL     1       1.186  -0.118  -0.106  1.00  0.00    -0.269 OA
ATOM      5  C   UNL     1       2.402   0.037  -0.161  1.00  0.00     0.251 C 
ATOM      6  H   UNL     1       2.813  -1.666   0.813  1.00  0.00     0.163 HD
BRANCH   5   7
ATOM      7  C   UNL     1       2.974   1.203  -0.863  1.00  0.00     0.039 A 
ATOM      8  C   UNL     1       4.052   1.044  -1.738  1.00  0.00     0.014 A 
ATOM      9  C   UNL     1       2.446   2.471  -0.615  1.00  0.00     0.014 A 
ATOM     10  C   UNL     1       4.707   2.165  -2.234  1.00  0.00     0.010 A 
ATOM     11  C   UNL     1       3.048   3.591  -1.191  1.00  0.00     0.010 A 
ATOM     12  C   UNL     1       4.206   3.449  -1.974  1.00  0.00    -0.014 A 
BRANCH  12  13
ATOM     13  C   UNL     1       4.870   4.640  -2.560  1.00  0.00     0.031 A 
ATOM     14  C   UNL     1       5.477   5.694  -1.678  1.00  0.00     0.074 A 
ATOM     15  C   UNL     1       4.899   4.774  -3.899  1.00  0.00     0.049 A 
ATOM     16  N   UNL     1       6.011   6.841  -2.011  1.00  0.00    -0.248 NA
ATOM     17  C   UNL     1       5.476   5.431  -0.230  1.00  0.00     0.031 C 
ATOM     18  C   UNL     1       4.348   3.810  -4.854  1.00  0.00     0.029 A 
ATOM     19  N   UNL     1       5.401   5.775  -4.690  1.00  0.00    -0.354 N 
ATOM     20  C   UNL     1       6.383   7.451  -0.819  1.00  0.00     0.074 A 
ATOM     21  C   UNL     1       5.993   6.554   0.249  1.00  0.00     0.031 C 
ATOM     22  C   UNL     1       4.550   4.259  -6.100  1.00  0.00     0.029 A 
ATOM     23  C   UNL     1       5.179   5.574  -6.031  1.00  0.00     0.049 A 
ATOM     24  H   UNL     1       5.873   6.561  -4.333  1.00  0.00     0.167 HD
ATOM     25  C   UNL     1       6.995   8.647  -0.636  1.00  0.00     0.037 A 
ATOM     26  C   UNL     1       5.415   6.372  -7.089  1.00  0.00     0.037 A 
ATOM     27  C   UNL     1       7.377   9.525  -1.714  1.00  0.00     0.049 A 
ATOM     28  C   UNL     1       6.053   7.711  -6.863  1.00  0.00     0.074 A 
ATOM     29  C   UNL     1       8.027  10.745  -1.640  1.00  0.00     0.029 A 
ATOM     30  N   UNL     1       7.132   9.286  -3.060  1.00  0.00    -0.354 N 
ATOM     31  N   UNL     1       6.420   8.265  -5.732  1.00  0.00    -0.248 NA
ATOM     32  C   UNL     1       6.312   8.533  -8.050  1.00  0.00     0.031 C 
ATOM     33  C   UNL     1       8.123  11.268  -2.934  1.00  0.00     0.029 A 
ATOM     34  C   UNL     1       7.596  10.345  -3.823  1.00  0.00     0.049 A 
ATOM     35  H   UNL     1       6.693   8.481  -3.419  1.00  0.00     0.167 HD
ATOM     36  C   UNL     1       6.984   9.488  -6.073  1.00  0.00     0.074 A 
ATOM     37  C   UNL     1       6.907   9.593  -7.517  1.00  0.00     0.031 C 
ATOM     38  C   UNL     1       7.524  10.431  -5.263  1.00  0.00     0.037 A 
BRANCH  25  39
ATOM     39  C   UNL     1       7.251   9.091   0.780  1.00  0.00     0.058 A 
ATOM     40  C   UNL     1       8.188   8.449   1.607  1.00  0.00     0.135 A 
ATOM     41  C   UNL     1       6.553  10.186   1.318  1.00  0.00     0.135 A 
ATOM     42  F   UNL     1       8.879   7.392   1.151  1.00  0.00    -0.206 F 
ATOM     43  C   UNL     1       8.387   8.843   2.927  1.00  0.00     0.059 A 
ATOM     44  C   UNL     1       6.759  10.618   2.626  1.00  0.00     0.059 A 
ATOM     45  F   UNL     1       5.650  10.844   0.574  1.00  0.00    -0.206 F 
ATOM     46  C   UNL     1       7.661   9.924   3.430  1.00  0.00     0.060 A 
BRANCH  46  47
ATOM     47  S   UNL     1       7.900  10.397   5.155  1.00  0.00     0.124 S 
ATOM     48  O   UNL     1       7.228   9.304   5.851  1.00  0.00    -0.237 OA
ATOM     49  O   UNL     1       9.354  10.422   5.274  1.00  0.00    -0.237 OA
ATOM     50  O   UNL     1       7.243  11.697   5.248  1.00  0.00    -0.744 OA
ENDBRANCH  46  47
ENDBRANCH  25  39
BRANCH  26  51
ATOM     51  C   UNL     1       5.030   5.906  -8.446  1.00  0.00     0.058 A 
ATOM     52  C   UNL     1       6.001   5.521  -9.380  1.00  0.00     0.135 A 
ATOM     53  C   UNL     1       3.680   5.763  -8.806  1.00  0.00     0.135 A 
ATOM     54  F   UNL     1       7.304   5.643  -9.082  1.00  0.00    -0.206 F 
ATOM     55  C   UNL     1       5.649   5.007 -10.623  1.00  0.00     0.059 A 
ATOM     56  C   UNL     1       3.303   5.226 -10.032  1.00  0.00     0.059 A 
ATOM     57  F   UNL     1       2.713   6.099  -7.938  1.00  0.00    -0.206 F 
ATOM     58  C   UNL     1       4.297   4.853 -10.936  1.00  0.00     0.060 A 
BRANCH  58  59
ATOM     59  S   UNL     1       3.856   4.105 -12.519  1.00  0.00     0.124 S 
ATOM     60  O   UNL     1       4.212   5.166 -13.454  1.00  0.00    -0.237 OA
ATOM     61  O   UNL     1       4.707   2.920 -12.543  1.00  0.00    -0.237 OA
ATOM     62  O   UNL     1       2.427   3.839 -12.379  1.00  0.00    -0.744 OA
ENDBRANCH  58  59
ENDBRANCH  26  51
BRANCH  38  63
ATOM     63  C   UNL     1       8.132  11.644  -5.913  1.00  0.00     0.058 A 
ATOM     64  C   UNL     1       7.346  12.659  -6.479  1.00  0.00     0.135 A 
ATOM     65  C   UNL     1       9.525  11.827  -5.892  1.00  0.00     0.135 A 
ATOM     66  F   UNL     1       6.011  12.529  -6.536  1.00  0.00    -0.206 F 
ATOM     67  C   UNL     1       7.920  13.811  -7.007  1.00  0.00     0.059 A 
ATOM     68  C   UNL     1      10.118  12.982  -6.388  1.00  0.00     0.059 A 
ATOM     69  F   UNL     1      10.322  10.887  -5.357  1.00  0.00    -0.206 F 
ATOM     70  C   UNL     1       9.307  13.968  -6.948  1.00  0.00     0.060 A 
BRANCH  70  71
ATOM     71  S   UNL     1      10.034  15.498  -7.573  1.00  0.00     0.124 S 
ATOM     72  O   UNL     1       9.880  15.330  -9.014  1.00  0.00    -0.237 OA
ATOM     73  O   UNL     1       9.188  16.517  -6.959  1.00  0.00    -0.237 OA
ATOM     74  O   UNL     1      11.406  15.450  -7.079  1.00  0.00    -0.744 OA
ENDBRANCH  70  71
ENDBRANCH  38  63
ENDBRANCH  12  13
ENDBRANCH   5   7
ENDBRANCH   2   3
ENDBRANCH   1   2
BRANCH   1  75
ATOM     75  C   UNL     1       4.620  -1.888   2.973  1.00  0.00     0.023 C 
BRANCH  75  76
ATOM     76  C   UNL     1       4.956  -3.251   2.386  1.00  0.00     0.116 C 
BRANCH  76  77
ATOM     77  N   UNL     1       6.390  -3.502   2.291  1.00  0.00    -0.351 N 
ATOM     78  C   UNL     1       7.117  -4.524   2.869  1.00  0.00     0.263 C 
ATOM     79  H   UNL     1       6.904  -2.862   1.747  1.00  0.00     0.163 HD
ATOM     80  O   UNL     1       8.341  -4.516   2.749  1.00  0.00    -0.268 OA
BRANCH  78  81
ATOM     81  C   UNL     1       6.374  -5.549   3.567  1.00  0.00     0.116 A 
ATOM     82  S   UNL     1       6.789  -5.929   5.177  1.00  0.00    -0.136 S 
ATOM     83  C   UNL     1       5.310  -6.308   3.103  1.00  0.00     0.073 A 
ATOM     84  C   UNL     1       5.385  -6.885   5.358  1.00  0.00     0.068 A 
ATOM     85  C   UNL     1       4.652  -6.950   4.192  1.00  0.00     0.039 A 
BRANCH  83  86
ATOM     86  N   UNL     1       4.959  -6.365   1.748  1.00  0.00    -0.269 N 
ATOM     87  H   UNL     1       5.599  -5.915   1.151  1.00  0.00     0.181 HD
BRANCH  86  88
ATOM     88  S   UNL     1       3.676  -7.040   0.964  1.00  0.00     0.301 S 
ATOM     89  O   UNL     1       2.521  -6.202   1.170  1.00  0.00    -0.189 OA
ATOM     90  O   UNL     1       4.164  -7.303  -0.374  1.00  0.00    -0.189 OA
BRANCH  88  91
ATOM     91  N   UNL     1       3.376  -8.526   1.696  1.00  0.00    -0.185 NA
ATOM     92  C   UNL     1       4.514  -9.363   2.135  1.00  0.00     0.104 C 
ATOM     93  C   UNL     1       2.478  -9.402   0.871  1.00  0.00     0.104 C 
ATOM     94  C   UNL     1       4.607 -10.484   1.134  1.00  0.00     0.018 C 
ATOM     95  C   UNL     1       3.156 -10.769   0.819  1.00  0.00     0.018 C 
ENDBRANCH  88  91
ENDBRANCH  86  88
ENDBRANCH  83  86
ENDBRANCH  78  81
ENDBRANCH  76  77
ENDBRANCH  75  76
ENDBRANCH   1  75
TORSDOF 17
