REMARK SMILES O=C(NCCCCNC(=O)[C@@H]1Cc2[nH]cnc2CN1C(=O)NCC(F)(F)F)c1ccc(-c2c3nc(c(-c4c(F)cc(S(=O)(=O)[O-])cc4F)c4ccc([nH]4)c(-c4c(F)cc(S(=O)(=O)[O-])cc4F)c4nc(c(-c5c(F)cc(S(=O)(=O)[O-])cc5F)c5ccc2[nH]5)C=C4)C=C3)cc1
REMARK SMILES IDX 5 1 4 2 3 3 1 4 2 5 28 7 29 8 93 9 30 10 92 11 31 12 32 13
REMARK SMILES IDX 33 14 86 15 34 16 91 17 85 18 87 19 35 20 90 21 84 22 83 23
REMARK SMILES IDX 36 25 70 26 49 27 69 28 50 29 53 30 68 31 88 32 51 33 52 34
REMARK SMILES IDX 67 36 89 37 54 38 37 39 38 40 47 41 39 42 40 43 46 44 48 45
REMARK SMILES IDX 41 46 42 47 43 48 44 49 45 50 71 51 72 52 81 53 73 54 74 55
REMARK SMILES IDX 80 56 82 57 75 58 76 59 77 60 78 61 79 62 55 63 56 64 65 65
REMARK SMILES IDX 57 66 58 67 64 68 66 69 59 70 60 71 61 72 62 73 63 74 6 75
REMARK SMILES IDX 7 76 8 77 9 78 10 80 11 81 12 82 19 83 13 84 18 85 14 86
REMARK SMILES IDX 17 87 15 88 16 90 20 91 21 92 22 93 23 95 24 96 25 97 26 98
REMARK SMILES IDX 27 99
REMARK H PARENT 3 6 87 24 53 35 8 79 14 89 22 94
REMARK Flexibility Score: inf
ROOT
ATOM      1  C   UNL     1       3.312   8.046  -3.750  1.00  0.00     0.023 C 
ENDROOT
BRANCH   1   2
ATOM      2  C   UNL     1       2.882   7.988  -2.284  1.00  0.00     0.116 C 
BRANCH   2   3
ATOM      3  N   UNL     1       3.750   8.754  -1.414  1.00  0.00    -0.352 N 
ATOM      4  O   UNL     1       4.649  10.341  -0.180  1.00  0.00    -0.269 OA
ATOM      5  C   UNL     1       3.783  10.059  -1.012  1.00  0.00     0.251 C 
ATOM      6  H   UNL     1       4.477   8.215  -1.027  1.00  0.00     0.163 HD
BRANCH   5   7
ATOM      7  C   UNL     1       2.905  11.137  -1.541  1.00  0.00     0.039 A 
ATOM      8  C   UNL     1       1.851  10.962  -2.440  1.00  0.00     0.014 A 
ATOM      9  C   UNL     1       3.214  12.442  -1.114  1.00  0.00     0.014 A 
ATOM     10  C   UNL     1       1.177  12.055  -2.965  1.00  0.00     0.010 A 
ATOM     11  C   UNL     1       2.536  13.540  -1.624  1.00  0.00     0.010 A 
ATOM     12  C   UNL     1       1.544  13.341  -2.579  1.00  0.00    -0.014 A 
BRANCH  12  13
ATOM     13  C   UNL     1       0.754  14.450  -3.099  1.00  0.00     0.031 A 
ATOM     14  C   UNL     1      -0.668  14.462  -2.636  1.00  0.00     0.074 A 
ATOM     15  C   UNL     1       1.320  15.448  -3.806  1.00  0.00     0.049 A 
ATOM     16  N   UNL     1      -1.755  14.488  -3.338  1.00  0.00    -0.248 NA
ATOM     17  C   UNL     1      -0.906  14.290  -1.190  1.00  0.00     0.031 C 
ATOM     18  C   UNL     1       2.747  15.662  -4.068  1.00  0.00     0.029 A 
ATOM     19  N   UNL     1       0.748  16.561  -4.339  1.00  0.00    -0.354 N 
ATOM     20  C   UNL     1      -2.805  14.555  -2.419  1.00  0.00     0.074 A 
ATOM     21  C   UNL     1      -2.236  14.259  -1.133  1.00  0.00     0.031 C 
ATOM     22  C   UNL     1       2.938  16.937  -4.472  1.00  0.00     0.029 A 
ATOM     23  C   UNL     1       1.646  17.584  -4.616  1.00  0.00     0.049 A 
ATOM     24  H   UNL     1      -0.218  16.634  -4.514  1.00  0.00     0.167 HD
ATOM     25  C   UNL     1      -4.019  15.077  -2.748  1.00  0.00     0.037 A 
ATOM     26  C   UNL     1       1.343  18.889  -4.843  1.00  0.00     0.037 A 
ATOM     27  C   UNL     1      -4.230  15.044  -4.172  1.00  0.00     0.049 A 
ATOM     28  C   UNL     1      -0.098  18.948  -5.207  1.00  0.00     0.074 A 
ATOM     29  C   UNL     1      -4.290  14.042  -5.122  1.00  0.00     0.029 A 
ATOM     30  N   UNL     1      -4.078  16.212  -4.877  1.00  0.00    -0.354 N 
ATOM     31  N   UNL     1      -0.597  18.427  -6.295  1.00  0.00    -0.248 NA
ATOM     32  C   UNL     1      -1.054  19.181  -4.135  1.00  0.00     0.031 C 
ATOM     33  C   UNL     1      -3.673  14.597  -6.280  1.00  0.00     0.029 A 
ATOM     34  C   UNL     1      -3.330  15.917  -5.986  1.00  0.00     0.049 A 
ATOM     35  H   UNL     1      -4.439  17.095  -4.632  1.00  0.00     0.167 HD
ATOM     36  C   UNL     1      -1.814  17.885  -5.907  1.00  0.00     0.074 A 
ATOM     37  C   UNL     1      -2.075  18.448  -4.583  1.00  0.00     0.031 C 
ATOM     38  C   UNL     1      -2.362  16.822  -6.566  1.00  0.00     0.037 A 
BRANCH  25  39
ATOM     39  C   UNL     1      -4.834  15.969  -1.828  1.00  0.00     0.058 A 
ATOM     40  C   UNL     1      -6.090  16.441  -2.267  1.00  0.00     0.135 A 
ATOM     41  C   UNL     1      -4.307  16.626  -0.693  1.00  0.00     0.135 A 
ATOM     42  F   UNL     1      -6.704  15.879  -3.320  1.00  0.00    -0.206 F 
ATOM     43  C   UNL     1      -6.710  17.557  -1.702  1.00  0.00     0.059 A 
ATOM     44  C   UNL     1      -4.933  17.708  -0.085  1.00  0.00     0.059 A 
ATOM     45  F   UNL     1      -3.116  16.320  -0.167  1.00  0.00    -0.206 F 
ATOM     46  C   UNL     1      -6.104  18.202  -0.629  1.00  0.00     0.060 A 
BRANCH  46  47
ATOM     47  S   UNL     1      -6.811  19.734  -0.001  1.00  0.00     0.124 S 
ATOM     48  O   UNL     1      -6.568  20.642  -1.116  1.00  0.00    -0.237 OA
ATOM     49  O   UNL     1      -8.201  19.354   0.227  1.00  0.00    -0.237 OA
ATOM     50  O   UNL     1      -6.031  19.991   1.207  1.00  0.00    -0.744 OA
ENDBRANCH  46  47
ENDBRANCH  25  39
BRANCH  26  51
ATOM     51  C   UNL     1       2.103  20.081  -4.372  1.00  0.00     0.058 A 
ATOM     52  C   UNL     1       1.842  21.367  -4.878  1.00  0.00     0.135 A 
ATOM     53  C   UNL     1       2.917  20.024  -3.221  1.00  0.00     0.135 A 
ATOM     54  F   UNL     1       1.053  21.521  -5.952  1.00  0.00    -0.206 F 
ATOM     55  C   UNL     1       2.331  22.527  -4.261  1.00  0.00     0.059 A 
ATOM     56  C   UNL     1       3.425  21.162  -2.598  1.00  0.00     0.059 A 
ATOM     57  F   UNL     1       3.173  18.859  -2.609  1.00  0.00    -0.206 F 
ATOM     58  C   UNL     1       3.110  22.414  -3.109  1.00  0.00     0.060 A 
BRANCH  58  59
ATOM     59  S   UNL     1       3.617  23.904  -2.217  1.00  0.00     0.124 S 
ATOM     60  O   UNL     1       4.583  24.493  -3.138  1.00  0.00    -0.237 OA
ATOM     61  O   UNL     1       2.355  24.622  -2.072  1.00  0.00    -0.237 OA
ATOM     62  O   UNL     1       4.180  23.381  -0.975  1.00  0.00    -0.744 OA
ENDBRANCH  58  59
ENDBRANCH  26  51
BRANCH  38  63
ATOM     63  C   UNL     1      -1.764  16.409  -7.886  1.00  0.00     0.058 A 
ATOM     64  C   UNL     1      -0.462  15.902  -8.041  1.00  0.00     0.135 A 
ATOM     65  C   UNL     1      -2.605  16.367  -9.008  1.00  0.00     0.135 A 
ATOM     66  F   UNL     1       0.370  15.805  -6.995  1.00  0.00    -0.206 F 
ATOM     67  C   UNL     1      -0.005  15.411  -9.265  1.00  0.00     0.059 A 
ATOM     68  C   UNL     1      -2.181  15.852 -10.230  1.00  0.00     0.059 A 
ATOM     69  F   UNL     1      -3.881  16.775  -8.908  1.00  0.00    -0.206 F 
ATOM     70  C   UNL     1      -0.874  15.386 -10.354  1.00  0.00     0.060 A 
BRANCH  70  71
ATOM     71  S   UNL     1      -0.314  14.670 -11.914  1.00  0.00     0.124 S 
ATOM     72  O   UNL     1       0.640  15.673 -12.386  1.00  0.00    -0.237 OA
ATOM     73  O   UNL     1       0.271  13.399 -11.485  1.00  0.00    -0.237 OA
ATOM     74  O   UNL     1      -1.534  14.551 -12.697  1.00  0.00    -0.744 OA
ENDBRANCH  70  71
ENDBRANCH  38  63
ENDBRANCH  12  13
ENDBRANCH   5   7
ENDBRANCH   2   3
ENDBRANCH   1   2
BRANCH   1  75
ATOM     75  C   UNL     1       4.755   7.572  -3.991  1.00  0.00     0.023 C 
BRANCH  75  76
ATOM     76  C   UNL     1       5.046   6.180  -3.429  1.00  0.00     0.116 C 
BRANCH  76  77
ATOM     77  N   UNL     1       4.404   5.162  -4.225  1.00  0.00    -0.354 N 
ATOM     78  C   UNL     1       4.890   4.310  -5.167  1.00  0.00     0.243 C 
ATOM     79  H   UNL     1       3.439   5.066  -4.055  1.00  0.00     0.163 HD
ATOM     80  O   UNL     1       4.064   3.517  -5.633  1.00  0.00    -0.273 OA
BRANCH  78  81
ATOM     81  C   UNL     1       6.412   4.203  -5.499  1.00  0.00     0.182 C 
ATOM     82  C   UNL     1       7.213   5.518  -5.720  1.00  0.00     0.091 C 
ATOM     83  N   UNL     1       6.620   3.368  -6.731  1.00  0.00    -0.306 N 
ATOM     84  C   UNL     1       6.742   6.118  -6.983  1.00  0.00     0.042 A 
ATOM     85  C   UNL     1       5.959   3.912  -7.966  1.00  0.00     0.180 C 
ATOM     86  N   UNL     1       6.702   7.425  -7.362  1.00  0.00    -0.348 N 
ATOM     87  C   UNL     1       6.165   5.399  -8.005  1.00  0.00     0.081 A 
ATOM     88  C   UNL     1       6.069   7.454  -8.578  1.00  0.00     0.197 A 
ATOM     89  H   UNL     1       7.057   8.196  -6.863  1.00  0.00     0.167 HD
ATOM     90  N   UNL     1       5.750   6.245  -8.996  1.00  0.00    -0.240 NA
BRANCH  83  91
ATOM     91  C   UNL     1       7.399   2.270  -6.907  1.00  0.00     0.318 C 
ATOM     92  O   UNL     1       7.433   1.652  -7.976  1.00  0.00    -0.249 OA
ATOM     93  N   UNL     1       8.241   1.781  -5.984  1.00  0.00    -0.329 N 
ATOM     94  H   UNL     1       8.773   1.037  -6.348  1.00  0.00     0.165 HD
BRANCH  93  95
ATOM     95  C   UNL     1       8.591   2.042  -4.589  1.00  0.00     0.233 C 
BRANCH  95  96
ATOM     96  C   UNL     1       7.775   1.244  -3.566  1.00  0.00     0.405 C 
ATOM     97  F   UNL     1       8.210  -0.036  -3.502  1.00  0.00    -0.169 F 
ATOM     98  F   UNL     1       7.914   1.780  -2.331  1.00  0.00    -0.169 F 
ATOM     99  F   UNL     1       6.459   1.226  -3.853  1.00  0.00    -0.169 F 
ENDBRANCH  95  96
ENDBRANCH  93  95
ENDBRANCH  83  91
ENDBRANCH  78  81
ENDBRANCH  76  77
ENDBRANCH  75  76
ENDBRANCH   1  75
TORSDOF 17
