REMARK SMILES C#CC[N@@H+](CC(=O)NCCCCNC(=O)c1ccc(-c2c3nc(c(-c4c(F)cc(S(=O)(=O)[O-])cc4F)c4ccc([nH]4)c(-c4c(F)cc(S(=O)(=O)[O-])cc4F)c4nc(c(-c5c(F)cc(S(=O)(=O)[O-])cc5F)c5ccc2[nH]5)C=C4)C=C3)cc1)Cc1cccc2ccccc12
REMARK SMILES IDX 10 1 9 2 8 3 6 4 7 5 5 7 4 8 3 10 2 11 1 12 82 13 83 14
REMARK SMILES IDX 84 15 92 16 85 17 87 18 91 19 86 20 88 21 90 22 89 23 11 24
REMARK SMILES IDX 12 25 13 26 14 27 15 29 16 30 17 31 81 32 18 33 80 34 19 35
REMARK SMILES IDX 20 36 21 37 74 38 22 39 79 40 73 41 75 42 23 43 78 44 72 45
REMARK SMILES IDX 71 46 24 48 58 49 37 50 57 51 38 52 41 53 56 54 76 55 39 56
REMARK SMILES IDX 40 57 55 59 77 60 42 61 25 62 26 63 35 64 27 65 28 66 34 67
REMARK SMILES IDX 36 68 29 69 30 70 31 71 32 72 33 73 59 74 60 75 69 76 61 77
REMARK SMILES IDX 62 78 68 79 70 80 63 81 64 82 65 83 66 84 67 85 43 86 44 87
REMARK SMILES IDX 53 88 45 89 46 90 52 91 54 92 47 93 48 94 49 95 50 96 51 97
REMARK H PARENT 8 6 4 9 13 28 75 47 41 58
REMARK Flexibility Score: inf
ROOT
ATOM      1  C   UNL     1      -2.713   2.545  -1.501  1.00  0.00     0.023 C 
ENDROOT
BRANCH   1   2
ATOM      2  C   UNL     1      -4.009   1.888  -0.985  1.00  0.00     0.116 C 
BRANCH   2   3
ATOM      3  N   UNL     1      -4.441   0.665  -1.649  1.00  0.00    -0.351 N 
ATOM      4  C   UNL     1      -4.598  -0.619  -1.198  1.00  0.00     0.275 C 
ATOM      5  O   UNL     1      -5.388  -1.335  -1.824  1.00  0.00    -0.269 OA
ATOM      6  H   UNL     1      -4.662   0.784  -2.601  1.00  0.00     0.163 HD
BRANCH   4   7
ATOM      7  C   UNL     1      -3.900  -1.169   0.058  1.00  0.00     0.364 C 
BRANCH   7   8
ATOM      8  N   UNL     1      -2.424  -1.347  -0.019  1.00  0.00    -0.313 N 
ATOM      9  H   UNL     1      -2.101  -1.795   0.839  1.00  0.00     0.349 HD
BRANCH   8  10
ATOM     10  C   UNL     1      -1.803  -0.035  -0.091  1.00  0.00     0.354 C 
BRANCH  10  11
ATOM     11  C   UNL     1      -0.283  -0.035  -0.091  1.00  0.00    -0.047 C 
ATOM     12  C   UNL     1       1.020  -0.035  -0.091  1.00  0.00     0.010 C 
ENDBRANCH  10  11
ENDBRANCH   8  10
BRANCH   8  13
ATOM     13  C   UNL     1      -1.955  -2.353  -1.022  1.00  0.00     0.300 C 
BRANCH  13  14
ATOM     14  C   UNL     1      -2.256  -2.134  -2.505  1.00  0.00     0.014 A 
ATOM     15  C   UNL     1      -1.813  -0.970  -3.153  1.00  0.00     0.010 A 
ATOM     16  C   UNL     1      -3.002  -3.066  -3.281  1.00  0.00    -0.010 A 
ATOM     17  C   UNL     1      -2.378  -0.556  -4.354  1.00  0.00     0.001 A 
ATOM     18  C   UNL     1      -3.626  -2.610  -4.471  1.00  0.00    -0.018 A 
ATOM     19  C   UNL     1      -3.121  -4.442  -2.982  1.00  0.00     0.009 A 
ATOM     20  C   UNL     1      -3.361  -1.326  -4.954  1.00  0.00     0.009 A 
ATOM     21  C   UNL     1      -4.468  -3.458  -5.203  1.00  0.00     0.009 A 
ATOM     22  C   UNL     1      -3.857  -5.308  -3.797  1.00  0.00     0.001 A 
ATOM     23  C   UNL     1      -4.569  -4.807  -4.879  1.00  0.00     0.001 A 
ENDBRANCH  13  14
ENDBRANCH   8  13
ENDBRANCH   7   8
ENDBRANCH   4   7
ENDBRANCH   2   3
ENDBRANCH   1   2
BRANCH   1  24
ATOM     24  C   UNL     1      -2.681   2.832  -2.989  1.00  0.00     0.023 C 
BRANCH  24  25
ATOM     25  C   UNL     1      -3.215   4.208  -3.273  1.00  0.00     0.116 C 
BRANCH  25  26
ATOM     26  N   UNL     1      -2.430   5.250  -2.608  1.00  0.00    -0.352 N 
ATOM     27  C   UNL     1      -1.956   6.431  -3.125  1.00  0.00     0.251 C 
ATOM     28  H   UNL     1      -2.212   5.080  -1.663  1.00  0.00     0.163 HD
ATOM     29  O   UNL     1      -1.193   7.136  -2.495  1.00  0.00    -0.269 OA
BRANCH  27  30
ATOM     30  C   UNL     1      -2.384   6.771  -4.490  1.00  0.00     0.039 A 
ATOM     31  C   UNL     1      -1.422   7.096  -5.442  1.00  0.00     0.014 A 
ATOM     32  C   UNL     1      -3.724   6.587  -4.835  1.00  0.00     0.014 A 
ATOM     33  C   UNL     1      -1.808   7.178  -6.776  1.00  0.00     0.010 A 
ATOM     34  C   UNL     1      -4.061   6.499  -6.169  1.00  0.00     0.010 A 
ATOM     35  C   UNL     1      -3.120   6.840  -7.149  1.00  0.00    -0.014 A 
BRANCH  35  36
ATOM     36  C   UNL     1      -3.580   6.920  -8.550  1.00  0.00     0.031 A 
ATOM     37  C   UNL     1      -4.731   7.834  -8.875  1.00  0.00     0.074 A 
ATOM     38  C   UNL     1      -3.024   6.132  -9.489  1.00  0.00     0.049 A 
ATOM     39  N   UNL     1      -5.380   7.978  -9.998  1.00  0.00    -0.248 NA
ATOM     40  C   UNL     1      -5.264   8.654  -7.769  1.00  0.00     0.031 C 
ATOM     41  C   UNL     1      -1.950   5.160  -9.264  1.00  0.00     0.029 A 
ATOM     42  N   UNL     1      -3.290   6.025 -10.828  1.00  0.00    -0.354 N 
ATOM     43  C   UNL     1      -6.408   8.870  -9.720  1.00  0.00     0.074 A 
ATOM     44  C   UNL     1      -6.359   9.160  -8.308  1.00  0.00     0.031 C 
ATOM     45  C   UNL     1      -1.616   4.593 -10.435  1.00  0.00     0.029 A 
ATOM     46  C   UNL     1      -2.478   5.130 -11.483  1.00  0.00     0.049 A 
ATOM     47  H   UNL     1      -3.998   6.540 -11.280  1.00  0.00     0.167 HD
ATOM     48  C   UNL     1      -7.284   9.440 -10.577  1.00  0.00     0.037 A 
ATOM     49  C   UNL     1      -2.437   4.795 -12.786  1.00  0.00     0.037 A 
ATOM     50  C   UNL     1      -7.269   9.196 -11.991  1.00  0.00     0.049 A 
ATOM     51  C   UNL     1      -3.396   5.468 -13.730  1.00  0.00     0.074 A 
ATOM     52  C   UNL     1      -8.056   9.766 -12.973  1.00  0.00     0.029 A 
ATOM     53  N   UNL     1      -6.404   8.315 -12.624  1.00  0.00    -0.354 N 
ATOM     54  N   UNL     1      -4.326   6.356 -13.464  1.00  0.00    -0.248 NA
ATOM     55  C   UNL     1      -3.299   5.101 -15.148  1.00  0.00     0.031 C 
ATOM     56  C   UNL     1      -7.688   9.205 -14.199  1.00  0.00     0.029 A 
ATOM     57  C   UNL     1      -6.644   8.316 -13.986  1.00  0.00     0.049 A 
ATOM     58  H   UNL     1      -5.721   7.769 -12.171  1.00  0.00     0.167 HD
ATOM     59  C   UNL     1      -4.909   6.673 -14.685  1.00  0.00     0.074 A 
ATOM     60  C   UNL     1      -4.217   5.889 -15.690  1.00  0.00     0.031 C 
ATOM     61  C   UNL     1      -5.923   7.532 -14.956  1.00  0.00     0.037 A 
BRANCH  48  62
ATOM     62  C   UNL     1      -8.293  10.393 -10.001  1.00  0.00     0.058 A 
ATOM     63  C   UNL     1      -7.912  11.636  -9.465  1.00  0.00     0.135 A 
ATOM     64  C   UNL     1      -9.655  10.058  -9.967  1.00  0.00     0.135 A 
ATOM     65  F   UNL     1      -6.619  11.997  -9.447  1.00  0.00    -0.206 F 
ATOM     66  C   UNL     1      -8.838  12.491  -8.879  1.00  0.00     0.059 A 
ATOM     67  C   UNL     1     -10.604  10.914  -9.415  1.00  0.00     0.059 A 
ATOM     68  F   UNL     1     -10.075   8.881 -10.458  1.00  0.00    -0.206 F 
ATOM     69  C   UNL     1     -10.182  12.120  -8.856  1.00  0.00     0.060 A 
BRANCH  69  70
ATOM     70  S   UNL     1     -11.371  13.238  -8.086  1.00  0.00     0.124 S 
ATOM     71  O   UNL     1     -11.086  13.034  -6.669  1.00  0.00    -0.237 OA
ATOM     72  O   UNL     1     -10.978  14.534  -8.630  1.00  0.00    -0.237 OA
ATOM     73  O   UNL     1     -12.660  12.732  -8.547  1.00  0.00    -0.744 OA
ENDBRANCH  69  70
ENDBRANCH  48  62
BRANCH  49  74
ATOM     74  C   UNL     1      -1.425   3.821 -13.274  1.00  0.00     0.058 A 
ATOM     75  C   UNL     1      -0.340   4.247 -14.056  1.00  0.00     0.135 A 
ATOM     76  C   UNL     1      -1.503   2.457 -12.954  1.00  0.00     0.135 A 
ATOM     77  F   UNL     1      -0.221   5.541 -14.388  1.00  0.00    -0.206 F 
ATOM     78  C   UNL     1       0.621   3.354 -14.518  1.00  0.00     0.059 A 
ATOM     79  C   UNL     1      -0.542   1.548 -13.386  1.00  0.00     0.059 A 
ATOM     80  F   UNL     1      -2.509   2.002 -12.191  1.00  0.00    -0.206 F 
ATOM     81  C   UNL     1       0.512   2.005 -14.177  1.00  0.00     0.060 A 
BRANCH  81  82
ATOM     82  S   UNL     1       1.790   0.863 -14.746  1.00  0.00     0.124 S 
ATOM     83  O   UNL     1       1.474   0.752 -16.165  1.00  0.00    -0.237 OA
ATOM     84  O   UNL     1       3.015   1.587 -14.420  1.00  0.00    -0.237 OA
ATOM     85  O   UNL     1       1.548  -0.335 -13.948  1.00  0.00    -0.744 OA
ENDBRANCH  81  82
ENDBRANCH  49  74
BRANCH  61  86
ATOM     86  C   UNL     1      -6.322   7.692 -16.394  1.00  0.00     0.058 A 
ATOM     87  C   UNL     1      -7.056   6.703 -17.065  1.00  0.00     0.135 A 
ATOM     88  C   UNL     1      -6.030   8.881 -17.081  1.00  0.00     0.135 A 
ATOM     89  F   UNL     1      -7.354   5.548 -16.450  1.00  0.00    -0.206 F 
ATOM     90  C   UNL     1      -7.474   6.881 -18.378  1.00  0.00     0.059 A 
ATOM     91  C   UNL     1      -6.461   9.091 -18.385  1.00  0.00     0.059 A 
ATOM     92  F   UNL     1      -5.341   9.861 -16.474  1.00  0.00    -0.206 F 
ATOM     93  C   UNL     1      -7.175   8.080 -19.028  1.00  0.00     0.060 A 
BRANCH  93  94
ATOM     94  S   UNL     1      -7.766   8.317 -20.716  1.00  0.00     0.124 S 
ATOM     95  O   UNL     1      -6.852   7.465 -21.469  1.00  0.00    -0.237 OA
ATOM     96  O   UNL     1      -9.146   7.850 -20.633  1.00  0.00    -0.237 OA
ATOM     97  O   UNL     1      -7.608   9.752 -20.932  1.00  0.00    -0.744 OA
ENDBRANCH  93  94
ENDBRANCH  61  86
ENDBRANCH  35  36
ENDBRANCH  27  30
ENDBRANCH  25  26
ENDBRANCH  24  25
ENDBRANCH   1  24
TORSDOF 19
