REMARK SMILES O=C(COc1cc(-c2ccccc2)nc(NCc2ccc(Cl)c(Cl)c2)n1)NCCCCNC(=O)c1ccc(-c2c3nc(c(-c4c(F)cc(S(=O)(=O)[O-])cc4F)c4ccc([nH]4)c(-c4c(F)cc(S(=O)(=O)[O-])cc4F)c4nc(c(-c5c(F)cc(S(=O)(=O)[O-])cc5F)c5ccc2[nH]5)C=C4)C=C3)cc1
REMARK SMILES IDX 28 1 27 2 1 3 2 4 3 6 4 7 5 8 6 9 26 10 7 11 15 12 14 13
REMARK SMILES IDX 8 14 9 15 13 16 10 17 12 18 11 19 16 20 17 22 18 23 19 24
REMARK SMILES IDX 25 25 20 26 23 27 21 28 24 29 22 30 29 31 30 32 31 33 32 34
REMARK SMILES IDX 33 35 34 37 35 38 36 39 100 40 37 41 99 42 38 43 39 44 40 45
REMARK SMILES IDX 93 46 41 47 98 48 92 49 94 50 42 51 97 52 91 53 90 54 43 56
REMARK SMILES IDX 77 57 56 58 76 59 57 60 60 61 75 62 95 63 58 64 59 65 74 67
REMARK SMILES IDX 96 68 61 69 44 70 45 71 54 72 46 73 47 74 53 75 55 76 48 77
REMARK SMILES IDX 49 78 50 79 51 80 52 81 78 82 79 83 88 84 80 85 81 86 87 87
REMARK SMILES IDX 89 88 82 89 83 90 84 91 85 92 86 93 62 94 63 95 72 96 64 97
REMARK SMILES IDX 65 98 71 99 73 100 66 101 67 102 68 103 69 104 70 105
REMARK H PARENT 27 5 16 21 32 36 94 55 60 66
REMARK Flexibility Score: inf
ROOT
ATOM      1  C   UNL     1       2.128  -1.611   1.903  1.00  0.00     0.116 C 
ENDROOT
BRANCH   1   2
ATOM      2  N   UNL     1       2.821  -0.836   0.893  1.00  0.00    -0.353 N 
ATOM      3  O   UNL     1       1.020  -0.579  -0.516  1.00  0.00    -0.271 OA
ATOM      4  C   UNL     1       2.174  -0.299  -0.203  1.00  0.00     0.258 C 
ATOM      5  H   UNL     1       3.789  -0.686   0.992  1.00  0.00     0.163 HD
BRANCH   4   6
ATOM      6  C   UNL     1       3.003   0.735  -0.974  1.00  0.00     0.331 C 
BRANCH   6   7
ATOM      7  O   UNL     1       3.886   1.512  -0.167  1.00  0.00    -0.467 OA
BRANCH   7   8
ATOM      8  C   UNL     1       3.275   2.570   0.462  1.00  0.00     0.219 A 
ATOM      9  C   UNL     1       2.283   2.379   1.387  1.00  0.00     0.097 A 
ATOM     10  N   UNL     1       3.832   3.765   0.231  1.00  0.00    -0.177 NA
ATOM     11  C   UNL     1       1.864   3.492   2.077  1.00  0.00     0.080 A 
ATOM     12  C   UNL     1       3.356   4.804   0.931  1.00  0.00     0.226 A 
ATOM     13  N   UNL     1       2.374   4.713   1.838  1.00  0.00    -0.213 NA
BRANCH  11  14
ATOM     14  C   UNL     1       0.862   3.372   3.145  1.00  0.00     0.000 A 
ATOM     15  C   UNL     1      -0.280   4.185   3.170  1.00  0.00     0.010 A 
ATOM     16  C   UNL     1       1.003   2.397   4.152  1.00  0.00     0.010 A 
ATOM     17  C   UNL     1      -1.263   4.007   4.148  1.00  0.00     0.001 A 
ATOM     18  C   UNL     1       0.025   2.221   5.131  1.00  0.00     0.001 A 
ATOM     19  C   UNL     1      -1.112   3.022   5.124  1.00  0.00     0.000 A 
ENDBRANCH  11  14
BRANCH  12  20
ATOM     20  N   UNL     1       3.869   6.054   0.753  1.00  0.00    -0.350 N 
ATOM     21  H   UNL     1       3.450   6.802   1.237  1.00  0.00     0.164 HD
BRANCH  20  22
ATOM     22  C   UNL     1       4.986   6.339  -0.100  1.00  0.00     0.152 C 
BRANCH  22  23
ATOM     23  C   UNL     1       4.617   7.498  -0.999  1.00  0.00    -0.027 A 
ATOM     24  C   UNL     1       5.158   8.774  -0.801  1.00  0.00     0.007 A 
ATOM     25  C   UNL     1       3.685   7.304  -2.033  1.00  0.00     0.027 A 
ATOM     26  C   UNL     1       4.780   9.835  -1.629  1.00  0.00     0.022 A 
ATOM     27  C   UNL     1       3.303   8.364  -2.859  1.00  0.00     0.060 A 
ATOM     28  C   UNL     1       3.853   9.634  -2.657  1.00  0.00     0.059 A 
ATOM     29  Cl  UNL     1       2.147   8.041  -4.102  1.00  0.00    -0.083 Cl
ATOM     30  Cl  UNL     1       3.429  10.994  -3.636  1.00  0.00    -0.083 Cl
ENDBRANCH  22  23
ENDBRANCH  20  22
ENDBRANCH  12  20
ENDBRANCH   7   8
ENDBRANCH   6   7
ENDBRANCH   4   6
ENDBRANCH   1   2
BRANCH   1  31
ATOM     31  C   UNL     1       2.517  -3.083   1.901  1.00  0.00     0.023 C 
BRANCH  31  32
ATOM     32  C   UNL     1       4.000  -3.358   2.162  1.00  0.00     0.023 C 
BRANCH  32  33
ATOM     33  C   UNL     1       4.554  -2.801   3.471  1.00  0.00     0.116 C 
BRANCH  33  34
ATOM     34  N   UNL     1       3.936  -3.389   4.649  1.00  0.00    -0.352 N 
ATOM     35  C   UNL     1       4.525  -3.983   5.741  1.00  0.00     0.251 C 
ATOM     36  H   UNL     1       2.952  -3.357   4.667  1.00  0.00     0.163 HD
ATOM     37  O   UNL     1       3.823  -4.551   6.574  1.00  0.00    -0.269 OA
BRANCH  35  38
ATOM     38  C   UNL     1       5.998  -3.969   5.900  1.00  0.00     0.039 A 
ATOM     39  C   UNL     1       6.647  -5.146   6.281  1.00  0.00     0.014 A 
ATOM     40  C   UNL     1       6.740  -2.806   5.675  1.00  0.00     0.014 A 
ATOM     41  C   UNL     1       8.043  -5.176   6.362  1.00  0.00     0.010 A 
ATOM     42  C   UNL     1       8.133  -2.858   5.681  1.00  0.00     0.010 A 
ATOM     43  C   UNL     1       8.802  -4.045   6.022  1.00  0.00    -0.014 A 
BRANCH  43  44
ATOM     44  C   UNL     1      10.289  -4.089   6.002  1.00  0.00     0.031 A 
ATOM     45  C   UNL     1      11.091  -3.207   6.923  1.00  0.00     0.074 A 
ATOM     46  C   UNL     1      10.922  -4.877   5.109  1.00  0.00     0.049 A 
ATOM     47  N   UNL     1      12.388  -3.055   7.000  1.00  0.00    -0.248 NA
ATOM     48  C   UNL     1      10.333  -2.367   7.864  1.00  0.00     0.031 C 
ATOM     49  C   UNL     1      10.262  -5.743   4.129  1.00  0.00     0.029 A 
ATOM     50  N   UNL     1      12.261  -5.069   4.870  1.00  0.00    -0.354 N 
ATOM     51  C   UNL     1      12.602  -2.101   7.988  1.00  0.00     0.074 A 
ATOM     52  C   UNL     1      11.298  -1.666   8.440  1.00  0.00     0.031 C 
ATOM     53  C   UNL     1      11.196  -6.386   3.410  1.00  0.00     0.029 A 
ATOM     54  C   UNL     1      12.519  -5.948   3.844  1.00  0.00     0.049 A 
ATOM     55  H   UNL     1      12.970  -4.619   5.384  1.00  0.00     0.167 HD
ATOM     56  C   UNL     1      13.776  -1.647   8.491  1.00  0.00     0.037 A 
ATOM     57  C   UNL     1      13.687  -6.349   3.302  1.00  0.00     0.037 A 
ATOM     58  C   UNL     1      15.072  -2.093   8.046  1.00  0.00     0.049 A 
ATOM     59  C   UNL     1      14.978  -5.819   3.864  1.00  0.00     0.074 A 
ATOM     60  C   UNL     1      16.318  -1.728   8.524  1.00  0.00     0.029 A 
ATOM     61  N   UNL     1      15.290  -2.998   7.016  1.00  0.00    -0.354 N 
ATOM     62  N   UNL     1      15.161  -4.962   4.841  1.00  0.00    -0.248 NA
ATOM     63  C   UNL     1      16.222  -6.314   3.258  1.00  0.00     0.031 C 
ATOM     64  C   UNL     1      17.290  -2.370   7.751  1.00  0.00     0.029 A 
ATOM     65  C   UNL     1      16.651  -3.184   6.830  1.00  0.00     0.049 A 
ATOM     66  H   UNL     1      14.583  -3.442   6.495  1.00  0.00     0.167 HD
ATOM     67  C   UNL     1      16.539  -4.838   4.985  1.00  0.00     0.074 A 
ATOM     68  C   UNL     1      17.141  -5.716   4.004  1.00  0.00     0.031 C 
ATOM     69  C   UNL     1      17.241  -4.066   5.852  1.00  0.00     0.037 A 
BRANCH  56  70
ATOM     70  C   UNL     1      13.714  -0.613   9.585  1.00  0.00     0.058 A 
ATOM     71  C   UNL     1      13.238  -0.926  10.869  1.00  0.00     0.135 A 
ATOM     72  C   UNL     1      14.167   0.697   9.359  1.00  0.00     0.135 A 
ATOM     73  F   UNL     1      12.779  -2.158  11.139  1.00  0.00    -0.206 F 
ATOM     74  C   UNL     1      13.181   0.030  11.878  1.00  0.00     0.059 A 
ATOM     75  C   UNL     1      14.150   1.661  10.363  1.00  0.00     0.059 A 
ATOM     76  F   UNL     1      14.634   1.052   8.152  1.00  0.00    -0.206 F 
ATOM     77  C   UNL     1      13.640   1.322  11.615  1.00  0.00     0.060 A 
BRANCH  77  78
ATOM     78  S   UNL     1      13.558   2.549  12.936  1.00  0.00     0.124 S 
ATOM     79  O   UNL     1      12.120   2.792  13.018  1.00  0.00    -0.237 OA
ATOM     80  O   UNL     1      14.144   1.832  14.064  1.00  0.00    -0.237 OA
ATOM     81  O   UNL     1      14.352   3.659  12.420  1.00  0.00    -0.744 OA
ENDBRANCH  77  78
ENDBRANCH  56  70
BRANCH  57  82
ATOM     82  C   UNL     1      13.686  -7.313   2.168  1.00  0.00     0.058 A 
ATOM     83  C   UNL     1      14.151  -8.627   2.332  1.00  0.00     0.135 A 
ATOM     84  C   UNL     1      13.206  -6.946   0.901  1.00  0.00     0.135 A 
ATOM     85  F   UNL     1      14.628  -9.025   3.522  1.00  0.00    -0.206 F 
ATOM     86  C   UNL     1      14.156  -9.537   1.280  1.00  0.00     0.059 A 
ATOM     87  C   UNL     1      13.173  -7.846  -0.160  1.00  0.00     0.059 A 
ATOM     88  F   UNL     1      12.734  -5.706   0.693  1.00  0.00    -0.206 F 
ATOM     89  C   UNL     1      13.660  -9.137   0.037  1.00  0.00     0.060 A 
BRANCH  89  90
ATOM     90  S   UNL     1      13.621 -10.342  -1.307  1.00  0.00     0.124 S 
ATOM     91  O   UNL     1      15.036 -10.461  -1.636  1.00  0.00    -0.237 OA
ATOM     92  O   UNL     1      13.015 -11.502  -0.660  1.00  0.00    -0.237 OA
ATOM     93  O   UNL     1      12.790  -9.692  -2.316  1.00  0.00    -0.744 OA
ENDBRANCH  89  90
ENDBRANCH  57  82
BRANCH  69  94
ATOM     94  C   UNL     1      18.742  -4.161   5.810  1.00  0.00     0.058 A 
ATOM     95  C   UNL     1      19.490  -3.628   4.748  1.00  0.00     0.135 A 
ATOM     96  C   UNL     1      19.446  -4.747   6.876  1.00  0.00     0.135 A 
ATOM     97  F   UNL     1      18.869  -3.062   3.701  1.00  0.00    -0.206 F 
ATOM     98  C   UNL     1      20.880  -3.694   4.732  1.00  0.00     0.059 A 
ATOM     99  C   UNL     1      20.836  -4.797   6.896  1.00  0.00     0.059 A 
ATOM    100  F   UNL     1      18.782  -5.264   7.922  1.00  0.00    -0.206 F 
ATOM    101  C   UNL     1      21.544  -4.278   5.813  1.00  0.00     0.060 A 
BRANCH 101 102
ATOM    102  S   UNL     1      23.349  -4.325   5.795  1.00  0.00     0.124 S 
ATOM    103  O   UNL     1      23.607  -5.342   4.782  1.00  0.00    -0.237 OA
ATOM    104  O   UNL     1      23.693  -2.956   5.422  1.00  0.00    -0.237 OA
ATOM    105  O   UNL     1      23.694  -4.700   7.163  1.00  0.00    -0.744 OA
ENDBRANCH 101 102
ENDBRANCH  69  94
ENDBRANCH  43  44
ENDBRANCH  35  38
ENDBRANCH  33  34
ENDBRANCH  32  33
ENDBRANCH  31  32
ENDBRANCH   1  31
TORSDOF 20
