REMARK SMILES O=C(NCCCCNC(=O)c1ccc(-c2c3nc(c(-c4c(F)cc(S(=O)(=O)[O-])cc4F)c4ccc([nH]4)c(-c4c(F)cc(S(=O)(=O)[O-])cc4F)c4nc(c(-c5c(F)cc(S(=O)(=O)[O-])cc5F)c5ccc2[nH]5)C=C4)C=C3)cc1)c1ccc(C[C@H]2CCN(C(=O)Cc3cccc(O)c3)C2)cc1
REMARK SMILES IDX 4 1 3 2 1 3 2 4 77 6 78 7 98 8 79 9 97 10 80 11 81 12 82 13
REMARK SMILES IDX 83 14 96 15 84 16 85 17 86 18 87 19 88 20 89 21 90 22 95 23
REMARK SMILES IDX 91 24 93 25 92 26 94 27 5 29 6 30 7 31 8 32 9 33 10 35 11 36
REMARK SMILES IDX 12 37 76 38 13 39 75 40 14 41 15 42 16 43 69 44 17 45 74 46
REMARK SMILES IDX 68 47 70 48 18 49 73 50 67 51 66 52 19 54 53 55 32 56 52 57
REMARK SMILES IDX 33 58 36 59 51 60 71 61 34 62 35 63 50 65 72 66 37 67 20 68
REMARK SMILES IDX 21 69 30 70 22 71 23 72 29 73 31 74 24 75 25 76 26 77 27 78
REMARK SMILES IDX 28 79 54 80 55 81 64 82 56 83 57 84 63 85 65 86 58 87 59 88
REMARK SMILES IDX 60 89 61 90 62 91 38 92 39 93 48 94 40 95 41 96 47 97 49 98
REMARK SMILES IDX 42 99 43 100 44 101 45 102 46 103
REMARK H PARENT 3 5 94 28 8 34 70 53 36 64
REMARK Flexibility Score: inf
ROOT
ATOM      1  C   UNL     1       7.431   8.225   2.552  1.00  0.00     0.116 C 
ENDROOT
BRANCH   1   2
ATOM      2  N   UNL     1       7.686   8.917   3.805  1.00  0.00    -0.352 N 
ATOM      3  O   UNL     1       7.883   9.129   6.052  1.00  0.00    -0.269 OA
ATOM      4  C   UNL     1       7.804   8.397   5.071  1.00  0.00     0.251 C 
ATOM      5  H   UNL     1       7.787   9.894   3.737  1.00  0.00     0.163 HD
BRANCH   4   6
ATOM      6  C   UNL     1       7.821   6.935   5.249  1.00  0.00     0.039 A 
ATOM      7  C   UNL     1       8.823   6.166   4.654  1.00  0.00     0.014 A 
ATOM      8  C   UNL     1       6.821   6.331   6.014  1.00  0.00     0.014 A 
ATOM      9  C   UNL     1       8.775   4.778   4.760  1.00  0.00     0.004 A 
ATOM     10  C   UNL     1       6.770   4.939   6.108  1.00  0.00     0.004 A 
ATOM     11  C   UNL     1       7.732   4.150   5.460  1.00  0.00    -0.048 A 
BRANCH  11  12
ATOM     12  C   UNL     1       7.630   2.643   5.468  1.00  0.00     0.041 C 
BRANCH  12  13
ATOM     13  C   UNL     1       6.846   2.087   4.272  1.00  0.00     0.015 C 
ATOM     14  C   UNL     1       7.422   2.481   2.905  1.00  0.00     0.027 C 
ATOM     15  C   UNL     1       6.867   0.552   4.226  1.00  0.00     0.123 C 
ATOM     16  C   UNL     1       6.918   1.390   1.984  1.00  0.00     0.120 C 
ATOM     17  N   UNL     1       6.940   0.203   2.814  1.00  0.00    -0.342 N 
BRANCH  17  18
ATOM     18  C   UNL     1       6.998  -1.113   2.405  1.00  0.00     0.227 C 
ATOM     19  O   UNL     1       6.957  -2.043   3.216  1.00  0.00    -0.275 OA
BRANCH  18  20
ATOM     20  C   UNL     1       7.144  -1.399   0.916  1.00  0.00     0.135 C 
BRANCH  20  21
ATOM     21  C   UNL     1       5.824  -1.449   0.188  1.00  0.00    -0.035 A 
ATOM     22  C   UNL     1       5.351  -0.338  -0.526  1.00  0.00     0.004 A 
ATOM     23  C   UNL     1       5.037  -2.609   0.237  1.00  0.00     0.050 A 
ATOM     24  C   UNL     1       4.103  -0.370  -1.149  1.00  0.00     0.004 A 
ATOM     25  C   UNL     1       3.804  -2.638  -0.412  1.00  0.00     0.115 A 
ATOM     26  C   UNL     1       3.327  -1.524  -1.091  1.00  0.00     0.046 A 
BRANCH  25  27
ATOM     27  O   UNL     1       3.027  -3.759  -0.405  1.00  0.00    -0.508 OA
ATOM     28  H   UNL     1       2.201  -3.759  -0.847  1.00  0.00     0.293 HD
ENDBRANCH  25  27
ENDBRANCH  20  21
ENDBRANCH  18  20
ENDBRANCH  17  18
ENDBRANCH  12  13
ENDBRANCH  11  12
ENDBRANCH   4   6
ENDBRANCH   1   2
BRANCH   1  29
ATOM     29  C   UNL     1       6.062   8.564   1.965  1.00  0.00     0.023 C 
BRANCH  29  30
ATOM     30  C   UNL     1       5.865  10.029   1.576  1.00  0.00     0.023 C 
BRANCH  30  31
ATOM     31  C   UNL     1       6.926  10.616   0.652  1.00  0.00     0.116 C 
BRANCH  31  32
ATOM     32  N   UNL     1       7.028   9.922  -0.624  1.00  0.00    -0.352 N 
ATOM     33  C   UNL     1       7.102  10.456  -1.890  1.00  0.00     0.251 C 
ATOM     34  H   UNL     1       7.047   8.939  -0.574  1.00  0.00     0.163 HD
ATOM     35  O   UNL     1       7.080   9.720  -2.872  1.00  0.00    -0.269 OA
BRANCH  33  36
ATOM     36  C   UNL     1       7.167  11.924  -2.056  1.00  0.00     0.039 A 
ATOM     37  C   UNL     1       6.263  12.551  -2.918  1.00  0.00     0.014 A 
ATOM     38  C   UNL     1       8.084  12.681  -1.324  1.00  0.00     0.014 A 
ATOM     39  C   UNL     1       6.220  13.947  -2.979  1.00  0.00     0.010 A 
ATOM     40  C   UNL     1       7.997  14.070  -1.339  1.00  0.00     0.010 A 
ATOM     41  C   UNL     1       7.056  14.717  -2.156  1.00  0.00    -0.014 A 
BRANCH  41  42
ATOM     42  C   UNL     1       6.969  16.201  -2.113  1.00  0.00     0.031 A 
ATOM     43  C   UNL     1       8.155  17.028  -2.532  1.00  0.00     0.074 A 
ATOM     44  C   UNL     1       5.877  16.796  -1.592  1.00  0.00     0.049 A 
ATOM     45  N   UNL     1       8.355  18.312  -2.394  1.00  0.00    -0.248 NA
ATOM     46  C   UNL     1       9.277  16.308  -3.157  1.00  0.00     0.031 C 
ATOM     47  C   UNL     1       4.679  16.104  -1.110  1.00  0.00     0.029 A 
ATOM     48  N   UNL     1       5.609  18.122  -1.353  1.00  0.00    -0.354 N 
ATOM     49  C   UNL     1       9.637  18.549  -2.875  1.00  0.00     0.074 A 
ATOM     50  C   UNL     1      10.177  17.273  -3.289  1.00  0.00     0.031 C 
ATOM     51  C   UNL     1       3.808  17.009  -0.632  1.00  0.00     0.029 A 
ATOM     52  C   UNL     1       4.398  18.340  -0.735  1.00  0.00     0.049 A 
ATOM     53  H   UNL     1       6.226  18.849  -1.599  1.00  0.00     0.167 HD
ATOM     54  C   UNL     1      10.298  19.726  -2.971  1.00  0.00     0.037 A 
ATOM     55  C   UNL     1       3.838  19.479  -0.282  1.00  0.00     0.037 A 
ATOM     56  C   UNL     1       9.733  21.001  -2.618  1.00  0.00     0.049 A 
ATOM     57  C   UNL     1       4.582  20.779  -0.439  1.00  0.00     0.074 A 
ATOM     58  C   UNL     1      10.295  22.258  -2.763  1.00  0.00     0.029 A 
ATOM     59  N   UNL     1       8.477  21.184  -2.063  1.00  0.00    -0.354 N 
ATOM     60  N   UNL     1       5.771  20.990  -0.951  1.00  0.00    -0.248 NA
ATOM     61  C   UNL     1       3.911  21.996   0.043  1.00  0.00     0.031 C 
ATOM     62  C   UNL     1       9.389  23.200  -2.269  1.00  0.00     0.029 A 
ATOM     63  C   UNL     1       8.249  22.533  -1.849  1.00  0.00     0.049 A 
ATOM     64  H   UNL     1       7.841  20.463  -1.851  1.00  0.00     0.167 HD
ATOM     65  C   UNL     1       5.973  22.365  -0.886  1.00  0.00     0.074 A 
ATOM     66  C   UNL     1       4.786  22.937  -0.287  1.00  0.00     0.031 C 
ATOM     67  C   UNL     1       7.045  23.088  -1.288  1.00  0.00     0.037 A 
BRANCH  54  68
ATOM     68  C   UNL     1      11.707  19.705  -3.491  1.00  0.00     0.058 A 
ATOM     69  C   UNL     1      11.985  19.511  -4.851  1.00  0.00     0.135 A 
ATOM     70  C   UNL     1      12.785  19.962  -2.628  1.00  0.00     0.135 A 
ATOM     71  F   UNL     1      10.992  19.245  -5.714  1.00  0.00    -0.206 F 
ATOM     72  C   UNL     1      13.286  19.564  -5.340  1.00  0.00     0.059 A 
ATOM     73  C   UNL     1      14.092  20.042  -3.098  1.00  0.00     0.059 A 
ATOM     74  F   UNL     1      12.571  20.151  -1.316  1.00  0.00    -0.206 F 
ATOM     75  C   UNL     1      14.333  19.835  -4.456  1.00  0.00     0.060 A 
BRANCH  75  76
ATOM     76  S   UNL     1      16.011  19.942  -5.112  1.00  0.00     0.124 S 
ATOM     77  O   UNL     1      16.325  18.535  -5.338  1.00  0.00    -0.237 OA
ATOM     78  O   UNL     1      15.826  20.750  -6.314  1.00  0.00    -0.237 OA
ATOM     79  O   UNL     1      16.756  20.587  -4.036  1.00  0.00    -0.744 OA
ENDBRANCH  75  76
ENDBRANCH  54  68
BRANCH  55  80
ATOM     80  C   UNL     1       2.501  19.456   0.368  1.00  0.00     0.058 A 
ATOM     81  C   UNL     1       1.380  20.006  -0.272  1.00  0.00     0.135 A 
ATOM     82  C   UNL     1       2.322  18.917   1.651  1.00  0.00     0.135 A 
ATOM     83  F   UNL     1       1.504  20.538  -1.498  1.00  0.00    -0.206 F 
ATOM     84  C   UNL     1       0.137  20.057   0.349  1.00  0.00     0.059 A 
ATOM     85  C   UNL     1       1.083  18.934   2.284  1.00  0.00     0.059 A 
ATOM     86  F   UNL     1       3.358  18.362   2.298  1.00  0.00    -0.206 F 
ATOM     87  C   UNL     1       0.000  19.524   1.632  1.00  0.00     0.060 A 
BRANCH  87  88
ATOM     88  S   UNL     1      -1.618  19.586   2.432  1.00  0.00     0.124 S 
ATOM     89  O   UNL     1      -1.670  20.974   2.877  1.00  0.00    -0.237 OA
ATOM     90  O   UNL     1      -2.519  19.231   1.340  1.00  0.00    -0.237 OA
ATOM     91  O   UNL     1      -1.504  18.586   3.489  1.00  0.00    -0.744 OA
ENDBRANCH  87  88
ENDBRANCH  55  80
BRANCH  67  92
ATOM     92  C   UNL     1       6.972  24.581  -1.155  1.00  0.00     0.058 A 
ATOM     93  C   UNL     1       7.144  25.220   0.081  1.00  0.00     0.135 A 
ATOM     94  C   UNL     1       6.814  25.383  -2.297  1.00  0.00     0.135 A 
ATOM     95  F   UNL     1       7.291  24.496   1.201  1.00  0.00    -0.206 F 
ATOM     96  C   UNL     1       7.157  26.608   0.182  1.00  0.00     0.059 A 
ATOM     97  C   UNL     1       6.845  26.771  -2.222  1.00  0.00     0.059 A 
ATOM     98  F   UNL     1       6.654  24.817  -3.504  1.00  0.00    -0.206 F 
ATOM     99  C   UNL     1       7.012  27.375  -0.976  1.00  0.00     0.060 A 
BRANCH  99 100
ATOM    100  S   UNL     1       7.098  29.173  -0.844  1.00  0.00     0.124 S 
ATOM    101  O   UNL     1       5.780  29.491  -0.305  1.00  0.00    -0.237 OA
ATOM    102  O   UNL     1       8.220  29.369   0.070  1.00  0.00    -0.237 OA
ATOM    103  O   UNL     1       7.336  29.603  -2.219  1.00  0.00    -0.744 OA
ENDBRANCH  99 100
ENDBRANCH  67  92
ENDBRANCH  41  42
ENDBRANCH  33  36
ENDBRANCH  31  32
ENDBRANCH  30  31
ENDBRANCH  29  30
ENDBRANCH   1  29
TORSDOF 20
