REMARK SMILES [NH3+][C@@H](Cc1cn(-c2nc(Cl)nc(N3CCOCC3)n2)c2ccccc12)C(=O)NCCCCNC(=O)c1ccc(-c2c3nc(c(-c4c(F)cc(S(=O)(=O)[O-])cc4F)c4ccc([nH]4)c(-c4c(F)cc(S(=O)(=O)[O-])cc4F)c4nc(c(-c5c(F)cc(S(=O)(=O)[O-])cc5F)c5ccc2[nH]5)C=C4)C=C3)cc1
REMARK SMILES IDX 30 1 29 2 28 3 26 4 27 5 2 7 1 8 3 12 4 13 5 14 25 15 6 16
REMARK SMILES IDX 20 17 24 18 21 19 23 20 22 21 7 22 8 23 19 24 9 25 12 26
REMARK SMILES IDX 10 27 11 28 13 29 14 30 18 31 15 32 17 33 16 34 31 35 32 36
REMARK SMILES IDX 33 37 34 38 35 40 36 41 37 42 101 43 38 44 100 45 39 46
REMARK SMILES IDX 40 47 41 48 94 49 42 50 99 51 93 52 95 53 43 54 98 55 92 56
REMARK SMILES IDX 91 57 44 59 78 60 57 61 77 62 58 63 61 64 76 65 96 66 59 67
REMARK SMILES IDX 60 68 75 70 97 71 62 72 45 73 46 74 55 75 47 76 48 77 54 78
REMARK SMILES IDX 56 79 49 80 50 81 51 82 52 83 53 84 79 85 80 86 89 87 81 88
REMARK SMILES IDX 82 89 88 90 90 91 83 92 84 93 85 94 86 95 87 96 63 97 64 98
REMARK SMILES IDX 73 99 65 100 66 101 72 102 74 103 67 104 68 105 69 106
REMARK SMILES IDX 70 107 71 108
REMARK H PARENT 28 6 1 9 1 10 1 11 33 39 95 58 61 69
REMARK Flexibility Score: inf
ROOT
ATOM      1  C   UNL     1      -2.888   1.648  -0.385  1.00  0.00     0.023 C 
ENDROOT
BRANCH   1   2
ATOM      2  C   UNL     1      -1.759   1.466   0.583  1.00  0.00     0.116 C 
BRANCH   2   3
ATOM      3  N   UNL     1      -1.772   0.308   1.421  1.00  0.00    -0.351 N 
ATOM      4  C   UNL     1      -0.648  -0.343   1.862  1.00  0.00     0.278 C 
ATOM      5  O   UNL     1      -0.812  -1.285   2.646  1.00  0.00    -0.268 OA
ATOM      6  H   UNL     1      -2.647  -0.046   1.701  1.00  0.00     0.163 HD
BRANCH   4   7
ATOM      7  C   UNL     1       0.793   0.056   1.369  1.00  0.00     0.275 C 
BRANCH   7   8
ATOM      8  N   UNL     1       1.105  -0.554   0.063  1.00  0.00    -0.347 N 
ATOM      9  H   UNL     1       2.043  -0.276  -0.226  1.00  0.00     0.345 HD
ATOM     10  H   UNL     1       0.428  -0.238  -0.631  1.00  0.00     0.345 HD
ATOM     11  H   UNL     1       1.061  -1.570   0.143  1.00  0.00     0.345 HD
ENDBRANCH   7   8
BRANCH   7  12
ATOM     12  C   UNL     1       1.281   1.509   1.579  1.00  0.00     0.113 C 
BRANCH  12  13
ATOM     13  C   UNL     1       0.997   2.670   0.626  1.00  0.00    -0.015 A 
ATOM     14  C   UNL     1       0.625   2.734  -0.710  1.00  0.00     0.099 A 
ATOM     15  C   UNL     1       1.092   4.040   1.038  1.00  0.00     0.004 A 
ATOM     16  N   UNL     1       0.164   4.016  -1.019  1.00  0.00    -0.285 N 
ATOM     17  C   UNL     1       0.615   4.865   0.001  1.00  0.00     0.056 A 
ATOM     18  C   UNL     1       1.531   4.622   2.251  1.00  0.00     0.010 A 
ATOM     19  C   UNL     1       0.572   6.263   0.173  1.00  0.00     0.027 A 
ATOM     20  C   UNL     1       1.516   6.005   2.409  1.00  0.00     0.001 A 
ATOM     21  C   UNL     1       1.042   6.810   1.381  1.00  0.00     0.002 A 
BRANCH  16  22
ATOM     22  C   UNL     1      -0.690   4.322  -2.158  1.00  0.00     0.240 A 
ATOM     23  N   UNL     1      -0.350   5.307  -2.963  1.00  0.00    -0.181 NA
ATOM     24  N   UNL     1      -1.789   3.555  -2.354  1.00  0.00    -0.176 NA
ATOM     25  C   UNL     1      -1.159   5.376  -4.023  1.00  0.00     0.228 A 
ATOM     26  C   UNL     1      -2.628   3.818  -3.377  1.00  0.00     0.231 A 
ATOM     27  Cl  UNL     1      -0.645   6.474  -5.236  1.00  0.00    -0.041 Cl
ATOM     28  N   UNL     1      -2.289   4.706  -4.289  1.00  0.00    -0.182 NA
BRANCH  26  29
ATOM     29  N   UNL     1      -3.826   3.091  -3.474  1.00  0.00    -0.336 N 
ATOM     30  C   UNL     1      -5.056   3.673  -2.905  1.00  0.00     0.148 C 
ATOM     31  C   UNL     1      -4.210   2.557  -4.798  1.00  0.00     0.148 C 
ATOM     32  C   UNL     1      -6.167   2.627  -2.686  1.00  0.00     0.181 C 
ATOM     33  C   UNL     1      -5.346   1.510  -4.585  1.00  0.00     0.181 C 
ATOM     34  O   UNL     1      -6.521   2.052  -3.941  1.00  0.00    -0.378 OA
ENDBRANCH  26  29
ENDBRANCH  16  22
ENDBRANCH  12  13
ENDBRANCH   7  12
ENDBRANCH   4   7
ENDBRANCH   2   3
ENDBRANCH   1   2
BRANCH   1  35
ATOM     35  C   UNL     1      -3.908   2.758  -0.086  1.00  0.00     0.023 C 
BRANCH  35  36
ATOM     36  C   UNL     1      -3.769   4.295   0.250  1.00  0.00     0.116 C 
BRANCH  36  37
ATOM     37  N   UNL     1      -3.110   5.380  -0.553  1.00  0.00    -0.352 N 
ATOM     38  C   UNL     1      -3.408   6.576  -1.232  1.00  0.00     0.251 C 
ATOM     39  H   UNL     1      -2.147   5.190  -0.631  1.00  0.00     0.163 HD
ATOM     40  O   UNL     1      -2.634   7.507  -0.960  1.00  0.00    -0.269 OA
BRANCH  38  41
ATOM     41  C   UNL     1      -4.279   6.828  -2.448  1.00  0.00     0.039 A 
ATOM     42  C   UNL     1      -5.620   6.527  -2.621  1.00  0.00     0.014 A 
ATOM     43  C   UNL     1      -3.678   7.497  -3.537  1.00  0.00     0.014 A 
ATOM     44  C   UNL     1      -6.187   6.537  -3.936  1.00  0.00     0.010 A 
ATOM     45  C   UNL     1      -4.263   7.561  -4.824  1.00  0.00     0.010 A 
ATOM     46  C   UNL     1      -5.467   6.924  -5.094  1.00  0.00    -0.014 A 
BRANCH  46  47
ATOM     47  C   UNL     1      -5.991   6.638  -6.495  1.00  0.00     0.031 A 
ATOM     48  C   UNL     1      -7.482   6.419  -6.609  1.00  0.00     0.074 A 
ATOM     49  C   UNL     1      -5.304   6.617  -7.677  1.00  0.00     0.049 A 
ATOM     50  N   UNL     1      -8.129   5.372  -7.031  1.00  0.00    -0.248 NA
ATOM     51  C   UNL     1      -8.357   7.470  -6.063  1.00  0.00     0.031 C 
ATOM     52  C   UNL     1      -3.894   6.935  -7.931  1.00  0.00     0.029 A 
ATOM     53  N   UNL     1      -5.761   6.394  -8.965  1.00  0.00    -0.354 N 
ATOM     54  C   UNL     1      -9.488   5.689  -6.938  1.00  0.00     0.074 A 
ATOM     55  C   UNL     1      -9.559   6.906  -6.172  1.00  0.00     0.031 C 
ATOM     56  C   UNL     1      -3.697   7.171  -9.247  1.00  0.00     0.029 A 
ATOM     57  C   UNL     1      -4.921   6.889  -9.969  1.00  0.00     0.049 A 
ATOM     58  H   UNL     1      -6.606   5.926  -9.158  1.00  0.00     0.167 HD
ATOM     59  C   UNL     1     -10.475   5.053  -7.635  1.00  0.00     0.037 A 
ATOM     60  C   UNL     1      -5.194   7.111 -11.287  1.00  0.00     0.037 A 
ATOM     61  C   UNL     1     -10.053   3.791  -8.171  1.00  0.00     0.049 A 
ATOM     62  C   UNL     1      -6.349   6.260 -11.656  1.00  0.00     0.074 A 
ATOM     63  C   UNL     1      -9.601   2.599  -7.639  1.00  0.00     0.029 A 
ATOM     64  N   UNL     1      -9.809   3.701  -9.519  1.00  0.00    -0.354 N 
ATOM     65  N   UNL     1      -6.298   4.961 -11.748  1.00  0.00    -0.248 NA
ATOM     66  C   UNL     1      -7.679   6.827 -11.506  1.00  0.00     0.031 C 
ATOM     67  C   UNL     1      -8.666   2.099  -8.591  1.00  0.00     0.029 A 
ATOM     68  C   UNL     1      -8.639   3.001  -9.654  1.00  0.00     0.049 A 
ATOM     69  H   UNL     1     -10.364   4.068 -10.244  1.00  0.00     0.167 HD
ATOM     70  C   UNL     1      -7.509   4.528 -11.232  1.00  0.00     0.074 A 
ATOM     71  C   UNL     1      -8.348   5.722 -11.173  1.00  0.00     0.031 C 
ATOM     72  C   UNL     1      -7.634   3.304 -10.643  1.00  0.00     0.037 A 
BRANCH  59  73
ATOM     73  C   UNL     1     -11.751   5.732  -8.098  1.00  0.00     0.058 A 
ATOM     74  C   UNL     1     -12.826   4.970  -8.604  1.00  0.00     0.135 A 
ATOM     75  C   UNL     1     -11.843   7.125  -8.315  1.00  0.00     0.135 A 
ATOM     76  F   UNL     1     -12.839   3.633  -8.473  1.00  0.00    -0.206 F 
ATOM     77  C   UNL     1     -13.877   5.545  -9.326  1.00  0.00     0.059 A 
ATOM     78  C   UNL     1     -12.909   7.723  -8.975  1.00  0.00     0.059 A 
ATOM     79  F   UNL     1     -10.852   7.963  -7.990  1.00  0.00    -0.206 F 
ATOM     80  C   UNL     1     -13.899   6.923  -9.519  1.00  0.00     0.060 A 
BRANCH  80  81
ATOM     81  S   UNL     1     -15.169   7.662 -10.562  1.00  0.00     0.124 S 
ATOM     82  O   UNL     1     -14.816   7.127 -11.872  1.00  0.00    -0.237 OA
ATOM     83  O   UNL     1     -16.393   7.141  -9.964  1.00  0.00    -0.237 OA
ATOM     84  O   UNL     1     -14.954   9.096 -10.388  1.00  0.00    -0.744 OA
ENDBRANCH  80  81
ENDBRANCH  59  73
BRANCH  60  85
ATOM     85  C   UNL     1      -4.747   8.262 -12.137  1.00  0.00     0.058 A 
ATOM     86  C   UNL     1      -4.979   8.309 -13.529  1.00  0.00     0.135 A 
ATOM     87  C   UNL     1      -4.326   9.475 -11.555  1.00  0.00     0.135 A 
ATOM     88  F   UNL     1      -5.407   7.217 -14.181  1.00  0.00    -0.206 F 
ATOM     89  C   UNL     1      -4.848   9.492 -14.278  1.00  0.00     0.059 A 
ATOM     90  C   UNL     1      -4.176  10.658 -12.280  1.00  0.00     0.059 A 
ATOM     91  F   UNL     1      -4.137   9.582 -10.233  1.00  0.00    -0.206 F 
ATOM     92  C   UNL     1      -4.465  10.669 -13.636  1.00  0.00     0.060 A 
BRANCH  92  93
ATOM     93  S   UNL     1      -4.463  12.238 -14.541  1.00  0.00     0.124 S 
ATOM     94  O   UNL     1      -3.371  12.043 -15.488  1.00  0.00    -0.237 OA
ATOM     95  O   UNL     1      -5.805  12.268 -15.111  1.00  0.00    -0.237 OA
ATOM     96  O   UNL     1      -4.212  13.231 -13.498  1.00  0.00    -0.744 OA
ENDBRANCH  92  93
ENDBRANCH  60  85
BRANCH  72  97
ATOM     97  C   UNL     1      -6.520   2.306 -10.802  1.00  0.00     0.058 A 
ATOM     98  C   UNL     1      -5.220   2.499 -10.300  1.00  0.00     0.135 A 
ATOM     99  C   UNL     1      -6.828   1.038 -11.318  1.00  0.00     0.135 A 
ATOM    100  F   UNL     1      -4.878   3.644  -9.694  1.00  0.00    -0.206 F 
ATOM    101  C   UNL     1      -4.262   1.486 -10.341  1.00  0.00     0.059 A 
ATOM    102  C   UNL     1      -5.898   0.003 -11.339  1.00  0.00     0.059 A 
ATOM    103  F   UNL     1      -8.071   0.774 -11.755  1.00  0.00    -0.206 F 
ATOM    104  C   UNL     1      -4.612   0.238 -10.854  1.00  0.00     0.060 A 
BRANCH 104 105
ATOM    105  S   UNL     1      -3.408  -1.106 -10.800  1.00  0.00     0.124 S 
ATOM    106  O   UNL     1      -2.423  -0.672 -11.796  1.00  0.00    -0.237 OA
ATOM    107  O   UNL     1      -2.951  -1.057  -9.407  1.00  0.00    -0.237 OA
ATOM    108  O   UNL     1      -4.178  -2.280 -11.153  1.00  0.00    -0.744 OA
ENDBRANCH 104 105
ENDBRANCH  72  97
ENDBRANCH  46  47
ENDBRANCH  38  41
ENDBRANCH  36  37
ENDBRANCH  35  36
ENDBRANCH   1  35
TORSDOF 19
