REMARK SMILES CCOc1cc2c(cc1/C=C1/C(=O)N(c3cccc(C(=O)NCCCCNC(=O)c4ccc(-c5c6nc(c(-c7c(F)cc(S(=O)(=O)[O-])cc7F)c7ccc([nH]7)c(-c7c(F)cc(S(=O)(=O)[O-])cc7F)c7nc(c(-c8c(F)cc(S(=O)(=O)[O-])cc8F)c8ccc5[nH]8)C=C7)C=C6)cc4)c3)C(=S)N=C1O)OCO2
REMARK SMILES IDX 24 1 23 2 22 3 20 4 21 5 19 7 15 8 16 9 96 10 17 11 18 12
REMARK SMILES IDX 14 13 10 14 11 15 12 16 100 17 13 18 99 19 97 20 98 21 9 22
REMARK SMILES IDX 4 23 5 24 6 25 8 26 7 27 104 28 102 29 103 30 3 31 2 32 1 33
REMARK SMILES IDX 101 34 25 36 26 37 27 38 28 39 29 41 30 42 31 43 95 44 32 45
REMARK SMILES IDX 94 46 33 47 34 48 35 49 88 50 36 51 93 52 87 53 89 54 37 55
REMARK SMILES IDX 92 56 86 57 85 58 38 60 72 61 51 62 71 63 52 64 55 65 70 66
REMARK SMILES IDX 90 67 53 68 54 69 69 71 91 72 56 73 39 74 40 75 49 76 41 77
REMARK SMILES IDX 42 78 48 79 50 80 43 81 44 82 45 83 46 84 47 85 73 86 74 87
REMARK SMILES IDX 83 88 75 89 76 90 82 91 84 92 77 93 78 94 79 95 80 96 81 97
REMARK SMILES IDX 57 98 58 99 67 100 59 101 60 102 66 103 68 104 61 105 62 106
REMARK SMILES IDX 63 107 64 108 65 109
REMARK H PARENT 22 6 101 35 27 40 89 59 55 70
REMARK Flexibility Score: inf
ROOT
ATOM      1  C   UNL     1       0.942  10.307   0.198  1.00  0.00     0.023 C 
ENDROOT
BRANCH   1   2
ATOM      2  C   UNL     1       0.024   9.612  -0.796  1.00  0.00     0.116 C 
BRANCH   2   3
ATOM      3  N   UNL     1      -1.072  10.425  -1.301  1.00  0.00    -0.352 N 
ATOM      4  C   UNL     1      -1.568  10.602  -2.577  1.00  0.00     0.251 C 
ATOM      5  O   UNL     1      -2.524  11.360  -2.739  1.00  0.00    -0.269 OA
ATOM      6  H   UNL     1      -1.544  10.942  -0.609  1.00  0.00     0.163 HD
BRANCH   4   7
ATOM      7  C   UNL     1      -0.937   9.975  -3.772  1.00  0.00     0.041 A 
ATOM      8  C   UNL     1       0.634   8.385  -4.715  1.00  0.00     0.052 A 
ATOM      9  C   UNL     1       0.591   9.088  -5.929  1.00  0.00     0.027 A 
ATOM     10  C   UNL     1      -0.263   8.755  -3.708  1.00  0.00     0.040 A 
ATOM     11  C   UNL     1      -0.230  10.209  -6.075  1.00  0.00     0.003 A 
ATOM     12  C   UNL     1      -0.955  10.680  -4.981  1.00  0.00     0.014 A 
BRANCH   8  13
ATOM     13  N   UNL     1       1.671   7.413  -4.434  1.00  0.00    -0.251 N 
ATOM     14  C   UNL     1       2.207   4.354  -2.475  1.00  0.00     0.031 C 
ATOM     15  C   UNL     1       2.444   5.325  -3.391  1.00  0.00     0.103 C 
ATOM     16  C   UNL     1       1.310   6.242  -3.742  1.00  0.00     0.270 C 
ATOM     17  C   UNL     1       3.662   5.608  -4.142  1.00  0.00     0.226 C 
ATOM     18  O   UNL     1       0.158   5.940  -3.426  1.00  0.00    -0.268 OA
ATOM     19  N   UNL     1       3.932   6.686  -4.770  1.00  0.00    -0.184 NA
ATOM     20  C   UNL     1       3.025   7.715  -4.722  1.00  0.00     0.210 C 
ATOM     21  S   UNL     1       3.658   9.281  -4.948  1.00  0.00    -0.038 S 
BRANCH  14  22
ATOM     22  C   UNL     1       3.074   3.253  -1.985  1.00  0.00     0.021 A 
ATOM     23  C   UNL     1       2.530   1.960  -1.744  1.00  0.00     0.130 A 
ATOM     24  C   UNL     1       3.354   0.846  -1.545  1.00  0.00     0.097 A 
ATOM     25  C   UNL     1       4.707   1.058  -1.468  1.00  0.00     0.169 A 
ATOM     26  C   UNL     1       4.447   3.435  -1.760  1.00  0.00     0.062 A 
ATOM     27  C   UNL     1       5.237   2.321  -1.544  1.00  0.00     0.166 A 
ATOM     28  O   UNL     1       5.654   0.098  -1.312  1.00  0.00    -0.453 OA
ATOM     29  O   UNL     1       6.593   2.316  -1.438  1.00  0.00    -0.454 OA
ATOM     30  C   UNL     1       6.853   0.898  -1.363  1.00  0.00     0.468 C 
BRANCH  23  31
ATOM     31  O   UNL     1       1.172   1.745  -1.769  1.00  0.00    -0.493 OA
BRANCH  31  32
ATOM     32  C   UNL     1       0.630   1.647  -0.436  1.00  0.00     0.226 C 
ATOM     33  C   UNL     1       0.652   0.220   0.101  1.00  0.00     0.049 C 
ENDBRANCH  31  32
ENDBRANCH  23  31
ENDBRANCH  14  22
BRANCH  17  34
ATOM     34  O   UNL     1       4.577   4.646  -4.235  1.00  0.00    -0.493 OA
ATOM     35  H   UNL     1       4.443   3.828  -3.799  1.00  0.00     0.295 HD
ENDBRANCH  17  34
ENDBRANCH   8  13
ENDBRANCH   4   7
ENDBRANCH   2   3
ENDBRANCH   1   2
BRANCH   1  36
ATOM     36  C   UNL     1       0.324  10.704   1.530  1.00  0.00     0.023 C 
BRANCH  36  37
ATOM     37  C   UNL     1      -0.426   9.606   2.273  1.00  0.00     0.116 C 
BRANCH  37  38
ATOM     38  N   UNL     1       0.368   8.409   2.517  1.00  0.00    -0.352 N 
ATOM     39  C   UNL     1       0.566   7.709   3.683  1.00  0.00     0.251 C 
ATOM     40  H   UNL     1       0.832   8.048   1.728  1.00  0.00     0.163 HD
ATOM     41  O   UNL     1       1.352   6.763   3.695  1.00  0.00    -0.269 OA
BRANCH  39  42
ATOM     42  C   UNL     1      -0.129   8.113   4.926  1.00  0.00     0.039 A 
ATOM     43  C   UNL     1       0.598   8.168   6.118  1.00  0.00     0.014 A 
ATOM     44  C   UNL     1      -1.484   8.456   4.919  1.00  0.00     0.014 A 
ATOM     45  C   UNL     1      -0.015   8.642   7.281  1.00  0.00     0.010 A 
ATOM     46  C   UNL     1      -2.064   9.016   6.055  1.00  0.00     0.010 A 
ATOM     47  C   UNL     1      -1.338   9.113   7.250  1.00  0.00    -0.014 A 
BRANCH  47  48
ATOM     48  C   UNL     1      -1.963   9.715   8.459  1.00  0.00     0.031 A 
ATOM     49  C   UNL     1      -3.179   9.085   9.086  1.00  0.00     0.074 A 
ATOM     50  C   UNL     1      -1.456  10.856   8.969  1.00  0.00     0.049 A 
ATOM     51  N   UNL     1      -3.853   9.465  10.141  1.00  0.00    -0.248 NA
ATOM     52  C   UNL     1      -3.726   7.888   8.428  1.00  0.00     0.031 C 
ATOM     53  C   UNL     1      -0.324  11.601   8.412  1.00  0.00     0.029 A 
ATOM     54  N   UNL     1      -1.824  11.590  10.069  1.00  0.00    -0.354 N 
ATOM     55  C   UNL     1      -4.901   8.561  10.270  1.00  0.00     0.074 A 
ATOM     56  C   UNL     1      -4.813   7.653   9.147  1.00  0.00     0.031 C 
ATOM     57  C   UNL     1      -0.065  12.661   9.195  1.00  0.00     0.029 A 
ATOM     58  C   UNL     1      -1.032  12.694  10.287  1.00  0.00     0.049 A 
ATOM     59  H   UNL     1      -2.583  11.350  10.647  1.00  0.00     0.167 HD
ATOM     60  C   UNL     1      -5.834   8.474  11.249  1.00  0.00     0.037 A 
ATOM     61  C   UNL     1      -1.077  13.626  11.259  1.00  0.00     0.037 A 
ATOM     62  C   UNL     1      -5.907   9.372  12.373  1.00  0.00     0.049 A 
ATOM     63  C   UNL     1      -2.117  13.505  12.340  1.00  0.00     0.074 A 
ATOM     64  C   UNL     1      -6.779   9.338  13.447  1.00  0.00     0.029 A 
ATOM     65  N   UNL     1      -5.079  10.470  12.566  1.00  0.00    -0.354 N 
ATOM     66  N   UNL     1      -3.053  12.596  12.487  1.00  0.00    -0.248 NA
ATOM     67  C   UNL     1      -2.100  14.527  13.394  1.00  0.00     0.031 C 
ATOM     68  C   UNL     1      -6.512  10.443  14.263  1.00  0.00     0.029 A 
ATOM     69  C   UNL     1      -5.435  11.133  13.730  1.00  0.00     0.049 A 
ATOM     70  H   UNL     1      -4.347  10.738  11.965  1.00  0.00     0.167 HD
ATOM     71  C   UNL     1      -3.718  12.923  13.664  1.00  0.00     0.074 A 
ATOM     72  C   UNL     1      -3.063  14.099  14.198  1.00  0.00     0.031 C 
ATOM     73  C   UNL     1      -4.776  12.306  14.249  1.00  0.00     0.037 A 
BRANCH  60  74
ATOM     74  C   UNL     1      -6.847   7.364  11.152  1.00  0.00     0.058 A 
ATOM     75  C   UNL     1      -6.483   6.017  11.319  1.00  0.00     0.135 A 
ATOM     76  C   UNL     1      -8.203   7.649  10.925  1.00  0.00     0.135 A 
ATOM     77  F   UNL     1      -5.199   5.682  11.523  1.00  0.00    -0.206 F 
ATOM     78  C   UNL     1      -7.420   4.992  11.233  1.00  0.00     0.059 A 
ATOM     79  C   UNL     1      -9.163   6.642  10.867  1.00  0.00     0.059 A 
ATOM     80  F   UNL     1      -8.609   8.917  10.758  1.00  0.00    -0.206 F 
ATOM     81  C   UNL     1      -8.759   5.315  11.008  1.00  0.00     0.060 A 
BRANCH  81  82
ATOM     82  S   UNL     1      -9.962   3.973  10.908  1.00  0.00     0.124 S 
ATOM     83  O   UNL     1      -9.621   3.370   9.623  1.00  0.00    -0.237 OA
ATOM     84  O   UNL     1      -9.638   3.176  12.087  1.00  0.00    -0.237 OA
ATOM     85  O   UNL     1     -11.248   4.663  10.955  1.00  0.00    -0.744 OA
ENDBRANCH  81  82
ENDBRANCH  60  74
BRANCH  61  86
ATOM     86  C   UNL     1      -0.085  14.736  11.275  1.00  0.00     0.058 A 
ATOM     87  C   UNL     1       0.909  14.805  12.263  1.00  0.00     0.135 A 
ATOM     88  C   UNL     1      -0.103  15.744  10.299  1.00  0.00     0.135 A 
ATOM     89  F   UNL     1       0.967  13.868  13.223  1.00  0.00    -0.206 F 
ATOM     90  C   UNL     1       1.835  15.843  12.297  1.00  0.00     0.059 A 
ATOM     91  C   UNL     1       0.830  16.776  10.293  1.00  0.00     0.059 A 
ATOM     92  F   UNL     1      -1.022  15.716   9.320  1.00  0.00    -0.206 F 
ATOM     93  C   UNL     1       1.789  16.823  11.305  1.00  0.00     0.060 A 
BRANCH  93  94
ATOM     94  S   UNL     1       3.025  18.140  11.330  1.00  0.00     0.124 S 
ATOM     95  O   UNL     1       2.583  18.935  12.470  1.00  0.00    -0.237 OA
ATOM     96  O   UNL     1       4.264  17.392  11.514  1.00  0.00    -0.237 OA
ATOM     97  O   UNL     1       2.871  18.770  10.022  1.00  0.00    -0.744 OA
ENDBRANCH  93  94
ENDBRANCH  61  86
BRANCH  73  98
ATOM     98  C   UNL     1      -5.267  12.874  15.554  1.00  0.00     0.058 A 
ATOM     99  C   UNL     1      -5.922  14.114  15.623  1.00  0.00     0.135 A 
ATOM    100  C   UNL     1      -5.094  12.159  16.750  1.00  0.00     0.135 A 
ATOM    101  F   UNL     1      -6.112  14.841  14.510  1.00  0.00    -0.206 F 
ATOM    102  C   UNL     1      -6.347  14.646  16.836  1.00  0.00     0.059 A 
ATOM    103  C   UNL     1      -5.541  12.656  17.970  1.00  0.00     0.059 A 
ATOM    104  F   UNL     1      -4.488  10.961  16.741  1.00  0.00    -0.206 F 
ATOM    105  C   UNL     1      -6.148  13.910  18.006  1.00  0.00     0.060 A 
BRANCH 105 106
ATOM    106  S   UNL     1      -6.700  14.611  19.575  1.00  0.00     0.124 S 
ATOM    107  O   UNL     1      -5.698  15.647  19.802  1.00  0.00    -0.237 OA
ATOM    108  O   UNL     1      -8.042  15.087  19.249  1.00  0.00    -0.237 OA
ATOM    109  O   UNL     1      -6.649  13.476  20.491  1.00  0.00    -0.744 OA
ENDBRANCH 105 106
ENDBRANCH  73  98
ENDBRANCH  47  48
ENDBRANCH  39  42
ENDBRANCH  37  38
ENDBRANCH  36  37
ENDBRANCH   1  36
TORSDOF 19
