REMARK SMILES Cc1ccc(C)c(N2C(=O)S[C@H](CC(=O)Nc3ccc(C(=O)NCCCCNC(=O)c4ccc(-c5c6nc(c(-c7c(F)cc(S(=O)(=O)[O-])cc7F)c7ccc([nH]7)c(-c7c(F)cc(S(=O)(=O)[O-])cc7F)c7nc(c(-c8c(F)cc(S(=O)(=O)[O-])cc8F)c8ccc5[nH]8)C=C7)C=C6)cc4)c(O)c3)C2=O)c1
REMARK SMILES IDX 25 1 24 2 23 3 21 4 22 5 20 7 17 8 18 9 99 10 19 11 97 12
REMARK SMILES IDX 16 13 14 14 15 15 13 17 12 18 8 19 9 20 100 21 10 22 11 23
REMARK SMILES IDX 101 24 7 25 1 26 2 27 3 28 102 29 4 30 5 31 6 32 98 33 26 35
REMARK SMILES IDX 27 36 28 37 29 38 30 40 31 41 32 42 96 43 33 44 95 45 34 46
REMARK SMILES IDX 35 47 36 48 89 49 37 50 94 51 88 52 90 53 38 54 93 55 87 56
REMARK SMILES IDX 86 57 39 59 73 60 52 61 72 62 53 63 56 64 71 65 91 66 54 67
REMARK SMILES IDX 55 68 70 70 92 71 57 72 40 73 41 74 50 75 42 76 43 77 49 78
REMARK SMILES IDX 51 79 44 80 45 81 46 82 47 83 48 84 74 85 75 86 84 87 76 88
REMARK SMILES IDX 77 89 83 90 85 91 78 92 79 93 80 94 81 95 82 96 58 97 59 98
REMARK SMILES IDX 68 99 60 100 61 101 67 102 69 103 62 104 63 105 64 106
REMARK SMILES IDX 65 107 66 108
REMARK H PARENT 23 6 16 16 98 34 28 39 90 58 56 69
REMARK Flexibility Score: inf
ROOT
ATOM      1  C   UNL     1       4.330   7.263  -2.098  1.00  0.00     0.023 C 
ENDROOT
BRANCH   1   2
ATOM      2  C   UNL     1       2.895   7.464  -2.584  1.00  0.00     0.116 C 
BRANCH   2   3
ATOM      3  N   UNL     1       2.272   6.383  -3.317  1.00  0.00    -0.352 N 
ATOM      4  C   UNL     1       0.938   6.041  -3.443  1.00  0.00     0.255 C 
ATOM      5  O   UNL     1       0.672   5.147  -4.246  1.00  0.00    -0.269 OA
ATOM      6  H   UNL     1       2.897   5.798  -3.804  1.00  0.00     0.163 HD
BRANCH   4   7
ATOM      7  C   UNL     1      -0.160   6.593  -2.585  1.00  0.00     0.081 A 
ATOM      8  C   UNL     1      -2.023   7.111  -0.528  1.00  0.00     0.044 A 
ATOM      9  C   UNL     1      -2.192   6.044  -1.396  1.00  0.00     0.027 A 
ATOM     10  C   UNL     1      -1.099   8.083  -0.880  1.00  0.00     0.073 A 
ATOM     11  C   UNL     1      -1.244   5.740  -2.369  1.00  0.00     0.020 A 
ATOM     12  C   UNL     1      -0.221   7.840  -1.952  1.00  0.00     0.130 A 
BRANCH   8  13
ATOM     13  N   UNL     1      -2.826   7.228   0.620  1.00  0.00    -0.326 N 
ATOM     14  C   UNL     1      -3.304   6.201   1.413  1.00  0.00     0.226 C 
ATOM     15  O   UNL     1      -4.262   6.391   2.164  1.00  0.00    -0.275 OA
ATOM     16  H   UNL     1      -3.075   8.142   0.890  1.00  0.00     0.169 HD
BRANCH  14  17
ATOM     17  C   UNL     1      -2.481   4.918   1.519  1.00  0.00     0.125 C 
BRANCH  17  18
ATOM     18  C   UNL     1      -3.240   3.602   1.358  1.00  0.00     0.156 C 
ATOM     19  N   UNL     1      -1.715   1.996   0.436  1.00  0.00    -0.240 N 
ATOM     20  C   UNL     1      -2.291   2.445  -0.718  1.00  0.00     0.293 C 
ATOM     21  C   UNL     1      -2.273   2.450   1.621  1.00  0.00     0.248 C 
ATOM     22  O   UNL     1      -1.890   2.323  -1.872  1.00  0.00    -0.261 OA
ATOM     23  S   UNL     1      -3.796   3.262  -0.335  1.00  0.00    -0.050 SA
ATOM     24  O   UNL     1      -2.036   2.034   2.751  1.00  0.00    -0.273 OA
BRANCH  19  25
ATOM     25  C   UNL     1      -0.868   0.865   0.388  1.00  0.00     0.056 A 
ATOM     26  C   UNL     1       2.861   0.063   0.082  1.00  0.00     0.044 C 
ATOM     27  C   UNL     1       1.370  -0.079   0.184  1.00  0.00    -0.049 A 
ATOM     28  C   UNL     1       0.805  -1.356   0.091  1.00  0.00     0.004 A 
ATOM     29  C   UNL     1       0.527   1.032   0.347  1.00  0.00     0.030 A 
ATOM     30  C   UNL     1      -0.577  -1.524   0.130  1.00  0.00     0.006 A 
ATOM     31  C   UNL     1      -1.431  -0.421   0.262  1.00  0.00    -0.027 A 
ATOM     32  C   UNL     1      -2.912  -0.683   0.230  1.00  0.00     0.046 C 
ENDBRANCH  19  25
ENDBRANCH  17  18
ENDBRANCH  14  17
ENDBRANCH   8  13
BRANCH  12  33
ATOM     33  O   UNL     1       0.491   8.926  -2.383  1.00  0.00    -0.507 OA
ATOM     34  H   UNL     1       1.095   8.838  -3.094  1.00  0.00     0.293 HD
ENDBRANCH  12  33
ENDBRANCH   4   7
ENDBRANCH   2   3
ENDBRANCH   1   2
BRANCH   1  35
ATOM     35  C   UNL     1       5.480   7.000  -3.074  1.00  0.00     0.023 C 
BRANCH  35  36
ATOM     36  C   UNL     1       5.521   7.758  -4.393  1.00  0.00     0.116 C 
BRANCH  36  37
ATOM     37  N   UNL     1       5.419   9.220  -4.284  1.00  0.00    -0.352 N 
ATOM     38  C   UNL     1       5.051  10.168  -5.237  1.00  0.00     0.251 C 
ATOM     39  H   UNL     1       5.646   9.587  -3.399  1.00  0.00     0.163 HD
ATOM     40  O   UNL     1       5.426  11.330  -5.112  1.00  0.00    -0.269 OA
BRANCH  38  41
ATOM     41  C   UNL     1       4.218   9.776  -6.398  1.00  0.00     0.039 A 
ATOM     42  C   UNL     1       4.145  10.488  -7.597  1.00  0.00     0.014 A 
ATOM     43  C   UNL     1       3.470   8.622  -6.269  1.00  0.00     0.014 A 
ATOM     44  C   UNL     1       3.347   9.971  -8.625  1.00  0.00     0.010 A 
ATOM     45  C   UNL     1       3.063   7.938  -7.367  1.00  0.00     0.010 A 
ATOM     46  C   UNL     1       2.812   8.677  -8.492  1.00  0.00    -0.014 A 
BRANCH  46  47
ATOM     47  C   UNL     1       2.034   8.003  -9.520  1.00  0.00     0.031 A 
ATOM     48  C   UNL     1       2.733   7.954 -10.811  1.00  0.00     0.074 A 
ATOM     49  C   UNL     1       0.910   7.282  -9.299  1.00  0.00     0.049 A 
ATOM     50  N   UNL     1       2.566   8.756 -11.805  1.00  0.00    -0.248 NA
ATOM     51  C   UNL     1       3.902   7.071 -10.932  1.00  0.00     0.031 C 
ATOM     52  C   UNL     1       0.281   6.923  -8.017  1.00  0.00     0.029 A 
ATOM     53  N   UNL     1       0.122   6.633 -10.202  1.00  0.00    -0.354 N 
ATOM     54  C   UNL     1       3.407   8.274 -12.793  1.00  0.00     0.074 A 
ATOM     55  C   UNL     1       4.373   7.442 -12.125  1.00  0.00     0.031 C 
ATOM     56  C   UNL     1      -0.663   5.976  -8.216  1.00  0.00     0.029 A 
ATOM     57  C   UNL     1      -0.836   5.789  -9.644  1.00  0.00     0.049 A 
ATOM     58  H   UNL     1       0.222   6.752 -11.175  1.00  0.00     0.167 HD
ATOM     59  C   UNL     1       3.031   8.338 -14.099  1.00  0.00     0.037 A 
ATOM     60  C   UNL     1      -1.714   5.002 -10.315  1.00  0.00     0.037 A 
ATOM     61  C   UNL     1       1.866   9.182 -14.256  1.00  0.00     0.049 A 
ATOM     62  C   UNL     1      -1.864   5.595 -11.666  1.00  0.00     0.074 A 
ATOM     63  C   UNL     1       1.573  10.510 -14.020  1.00  0.00     0.029 A 
ATOM     64  N   UNL     1       0.664   8.520 -14.329  1.00  0.00    -0.354 N 
ATOM     65  N   UNL     1      -2.404   6.761 -11.893  1.00  0.00    -0.248 NA
ATOM     66  C   UNL     1      -1.074   5.054 -12.763  1.00  0.00     0.031 C 
ATOM     67  C   UNL     1       0.205  10.538 -13.616  1.00  0.00     0.029 A 
ATOM     68  C   UNL     1      -0.301   9.238 -13.670  1.00  0.00     0.049 A 
ATOM     69  H   UNL     1       0.517   7.660 -14.787  1.00  0.00     0.167 HD
ATOM     70  C   UNL     1      -1.675   7.284 -12.947  1.00  0.00     0.074 A 
ATOM     71  C   UNL     1      -0.996   6.138 -13.539  1.00  0.00     0.031 C 
ATOM     72  C   UNL     1      -1.463   8.629 -13.047  1.00  0.00     0.037 A 
BRANCH  59  73
ATOM     73  C   UNL     1       3.415   7.316 -15.142  1.00  0.00     0.058 A 
ATOM     74  C   UNL     1       3.128   7.590 -16.494  1.00  0.00     0.135 A 
ATOM     75  C   UNL     1       3.793   5.985 -14.856  1.00  0.00     0.135 A 
ATOM     76  F   UNL     1       2.742   8.818 -16.874  1.00  0.00    -0.206 F 
ATOM     77  C   UNL     1       3.156   6.601 -17.476  1.00  0.00     0.059 A 
ATOM     78  C   UNL     1       3.886   4.999 -15.829  1.00  0.00     0.059 A 
ATOM     79  F   UNL     1       3.993   5.542 -13.610  1.00  0.00    -0.206 F 
ATOM     80  C   UNL     1       3.526   5.306 -17.130  1.00  0.00     0.060 A 
BRANCH  80  81
ATOM     81  S   UNL     1       3.481   4.007 -18.374  1.00  0.00     0.124 S 
ATOM     82  O   UNL     1       2.045   3.851 -18.575  1.00  0.00    -0.237 OA
ATOM     83  O   UNL     1       4.221   4.617 -19.473  1.00  0.00    -0.237 OA
ATOM     84  O   UNL     1       4.154   2.891 -17.717  1.00  0.00    -0.744 OA
ENDBRANCH  80  81
ENDBRANCH  59  73
BRANCH  60  85
ATOM     85  C   UNL     1      -2.253   3.659  -9.973  1.00  0.00     0.058 A 
ATOM     86  C   UNL     1      -3.314   3.097 -10.710  1.00  0.00     0.135 A 
ATOM     87  C   UNL     1      -1.539   2.774  -9.143  1.00  0.00     0.135 A 
ATOM     88  F   UNL     1      -4.048   3.863 -11.531  1.00  0.00    -0.206 F 
ATOM     89  C   UNL     1      -3.593   1.726 -10.693  1.00  0.00     0.059 A 
ATOM     90  C   UNL     1      -1.806   1.405  -9.100  1.00  0.00     0.059 A 
ATOM     91  F   UNL     1      -0.487   3.200  -8.428  1.00  0.00    -0.206 F 
ATOM     92  C   UNL     1      -2.811   0.882  -9.907  1.00  0.00     0.060 A 
BRANCH  92  93
ATOM     93  S   UNL     1      -3.018  -0.910 -10.060  1.00  0.00     0.124 S 
ATOM     94  O   UNL     1      -4.304  -1.125  -9.405  1.00  0.00    -0.237 OA
ATOM     95  O   UNL     1      -3.003  -1.101 -11.507  1.00  0.00    -0.237 OA
ATOM     96  O   UNL     1      -1.858  -1.448  -9.354  1.00  0.00    -0.744 OA
ENDBRANCH  92  93
ENDBRANCH  60  85
BRANCH  72  97
ATOM     97  C   UNL     1      -2.417   9.538 -12.311  1.00  0.00     0.058 A 
ATOM     98  C   UNL     1      -2.555   9.611 -10.913  1.00  0.00     0.135 A 
ATOM     99  C   UNL     1      -3.170  10.444 -13.074  1.00  0.00     0.135 A 
ATOM    100  F   UNL     1      -1.809   8.847 -10.103  1.00  0.00    -0.206 F 
ATOM    101  C   UNL     1      -3.435  10.513 -10.308  1.00  0.00     0.059 A 
ATOM    102  C   UNL     1      -4.026  11.374 -12.491  1.00  0.00     0.059 A 
ATOM    103  F   UNL     1      -3.047  10.461 -14.412  1.00  0.00    -0.206 F 
ATOM    104  C   UNL     1      -4.167  11.391 -11.106  1.00  0.00     0.060 A 
BRANCH 104 105
ATOM    105  S   UNL     1      -5.252  12.603 -10.322  1.00  0.00     0.124 S 
ATOM    106  O   UNL     1      -6.359  11.773  -9.859  1.00  0.00    -0.237 OA
ATOM    107  O   UNL     1      -4.401  13.164  -9.276  1.00  0.00    -0.237 OA
ATOM    108  O   UNL     1      -5.575  13.526 -11.408  1.00  0.00    -0.744 OA
ENDBRANCH 104 105
ENDBRANCH  72  97
ENDBRANCH  46  47
ENDBRANCH  38  41
ENDBRANCH  36  37
ENDBRANCH  35  36
ENDBRANCH   1  35
TORSDOF 19
