REMARK SMILES Cc1cc(C)c2c(c1)C=C(C(=O)NCCCCNC(=O)c1ccc(-c3c4nc(c(-c5c(F)cc(S(=O)(=O)[O-])cc5F)c5ccc([nH]5)c(-c5c(F)cc(S(=O)(=O)[O-])cc5F)c5nc(c(-c6c(F)cc(S(=O)(=O)[O-])cc6F)c6ccc3[nH]6)C=C5)C=C4)cc1)[C@@H](C(F)(F)F)O2
REMARK SMILES IDX 16 1 15 2 14 3 13 4 11 5 12 6 10 8 1 9 2 10 3 11 8 12 4 13
REMARK SMILES IDX 7 14 5 15 6 16 9 17 92 18 87 19 88 20 89 21 90 22 91 23
REMARK SMILES IDX 17 24 18 25 19 26 20 28 21 29 22 30 86 31 23 32 85 33 24 34
REMARK SMILES IDX 25 35 26 36 79 37 27 38 84 39 78 40 80 41 28 42 83 43 77 44
REMARK SMILES IDX 76 45 29 47 63 48 42 49 62 50 43 51 46 52 61 53 81 54 44 55
REMARK SMILES IDX 45 56 60 58 82 59 47 60 30 61 31 62 40 63 32 64 33 65 39 66
REMARK SMILES IDX 41 67 34 68 35 69 36 70 37 71 38 72 64 73 65 74 74 75 66 76
REMARK SMILES IDX 67 77 73 78 75 79 68 80 69 81 70 82 71 83 72 84 48 85 49 86
REMARK SMILES IDX 58 87 50 88 51 89 57 90 59 91 52 92 53 93 54 94 55 95 56 96
REMARK H PARENT 13 7 18 27 80 46 46 57
REMARK Flexibility Score: inf
ROOT
ATOM      1  C   UNL     1       1.440  11.115   1.788  1.00  0.00     0.023 C 
ENDROOT
BRANCH   1   2
ATOM      2  C   UNL     1       0.709   9.770   1.750  1.00  0.00     0.023 C 
BRANCH   2   3
ATOM      3  C   UNL     1       0.458   9.237   0.343  1.00  0.00     0.116 C 
BRANCH   3   4
ATOM      4  N   UNL     1       1.587   8.478  -0.161  1.00  0.00    -0.352 N 
ATOM      5  C   UNL     1       1.905   7.173  -0.327  1.00  0.00     0.251 C 
ATOM      6  O   UNL     1       3.022   6.959  -0.807  1.00  0.00    -0.270 OA
ATOM      7  H   UNL     1       2.316   9.068  -0.462  1.00  0.00     0.163 HD
BRANCH   5   8
ATOM      8  C   UNL     1       1.022   6.019   0.021  1.00  0.00     0.067 C 
ATOM      9  C   UNL     1       1.016  -0.167  -0.070  1.00  0.00     0.044 C 
ATOM     10  C   UNL     1       0.512   1.208   0.258  1.00  0.00    -0.050 A 
ATOM     11  C   UNL     1      -0.749   1.375   0.846  1.00  0.00     0.010 A 
ATOM     12  C   UNL     1       1.273   2.339  -0.066  1.00  0.00     0.015 A 
ATOM     13  C   UNL     1      -1.242   2.653   1.138  1.00  0.00    -0.008 A 
ATOM     14  C   UNL     1       0.791   3.621   0.215  1.00  0.00     0.018 A 
ATOM     15  C   UNL     1      -2.591   2.821   1.777  1.00  0.00     0.048 C 
ATOM     16  C   UNL     1      -0.462   3.770   0.811  1.00  0.00     0.130 A 
ATOM     17  C   UNL     1       1.593   4.803  -0.075  1.00  0.00     0.025 C 
ATOM     18  O   UNL     1      -0.960   5.000   1.143  1.00  0.00    -0.475 OA
ATOM     19  C   UNL     1      -0.423   6.136   0.412  1.00  0.00     0.314 C 
BRANCH  19  20
ATOM     20  C   UNL     1      -1.341   6.445  -0.785  1.00  0.00     0.429 C 
ATOM     21  F   UNL     1      -2.564   6.844  -0.352  1.00  0.00    -0.167 F 
ATOM     22  F   UNL     1      -0.865   7.445  -1.562  1.00  0.00    -0.167 F 
ATOM     23  F   UNL     1      -1.528   5.375  -1.591  1.00  0.00    -0.167 F 
ENDBRANCH  19  20
ENDBRANCH   5   8
ENDBRANCH   3   4
ENDBRANCH   2   3
ENDBRANCH   1   2
BRANCH   1  24
ATOM     24  C   UNL     1       0.786  12.240   0.987  1.00  0.00     0.116 C 
BRANCH  24  25
ATOM     25  N   UNL     1      -0.631  12.417   1.275  1.00  0.00    -0.352 N 
ATOM     26  C   UNL     1      -1.356  13.584   1.273  1.00  0.00     0.251 C 
ATOM     27  H   UNL     1      -1.131  11.599   1.499  1.00  0.00     0.163 HD
ATOM     28  O   UNL     1      -2.534  13.587   1.618  1.00  0.00    -0.269 OA
BRANCH  26  29
ATOM     29  C   UNL     1      -0.681  14.838   0.890  1.00  0.00     0.039 A 
ATOM     30  C   UNL     1      -0.701  15.912   1.782  1.00  0.00     0.014 A 
ATOM     31  C   UNL     1       0.024  14.918  -0.314  1.00  0.00     0.014 A 
ATOM     32  C   UNL     1       0.048  17.053   1.494  1.00  0.00     0.010 A 
ATOM     33  C   UNL     1       0.814  16.033  -0.571  1.00  0.00     0.010 A 
ATOM     34  C   UNL     1       0.836  17.106   0.332  1.00  0.00    -0.014 A 
BRANCH  34  35
ATOM     35  C   UNL     1       1.684  18.286   0.039  1.00  0.00     0.031 A 
ATOM     36  C   UNL     1       1.356  19.164  -1.134  1.00  0.00     0.074 A 
ATOM     37  C   UNL     1       2.772  18.531   0.794  1.00  0.00     0.049 A 
ATOM     38  N   UNL     1       2.007  20.199  -1.597  1.00  0.00    -0.248 NA
ATOM     39  C   UNL     1       0.150  18.818  -1.903  1.00  0.00     0.031 C 
ATOM     40  C   UNL     1       3.210  17.724   1.935  1.00  0.00     0.029 A 
ATOM     41  N   UNL     1       3.709  19.528   0.713  1.00  0.00    -0.354 N 
ATOM     42  C   UNL     1       1.298  20.621  -2.713  1.00  0.00     0.074 A 
ATOM     43  C   UNL     1       0.196  19.701  -2.890  1.00  0.00     0.031 C 
ATOM     44  C   UNL     1       4.315  18.276   2.465  1.00  0.00     0.029 A 
ATOM     45  C   UNL     1       4.679  19.454   1.684  1.00  0.00     0.049 A 
ATOM     46  H   UNL     1       3.690  20.231   0.024  1.00  0.00     0.167 HD
ATOM     47  C   UNL     1       1.528  21.696  -3.504  1.00  0.00     0.037 A 
ATOM     48  C   UNL     1       5.741  20.250   1.918  1.00  0.00     0.037 A 
ATOM     49  C   UNL     1       2.608  22.624  -3.306  1.00  0.00     0.049 A 
ATOM     50  C   UNL     1       5.980  21.434   1.024  1.00  0.00     0.074 A 
ATOM     51  C   UNL     1       2.902  23.770  -4.023  1.00  0.00     0.029 A 
ATOM     52  N   UNL     1       3.571  22.515  -2.313  1.00  0.00    -0.354 N 
ATOM     53  N   UNL     1       5.279  21.840  -0.008  1.00  0.00    -0.248 NA
ATOM     54  C   UNL     1       7.153  22.267   1.322  1.00  0.00     0.031 C 
ATOM     55  C   UNL     1       4.058  24.340  -3.480  1.00  0.00     0.029 A 
ATOM     56  C   UNL     1       4.467  23.566  -2.405  1.00  0.00     0.049 A 
ATOM     57  H   UNL     1       3.611  21.796  -1.642  1.00  0.00     0.167 HD
ATOM     58  C   UNL     1       5.918  22.982  -0.476  1.00  0.00     0.074 A 
ATOM     59  C   UNL     1       7.054  23.211   0.395  1.00  0.00     0.031 C 
ATOM     60  C   UNL     1       5.596  23.769  -1.532  1.00  0.00     0.037 A 
BRANCH  47  61
ATOM     61  C   UNL     1       0.577  21.926  -4.643  1.00  0.00     0.058 A 
ATOM     62  C   UNL     1      -0.732  22.382  -4.420  1.00  0.00     0.135 A 
ATOM     63  C   UNL     1       0.976  21.696  -5.969  1.00  0.00     0.135 A 
ATOM     64  F   UNL     1      -1.168  22.597  -3.169  1.00  0.00    -0.206 F 
ATOM     65  C   UNL     1      -1.623  22.572  -5.469  1.00  0.00     0.059 A 
ATOM     66  C   UNL     1       0.107  21.902  -7.037  1.00  0.00     0.059 A 
ATOM     67  F   UNL     1       2.215  21.255  -6.236  1.00  0.00    -0.206 F 
ATOM     68  C   UNL     1      -1.196  22.325  -6.775  1.00  0.00     0.060 A 
BRANCH  68  69
ATOM     69  S   UNL     1      -2.368  22.567  -8.125  1.00  0.00     0.124 S 
ATOM     70  O   UNL     1      -3.231  21.399  -7.973  1.00  0.00    -0.237 OA
ATOM     71  O   UNL     1      -2.975  23.851  -7.787  1.00  0.00    -0.237 OA
ATOM     72  O   UNL     1      -1.521  22.572  -9.314  1.00  0.00    -0.744 OA
ENDBRANCH  68  69
ENDBRANCH  47  61
BRANCH  48  73
ATOM     73  C   UNL     1       6.634  19.968   3.071  1.00  0.00     0.058 A 
ATOM     74  C   UNL     1       6.582  20.764   4.224  1.00  0.00     0.135 A 
ATOM     75  C   UNL     1       7.527  18.886   3.059  1.00  0.00     0.135 A 
ATOM     76  F   UNL     1       5.749  21.814   4.277  1.00  0.00    -0.206 F 
ATOM     77  C   UNL     1       7.385  20.498   5.329  1.00  0.00     0.059 A 
ATOM     78  C   UNL     1       8.327  18.589   4.158  1.00  0.00     0.059 A 
ATOM     79  F   UNL     1       7.602  18.088   1.983  1.00  0.00    -0.206 F 
ATOM     80  C   UNL     1       8.251  19.404   5.288  1.00  0.00     0.060 A 
BRANCH  80  81
ATOM     81  S   UNL     1       9.236  19.026   6.755  1.00  0.00     0.124 S 
ATOM     82  O   UNL     1      10.237  20.086   6.718  1.00  0.00    -0.237 OA
ATOM     83  O   UNL     1       8.244  19.121   7.822  1.00  0.00    -0.237 OA
ATOM     84  O   UNL     1       9.730  17.679   6.488  1.00  0.00    -0.744 OA
ENDBRANCH  80  81
ENDBRANCH  48  73
BRANCH  60  85
ATOM     85  C   UNL     1       6.480  24.950  -1.805  1.00  0.00     0.058 A 
ATOM     86  C   UNL     1       7.734  24.795  -2.416  1.00  0.00     0.135 A 
ATOM     87  C   UNL     1       6.044  26.253  -1.515  1.00  0.00     0.135 A 
ATOM     88  F   UNL     1       8.197  23.569  -2.705  1.00  0.00    -0.206 F 
ATOM     89  C   UNL     1       8.531  25.892  -2.721  1.00  0.00     0.059 A 
ATOM     90  C   UNL     1       6.817  27.366  -1.830  1.00  0.00     0.059 A 
ATOM     91  F   UNL     1       4.848  26.452  -0.939  1.00  0.00    -0.206 F 
ATOM     92  C   UNL     1       8.063  27.174  -2.427  1.00  0.00     0.060 A 
BRANCH  92  93
ATOM     93  S   UNL     1       9.088  28.592  -2.871  1.00  0.00     0.124 S 
ATOM     94  O   UNL     1      10.119  28.543  -1.840  1.00  0.00    -0.237 OA
ATOM     95  O   UNL     1       9.525  28.253  -4.221  1.00  0.00    -0.237 OA
ATOM     96  O   UNL     1       8.164  29.719  -2.783  1.00  0.00    -0.744 OA
ENDBRANCH  92  93
ENDBRANCH  60  85
ENDBRANCH  34  35
ENDBRANCH  26  29
ENDBRANCH  24  25
ENDBRANCH   1  24
TORSDOF 15
