REMARK SMILES CC(=O)OCc1ccc(C(=O)NCCCCNC(=O)c2ccc(-c3c4nc(c(-c5c(F)cc(S(=O)(=O)[O-])cc5F)c5ccc([nH]5)c(-c5c(F)cc(S(=O)(=O)[O-])cc5F)c5nc(c(-c6c(F)cc(S(=O)(=O)[O-])cc6F)c6ccc3[nH]6)C=C5)C=C4)cc2)o1
REMARK SMILES IDX 14 1 13 2 12 3 10 4 11 5 9 7 6 8 7 9 86 10 8 11 5 12 4 13
REMARK SMILES IDX 2 14 1 15 3 16 15 17 16 18 17 19 18 20 19 22 20 23 21 24
REMARK SMILES IDX 85 25 22 26 84 27 23 28 24 29 25 30 78 31 26 32 83 33 77 34
REMARK SMILES IDX 79 35 27 36 82 37 76 38 75 39 28 41 62 42 41 43 61 44 42 45
REMARK SMILES IDX 45 46 60 47 80 48 43 49 44 50 59 52 81 53 46 54 29 55 30 56
REMARK SMILES IDX 39 57 31 58 32 59 38 60 40 61 33 62 34 63 35 64 36 65 37 66
REMARK SMILES IDX 63 67 64 68 73 69 65 70 66 71 72 72 74 73 67 74 68 75 69 76
REMARK SMILES IDX 70 77 71 78 47 79 48 80 57 81 49 82 50 83 56 84 58 85 51 86
REMARK SMILES IDX 52 87 53 88 54 89 55 90
REMARK H PARENT 12 6 17 21 79 40 45 51
REMARK Flexibility Score: inf
ROOT
ATOM      1  C   UNL     1       2.485   8.755  -2.194  1.00  0.00     0.023 C 
ENDROOT
BRANCH   1   2
ATOM      2  C   UNL     1       1.363   7.786  -2.567  1.00  0.00     0.116 C 
BRANCH   2   3
ATOM      3  N   UNL     1       1.889   6.468  -2.848  1.00  0.00    -0.349 N 
ATOM      4  C   UNL     1       1.922   5.325  -2.083  1.00  0.00     0.286 C 
ATOM      5  O   UNL     1       2.389   4.326  -2.636  1.00  0.00    -0.266 OA
ATOM      6  H   UNL     1       2.294   6.373  -3.740  1.00  0.00     0.163 HD
BRANCH   4   7
ATOM      7  C   UNL     1       1.414   5.303  -0.722  1.00  0.00     0.191 A 
ATOM      8  C   UNL     1       0.644   4.225   1.060  1.00  0.00     0.142 A 
ATOM      9  C   UNL     1       0.617   5.564   1.376  1.00  0.00     0.050 A 
ATOM     10  O   UNL     1       1.129   4.063  -0.201  1.00  0.00    -0.452 OA
ATOM     11  C   UNL     1       1.142   6.250   0.252  1.00  0.00     0.057 A 
BRANCH   8  12
ATOM     12  C   UNL     1       0.237   3.007   1.810  1.00  0.00     0.308 C 
BRANCH  12  13
ATOM     13  O   UNL     1       0.895   1.857   1.264  1.00  0.00    -0.458 OA
BRANCH  13  14
ATOM     14  C   UNL     1       0.185   1.180   0.322  1.00  0.00     0.303 C 
ATOM     15  C   UNL     1       0.955  -0.022  -0.137  1.00  0.00     0.139 C 
ATOM     16  O   UNL     1      -0.953   1.439  -0.041  1.00  0.00    -0.253 OA
ENDBRANCH  13  14
ENDBRANCH  12  13
ENDBRANCH   8  12
ENDBRANCH   4   7
ENDBRANCH   2   3
ENDBRANCH   1   2
BRANCH   1  17
ATOM     17  C   UNL     1       3.253   9.305  -3.401  1.00  0.00     0.023 C 
BRANCH  17  18
ATOM     18  C   UNL     1       2.408  10.089  -4.402  1.00  0.00     0.116 C 
BRANCH  18  19
ATOM     19  N   UNL     1       1.693  11.206  -3.802  1.00  0.00    -0.352 N 
ATOM     20  C   UNL     1       1.450  12.450  -4.335  1.00  0.00     0.251 C 
ATOM     21  H   UNL     1       1.337  11.051  -2.897  1.00  0.00     0.163 HD
ATOM     22  O   UNL     1       0.934  13.327  -3.650  1.00  0.00    -0.269 OA
BRANCH  20  23
ATOM     23  C   UNL     1       1.855  12.723  -5.729  1.00  0.00     0.039 A 
ATOM     24  C   UNL     1       2.621  13.858  -6.001  1.00  0.00     0.014 A 
ATOM     25  C   UNL     1       1.525  11.828  -6.750  1.00  0.00     0.014 A 
ATOM     26  C   UNL     1       3.120  14.056  -7.289  1.00  0.00     0.010 A 
ATOM     27  C   UNL     1       2.088  11.986  -8.011  1.00  0.00     0.010 A 
ATOM     28  C   UNL     1       2.893  13.100  -8.294  1.00  0.00    -0.014 A 
BRANCH  28  29
ATOM     29  C   UNL     1       3.498  13.241  -9.644  1.00  0.00     0.031 A 
ATOM     30  C   UNL     1       2.616  13.381 -10.854  1.00  0.00     0.074 A 
ATOM     31  C   UNL     1       4.838  13.175  -9.784  1.00  0.00     0.049 A 
ATOM     32  N   UNL     1       2.952  13.445 -12.117  1.00  0.00    -0.248 NA
ATOM     33  C   UNL     1       1.164  13.425 -10.617  1.00  0.00     0.031 C 
ATOM     34  C   UNL     1       5.796  12.991  -8.691  1.00  0.00     0.029 A 
ATOM     35  N   UNL     1       5.627  13.244 -10.905  1.00  0.00    -0.354 N 
ATOM     36  C   UNL     1       1.757  13.526 -12.823  1.00  0.00     0.074 A 
ATOM     37  C   UNL     1       0.687  13.442 -11.853  1.00  0.00     0.031 C 
ATOM     38  C   UNL     1       7.041  12.986  -9.193  1.00  0.00     0.029 A 
ATOM     39  C   UNL     1       6.972  13.122 -10.644  1.00  0.00     0.049 A 
ATOM     40  H   UNL     1       5.264  13.369 -11.812  1.00  0.00     0.167 HD
ATOM     41  C   UNL     1       1.569  13.682 -14.155  1.00  0.00     0.037 A 
ATOM     42  C   UNL     1       8.030  13.111 -11.479  1.00  0.00     0.037 A 
ATOM     43  C   UNL     1       2.642  13.784 -15.111  1.00  0.00     0.049 A 
ATOM     44  C   UNL     1       7.795  13.272 -12.958  1.00  0.00     0.074 A 
ATOM     45  C   UNL     1       2.558  14.000 -16.475  1.00  0.00     0.029 A 
ATOM     46  N   UNL     1       3.991  13.672 -14.806  1.00  0.00    -0.354 N 
ATOM     47  N   UNL     1       6.661  13.418 -13.601  1.00  0.00    -0.248 NA
ATOM     48  C   UNL     1       8.982  13.274 -13.824  1.00  0.00     0.031 C 
ATOM     49  C   UNL     1       3.853  13.964 -17.003  1.00  0.00     0.029 A 
ATOM     50  C   UNL     1       4.748  13.788 -15.960  1.00  0.00     0.049 A 
ATOM     51  H   UNL     1       4.356  13.530 -13.902  1.00  0.00     0.167 HD
ATOM     52  C   UNL     1       7.000  13.559 -14.943  1.00  0.00     0.074 A 
ATOM     53  C   UNL     1       8.445  13.493 -15.016  1.00  0.00     0.031 C 
ATOM     54  C   UNL     1       6.188  13.729 -16.016  1.00  0.00     0.037 A 
BRANCH  41  55
ATOM     55  C   UNL     1       0.153  13.755 -14.658  1.00  0.00     0.058 A 
ATOM     56  C   UNL     1      -0.676  14.853 -14.375  1.00  0.00     0.135 A 
ATOM     57  C   UNL     1      -0.372  12.732 -15.465  1.00  0.00     0.135 A 
ATOM     58  F   UNL     1      -0.233  15.852 -13.596  1.00  0.00    -0.206 F 
ATOM     59  C   UNL     1      -1.982  14.920 -14.848  1.00  0.00     0.059 A 
ATOM     60  C   UNL     1      -1.665  12.793 -15.976  1.00  0.00     0.059 A 
ATOM     61  F   UNL     1       0.375  11.658 -15.767  1.00  0.00    -0.206 F 
ATOM     62  C   UNL     1      -2.468  13.885 -15.649  1.00  0.00     0.060 A 
BRANCH  62  63
ATOM     63  S   UNL     1      -4.163  13.994 -16.261  1.00  0.00     0.124 S 
ATOM     64  O   UNL     1      -4.928  13.764 -15.039  1.00  0.00    -0.237 OA
ATOM     65  O   UNL     1      -4.214  15.352 -16.794  1.00  0.00    -0.237 OA
ATOM     66  O   UNL     1      -4.235  12.929 -17.256  1.00  0.00    -0.744 OA
ENDBRANCH  62  63
ENDBRANCH  41  55
BRANCH  42  67
ATOM     67  C   UNL     1       9.407  12.958 -10.936  1.00  0.00     0.058 A 
ATOM     68  C   UNL     1      10.322  14.021 -10.976  1.00  0.00     0.135 A 
ATOM     69  C   UNL     1       9.835  11.752 -10.359  1.00  0.00     0.135 A 
ATOM     70  F   UNL     1       9.964  15.193 -11.524  1.00  0.00    -0.206 F 
ATOM     71  C   UNL     1      11.616  13.890 -10.482  1.00  0.00     0.059 A 
ATOM     72  C   UNL     1      11.114  11.605  -9.832  1.00  0.00     0.059 A 
ATOM     73  F   UNL     1       8.994  10.709 -10.280  1.00  0.00    -0.206 F 
ATOM     74  C   UNL     1      12.002  12.678  -9.908  1.00  0.00     0.060 A 
BRANCH  74  75
ATOM     75  S   UNL     1      13.669  12.534  -9.229  1.00  0.00     0.124 S 
ATOM     76  O   UNL     1      14.479  12.505 -10.441  1.00  0.00    -0.237 OA
ATOM     77  O   UNL     1      13.773  13.743  -8.419  1.00  0.00    -0.237 OA
ATOM     78  O   UNL     1      13.617  11.286  -8.474  1.00  0.00    -0.744 OA
ENDBRANCH  74  75
ENDBRANCH  42  67
BRANCH  54  79
ATOM     79  C   UNL     1       6.840  13.899 -17.362  1.00  0.00     0.058 A 
ATOM     80  C   UNL     1       7.465  12.830 -18.023  1.00  0.00     0.135 A 
ATOM     81  C   UNL     1       6.785  15.136 -18.025  1.00  0.00     0.135 A 
ATOM     82  F   UNL     1       7.552  11.627 -17.433  1.00  0.00    -0.206 F 
ATOM     83  C   UNL     1       8.031  12.987 -19.284  1.00  0.00     0.059 A 
ATOM     84  C   UNL     1       7.316  15.308 -19.299  1.00  0.00     0.059 A 
ATOM     85  F   UNL     1       6.190  16.190 -17.442  1.00  0.00    -0.206 F 
ATOM     86  C   UNL     1       7.947  14.230 -19.916  1.00  0.00     0.060 A 
BRANCH  86  87
ATOM     87  S   UNL     1       8.650  14.408 -21.569  1.00  0.00     0.124 S 
ATOM     88  O   UNL     1      10.081  14.382 -21.285  1.00  0.00    -0.237 OA
ATOM     89  O   UNL     1       8.119  13.238 -22.261  1.00  0.00    -0.237 OA
ATOM     90  O   UNL     1       8.125  15.692 -22.026  1.00  0.00    -0.744 OA
ENDBRANCH  86  87
ENDBRANCH  54  79
ENDBRANCH  28  29
ENDBRANCH  20  23
ENDBRANCH  18  19
ENDBRANCH  17  18
ENDBRANCH   1  17
TORSDOF 17
