REMARK SMILES COc1ccc([C@H]2CC(c3ccccc3)=NN2C(=O)CCCC(=O)NCCCCNC(=O)c2ccc(-c3c4nc(c(-c5c(F)cc(S(=O)(=O)[O-])cc5F)c5ccc([nH]5)c(-c5c(F)cc(S(=O)(=O)[O-])cc5F)c5nc(c(-c6c(F)cc(S(=O)(=O)[O-])cc6F)c6ccc3[nH]6)C=C5)C=C4)cc2)cc1
REMARK SMILES IDX 26 1 25 2 23 3 24 4 22 6 21 7 20 8 18 9 19 10 17 11 7 12
REMARK SMILES IDX 8 13 9 14 16 15 6 16 3 17 4 18 100 19 5 20 99 21 2 22 1 23
REMARK SMILES IDX 10 24 11 25 15 26 12 27 14 28 13 29 27 30 28 31 29 32 30 33
REMARK SMILES IDX 31 34 32 36 33 37 34 38 98 39 35 40 97 41 36 42 37 43 38 44
REMARK SMILES IDX 91 45 39 46 96 47 90 48 92 49 40 50 95 51 89 52 88 53 41 55
REMARK SMILES IDX 75 56 54 57 74 58 55 59 58 60 73 61 93 62 56 63 57 64 72 66
REMARK SMILES IDX 94 67 59 68 42 69 43 70 52 71 44 72 45 73 51 74 53 75 46 76
REMARK SMILES IDX 47 77 48 78 49 79 50 80 76 81 77 82 86 83 78 84 79 85 85 86
REMARK SMILES IDX 87 87 80 88 81 89 82 90 83 91 84 92 60 93 61 94 70 95 62 96
REMARK SMILES IDX 63 97 69 98 71 99 64 100 65 101 66 102 67 103 68 104
REMARK H PARENT 25 5 30 35 92 54 58 65
REMARK Flexibility Score: inf
ROOT
ATOM      1  C   UNL     1      -0.102  -8.330  -0.084  1.00  0.00     0.116 C 
ENDROOT
BRANCH   1   2
ATOM      2  N   UNL     1      -1.126  -7.354   0.179  1.00  0.00    -0.356 N 
ATOM      3  C   UNL     1      -1.106  -6.249   0.967  1.00  0.00     0.220 C 
ATOM      4  O   UNL     1      -2.195  -5.724   1.212  1.00  0.00    -0.275 OA
ATOM      5  H   UNL     1      -1.978  -7.513  -0.288  1.00  0.00     0.163 HD
BRANCH   3   6
ATOM      6  C   UNL     1       0.183  -5.555   1.375  1.00  0.00     0.100 C 
BRANCH   6   7
ATOM      7  C   UNL     1       1.256  -6.151   2.261  1.00  0.00     0.020 C 
BRANCH   7   8
ATOM      8  C   UNL     1       2.397  -6.982   1.669  1.00  0.00     0.103 C 
BRANCH   8   9
ATOM      9  C   UNL     1       3.483  -6.459   0.711  1.00  0.00     0.243 C 
ATOM     10  O   UNL     1       4.625  -6.339   1.183  1.00  0.00    -0.273 OA
BRANCH   9  11
ATOM     11  N   UNL     1       3.274  -6.362  -0.663  1.00  0.00    -0.225 N 
ATOM     12  C   UNL     1       2.205  -5.718  -1.466  1.00  0.00     0.147 C 
ATOM     13  C   UNL     1       2.614  -5.940  -2.917  1.00  0.00     0.091 C 
ATOM     14  C   UNL     1       3.955  -6.563  -2.708  1.00  0.00     0.071 C 
ATOM     15  N   UNL     1       4.307  -6.790  -1.484  1.00  0.00    -0.174 NA
BRANCH  12  16
ATOM     16  C   UNL     1       1.995  -4.235  -1.184  1.00  0.00    -0.023 A 
ATOM     17  C   UNL     1       1.327  -1.727  -0.153  1.00  0.00     0.118 A 
ATOM     18  C   UNL     1       0.373  -2.449  -0.861  1.00  0.00     0.047 A 
ATOM     19  C   UNL     1       2.632  -2.200  -0.030  1.00  0.00     0.047 A 
ATOM     20  C   UNL     1       0.716  -3.683  -1.411  1.00  0.00     0.010 A 
ATOM     21  C   UNL     1       2.971  -3.447  -0.558  1.00  0.00     0.010 A 
BRANCH  17  22
ATOM     22  O   UNL     1       0.926  -0.627   0.553  1.00  0.00    -0.497 OA
ATOM     23  C   UNL     1       1.238   0.568  -0.152  1.00  0.00     0.278 C 
ENDBRANCH  17  22
ENDBRANCH  12  16
BRANCH  14  24
ATOM     24  C   UNL     1       4.785  -6.906  -3.864  1.00  0.00    -0.002 A 
ATOM     25  C   UNL     1       4.923  -8.242  -4.242  1.00  0.00     0.010 A 
ATOM     26  C   UNL     1       5.428  -5.886  -4.567  1.00  0.00     0.010 A 
ATOM     27  C   UNL     1       5.717  -8.559  -5.345  1.00  0.00     0.001 A 
ATOM     28  C   UNL     1       6.229  -6.212  -5.660  1.00  0.00     0.001 A 
ATOM     29  C   UNL     1       6.372  -7.546  -6.048  1.00  0.00     0.000 A 
ENDBRANCH  14  24
ENDBRANCH   9  11
ENDBRANCH   8   9
ENDBRANCH   7   8
ENDBRANCH   6   7
ENDBRANCH   3   6
ENDBRANCH   1   2
BRANCH   1  30
ATOM     30  C   UNL     1      -0.117  -9.412   0.991  1.00  0.00     0.023 C 
BRANCH  30  31
ATOM     31  C   UNL     1      -1.237 -10.426   0.781  1.00  0.00     0.023 C 
BRANCH  31  32
ATOM     32  C   UNL     1      -1.085 -11.247  -0.491  1.00  0.00     0.116 C 
BRANCH  32  33
ATOM     33  N   UNL     1       0.146 -12.027  -0.522  1.00  0.00    -0.352 N 
ATOM     34  C   UNL     1       0.314 -13.281  -1.057  1.00  0.00     0.251 C 
ATOM     35  H   UNL     1       0.941 -11.611  -0.116  1.00  0.00     0.163 HD
ATOM     36  O   UNL     1       1.366 -13.896  -0.935  1.00  0.00    -0.269 OA
BRANCH  34  37
ATOM     37  C   UNL     1      -0.838 -13.869  -1.759  1.00  0.00     0.039 A 
ATOM     38  C   UNL     1      -1.434 -15.018  -1.240  1.00  0.00     0.014 A 
ATOM     39  C   UNL     1      -1.406 -13.173  -2.830  1.00  0.00     0.014 A 
ATOM     40  C   UNL     1      -2.651 -15.445  -1.770  1.00  0.00     0.010 A 
ATOM     41  C   UNL     1      -2.650 -13.561  -3.304  1.00  0.00     0.010 A 
ATOM     42  C   UNL     1      -3.281 -14.701  -2.781  1.00  0.00    -0.014 A 
BRANCH  42  43
ATOM     43  C   UNL     1      -4.596 -15.109  -3.332  1.00  0.00     0.031 A 
ATOM     44  C   UNL     1      -4.692 -15.513  -4.776  1.00  0.00     0.074 A 
ATOM     45  C   UNL     1      -5.699 -15.043  -2.561  1.00  0.00     0.049 A 
ATOM     46  N   UNL     1      -5.750 -15.805  -5.483  1.00  0.00    -0.248 NA
ATOM     47  C   UNL     1      -3.430 -15.555  -5.536  1.00  0.00     0.031 C 
ATOM     48  C   UNL     1      -5.734 -14.609  -1.162  1.00  0.00     0.029 A 
ATOM     49  N   UNL     1      -7.009 -15.329  -2.851  1.00  0.00    -0.354 N 
ATOM     50  C   UNL     1      -5.288 -16.042  -6.771  1.00  0.00     0.074 A 
ATOM     51  C   UNL     1      -3.862 -15.804  -6.763  1.00  0.00     0.031 C 
ATOM     52  C   UNL     1      -6.998 -14.680  -0.711  1.00  0.00     0.029 A 
ATOM     53  C   UNL     1      -7.865 -15.133  -1.793  1.00  0.00     0.049 A 
ATOM     54  H   UNL     1      -7.308 -15.646  -3.734  1.00  0.00     0.167 HD
ATOM     55  C   UNL     1      -5.985 -16.451  -7.857  1.00  0.00     0.037 A 
ATOM     56  C   UNL     1      -9.200 -15.301  -1.711  1.00  0.00     0.037 A 
ATOM     57  C   UNL     1      -7.394 -16.732  -7.842  1.00  0.00     0.049 A 
ATOM     58  C   UNL     1      -9.947 -15.792  -2.922  1.00  0.00     0.074 A 
ATOM     59  C   UNL     1      -8.188 -17.212  -8.869  1.00  0.00     0.029 A 
ATOM     60  N   UNL     1      -8.219 -16.571  -6.738  1.00  0.00    -0.354 N 
ATOM     61  N   UNL     1      -9.486 -16.066  -4.119  1.00  0.00    -0.248 NA
ATOM     62  C   UNL     1     -11.393 -16.006  -2.771  1.00  0.00     0.031 C 
ATOM     63  C   UNL     1      -9.499 -17.316  -8.393  1.00  0.00     0.029 A 
ATOM     64  C   UNL     1      -9.514 -16.936  -7.060  1.00  0.00     0.049 A 
ATOM     65  H   UNL     1      -7.926 -16.245  -5.857  1.00  0.00     0.167 HD
ATOM     66  C   UNL     1     -10.578 -16.510  -4.856  1.00  0.00     0.074 A 
ATOM     67  C   UNL     1     -11.722 -16.477  -3.966  1.00  0.00     0.031 C 
ATOM     68  C   UNL     1     -10.632 -16.910  -6.150  1.00  0.00     0.037 A 
BRANCH  55  69
ATOM     69  C   UNL     1      -5.225 -16.632  -9.140  1.00  0.00     0.058 A 
ATOM     70  C   UNL     1      -4.313 -17.687  -9.310  1.00  0.00     0.135 A 
ATOM     71  C   UNL     1      -5.419 -15.754 -10.217  1.00  0.00     0.135 A 
ATOM     72  F   UNL     1      -4.074 -18.543  -8.304  1.00  0.00    -0.206 F 
ATOM     73  C   UNL     1      -3.596 -17.845 -10.491  1.00  0.00     0.059 A 
ATOM     74  C   UNL     1      -4.733 -15.910 -11.418  1.00  0.00     0.059 A 
ATOM     75  F   UNL     1      -6.276 -14.726 -10.107  1.00  0.00    -0.206 F 
ATOM     76  C   UNL     1      -3.812 -16.949 -11.539  1.00  0.00     0.060 A 
BRANCH  76  77
ATOM     77  S   UNL     1      -2.874 -17.168 -13.066  1.00  0.00     0.124 S 
ATOM     78  O   UNL     1      -1.559 -16.672 -12.671  1.00  0.00    -0.237 OA
ATOM     79  O   UNL     1      -2.968 -18.607 -13.289  1.00  0.00    -0.237 OA
ATOM     80  O   UNL     1      -3.594 -16.339 -14.027  1.00  0.00    -0.744 OA
ENDBRANCH  76  77
ENDBRANCH  55  69
BRANCH  56  81
ATOM     81  C   UNL     1      -9.909 -15.037  -0.431  1.00  0.00     0.058 A 
ATOM     82  C   UNL     1     -10.418 -16.094   0.339  1.00  0.00     0.135 A 
ATOM     83  C   UNL     1     -10.089 -13.732   0.050  1.00  0.00     0.135 A 
ATOM     84  F   UNL     1     -10.274 -17.360  -0.082  1.00  0.00    -0.206 F 
ATOM     85  C   UNL     1     -11.097 -15.867   1.531  1.00  0.00     0.059 A 
ATOM     86  C   UNL     1     -10.746 -13.480   1.251  1.00  0.00     0.059 A 
ATOM     87  F   UNL     1      -9.604 -12.688  -0.640  1.00  0.00    -0.206 F 
ATOM     88  C   UNL     1     -11.257 -14.554   1.979  1.00  0.00     0.060 A 
BRANCH  88  89
ATOM     89  S   UNL     1     -12.106 -14.271   3.548  1.00  0.00     0.124 S 
ATOM     90  O   UNL     1     -13.497 -14.495   3.173  1.00  0.00    -0.237 OA
ATOM     91  O   UNL     1     -11.505 -15.284   4.410  1.00  0.00    -0.237 OA
ATOM     92  O   UNL     1     -11.752 -12.893   3.874  1.00  0.00    -0.744 OA
ENDBRANCH  88  89
ENDBRANCH  56  81
BRANCH  68  93
ATOM     93  C   UNL     1     -11.958 -17.379  -6.674  1.00  0.00     0.058 A 
ATOM     94  C   UNL     1     -12.985 -16.477  -6.987  1.00  0.00     0.135 A 
ATOM     95  C   UNL     1     -12.176 -18.742  -6.929  1.00  0.00     0.135 A 
ATOM     96  F   UNL     1     -12.826 -15.164  -6.755  1.00  0.00    -0.206 F 
ATOM     97  C   UNL     1     -14.192 -16.912  -7.523  1.00  0.00     0.059 A 
ATOM     98  C   UNL     1     -13.366 -19.197  -7.487  1.00  0.00     0.059 A 
ATOM     99  F   UNL     1     -11.219 -19.643  -6.656  1.00  0.00    -0.206 F 
ATOM    100  C   UNL     1     -14.372 -18.274  -7.772  1.00  0.00     0.060 A 
BRANCH 100 101
ATOM    101  S   UNL     1     -15.924 -18.822  -8.514  1.00  0.00     0.124 S 
ATOM    102  O   UNL     1     -16.834 -18.751  -7.376  1.00  0.00    -0.237 OA
ATOM    103  O   UNL     1     -16.140 -17.828  -9.561  1.00  0.00    -0.237 OA
ATOM    104  O   UNL     1     -15.616 -20.167  -8.991  1.00  0.00    -0.744 OA
ENDBRANCH 100 101
ENDBRANCH  68  93
ENDBRANCH  42  43
ENDBRANCH  34  37
ENDBRANCH  32  33
ENDBRANCH  31  32
ENDBRANCH  30  31
ENDBRANCH   1  30
TORSDOF 21
