REMARK SMILES C[C@H]1C[C@H]1CN(C)c1cccc(F)c1C(=O)NCCCCNC(=O)c1ccc(-c2c3nc(c(-c4c(F)cc(S(=O)(=O)[O-])cc4F)c4ccc([nH]4)c(-c4c(F)cc(S(=O)(=O)[O-])cc4F)c4nc(c(-c5c(F)cc(S(=O)(=O)[O-])cc5F)c5ccc2[nH]5)C=C4)C=C3)cc1
REMARK SMILES IDX 19 1 18 2 17 3 15 4 16 5 14 7 8 8 9 9 10 10 12 11 11 12
REMARK SMILES IDX 13 13 6 14 7 15 5 16 4 17 1 18 2 19 3 20 20 21 21 22 22 23
REMARK SMILES IDX 23 24 24 26 25 27 26 28 90 29 27 30 89 31 28 32 29 33 30 34
REMARK SMILES IDX 83 35 31 36 88 37 82 38 84 39 32 40 87 41 81 42 80 43 33 45
REMARK SMILES IDX 67 46 46 47 66 48 47 49 50 50 65 51 85 52 48 53 49 54 64 56
REMARK SMILES IDX 86 57 51 58 34 59 35 60 44 61 36 62 37 63 43 64 45 65 38 66
REMARK SMILES IDX 39 67 40 68 41 69 42 70 68 71 69 72 78 73 70 74 71 75 77 76
REMARK SMILES IDX 79 77 72 78 73 79 74 80 75 81 76 82 52 83 53 84 62 85 54 86
REMARK SMILES IDX 55 87 61 88 63 89 56 90 57 91 58 92 59 93 60 94
REMARK H PARENT 17 6 22 25 84 44 50 55
REMARK Flexibility Score: inf
ROOT
ATOM      1  C   UNL     1      -5.179   5.861   2.449  1.00  0.00     0.023 C 
ENDROOT
BRANCH   1   2
ATOM      2  C   UNL     1      -5.029   4.740   1.426  1.00  0.00     0.116 C 
BRANCH   2   3
ATOM      3  N   UNL     1      -4.348   5.087   0.184  1.00  0.00    -0.352 N 
ATOM      4  C   UNL     1      -3.477   4.317  -0.580  1.00  0.00     0.256 C 
ATOM      5  O   UNL     1      -3.196   4.685  -1.718  1.00  0.00    -0.269 OA
ATOM      6  H   UNL     1      -4.529   5.991  -0.161  1.00  0.00     0.163 HD
BRANCH   4   7
ATOM      7  C   UNL     1      -2.864   3.092  -0.006  1.00  0.00     0.098 A 
ATOM      8  C   UNL     1      -1.470   2.875   0.051  1.00  0.00     0.052 A 
ATOM      9  C   UNL     1      -1.015   1.811   0.858  1.00  0.00     0.027 A 
ATOM     10  C   UNL     1      -1.887   0.916   1.476  1.00  0.00     0.005 A 
ATOM     11  C   UNL     1      -3.724   2.111   0.507  1.00  0.00     0.138 A 
ATOM     12  C   UNL     1      -3.249   1.039   1.256  1.00  0.00     0.040 A 
ATOM     13  F   UNL     1      -5.050   2.189   0.313  1.00  0.00    -0.206 F 
BRANCH   8  14
ATOM     14  N   UNL     1      -0.496   3.525  -0.703  1.00  0.00    -0.374 N 
ATOM     15  C   UNL     1      -0.235   4.943  -0.534  1.00  0.00     0.143 C 
BRANCH  14  16
ATOM     16  C   UNL     1      -0.129   2.880  -1.971  1.00  0.00     0.120 C 
BRANCH  16  17
ATOM     17  C   UNL     1       0.991   1.896  -1.741  1.00  0.00     0.011 C 
ATOM     18  C   UNL     1      -0.475  -0.343  -1.759  1.00  0.00     0.008 C 
ATOM     19  C   UNL     1       0.820   0.385  -1.623  1.00  0.00    -0.009 C 
ATOM     20  C   UNL     1       1.449   0.980  -2.853  1.00  0.00     0.009 C 
ENDBRANCH  16  17
ENDBRANCH  14  16
ENDBRANCH   8  14
ENDBRANCH   4   7
ENDBRANCH   2   3
ENDBRANCH   1   2
BRANCH   1  21
ATOM     21  C   UNL     1      -5.966   7.097   2.027  1.00  0.00     0.023 C 
BRANCH  21  22
ATOM     22  C   UNL     1      -7.318   6.862   1.358  1.00  0.00     0.116 C 
BRANCH  22  23
ATOM     23  N   UNL     1      -8.267   6.115   2.170  1.00  0.00    -0.352 N 
ATOM     24  C   UNL     1      -9.539   6.441   2.592  1.00  0.00     0.251 C 
ATOM     25  H   UNL     1      -7.949   5.231   2.466  1.00  0.00     0.163 HD
ATOM     26  O   UNL     1     -10.148   5.669   3.323  1.00  0.00    -0.269 OA
BRANCH  24  27
ATOM     27  C   UNL     1     -10.154   7.737   2.215  1.00  0.00     0.039 A 
ATOM     28  C   UNL     1     -10.783   8.491   3.210  1.00  0.00     0.014 A 
ATOM     29  C   UNL     1     -10.102   8.222   0.907  1.00  0.00     0.014 A 
ATOM     30  C   UNL     1     -11.251   9.777   2.920  1.00  0.00     0.010 A 
ATOM     31  C   UNL     1     -10.501   9.531   0.635  1.00  0.00     0.010 A 
ATOM     32  C   UNL     1     -11.055  10.332   1.645  1.00  0.00    -0.014 A 
BRANCH  32  33
ATOM     33  C   UNL     1     -11.359  11.763   1.370  1.00  0.00     0.031 A 
ATOM     34  C   UNL     1     -12.398  12.146   0.352  1.00  0.00     0.074 A 
ATOM     35  C   UNL     1     -10.635  12.722   1.984  1.00  0.00     0.049 A 
ATOM     36  N   UNL     1     -12.723  13.335  -0.084  1.00  0.00    -0.248 NA
ATOM     37  C   UNL     1     -13.155  11.050  -0.273  1.00  0.00     0.031 C 
ATOM     38  C   UNL     1      -9.567  12.481   2.958  1.00  0.00     0.029 A 
ATOM     39  N   UNL     1     -10.677  14.091   1.876  1.00  0.00    -0.354 N 
ATOM     40  C   UNL     1     -13.712  13.133  -1.039  1.00  0.00     0.074 A 
ATOM     41  C   UNL     1     -13.904  11.704  -1.151  1.00  0.00     0.031 C 
ATOM     42  C   UNL     1      -9.074  13.658   3.374  1.00  0.00     0.029 A 
ATOM     43  C   UNL     1      -9.756  14.738   2.668  1.00  0.00     0.049 A 
ATOM     44  H   UNL     1     -11.307  14.565   1.286  1.00  0.00     0.167 HD
ATOM     45  C   UNL     1     -14.410  14.057  -1.742  1.00  0.00     0.037 A 
ATOM     46  C   UNL     1      -9.480  16.050   2.804  1.00  0.00     0.037 A 
ATOM     47  C   UNL     1     -14.238  15.480  -1.605  1.00  0.00     0.049 A 
ATOM     48  C   UNL     1     -10.258  17.054   2.001  1.00  0.00     0.074 A 
ATOM     49  C   UNL     1     -14.948  16.493  -2.227  1.00  0.00     0.029 A 
ATOM     50  N   UNL     1     -13.295  16.093  -0.794  1.00  0.00    -0.354 N 
ATOM     51  N   UNL     1     -11.225  16.845   1.140  1.00  0.00    -0.248 NA
ATOM     52  C   UNL     1      -9.906  18.470   2.178  1.00  0.00     0.031 C 
ATOM     53  C   UNL     1     -14.409  17.718  -1.822  1.00  0.00     0.029 A 
ATOM     54  C   UNL     1     -13.389  17.470  -0.918  1.00  0.00     0.049 A 
ATOM     55  H   UNL     1     -12.654  15.620  -0.216  1.00  0.00     0.167 HD
ATOM     56  C   UNL     1     -11.605  18.101   0.684  1.00  0.00     0.074 A 
ATOM     57  C   UNL     1     -10.775  19.067   1.373  1.00  0.00     0.031 C 
ATOM     58  C   UNL     1     -12.555  18.422  -0.228  1.00  0.00     0.037 A 
BRANCH  45  59
ATOM     59  C   UNL     1     -15.447  13.567  -2.713  1.00  0.00     0.058 A 
ATOM     60  C   UNL     1     -15.253  13.702  -4.096  1.00  0.00     0.135 A 
ATOM     61  C   UNL     1     -16.669  13.036  -2.270  1.00  0.00     0.135 A 
ATOM     62  F   UNL     1     -14.101  14.199  -4.573  1.00  0.00    -0.206 F 
ATOM     63  C   UNL     1     -16.241  13.343  -5.007  1.00  0.00     0.059 A 
ATOM     64  C   UNL     1     -17.663  12.649  -3.164  1.00  0.00     0.059 A 
ATOM     65  F   UNL     1     -16.896  12.868  -0.958  1.00  0.00    -0.206 F 
ATOM     66  C   UNL     1     -17.445  12.821  -4.531  1.00  0.00     0.060 A 
BRANCH  66  67
ATOM     67  S   UNL     1     -18.712  12.341  -5.725  1.00  0.00     0.124 S 
ATOM     68  O   UNL     1     -19.172  13.637  -6.211  1.00  0.00    -0.237 OA
ATOM     69  O   UNL     1     -17.949  11.537  -6.675  1.00  0.00    -0.237 OA
ATOM     70  O   UNL     1     -19.672  11.594  -4.917  1.00  0.00    -0.744 OA
ENDBRANCH  66  67
ENDBRANCH  45  59
BRANCH  46  71
ATOM     71  C   UNL     1      -8.423  16.486   3.755  1.00  0.00     0.058 A 
ATOM     72  C   UNL     1      -7.064  16.248   3.498  1.00  0.00     0.135 A 
ATOM     73  C   UNL     1      -8.760  17.120   4.960  1.00  0.00     0.135 A 
ATOM     74  F   UNL     1      -6.690  15.638   2.362  1.00  0.00    -0.206 F 
ATOM     75  C   UNL     1      -6.078  16.599   4.413  1.00  0.00     0.059 A 
ATOM     76  C   UNL     1      -7.789  17.501   5.882  1.00  0.00     0.059 A 
ATOM     77  F   UNL     1     -10.045  17.381   5.243  1.00  0.00    -0.206 F 
ATOM     78  C   UNL     1      -6.452  17.219   5.607  1.00  0.00     0.060 A 
BRANCH  78  79
ATOM     79  S   UNL     1      -5.159  17.652   6.791  1.00  0.00     0.124 S 
ATOM     80  O   UNL     1      -4.768  16.336   7.288  1.00  0.00    -0.237 OA
ATOM     81  O   UNL     1      -4.180  18.327   5.945  1.00  0.00    -0.237 OA
ATOM     82  O   UNL     1      -5.851  18.506   7.750  1.00  0.00    -0.744 OA
ENDBRANCH  78  79
ENDBRANCH  46  71
BRANCH  58  83
ATOM     83  C   UNL     1     -12.761  19.877  -0.542  1.00  0.00     0.058 A 
ATOM     84  C   UNL     1     -13.914  20.546  -0.103  1.00  0.00     0.135 A 
ATOM     85  C   UNL     1     -11.863  20.579  -1.360  1.00  0.00     0.135 A 
ATOM     86  F   UNL     1     -14.805  19.918   0.680  1.00  0.00    -0.206 F 
ATOM     87  C   UNL     1     -14.183  21.856  -0.486  1.00  0.00     0.059 A 
ATOM     88  C   UNL     1     -12.101  21.898  -1.737  1.00  0.00     0.059 A 
ATOM     89  F   UNL     1     -10.740  19.986  -1.793  1.00  0.00    -0.206 F 
ATOM     90  C   UNL     1     -13.275  22.520  -1.312  1.00  0.00     0.060 A 
BRANCH  90  91
ATOM     91  S   UNL     1     -13.646  24.215  -1.812  1.00  0.00     0.124 S 
ATOM     92  O   UNL     1     -14.748  24.015  -2.748  1.00  0.00    -0.237 OA
ATOM     93  O   UNL     1     -13.998  24.842  -0.542  1.00  0.00    -0.237 OA
ATOM     94  O   UNL     1     -12.394  24.675  -2.404  1.00  0.00    -0.744 OA
ENDBRANCH  90  91
ENDBRANCH  58  83
ENDBRANCH  32  33
ENDBRANCH  24  27
ENDBRANCH  22  23
ENDBRANCH  21  22
ENDBRANCH   1  21
TORSDOF 17
