REMARK SMILES CC[C@@H](C)SCc1cc(F)cc(/C=C/C(=O)NCCCCNC(=O)c2ccc(-c3c4nc(c(-c5c(F)cc(S(=O)(=O)[O-])cc5F)c5ccc([nH]5)c(-c5c(F)cc(S(=O)(=O)[O-])cc5F)c5nc(c(-c6c(F)cc(S(=O)(=O)[O-])cc6F)c6ccc3[nH]6)C=C5)C=C4)cc2)c1
REMARK SMILES IDX 18 1 17 2 15 3 16 4 14 6 13 7 12 8 7 9 8 10 91 11 9 12 10 13
REMARK SMILES IDX 11 14 6 15 5 16 3 17 4 18 2 19 1 20 19 21 20 22 21 23 22 24
REMARK SMILES IDX 23 25 24 27 25 28 26 29 90 30 27 31 89 32 28 33 29 34 30 35
REMARK SMILES IDX 83 36 31 37 88 38 82 39 84 40 32 41 87 42 81 43 80 44 33 46
REMARK SMILES IDX 67 47 46 48 66 49 47 50 50 51 65 52 85 53 48 54 49 55 64 57
REMARK SMILES IDX 86 58 51 59 34 60 35 61 44 62 36 63 37 64 43 65 45 66 38 67
REMARK SMILES IDX 39 68 40 69 41 70 42 71 68 72 69 73 78 74 70 75 71 76 77 77
REMARK SMILES IDX 79 78 72 79 73 80 74 81 75 82 76 83 52 84 53 85 62 86 54 87
REMARK SMILES IDX 55 88 61 89 63 90 56 91 57 92 58 93 59 94 60 95
REMARK H PARENT 17 5 22 26 84 45 50 56
REMARK Flexibility Score: inf
ROOT
ATOM      1  C   UNL     1       0.092   7.635   5.199  1.00  0.00     0.116 C 
ENDROOT
BRANCH   1   2
ATOM      2  N   UNL     1      -0.261   8.587   4.160  1.00  0.00    -0.353 N 
ATOM      3  C   UNL     1      -1.127   8.478   3.116  1.00  0.00     0.243 C 
ATOM      4  O   UNL     1      -1.355   9.451   2.401  1.00  0.00    -0.270 OA
ATOM      5  H   UNL     1       0.202   9.454   4.221  1.00  0.00     0.163 HD
BRANCH   3   6
ATOM      6  C   UNL     1      -1.864   7.218   2.870  1.00  0.00     0.072 C 
ATOM      7  C   UNL     1      -1.270   6.019   2.836  1.00  0.00     0.014 C 
BRANCH   7   8
ATOM      8  C   UNL     1      -1.956   4.751   2.577  1.00  0.00    -0.022 A 
ATOM      9  C   UNL     1      -2.010   2.337   2.986  1.00  0.00    -0.035 A 
ATOM     10  C   UNL     1      -2.969   2.207   1.974  1.00  0.00     0.043 A 
ATOM     11  C   UNL     1      -1.556   3.626   3.313  1.00  0.00     0.013 A 
ATOM     12  C   UNL     1      -3.399   3.331   1.275  1.00  0.00     0.124 A 
ATOM     13  F   UNL     1      -4.288   3.183   0.283  1.00  0.00    -0.207 F 
ATOM     14  C   UNL     1      -2.890   4.595   1.552  1.00  0.00     0.047 A 
BRANCH   9  15
ATOM     15  C   UNL     1      -1.471   1.117   3.686  1.00  0.00     0.105 C 
BRANCH  15  16
ATOM     16  S   UNL     1       0.349   1.053   3.850  1.00  0.00    -0.154 SA
BRANCH  16  17
ATOM     17  C   UNL     1       0.957   1.002   2.106  1.00  0.00     0.043 C 
ATOM     18  C   UNL     1       0.827   2.342   1.385  1.00  0.00     0.019 C 
BRANCH  17  19
ATOM     19  C   UNL     1       0.369  -0.178   1.321  1.00  0.00     0.011 C 
ATOM     20  C   UNL     1       0.962  -0.315  -0.076  1.00  0.00     0.005 C 
ENDBRANCH  17  19
ENDBRANCH  16  17
ENDBRANCH  15  16
ENDBRANCH   9  15
ENDBRANCH   7   8
ENDBRANCH   3   6
ENDBRANCH   1   2
BRANCH   1  21
ATOM     21  C   UNL     1       1.523   7.125   5.019  1.00  0.00     0.023 C 
BRANCH  21  22
ATOM     22  C   UNL     1       2.608   8.116   5.453  1.00  0.00     0.023 C 
BRANCH  22  23
ATOM     23  C   UNL     1       2.579   8.502   6.929  1.00  0.00     0.116 C 
BRANCH  23  24
ATOM     24  N   UNL     1       2.706   7.363   7.823  1.00  0.00    -0.352 N 
ATOM     25  C   UNL     1       3.257   7.321   9.083  1.00  0.00     0.251 C 
ATOM     26  H   UNL     1       2.352   6.510   7.482  1.00  0.00     0.163 HD
ATOM     27  O   UNL     1       3.386   6.252   9.661  1.00  0.00    -0.269 OA
BRANCH  25  28
ATOM     28  C   UNL     1       3.726   8.575   9.713  1.00  0.00     0.039 A 
ATOM     29  C   UNL     1       4.993   8.599  10.300  1.00  0.00     0.014 A 
ATOM     30  C   UNL     1       2.926   9.721   9.717  1.00  0.00     0.014 A 
ATOM     31  C   UNL     1       5.479   9.788  10.848  1.00  0.00     0.010 A 
ATOM     32  C   UNL     1       3.438  10.921  10.202  1.00  0.00     0.010 A 
ATOM     33  C   UNL     1       4.715  10.964  10.781  1.00  0.00    -0.014 A 
BRANCH  33  34
ATOM     34  C   UNL     1       5.221  12.242  11.341  1.00  0.00     0.031 A 
ATOM     35  C   UNL     1       4.523  12.874  12.515  1.00  0.00     0.074 A 
ATOM     36  C   UNL     1       6.276  12.855  10.769  1.00  0.00     0.049 A 
ATOM     37  N   UNL     1       4.772  14.012  13.109  1.00  0.00    -0.248 NA
ATOM     38  C   UNL     1       3.377  12.141  13.079  1.00  0.00     0.031 C 
ATOM     39  C   UNL     1       7.010  12.361   9.601  1.00  0.00     0.029 A 
ATOM     40  N   UNL     1       6.914  14.026  11.090  1.00  0.00    -0.354 N 
ATOM     41  C   UNL     1       3.810  14.138  14.104  1.00  0.00     0.074 A 
ATOM     42  C   UNL     1       2.938  12.989  13.998  1.00  0.00     0.031 C 
ATOM     43  C   UNL     1       8.016  13.207   9.324  1.00  0.00     0.029 A 
ATOM     44  C   UNL     1       7.981  14.317  10.272  1.00  0.00     0.049 A 
ATOM     45  H   UNL     1       6.635  14.605  11.835  1.00  0.00     0.167 HD
ATOM     46  C   UNL     1       3.681  15.108  15.040  1.00  0.00     0.037 A 
ATOM     47  C   UNL     1       8.838  15.357  10.289  1.00  0.00     0.037 A 
ATOM     48  C   UNL     1       4.573  16.231  15.161  1.00  0.00     0.049 A 
ATOM     49  C   UNL     1       8.691  16.410  11.353  1.00  0.00     0.074 A 
ATOM     50  C   UNL     1       4.546  17.254  16.093  1.00  0.00     0.029 A 
ATOM     51  N   UNL     1       5.661  16.471  14.334  1.00  0.00    -0.354 N 
ATOM     52  N   UNL     1       7.790  16.500  12.303  1.00  0.00    -0.248 NA
ATOM     53  C   UNL     1       9.680  17.496  11.358  1.00  0.00     0.031 C 
ATOM     54  C   UNL     1       5.603  18.127  15.814  1.00  0.00     0.029 A 
ATOM     55  C   UNL     1       6.314  17.624  14.736  1.00  0.00     0.049 A 
ATOM     56  H   UNL     1       5.929  15.905  13.575  1.00  0.00     0.167 HD
ATOM     57  C   UNL     1       8.125  17.632  13.039  1.00  0.00     0.074 A 
ATOM     58  C   UNL     1       9.312  18.192  12.425  1.00  0.00     0.031 C 
ATOM     59  C   UNL     1       7.507  18.155  14.126  1.00  0.00     0.037 A 
BRANCH  46  60
ATOM     60  C   UNL     1       2.548  14.986  16.020  1.00  0.00     0.058 A 
ATOM     61  C   UNL     1       1.466  15.880  15.981  1.00  0.00     0.135 A 
ATOM     62  C   UNL     1       2.552  14.007  17.027  1.00  0.00     0.135 A 
ATOM     63  F   UNL     1       1.407  16.831  15.036  1.00  0.00    -0.206 F 
ATOM     64  C   UNL     1       0.435  15.815  16.912  1.00  0.00     0.059 A 
ATOM     65  C   UNL     1       1.517  13.906  17.952  1.00  0.00     0.059 A 
ATOM     66  F   UNL     1       3.550  13.112  17.093  1.00  0.00    -0.206 F 
ATOM     67  C   UNL     1       0.469  14.823  17.895  1.00  0.00     0.060 A 
BRANCH  67  68
ATOM     68  S   UNL     1      -0.898  14.722  19.069  1.00  0.00     0.124 S 
ATOM     69  O   UNL     1      -0.658  15.889  19.910  1.00  0.00    -0.237 OA
ATOM     70  O   UNL     1      -2.063  14.797  18.192  1.00  0.00    -0.237 OA
ATOM     71  O   UNL     1      -0.695  13.427  19.713  1.00  0.00    -0.744 OA
ENDBRANCH  67  68
ENDBRANCH  46  60
BRANCH  47  72
ATOM     72  C   UNL     1       9.946  15.415   9.300  1.00  0.00     0.058 A 
ATOM     73  C   UNL     1       9.704  15.681   7.944  1.00  0.00     0.135 A 
ATOM     74  C   UNL     1      11.270  15.165   9.691  1.00  0.00     0.135 A 
ATOM     75  F   UNL     1       8.454  15.915   7.516  1.00  0.00    -0.206 F 
ATOM     76  C   UNL     1      10.732  15.677   7.007  1.00  0.00     0.059 A 
ATOM     77  C   UNL     1      12.319  15.178   8.777  1.00  0.00     0.059 A 
ATOM     78  F   UNL     1      11.551  14.915  10.979  1.00  0.00    -0.206 F 
ATOM     79  C   UNL     1      12.036  15.419   7.433  1.00  0.00     0.060 A 
BRANCH  79  80
ATOM     80  S   UNL     1      13.355  15.401   6.199  1.00  0.00     0.124 S 
ATOM     81  O   UNL     1      13.047  14.179   5.463  1.00  0.00    -0.237 OA
ATOM     82  O   UNL     1      13.121  16.650   5.483  1.00  0.00    -0.237 OA
ATOM     83  O   UNL     1      14.571  15.361   7.005  1.00  0.00    -0.744 OA
ENDBRANCH  79  80
ENDBRANCH  47  72
BRANCH  59  84
ATOM     84  C   UNL     1       8.124  19.369  14.762  1.00  0.00     0.058 A 
ATOM     85  C   UNL     1       8.756  19.265  16.012  1.00  0.00     0.135 A 
ATOM     86  C   UNL     1       8.028  20.641  14.177  1.00  0.00     0.135 A 
ATOM     87  F   UNL     1       8.869  18.072  16.616  1.00  0.00    -0.206 F 
ATOM     88  C   UNL     1       9.260  20.383  16.666  1.00  0.00     0.059 A 
ATOM     89  C   UNL     1       8.547  21.770  14.803  1.00  0.00     0.059 A 
ATOM     90  F   UNL     1       7.441  20.790  12.979  1.00  0.00    -0.206 F 
ATOM     91  C   UNL     1       9.148  21.633  16.055  1.00  0.00     0.060 A 
BRANCH  91  92
ATOM     92  S   UNL     1       9.826  23.072  16.909  1.00  0.00     0.124 S 
ATOM     93  O   UNL     1       8.850  23.273  17.975  1.00  0.00    -0.237 OA
ATOM     94  O   UNL     1      11.139  22.593  17.331  1.00  0.00    -0.237 OA
ATOM     95  O   UNL     1       9.846  24.100  15.873  1.00  0.00    -0.744 OA
ENDBRANCH  91  92
ENDBRANCH  59  84
ENDBRANCH  33  34
ENDBRANCH  25  28
ENDBRANCH  23  24
ENDBRANCH  22  23
ENDBRANCH  21  22
ENDBRANCH   1  21
TORSDOF 19
