REMARK SMILES CCc1cc(OC(F)(F)F)cc2c1O[C@H](C(F)(F)F)C(C(=O)NCCCCNC(=O)c1ccc(-c3c4nc(c(-c5c(F)cc(S(=O)(=O)[O-])cc5F)c5ccc([nH]5)c(-c5c(F)cc(S(=O)(=O)[O-])cc5F)c5nc(c(-c6c(F)cc(S(=O)(=O)[O-])cc6F)c6ccc3[nH]6)C=C5)C=C4)cc1)=C2
REMARK SMILES IDX 26 1 25 2 24 3 23 4 21 5 22 6 20 8 3 9 4 10 13 11 5 12 12 13
REMARK SMILES IDX 14 14 11 15 97 16 15 17 2 18 1 19 6 20 7 21 8 22 9 23 10 24
REMARK SMILES IDX 16 25 17 26 18 27 19 28 27 29 28 30 29 31 30 33 31 34 32 35
REMARK SMILES IDX 96 36 33 37 95 38 34 39 35 40 36 41 89 42 37 43 94 44 88 45
REMARK SMILES IDX 90 46 38 47 93 48 87 49 86 50 39 52 73 53 52 54 72 55 53 56
REMARK SMILES IDX 56 57 71 58 91 59 54 60 55 61 70 63 92 64 57 65 40 66 41 67
REMARK SMILES IDX 50 68 42 69 43 70 49 71 51 72 44 73 45 74 46 75 47 76 48 77
REMARK SMILES IDX 74 78 75 79 84 80 76 81 77 82 83 83 85 84 78 85 79 86 80 87
REMARK SMILES IDX 81 88 82 89 58 90 59 91 68 92 60 93 61 94 67 95 69 96 62 97
REMARK SMILES IDX 63 98 64 99 65 100 66 101
REMARK H PARENT 23 7 28 32 90 51 56 62
REMARK Flexibility Score: inf
ROOT
ATOM      1  C   UNL     1       4.628  -4.127   8.089  1.00  0.00     0.023 C 
ENDROOT
BRANCH   1   2
ATOM      2  C   UNL     1       3.747  -4.056   6.839  1.00  0.00     0.023 C 
BRANCH   2   3
ATOM      3  C   UNL     1       2.722  -2.918   6.863  1.00  0.00     0.116 C 
BRANCH   3   4
ATOM      4  N   UNL     1       3.347  -1.671   6.472  1.00  0.00    -0.352 N 
ATOM      5  C   UNL     1       3.535  -1.089   5.262  1.00  0.00     0.251 C 
ATOM      6  O   UNL     1       4.152  -0.026   5.224  1.00  0.00    -0.270 OA
ATOM      7  H   UNL     1       3.702  -1.148   7.227  1.00  0.00     0.163 HD
BRANCH   5   8
ATOM      8  C   UNL     1       2.950  -1.619   3.999  1.00  0.00     0.067 C 
ATOM      9  C   UNL     1       0.884  -2.433   0.415  1.00  0.00    -0.002 A 
ATOM     10  C   UNL     1       0.601  -3.785   0.108  1.00  0.00     0.054 A 
ATOM     11  C   UNL     1       1.579  -2.155   1.601  1.00  0.00     0.131 A 
ATOM     12  C   UNL     1       0.996  -4.826   0.950  1.00  0.00     0.130 A 
ATOM     13  C   UNL     1       1.983  -3.194   2.450  1.00  0.00     0.021 A 
ATOM     14  O   UNL     1       1.777  -0.850   1.956  1.00  0.00    -0.475 OA
ATOM     15  C   UNL     1       1.693  -4.521   2.118  1.00  0.00     0.058 A 
ATOM     16  C   UNL     1       2.615  -2.888   3.729  1.00  0.00     0.025 C 
ATOM     17  C   UNL     1       2.837  -0.571   2.907  1.00  0.00     0.314 C 
BRANCH   9  18
ATOM     18  C   UNL     1       0.366  -1.405  -0.575  1.00  0.00     0.036 C 
ATOM     19  C   UNL     1       0.768   0.057  -0.435  1.00  0.00     0.009 C 
ENDBRANCH   9  18
BRANCH  12  20
ATOM     20  O   UNL     1       0.755  -6.157   0.771  1.00  0.00    -0.406 OA
BRANCH  20  21
ATOM     21  C   UNL     1       0.036  -6.554  -0.384  1.00  0.00     0.573 C 
ATOM     22  F   UNL     1      -1.194  -5.999  -0.411  1.00  0.00    -0.132 F 
ATOM     23  F   UNL     1       0.705  -6.222  -1.509  1.00  0.00    -0.132 F 
ATOM     24  F   UNL     1      -0.111  -7.897  -0.364  1.00  0.00    -0.132 F 
ENDBRANCH  20  21
ENDBRANCH  12  20
BRANCH  17  25
ATOM     25  C   UNL     1       4.185  -0.326   2.189  1.00  0.00     0.429 C 
ATOM     26  F   UNL     1       5.036  -1.375   2.300  1.00  0.00    -0.167 F 
ATOM     27  F   UNL     1       4.012  -0.115   0.858  1.00  0.00    -0.167 F 
ATOM     28  F   UNL     1       4.824   0.769   2.662  1.00  0.00    -0.167 F 
ENDBRANCH  17  25
ENDBRANCH   5   8
ENDBRANCH   3   4
ENDBRANCH   2   3
ENDBRANCH   1   2
BRANCH   1  29
ATOM     29  C   UNL     1       3.875  -4.433   9.378  1.00  0.00     0.116 C 
BRANCH  29  30
ATOM     30  N   UNL     1       3.114  -5.670   9.315  1.00  0.00    -0.352 N 
ATOM     31  C   UNL     1       2.757  -6.507  10.344  1.00  0.00     0.251 C 
ATOM     32  H   UNL     1       2.817  -5.944   8.417  1.00  0.00     0.163 HD
ATOM     33  O   UNL     1       2.210  -7.574  10.104  1.00  0.00    -0.269 OA
BRANCH  31  34
ATOM     34  C   UNL     1       3.082  -6.122  11.734  1.00  0.00     0.039 A 
ATOM     35  C   UNL     1       3.696  -7.063  12.561  1.00  0.00     0.014 A 
ATOM     36  C   UNL     1       2.801  -4.838  12.208  1.00  0.00     0.014 A 
ATOM     37  C   UNL     1       4.074  -6.699  13.854  1.00  0.00     0.010 A 
ATOM     38  C   UNL     1       3.244  -4.455  13.470  1.00  0.00     0.010 A 
ATOM     39  C   UNL     1       3.874  -5.385  14.309  1.00  0.00    -0.014 A 
BRANCH  39  40
ATOM     40  C   UNL     1       4.301  -4.979  15.671  1.00  0.00     0.031 A 
ATOM     41  C   UNL     1       3.273  -4.572  16.692  1.00  0.00     0.074 A 
ATOM     42  C   UNL     1       5.613  -4.934  15.971  1.00  0.00     0.049 A 
ATOM     43  N   UNL     1       3.448  -4.170  17.924  1.00  0.00    -0.248 NA
ATOM     44  C   UNL     1       1.865  -4.593  16.263  1.00  0.00     0.031 C 
ATOM     45  C   UNL     1       6.705  -5.245  15.044  1.00  0.00     0.029 A 
ATOM     46  N   UNL     1       6.254  -4.608  17.139  1.00  0.00    -0.354 N 
ATOM     47  C   UNL     1       2.180  -3.880  18.412  1.00  0.00     0.074 A 
ATOM     48  C   UNL     1       1.250  -4.094  17.325  1.00  0.00     0.031 C 
ATOM     49  C   UNL     1       7.877  -5.122  15.688  1.00  0.00     0.029 A 
ATOM     50  C   UNL     1       7.623  -4.700  17.062  1.00  0.00     0.049 A 
ATOM     51  H   UNL     1       5.777  -4.333  17.956  1.00  0.00     0.167 HD
ATOM     52  C   UNL     1       1.819  -3.498  19.660  1.00  0.00     0.037 A 
ATOM     53  C   UNL     1       8.566  -4.477  17.997  1.00  0.00     0.037 A 
ATOM     54  C   UNL     1       2.747  -3.317  20.744  1.00  0.00     0.049 A 
ATOM     55  C   UNL     1       8.139  -4.083  19.386  1.00  0.00     0.074 A 
ATOM     56  C   UNL     1       2.481  -2.988  22.062  1.00  0.00     0.029 A 
ATOM     57  N   UNL     1       4.124  -3.454  20.638  1.00  0.00    -0.354 N 
ATOM     58  N   UNL     1       6.929  -3.880  19.849  1.00  0.00    -0.248 NA
ATOM     59  C   UNL     1       9.204  -3.904  20.381  1.00  0.00     0.031 C 
ATOM     60  C   UNL     1       3.699  -2.893  22.744  1.00  0.00     0.029 A 
ATOM     61  C   UNL     1       4.721  -3.205  21.862  1.00  0.00     0.049 A 
ATOM     62  H   UNL     1       4.605  -3.692  19.813  1.00  0.00     0.167 HD
ATOM     63  C   UNL     1       7.084  -3.575  21.197  1.00  0.00     0.074 A 
ATOM     64  C   UNL     1       8.505  -3.635  21.476  1.00  0.00     0.031 C 
ATOM     65  C   UNL     1       6.138  -3.276  22.121  1.00  0.00     0.037 A 
BRANCH  52  66
ATOM     66  C   UNL     1       0.355  -3.263  19.918  1.00  0.00     0.058 A 
ATOM     67  C   UNL     1      -0.565  -4.323  19.949  1.00  0.00     0.135 A 
ATOM     68  C   UNL     1      -0.131  -1.968  20.157  1.00  0.00     0.135 A 
ATOM     69  F   UNL     1      -0.158  -5.580  19.711  1.00  0.00    -0.206 F 
ATOM     70  C   UNL     1      -1.920  -4.105  20.174  1.00  0.00     0.059 A 
ATOM     71  C   UNL     1      -1.479  -1.729  20.412  1.00  0.00     0.059 A 
ATOM     72  F   UNL     1       0.704  -0.917  20.138  1.00  0.00    -0.206 F 
ATOM     73  C   UNL     1      -2.368  -2.803  20.402  1.00  0.00     0.060 A 
BRANCH  73  74
ATOM     74  S   UNL     1      -4.130  -2.535  20.689  1.00  0.00     0.124 S 
ATOM     75  O   UNL     1      -4.672  -2.703  19.344  1.00  0.00    -0.237 OA
ATOM     76  O   UNL     1      -4.457  -3.593  21.640  1.00  0.00    -0.237 OA
ATOM     77  O   UNL     1      -4.185  -1.178  21.223  1.00  0.00    -0.744 OA
ENDBRANCH  73  74
ENDBRANCH  52  66
BRANCH  53  78
ATOM     78  C   UNL     1      10.003  -4.663  17.663  1.00  0.00     0.058 A 
ATOM     79  C   UNL     1      10.728  -5.748  18.177  1.00  0.00     0.135 A 
ATOM     80  C   UNL     1      10.676  -3.772  16.813  1.00  0.00     0.135 A 
ATOM     81  F   UNL     1      10.129  -6.626  18.997  1.00  0.00    -0.206 F 
ATOM     82  C   UNL     1      12.073  -5.935  17.878  1.00  0.00     0.059 A 
ATOM     83  C   UNL     1      12.015  -3.950  16.479  1.00  0.00     0.059 A 
ATOM     84  F   UNL     1      10.021  -2.728  16.279  1.00  0.00    -0.206 F 
ATOM     85  C   UNL     1      12.708  -5.029  17.026  1.00  0.00     0.060 A 
BRANCH  85  86
ATOM     86  S   UNL     1      14.443  -5.306  16.605  1.00  0.00     0.124 S 
ATOM     87  O   UNL     1      15.111  -4.907  17.838  1.00  0.00    -0.237 OA
ATOM     88  O   UNL     1      14.461  -6.734  16.301  1.00  0.00    -0.237 OA
ATOM     89  O   UNL     1      14.652  -4.427  15.458  1.00  0.00    -0.744 OA
ENDBRANCH  85  86
ENDBRANCH  53  78
BRANCH  65  90
ATOM     90  C   UNL     1       6.605  -3.024  23.527  1.00  0.00     0.058 A 
ATOM     91  C   UNL     1       7.284  -1.848  23.880  1.00  0.00     0.135 A 
ATOM     92  C   UNL     1       6.338  -3.958  24.541  1.00  0.00     0.135 A 
ATOM     93  F   UNL     1       7.568  -0.925  22.947  1.00  0.00    -0.206 F 
ATOM     94  C   UNL     1       7.711  -1.620  25.184  1.00  0.00     0.059 A 
ATOM     95  C   UNL     1       6.731  -3.739  25.857  1.00  0.00     0.059 A 
ATOM     96  F   UNL     1       5.680  -5.094  24.258  1.00  0.00    -0.206 F 
ATOM     97  C   UNL     1       7.431  -2.573  26.165  1.00  0.00     0.060 A 
BRANCH  97  98
ATOM     98  S   UNL     1       7.974  -2.260  27.858  1.00  0.00     0.124 S 
ATOM     99  O   UNL     1       9.403  -2.539  27.764  1.00  0.00    -0.237 OA
ATOM    100  O   UNL     1       7.613  -0.858  28.050  1.00  0.00    -0.237 OA
ATOM    101  O   UNL     1       7.198  -3.213  28.645  1.00  0.00    -0.744 OA
ENDBRANCH  97  98
ENDBRANCH  65  90
ENDBRANCH  39  40
ENDBRANCH  31  34
ENDBRANCH  29  30
ENDBRANCH   1  29
TORSDOF 18
