REMARK SMILES O=C1CC[C@H](CNC(=O)N[C@@H]2C=C[C@@H](C(=O)NCCCCNC(=O)c3ccc(-c4c5nc(c(-c6c(F)cc(S(=O)(=O)[O-])cc6F)c6ccc([nH]6)c(-c6c(F)cc(S(=O)(=O)[O-])cc6F)c6nc(c(-c7c(F)cc(S(=O)(=O)[O-])cc7F)c7ccc4[nH]7)C=C6)C=C5)cc3)C2)N1
REMARK SMILES IDX 19 1 18 2 17 3 15 4 16 5 14 7 11 8 12 9 91 10 13 11 10 12
REMARK SMILES IDX 7 13 8 14 9 16 6 18 5 19 1 20 2 21 3 22 92 23 4 24 20 26
REMARK SMILES IDX 21 27 22 28 23 29 24 31 25 32 26 33 90 34 27 35 89 36 28 37
REMARK SMILES IDX 29 38 30 39 83 40 31 41 88 42 82 43 84 44 32 45 87 46 81 47
REMARK SMILES IDX 80 48 33 50 67 51 46 52 66 53 47 54 50 55 65 56 85 57 48 58
REMARK SMILES IDX 49 59 64 61 86 62 51 63 34 64 35 65 44 66 36 67 37 68 43 69
REMARK SMILES IDX 45 70 38 71 39 72 40 73 41 74 42 75 68 76 69 77 78 78 70 79
REMARK SMILES IDX 71 80 77 81 79 82 72 83 73 84 74 85 75 86 76 87 52 88 53 89
REMARK SMILES IDX 62 90 54 91 55 92 61 93 63 94 56 95 57 96 58 97 59 98 60 99
REMARK H PARENT 17 6 7 15 10 17 92 25 22 30 84 49 50 60
REMARK Flexibility Score: inf
ROOT
ATOM      1  C   UNL     1      -4.828  -4.823   5.008  1.00  0.00     0.023 C 
ENDROOT
BRANCH   1   2
ATOM      2  C   UNL     1      -3.634  -3.998   5.485  1.00  0.00     0.116 C 
BRANCH   2   3
ATOM      3  N   UNL     1      -2.491  -4.812   5.847  1.00  0.00    -0.356 N 
ATOM      4  C   UNL     1      -1.248  -4.915   5.303  1.00  0.00     0.227 C 
ATOM      5  O   UNL     1      -0.423  -5.604   5.913  1.00  0.00    -0.274 OA
ATOM      6  H   UNL     1      -2.641  -5.395   6.626  1.00  0.00     0.163 HD
BRANCH   4   7
ATOM      7  C   UNL     1      -0.862  -4.299   3.950  1.00  0.00     0.103 C 
ATOM      8  C   UNL     1      -2.391  -3.695   2.108  1.00  0.00     0.107 C 
ATOM      9  C   UNL     1      -1.750  -2.495   2.732  1.00  0.00    -0.006 C 
ATOM     10  C   UNL     1      -1.691  -4.870   2.803  1.00  0.00     0.047 C 
ATOM     11  C   UNL     1      -0.973  -2.819   3.774  1.00  0.00    -0.016 C 
BRANCH   8  12
ATOM     12  N   UNL     1      -2.199  -3.688   0.676  1.00  0.00    -0.332 N 
ATOM     13  N   UNL     1      -3.468  -5.529  -0.119  1.00  0.00    -0.336 N 
ATOM     14  C   UNL     1      -2.655  -4.473  -0.314  1.00  0.00     0.315 C 
ATOM     15  H   UNL     1      -3.745  -5.984  -0.947  1.00  0.00     0.165 HD
ATOM     16  O   UNL     1      -2.303  -4.223  -1.468  1.00  0.00    -0.249 OA
ATOM     17  H   UNL     1      -1.616  -2.959   0.363  1.00  0.00     0.165 HD
BRANCH  13  18
ATOM     18  C   UNL     1      -4.006  -6.114   1.088  1.00  0.00     0.142 C 
BRANCH  18  19
ATOM     19  C   UNL     1      -5.233  -7.025   0.915  1.00  0.00     0.101 C 
ATOM     20  O   UNL     1      -5.798  -8.462   4.068  1.00  0.00    -0.275 OA
ATOM     21  C   UNL     1      -5.517  -8.249   2.897  1.00  0.00     0.220 C 
ATOM     22  C   UNL     1      -4.614  -9.075   2.022  1.00  0.00     0.102 C 
ATOM     23  N   UNL     1      -5.921  -7.146   2.179  1.00  0.00    -0.352 N 
ATOM     24  C   UNL     1      -4.859  -8.477   0.632  1.00  0.00     0.036 C 
ATOM     25  H   UNL     1      -6.605  -6.510   2.493  1.00  0.00     0.163 HD
ENDBRANCH  18  19
ENDBRANCH  13  18
ENDBRANCH   8  12
ENDBRANCH   4   7
ENDBRANCH   2   3
ENDBRANCH   1   2
BRANCH   1  26
ATOM     26  C   UNL     1      -5.497  -5.697   6.072  1.00  0.00     0.023 C 
BRANCH  26  27
ATOM     27  C   UNL     1      -5.922  -4.979   7.348  1.00  0.00     0.116 C 
BRANCH  27  28
ATOM     28  N   UNL     1      -6.823  -3.863   7.110  1.00  0.00    -0.352 N 
ATOM     29  C   UNL     1      -7.897  -3.439   7.856  1.00  0.00     0.251 C 
ATOM     30  H   UNL     1      -6.638  -3.336   6.299  1.00  0.00     0.163 HD
ATOM     31  O   UNL     1      -8.609  -2.536   7.424  1.00  0.00    -0.269 OA
BRANCH  29  32
ATOM     32  C   UNL     1      -8.213  -4.082   9.153  1.00  0.00     0.039 A 
ATOM     33  C   UNL     1      -9.552  -4.333   9.468  1.00  0.00     0.014 A 
ATOM     34  C   UNL     1      -7.210  -4.426  10.063  1.00  0.00     0.014 A 
ATOM     35  C   UNL     1      -9.876  -4.969  10.669  1.00  0.00     0.010 A 
ATOM     36  C   UNL     1      -7.528  -5.136  11.218  1.00  0.00     0.010 A 
ATOM     37  C   UNL     1      -8.865  -5.399  11.544  1.00  0.00    -0.014 A 
BRANCH  37  38
ATOM     38  C   UNL     1      -9.200  -6.107  12.808  1.00  0.00     0.031 A 
ATOM     39  C   UNL     1      -8.845  -5.500  14.140  1.00  0.00     0.074 A 
ATOM     40  C   UNL     1      -9.777  -7.324  12.757  1.00  0.00     0.049 A 
ATOM     41  N   UNL     1      -9.060  -5.965  15.344  1.00  0.00    -0.248 NA
ATOM     42  C   UNL     1      -8.122  -4.219  14.115  1.00  0.00     0.031 C 
ATOM     43  C   UNL     1     -10.090  -8.059  11.530  1.00  0.00     0.029 A 
ATOM     44  N   UNL     1     -10.193  -8.161  13.761  1.00  0.00    -0.354 N 
ATOM     45  C   UNL     1      -8.483  -5.046  16.215  1.00  0.00     0.074 A 
ATOM     46  C   UNL     1      -7.857  -4.030  15.398  1.00  0.00     0.031 C 
ATOM     47  C   UNL     1     -10.669  -9.226  11.852  1.00  0.00     0.029 A 
ATOM     48  C   UNL     1     -10.747  -9.335  13.306  1.00  0.00     0.049 A 
ATOM     49  H   UNL     1     -10.104  -7.943  14.717  1.00  0.00     0.167 HD
ATOM     50  C   UNL     1      -8.496  -5.036  17.570  1.00  0.00     0.037 A 
ATOM     51  C   UNL     1     -11.263 -10.380  13.982  1.00  0.00     0.037 A 
ATOM     52  C   UNL     1      -9.144  -6.039  18.375  1.00  0.00     0.049 A 
ATOM     53  C   UNL     1     -11.326 -10.321  15.483  1.00  0.00     0.074 A 
ATOM     54  C   UNL     1      -9.290  -6.079  19.751  1.00  0.00     0.029 A 
ATOM     55  N   UNL     1      -9.747  -7.186  17.877  1.00  0.00    -0.354 N 
ATOM     56  N   UNL     1     -10.867  -9.394  16.291  1.00  0.00    -0.248 NA
ATOM     57  C   UNL     1     -11.997 -11.435  16.163  1.00  0.00     0.031 C 
ATOM     58  C   UNL     1      -9.939  -7.273  20.087  1.00  0.00     0.029 A 
ATOM     59  C   UNL     1     -10.247  -7.951  18.918  1.00  0.00     0.049 A 
ATOM     60  H   UNL     1      -9.809  -7.421  16.923  1.00  0.00     0.167 HD
ATOM     61  C   UNL     1     -11.210  -9.804  17.575  1.00  0.00     0.074 A 
ATOM     62  C   UNL     1     -11.932 -11.053  17.431  1.00  0.00     0.031 C 
ATOM     63  C   UNL     1     -10.955  -9.199  18.763  1.00  0.00     0.037 A 
BRANCH  50  64
ATOM     64  C   UNL     1      -7.778  -3.905  18.259  1.00  0.00     0.058 A 
ATOM     65  C   UNL     1      -8.234  -2.578  18.182  1.00  0.00     0.135 A 
ATOM     66  C   UNL     1      -6.611  -4.148  19.002  1.00  0.00     0.135 A 
ATOM     67  F   UNL     1      -9.338  -2.282  17.477  1.00  0.00    -0.206 F 
ATOM     68  C   UNL     1      -7.531  -1.529  18.767  1.00  0.00     0.059 A 
ATOM     69  C   UNL     1      -5.910  -3.119  19.624  1.00  0.00     0.059 A 
ATOM     70  F   UNL     1      -6.130  -5.396  19.117  1.00  0.00    -0.206 F 
ATOM     71  C   UNL     1      -6.364  -1.809  19.479  1.00  0.00     0.060 A 
BRANCH  71  72
ATOM     72  S   UNL     1      -5.444  -0.435  20.203  1.00  0.00     0.124 S 
ATOM     73  O   UNL     1      -4.826   0.155  19.019  1.00  0.00    -0.237 OA
ATOM     74  O   UNL     1      -6.499   0.356  20.826  1.00  0.00    -0.237 OA
ATOM     75  O   UNL     1      -4.526  -1.091  21.128  1.00  0.00    -0.744 OA
ENDBRANCH  71  72
ENDBRANCH  50  64
BRANCH  51  76
ATOM     76  C   UNL     1     -11.796 -11.544  13.227  1.00  0.00     0.058 A 
ATOM     77  C   UNL     1     -13.176 -11.768  13.116  1.00  0.00     0.135 A 
ATOM     78  C   UNL     1     -10.935 -12.421  12.549  1.00  0.00     0.135 A 
ATOM     79  F   UNL     1     -14.040 -10.960  13.751  1.00  0.00    -0.206 F 
ATOM     80  C   UNL     1     -13.686 -12.818  12.358  1.00  0.00     0.059 A 
ATOM     81  C   UNL     1     -11.421 -13.464  11.766  1.00  0.00     0.059 A 
ATOM     82  F   UNL     1      -9.607 -12.239  12.610  1.00  0.00    -0.206 F 
ATOM     83  C   UNL     1     -12.799 -13.655  11.678  1.00  0.00     0.060 A 
BRANCH  83  84
ATOM     84  S   UNL     1     -13.474 -14.959  10.625  1.00  0.00     0.124 S 
ATOM     85  O   UNL     1     -13.957 -15.916  11.613  1.00  0.00    -0.237 OA
ATOM     86  O   UNL     1     -14.501 -14.243   9.873  1.00  0.00    -0.237 OA
ATOM     87  O   UNL     1     -12.320 -15.388   9.841  1.00  0.00    -0.744 OA
ENDBRANCH  83  84
ENDBRANCH  51  76
BRANCH  63  88
ATOM     88  C   UNL     1     -11.483  -9.870  20.002  1.00  0.00     0.058 A 
ATOM     89  C   UNL     1     -10.938 -11.070  20.486  1.00  0.00     0.135 A 
ATOM     90  C   UNL     1     -12.537  -9.290  20.727  1.00  0.00     0.135 A 
ATOM     91  F   UNL     1      -9.930 -11.667  19.831  1.00  0.00    -0.206 F 
ATOM     92  C   UNL     1     -11.448 -11.694  21.620  1.00  0.00     0.059 A 
ATOM     93  C   UNL     1     -13.043  -9.882  21.881  1.00  0.00     0.059 A 
ATOM     94  F   UNL     1     -13.086  -8.135  20.319  1.00  0.00    -0.206 F 
ATOM     95  C   UNL     1     -12.505 -11.095  22.308  1.00  0.00     0.060 A 
BRANCH  95  96
ATOM     96  S   UNL     1     -13.163 -11.915  23.775  1.00  0.00     0.124 S 
ATOM     97  O   UNL     1     -13.929 -13.006  23.181  1.00  0.00    -0.237 OA
ATOM     98  O   UNL     1     -11.950 -12.306  24.487  1.00  0.00    -0.237 OA
ATOM     99  O   UNL     1     -13.953 -10.872  24.422  1.00  0.00    -0.744 OA
ENDBRANCH  95  96
ENDBRANCH  63  88
ENDBRANCH  37  38
ENDBRANCH  29  32
ENDBRANCH  27  28
ENDBRANCH  26  27
ENDBRANCH   1  26
TORSDOF 17
