REMARK SMILES O=C(NCCCCNC(=O)c1cccc([C@@H]2CCC[N@@H+](Cc3cccc(OCCO)c3)C2)c1)c1ccc(-c2c3nc(c(-c4c(F)cc(S(=O)(=O)[O-])cc4F)c4ccc([nH]4)c(-c4c(F)cc(S(=O)(=O)[O-])cc4F)c4nc(c(-c5c(F)cc(S(=O)(=O)[O-])cc5F)c5ccc2[nH]5)C=C4)C=C3)cc1
REMARK SMILES IDX 8 1 9 2 10 3 7 5 6 6 5 7 4 8 3 9 1 10 2 11 34 13 35 14 99 15
REMARK SMILES IDX 36 16 98 17 37 18 38 19 39 20 92 21 40 22 97 23 91 24 93 25
REMARK SMILES IDX 41 26 96 27 90 28 89 29 42 31 76 32 55 33 75 34 56 35 59 36
REMARK SMILES IDX 74 37 94 38 57 39 58 40 73 42 95 43 60 44 43 45 44 46 53 47
REMARK SMILES IDX 45 48 46 49 52 50 54 51 47 52 48 53 49 54 50 55 51 56 77 57
REMARK SMILES IDX 78 58 87 59 79 60 80 61 86 62 88 63 81 64 82 65 83 66 84 67
REMARK SMILES IDX 85 68 61 69 62 70 71 71 63 72 64 73 70 74 72 75 65 76 66 77
REMARK SMILES IDX 67 78 68 79 69 80 11 81 12 82 33 83 13 84 15 85 14 86 16 87
REMARK SMILES IDX 17 88 32 89 18 90 20 91 19 92 21 94 22 95 23 96 31 97 24 98
REMARK SMILES IDX 26 99 25 100 27 101 28 102 29 103 30 104
REMARK H PARENT 8 4 3 12 93 30 59 41 20 93 30 105
REMARK Flexibility Score: inf
ROOT
ATOM      1  N   UNL     1       6.386  -0.371   4.376  1.00  0.00    -0.352 N 
ATOM      2  C   UNL     1       7.149  -0.646   5.482  1.00  0.00     0.251 C 
ATOM      3  O   UNL     1       8.361  -0.456   5.464  1.00  0.00    -0.269 OA
ATOM      4  H   UNL     1       6.885  -0.187   3.548  1.00  0.00     0.163 HD
ENDROOT
BRANCH   1   5
ATOM      5  C   UNL     1       4.937  -0.314   4.265  1.00  0.00     0.116 C 
BRANCH   5   6
ATOM      6  C   UNL     1       4.468   0.967   3.588  1.00  0.00     0.023 C 
BRANCH   6   7
ATOM      7  C   UNL     1       4.967   1.151   2.157  1.00  0.00     0.023 C 
BRANCH   7   8
ATOM      8  C   UNL     1       4.673  -0.018   1.226  1.00  0.00     0.116 C 
BRANCH   8   9
ATOM      9  N   UNL     1       3.246  -0.257   1.066  1.00  0.00    -0.352 N 
ATOM     10  O   UNL     1       1.241  -0.180   0.038  1.00  0.00    -0.269 OA
ATOM     11  C   UNL     1       2.457  -0.112  -0.053  1.00  0.00     0.251 C 
ATOM     12  H   UNL     1       2.778  -0.568   1.875  1.00  0.00     0.163 HD
BRANCH  11  13
ATOM     13  C   UNL     1       3.100   0.147  -1.359  1.00  0.00     0.039 A 
ATOM     14  C   UNL     1       4.203  -0.609  -1.762  1.00  0.00     0.014 A 
ATOM     15  C   UNL     1       2.604   1.164  -2.179  1.00  0.00     0.014 A 
ATOM     16  C   UNL     1       4.905  -0.247  -2.904  1.00  0.00     0.010 A 
ATOM     17  C   UNL     1       3.257   1.464  -3.377  1.00  0.00     0.010 A 
ATOM     18  C   UNL     1       4.432   0.783  -3.733  1.00  0.00    -0.014 A 
BRANCH  18  19
ATOM     19  C   UNL     1       5.144   1.076  -5.002  1.00  0.00     0.031 A 
ATOM     20  C   UNL     1       5.804   2.405  -5.239  1.00  0.00     0.074 A 
ATOM     21  C   UNL     1       5.196   0.113  -5.943  1.00  0.00     0.049 A 
ATOM     22  N   UNL     1       6.456   2.821  -6.295  1.00  0.00    -0.248 NA
ATOM     23  C   UNL     1       5.715   3.399  -4.159  1.00  0.00     0.031 C 
ATOM     24  C   UNL     1       4.570  -1.208  -5.827  1.00  0.00     0.029 A 
ATOM     25  N   UNL     1       5.800   0.087  -7.172  1.00  0.00    -0.354 N 
ATOM     26  C   UNL     1       6.834   4.130  -6.021  1.00  0.00     0.074 A 
ATOM     27  C   UNL     1       6.321   4.447  -4.704  1.00  0.00     0.031 C 
ATOM     28  C   UNL     1       4.848  -1.924  -6.925  1.00  0.00     0.029 A 
ATOM     29  C   UNL     1       5.613  -1.095  -7.848  1.00  0.00     0.049 A 
ATOM     30  H   UNL     1       6.317   0.842  -7.536  1.00  0.00     0.167 HD
ATOM     31  C   UNL     1       7.547   4.984  -6.796  1.00  0.00     0.037 A 
ATOM     32  C   UNL     1       5.989  -1.466  -9.086  1.00  0.00     0.037 A 
ATOM     33  C   UNL     1       8.065   4.648  -8.099  1.00  0.00     0.049 A 
ATOM     34  C   UNL     1       6.773  -0.503  -9.926  1.00  0.00     0.074 A 
ATOM     35  C   UNL     1       8.841   5.424  -8.943  1.00  0.00     0.029 A 
ATOM     36  N   UNL     1       7.851   3.442  -8.753  1.00  0.00    -0.354 N 
ATOM     37  N   UNL     1       7.159   0.716  -9.633  1.00  0.00    -0.248 NA
ATOM     38  C   UNL     1       7.172  -0.960 -11.262  1.00  0.00     0.031 C 
ATOM     39  C   UNL     1       9.058   4.705 -10.124  1.00  0.00     0.029 A 
ATOM     40  C   UNL     1       8.458   3.462  -9.999  1.00  0.00     0.049 A 
ATOM     41  H   UNL     1       7.343   2.683  -8.385  1.00  0.00     0.167 HD
ATOM     42  C   UNL     1       7.854   1.171 -10.746  1.00  0.00     0.074 A 
ATOM     43  C   UNL     1       7.851   0.088 -11.710  1.00  0.00     0.031 C 
ATOM     44  C   UNL     1       8.438   2.377 -10.950  1.00  0.00     0.037 A 
BRANCH  31  45
ATOM     45  C   UNL     1       7.785   6.373  -6.269  1.00  0.00     0.058 A 
ATOM     46  C   UNL     1       8.669   6.624  -5.207  1.00  0.00     0.135 A 
ATOM     47  C   UNL     1       7.137   7.475  -6.851  1.00  0.00     0.135 A 
ATOM     48  F   UNL     1       9.308   5.608  -4.605  1.00  0.00    -0.206 F 
ATOM     49  C   UNL     1       8.875   7.911  -4.719  1.00  0.00     0.059 A 
ATOM     50  C   UNL     1       7.346   8.774  -6.396  1.00  0.00     0.059 A 
ATOM     51  F   UNL     1       6.284   7.295  -7.872  1.00  0.00    -0.206 F 
ATOM     52  C   UNL     1       8.203   8.980  -5.316  1.00  0.00     0.060 A 
BRANCH  52  53
ATOM     53  S   UNL     1       8.462  10.642  -4.659  1.00  0.00     0.124 S 
ATOM     54  O   UNL     1       7.689  10.588  -3.422  1.00  0.00    -0.237 OA
ATOM     55  O   UNL     1       9.912  10.694  -4.497  1.00  0.00    -0.237 OA
ATOM     56  O   UNL     1       7.920  11.508  -5.701  1.00  0.00    -0.744 OA
ENDBRANCH  52  53
ENDBRANCH  31  45
BRANCH  32  57
ATOM     57  C   UNL     1       5.601  -2.808  -9.588  1.00  0.00     0.058 A 
ATOM     58  C   UNL     1       6.545  -3.834  -9.724  1.00  0.00     0.135 A 
ATOM     59  C   UNL     1       4.258  -3.109  -9.868  1.00  0.00     0.135 A 
ATOM     60  F   UNL     1       7.840  -3.593  -9.469  1.00  0.00    -0.206 F 
ATOM     61  C   UNL     1       6.173  -5.115 -10.119  1.00  0.00     0.059 A 
ATOM     62  C   UNL     1       3.858  -4.388 -10.239  1.00  0.00     0.059 A 
ATOM     63  F   UNL     1       3.314  -2.165  -9.731  1.00  0.00    -0.206 F 
ATOM     64  C   UNL     1       4.824  -5.384 -10.366  1.00  0.00     0.060 A 
BRANCH  64  65
ATOM     65  S   UNL     1       4.339  -7.069 -10.794  1.00  0.00     0.124 S 
ATOM     66  O   UNL     1       4.781  -7.158 -12.181  1.00  0.00    -0.237 OA
ATOM     67  O   UNL     1       5.095  -7.862  -9.830  1.00  0.00    -0.237 OA
ATOM     68  O   UNL     1       2.893  -7.063 -10.591  1.00  0.00    -0.744 OA
ENDBRANCH  64  65
ENDBRANCH  32  57
BRANCH  44  69
ATOM     69  C   UNL     1       9.135   2.586 -12.264  1.00  0.00     0.058 A 
ATOM     70  C   UNL     1       8.416   2.785 -13.453  1.00  0.00     0.135 A 
ATOM     71  C   UNL     1      10.537   2.631 -12.328  1.00  0.00     0.135 A 
ATOM     72  F   UNL     1       7.074   2.740 -13.447  1.00  0.00    -0.206 F 
ATOM     73  C   UNL     1       9.063   3.007 -14.664  1.00  0.00     0.059 A 
ATOM     74  C   UNL     1      11.204   2.876 -13.523  1.00  0.00     0.059 A 
ATOM     75  F   UNL     1      11.270   2.452 -11.217  1.00  0.00    -0.206 F 
ATOM     76  C   UNL     1      10.459   3.053 -14.688  1.00  0.00     0.060 A 
BRANCH  76  77
ATOM     77  S   UNL     1      11.287   3.380 -16.258  1.00  0.00     0.124 S 
ATOM     78  O   UNL     1      11.141   2.099 -16.940  1.00  0.00    -0.237 OA
ATOM     79  O   UNL     1      10.501   4.482 -16.804  1.00  0.00    -0.237 OA
ATOM     80  O   UNL     1      12.648   3.727 -15.858  1.00  0.00    -0.744 OA
ENDBRANCH  76  77
ENDBRANCH  44  69
ENDBRANCH  18  19
ENDBRANCH  11  13
ENDBRANCH   8   9
ENDBRANCH   7   8
ENDBRANCH   6   7
ENDBRANCH   5   6
ENDBRANCH   1   5
BRANCH   2  81
ATOM     81  C   UNL     1       6.513  -1.202   6.693  1.00  0.00     0.040 A 
ATOM     82  C   UNL     1       6.901  -0.743   7.951  1.00  0.00     0.014 A 
ATOM     83  C   UNL     1       5.608  -2.261   6.578  1.00  0.00     0.018 A 
ATOM     84  C   UNL     1       6.344  -1.318   9.091  1.00  0.00     0.001 A 
ATOM     85  C   UNL     1       5.082  -2.882   7.710  1.00  0.00    -0.039 A 
ATOM     86  C   UNL     1       5.441  -2.379   8.971  1.00  0.00     0.004 A 
BRANCH  85  87
ATOM     87  C   UNL     1       4.234  -4.136   7.592  1.00  0.00     0.074 C 
ATOM     88  C   UNL     1       5.019  -5.295   6.953  1.00  0.00     0.020 C 
ATOM     89  C   UNL     1       2.839  -3.925   6.954  1.00  0.00     0.270 C 
ATOM     90  C   UNL     1       4.884  -5.359   5.437  1.00  0.00     0.062 C 
ATOM     91  N   UNL     1       2.680  -4.175   5.510  1.00  0.00    -0.331 N 
ATOM     92  C   UNL     1       3.420  -5.344   5.022  1.00  0.00     0.262 C 
ATOM     93  H   UNL     1       3.103  -3.366   5.056  1.00  0.00     0.348 HD
BRANCH  91  94
ATOM     94  C   UNL     1       1.244  -4.232   5.102  1.00  0.00     0.299 C 
BRANCH  94  95
ATOM     95  C   UNL     1       0.535  -5.559   5.365  1.00  0.00     0.010 A 
ATOM     96  C   UNL     1       0.375  -6.498   4.335  1.00  0.00     0.010 A 
ATOM     97  C   UNL     1       0.160  -5.924   6.669  1.00  0.00     0.056 A 
ATOM     98  C   UNL     1      -0.074  -7.788   4.620  1.00  0.00     0.004 A 
ATOM     99  C   UNL     1      -0.197  -7.237   6.976  1.00  0.00     0.119 A 
ATOM    100  C   UNL     1      -0.335  -8.161   5.939  1.00  0.00     0.046 A 
BRANCH  99 101
ATOM    101  O   UNL     1      -0.377  -7.745   8.234  1.00  0.00    -0.491 OA
BRANCH 101 102
ATOM    102  C   UNL     1       0.120  -7.007   9.359  1.00  0.00     0.257 C 
BRANCH 102 103
ATOM    103  C   UNL     1       1.591  -7.313   9.659  1.00  0.00     0.197 C 
BRANCH 103 104
ATOM    104  O   UNL     1       2.467  -6.860   8.637  1.00  0.00    -0.393 OA
ATOM    105  H   UNL     1       2.256  -7.312   7.806  1.00  0.00     0.210 HD
ENDBRANCH 103 104
ENDBRANCH 102 103
ENDBRANCH 101 102
ENDBRANCH  99 101
ENDBRANCH  94  95
ENDBRANCH  91  94
ENDBRANCH  85  87
ENDBRANCH   2  81
TORSDOF 21
