REMARK SMILES O=C(CCC(=O)/[NH+]=C1\S[C@H]2CS(=O)(=O)C[C@@H]2N1c1ccc2c(c1)OCO2)NCCCCNC(=O)c1ccc(-c2c3nc(c(-c4c(F)cc(S(=O)(=O)[O-])cc4F)c4ccc([nH]4)c(-c4c(F)cc(S(=O)(=O)[O-])cc4F)c4nc(c(-c5c(F)cc(S(=O)(=O)[O-])cc5F)c5ccc2[nH]5)C=C4)C=C3)cc1
REMARK SMILES IDX 29 1 28 2 27 3 2 4 1 5 3 7 4 8 5 9 6 10 7 11 8 12 9 14 17 15
REMARK SMILES IDX 10 16 16 17 11 18 15 19 12 20 13 21 14 22 18 23 19 24 23 25
REMARK SMILES IDX 20 26 22 27 21 28 24 29 26 30 25 31 30 32 31 33 32 34 33 35
REMARK SMILES IDX 34 37 35 38 36 39 100 40 37 41 99 42 38 43 39 44 40 45 93 46
REMARK SMILES IDX 41 47 98 48 92 49 94 50 42 51 97 52 91 53 90 54 43 56 77 57
REMARK SMILES IDX 56 58 76 59 57 60 60 61 75 62 95 63 58 64 59 65 74 67 96 68
REMARK SMILES IDX 61 69 44 70 45 71 54 72 46 73 47 74 53 75 55 76 48 77 49 78
REMARK SMILES IDX 50 79 51 80 52 81 78 82 79 83 88 84 80 85 81 86 87 87 89 88
REMARK SMILES IDX 82 89 83 90 84 91 85 92 86 93 62 94 63 95 72 96 64 97 65 98
REMARK SMILES IDX 71 99 73 100 66 101 67 102 68 103 69 104 70 105
REMARK H PARENT 27 6 7 13 32 36 94 55 60 66
REMARK Flexibility Score: inf
ROOT
ATOM      1  C   UNL     1       1.601  -1.983   1.267  1.00  0.00     0.023 C 
ENDROOT
BRANCH   1   2
ATOM      2  C   UNL     1       2.120  -0.992   2.311  1.00  0.00     0.116 C 
BRANCH   2   3
ATOM      3  N   UNL     1       3.556  -0.783   2.273  1.00  0.00    -0.356 N 
ATOM      4  C   UNL     1       4.282   0.257   1.787  1.00  0.00     0.220 C 
ATOM      5  O   UNL     1       5.506   0.251   1.934  1.00  0.00    -0.275 OA
ATOM      6  H   UNL     1       4.090  -1.513   2.662  1.00  0.00     0.163 HD
BRANCH   4   7
ATOM      7  C   UNL     1       3.596   1.400   1.089  1.00  0.00     0.112 C 
BRANCH   7   8
ATOM      8  C   UNL     1       3.357   1.298  -0.412  1.00  0.00     0.138 C 
BRANCH   8   9
ATOM      9  C   UNL     1       3.355  -0.019  -1.183  1.00  0.00     0.308 C 
ATOM     10  O   UNL     1       2.633  -0.113  -2.176  1.00  0.00    -0.247 OA
ATOM     11  N   UNL     1       4.103  -1.075  -0.754  1.00  0.00    -0.204 N 
ATOM     12  C   UNL     1       5.393  -1.076  -0.796  1.00  0.00     0.319 C 
ATOM     13  H   UNL     1       3.641  -1.869  -0.398  1.00  0.00     0.316 HD
ATOM     14  S   UNL     1       6.392   0.300  -1.351  1.00  0.00    -0.029 SA
ATOM     15  N   UNL     1       6.224  -2.096  -0.336  1.00  0.00    -0.216 N 
ATOM     16  C   UNL     1       7.903  -0.648  -1.065  1.00  0.00     0.120 C 
ATOM     17  C   UNL     1       7.531  -1.611   0.070  1.00  0.00     0.212 C 
ATOM     18  C   UNL     1       9.158   0.033  -0.593  1.00  0.00     0.156 C 
ATOM     19  C   UNL     1       8.723  -2.534   0.177  1.00  0.00     0.188 C 
ATOM     20  S   UNL     1      10.097  -1.371   0.028  1.00  0.00     0.155 S 
ATOM     21  O   UNL     1      10.972  -1.825  -1.037  1.00  0.00    -0.229 OA
ATOM     22  O   UNL     1      10.585  -1.040   1.344  1.00  0.00    -0.229 OA
BRANCH  15  23
ATOM     23  C   UNL     1       5.865  -3.441  -0.272  1.00  0.00     0.132 A 
ATOM     24  C   UNL     1       6.048  -4.213   0.899  1.00  0.00     0.056 A 
ATOM     25  C   UNL     1       5.275  -4.048  -1.395  1.00  0.00     0.102 A 
ATOM     26  C   UNL     1       5.619  -5.546   0.966  1.00  0.00     0.055 A 
ATOM     27  C   UNL     1       4.853  -5.354  -1.301  1.00  0.00     0.170 A 
ATOM     28  C   UNL     1       5.003  -6.076  -0.145  1.00  0.00     0.166 A 
ATOM     29  O   UNL     1       4.225  -6.056  -2.280  1.00  0.00    -0.453 OA
ATOM     30  O   UNL     1       4.448  -7.310  -0.240  1.00  0.00    -0.454 OA
ATOM     31  C   UNL     1       3.859  -7.248  -1.556  1.00  0.00     0.468 C 
ENDBRANCH  15  23
ENDBRANCH   8   9
ENDBRANCH   7   8
ENDBRANCH   4   7
ENDBRANCH   2   3
ENDBRANCH   1   2
BRANCH   1  32
ATOM     32  C   UNL     1       2.388  -3.288   1.162  1.00  0.00     0.023 C 
BRANCH  32  33
ATOM     33  C   UNL     1       2.450  -4.108   2.441  1.00  0.00     0.116 C 
BRANCH  33  34
ATOM     34  N   UNL     1       1.155  -4.659   2.786  1.00  0.00    -0.352 N 
ATOM     35  C   UNL     1       0.784  -5.973   2.924  1.00  0.00     0.251 C 
ATOM     36  H   UNL     1       0.442  -3.998   2.943  1.00  0.00     0.163 HD
ATOM     37  O   UNL     1      -0.410  -6.260   2.941  1.00  0.00    -0.269 OA
BRANCH  35  38
ATOM     38  C   UNL     1       1.806  -7.041   3.053  1.00  0.00     0.039 A 
ATOM     39  C   UNL     1       1.561  -8.281   2.456  1.00  0.00     0.014 A 
ATOM     40  C   UNL     1       2.968  -6.854   3.808  1.00  0.00     0.014 A 
ATOM     41  C   UNL     1       2.487  -9.319   2.597  1.00  0.00     0.010 A 
ATOM     42  C   UNL     1       3.929  -7.861   3.875  1.00  0.00     0.010 A 
ATOM     43  C   UNL     1       3.690  -9.115   3.292  1.00  0.00    -0.014 A 
BRANCH  43  44
ATOM     44  C   UNL     1       4.688 -10.209   3.451  1.00  0.00     0.031 A 
ATOM     45  C   UNL     1       5.046 -10.711   4.825  1.00  0.00     0.074 A 
ATOM     46  C   UNL     1       5.308 -10.719   2.368  1.00  0.00     0.049 A 
ATOM     47  N   UNL     1       5.927 -11.615   5.170  1.00  0.00    -0.248 NA
ATOM     48  C   UNL     1       4.340 -10.101   5.964  1.00  0.00     0.031 C 
ATOM     49  C   UNL     1       5.069 -10.300   0.988  1.00  0.00     0.029 A 
ATOM     50  N   UNL     1       6.272 -11.689   2.251  1.00  0.00    -0.354 N 
ATOM     51  C   UNL     1       5.885 -11.677   6.559  1.00  0.00     0.074 A 
ATOM     52  C   UNL     1       4.943 -10.671   6.997  1.00  0.00     0.031 C 
ATOM     53  C   UNL     1       5.862 -11.000   0.163  1.00  0.00     0.029 A 
ATOM     54  C   UNL     1       6.679 -11.911   0.955  1.00  0.00     0.049 A 
ATOM     55  H   UNL     1       6.638 -12.180   3.022  1.00  0.00     0.167 HD
ATOM     56  C   UNL     1       6.544 -12.518   7.390  1.00  0.00     0.037 A 
ATOM     57  C   UNL     1       7.603 -12.755   0.457  1.00  0.00     0.037 A 
ATOM     58  C   UNL     1       7.456 -13.538   6.942  1.00  0.00     0.049 A 
ATOM     59  C   UNL     1       8.329 -13.674   1.399  1.00  0.00     0.074 A 
ATOM     60  C   UNL     1       8.127 -14.484   7.697  1.00  0.00     0.029 A 
ATOM     61  N   UNL     1       7.826 -13.746   5.621  1.00  0.00    -0.354 N 
ATOM     62  N   UNL     1       8.222 -13.766   2.703  1.00  0.00    -0.248 NA
ATOM     63  C   UNL     1       9.287 -14.616   0.804  1.00  0.00     0.031 C 
ATOM     64  C   UNL     1       8.940 -15.231   6.838  1.00  0.00     0.029 A 
ATOM     65  C   UNL     1       8.735 -14.788   5.542  1.00  0.00     0.049 A 
ATOM     66  H   UNL     1       7.492 -13.228   4.853  1.00  0.00     0.167 HD
ATOM     67  C   UNL     1       9.073 -14.797   3.082  1.00  0.00     0.074 A 
ATOM     68  C   UNL     1       9.679 -15.304   1.867  1.00  0.00     0.031 C 
ATOM     69  C   UNL     1       9.326 -15.283   4.323  1.00  0.00     0.037 A 
BRANCH  56  70
ATOM     70  C   UNL     1       6.295 -12.378   8.869  1.00  0.00     0.058 A 
ATOM     71  C   UNL     1       5.059 -12.716   9.445  1.00  0.00     0.135 A 
ATOM     72  C   UNL     1       7.314 -11.930   9.726  1.00  0.00     0.135 A 
ATOM     73  F   UNL     1       4.045 -13.135   8.672  1.00  0.00    -0.206 F 
ATOM     74  C   UNL     1       4.831 -12.583  10.811  1.00  0.00     0.059 A 
ATOM     75  C   UNL     1       7.118 -11.819  11.100  1.00  0.00     0.059 A 
ATOM     76  F   UNL     1       8.515 -11.593   9.231  1.00  0.00    -0.206 F 
ATOM     77  C   UNL     1       5.867 -12.133  11.631  1.00  0.00     0.060 A 
BRANCH  77  78
ATOM     78  S   UNL     1       5.554 -11.969  13.401  1.00  0.00     0.124 S 
ATOM     79  O   UNL     1       4.684 -10.797  13.434  1.00  0.00    -0.237 OA
ATOM     80  O   UNL     1       4.916 -13.240  13.724  1.00  0.00    -0.237 OA
ATOM     81  O   UNL     1       6.886 -11.777  13.966  1.00  0.00    -0.744 OA
ENDBRANCH  77  78
ENDBRANCH  56  70
BRANCH  57  82
ATOM     82  C   UNL     1       7.860 -12.795  -1.008  1.00  0.00     0.058 A 
ATOM     83  C   UNL     1       7.459 -13.894  -1.782  1.00  0.00     0.135 A 
ATOM     84  C   UNL     1       8.490 -11.728  -1.668  1.00  0.00     0.135 A 
ATOM     85  F   UNL     1       6.853 -14.939  -1.198  1.00  0.00    -0.206 F 
ATOM     86  C   UNL     1       7.689 -13.944  -3.153  1.00  0.00     0.059 A 
ATOM     87  C   UNL     1       8.709 -11.744  -3.042  1.00  0.00     0.059 A 
ATOM     88  F   UNL     1       8.875 -10.643  -0.977  1.00  0.00    -0.206 F 
ATOM     89  C   UNL     1       8.314 -12.862  -3.775  1.00  0.00     0.060 A 
BRANCH  89  90
ATOM     90  S   UNL     1       8.566 -12.920  -5.562  1.00  0.00     0.124 S 
ATOM     91  O   UNL     1       9.626 -13.916  -5.677  1.00  0.00    -0.237 OA
ATOM     92  O   UNL     1       7.250 -13.329  -6.043  1.00  0.00    -0.237 OA
ATOM     93  O   UNL     1       8.948 -11.550  -5.892  1.00  0.00    -0.744 OA
ENDBRANCH  89  90
ENDBRANCH  57  82
BRANCH  69  94
ATOM     94  C   UNL     1      10.277 -16.443   4.429  1.00  0.00     0.058 A 
ATOM     95  C   UNL     1      11.656 -16.288   4.222  1.00  0.00     0.135 A 
ATOM     96  C   UNL     1       9.806 -17.715   4.793  1.00  0.00     0.135 A 
ATOM     97  F   UNL     1      12.157 -15.095   3.864  1.00  0.00    -0.206 F 
ATOM     98  C   UNL     1      12.534 -17.360   4.348  1.00  0.00     0.059 A 
ATOM     99  C   UNL     1      10.669 -18.794   4.956  1.00  0.00     0.059 A 
ATOM    100  F   UNL     1       8.497 -17.915   5.013  1.00  0.00    -0.206 F 
ATOM    101  C   UNL     1      12.030 -18.609   4.719  1.00  0.00     0.060 A 
BRANCH 101 102
ATOM    102  S   UNL     1      13.185 -19.982   4.915  1.00  0.00     0.124 S 
ATOM    103  O   UNL     1      13.521 -20.284   3.528  1.00  0.00    -0.237 OA
ATOM    104  O   UNL     1      14.251 -19.381   5.710  1.00  0.00    -0.237 OA
ATOM    105  O   UNL     1      12.393 -20.996   5.604  1.00  0.00    -0.744 OA
ENDBRANCH 101 102
ENDBRANCH  69  94
ENDBRANCH  43  44
ENDBRANCH  35  38
ENDBRANCH  33  34
ENDBRANCH  32  33
ENDBRANCH   1  32
TORSDOF 17
