REMARK SMILES C[C@@H]1C(C(=O)NCCCCNC(=O)c2ccc(-c3c4nc(c(-c5c(F)cc(S(=O)(=O)[O-])cc5F)c5ccc([nH]5)c(-c5c(F)cc(S(=O)(=O)[O-])cc5F)c5nc(c(-c6c(F)cc(S(=O)(=O)[O-])cc6F)c6ccc3[nH]6)C=C5)C=C4)cc2)=NC2=C1C(=O)C[C@H](c1ccccc1)C2
REMARK SMILES IDX 9 1 8 2 7 3 6 4 4 5 5 6 3 8 1 9 2 10 82 11 80 12 81 13 83 14
REMARK SMILES IDX 93 15 84 16 85 17 86 18 87 19 88 20 92 21 89 22 91 23 90 24
REMARK SMILES IDX 10 25 11 26 12 27 13 29 14 30 15 31 79 32 16 33 78 34 17 35
REMARK SMILES IDX 18 36 19 37 72 38 20 39 77 40 71 41 73 42 21 43 76 44 70 45
REMARK SMILES IDX 69 46 22 48 56 49 35 50 55 51 36 52 39 53 54 54 74 55 37 56
REMARK SMILES IDX 38 57 53 59 75 60 40 61 23 62 24 63 33 64 25 65 26 66 32 67
REMARK SMILES IDX 34 68 27 69 28 70 29 71 30 72 31 73 57 74 58 75 67 76 59 77
REMARK SMILES IDX 60 78 66 79 68 80 61 81 62 82 63 83 64 84 65 85 41 86 42 87
REMARK SMILES IDX 51 88 43 89 44 90 50 91 52 92 45 93 46 94 47 95 48 96 49 97
REMARK H PARENT 6 7 11 28 73 47 39 58
REMARK Flexibility Score: inf
ROOT
ATOM      1  C   UNL     1       5.204  -0.872   0.798  1.00  0.00     0.023 C 
ENDROOT
BRANCH   1   2
ATOM      2  C   UNL     1       3.914  -1.548   0.341  1.00  0.00     0.023 C 
BRANCH   2   3
ATOM      3  C   UNL     1       2.634  -0.732   0.132  1.00  0.00     0.116 C 
BRANCH   3   4
ATOM      4  N   UNL     1       2.634   0.369  -0.812  1.00  0.00    -0.351 N 
ATOM      5  C   UNL     1       1.564   0.924  -1.514  1.00  0.00     0.266 C 
ATOM      6  O   UNL     1       1.642   2.085  -1.901  1.00  0.00    -0.268 OA
ATOM      7  H   UNL     1       3.511   0.782  -0.981  1.00  0.00     0.163 HD
BRANCH   5   8
ATOM      8  C   UNL     1       0.372   0.083  -1.979  1.00  0.00     0.113 C 
ATOM      9  C   UNL     1      -1.718  -0.354  -0.666  1.00  0.00     0.020 C 
ATOM     10  C   UNL     1      -0.364  -0.904  -1.114  1.00  0.00     0.076 C 
ATOM     11  C   UNL     1      -0.512  -1.849  -2.266  1.00  0.00     0.026 C 
ATOM     12  N   UNL     1      -0.023   0.090  -3.231  1.00  0.00    -0.251 NA
ATOM     13  C   UNL     1      -0.573  -1.162  -3.411  1.00  0.00     0.049 C 
ATOM     14  C   UNL     1       0.248  -3.119  -2.355  1.00  0.00     0.161 C 
ATOM     15  C   UNL     1      -0.454  -1.862  -4.733  1.00  0.00     0.065 C 
ATOM     16  O   UNL     1       0.251  -3.881  -1.389  1.00  0.00    -0.294 OA
ATOM     17  C   UNL     1       1.130  -3.398  -3.594  1.00  0.00     0.089 C 
ATOM     18  C   UNL     1       0.971  -2.439  -4.821  1.00  0.00     0.033 C 
BRANCH  18  19
ATOM     19  C   UNL     1       2.050  -1.353  -5.012  1.00  0.00    -0.044 A 
ATOM     20  C   UNL     1       1.727  -0.111  -5.603  1.00  0.00     0.004 A 
ATOM     21  C   UNL     1       3.383  -1.532  -4.619  1.00  0.00     0.004 A 
ATOM     22  C   UNL     1       2.630   0.952  -5.638  1.00  0.00     0.000 A 
ATOM     23  C   UNL     1       4.302  -0.473  -4.681  1.00  0.00     0.000 A 
ATOM     24  C   UNL     1       3.916   0.776  -5.157  1.00  0.00     0.000 A 
ENDBRANCH  18  19
ENDBRANCH   5   8
ENDBRANCH   3   4
ENDBRANCH   2   3
ENDBRANCH   1   2
BRANCH   1  25
ATOM     25  C   UNL     1       5.078   0.071   1.979  1.00  0.00     0.116 C 
BRANCH  25  26
ATOM     26  N   UNL     1       4.676  -0.558   3.237  1.00  0.00    -0.352 N 
ATOM     27  C   UNL     1       4.616   0.050   4.490  1.00  0.00     0.251 C 
ATOM     28  H   UNL     1       4.423  -1.508   3.194  1.00  0.00     0.163 HD
ATOM     29  O   UNL     1       4.586  -0.609   5.511  1.00  0.00    -0.269 OA
BRANCH  27  30
ATOM     30  C   UNL     1       4.602   1.530   4.537  1.00  0.00     0.039 A 
ATOM     31  C   UNL     1       5.394   2.248   5.435  1.00  0.00     0.014 A 
ATOM     32  C   UNL     1       3.833   2.191   3.586  1.00  0.00     0.014 A 
ATOM     33  C   UNL     1       5.484   3.633   5.287  1.00  0.00     0.010 A 
ATOM     34  C   UNL     1       4.070   3.515   3.325  1.00  0.00     0.010 A 
ATOM     35  C   UNL     1       4.847   4.261   4.202  1.00  0.00    -0.014 A 
BRANCH  35  36
ATOM     36  C   UNL     1       5.072   5.676   3.910  1.00  0.00     0.031 A 
ATOM     37  C   UNL     1       6.503   6.091   3.883  1.00  0.00     0.074 A 
ATOM     38  C   UNL     1       4.100   6.517   3.490  1.00  0.00     0.049 A 
ATOM     39  N   UNL     1       7.114   6.861   4.721  1.00  0.00    -0.248 NA
ATOM     40  C   UNL     1       7.397   5.469   2.892  1.00  0.00     0.031 C 
ATOM     41  C   UNL     1       2.700   6.217   3.165  1.00  0.00     0.029 A 
ATOM     42  N   UNL     1       4.197   7.834   3.159  1.00  0.00    -0.354 N 
ATOM     43  C   UNL     1       8.409   7.013   4.232  1.00  0.00     0.074 A 
ATOM     44  C   UNL     1       8.578   5.994   3.228  1.00  0.00     0.031 C 
ATOM     45  C   UNL     1       2.165   7.238   2.461  1.00  0.00     0.029 A 
ATOM     46  C   UNL     1       3.112   8.335   2.447  1.00  0.00     0.049 A 
ATOM     47  H   UNL     1       4.973   8.387   3.404  1.00  0.00     0.167 HD
ATOM     48  C   UNL     1       9.152   8.117   4.525  1.00  0.00     0.037 A 
ATOM     49  C   UNL     1       3.003   9.561   1.875  1.00  0.00     0.037 A 
ATOM     50  C   UNL     1       8.601   8.837   5.647  1.00  0.00     0.049 A 
ATOM     51  C   UNL     1       3.982  10.442   2.565  1.00  0.00     0.074 A 
ATOM     52  C   UNL     1       8.291   8.494   6.951  1.00  0.00     0.029 A 
ATOM     53  N   UNL     1       7.894   9.989   5.394  1.00  0.00    -0.354 N 
ATOM     54  N   UNL     1       3.889  10.782   3.823  1.00  0.00    -0.248 NA
ATOM     55  C   UNL     1       5.314  10.547   1.989  1.00  0.00     0.031 C 
ATOM     56  C   UNL     1       7.041   9.132   7.209  1.00  0.00     0.029 A 
ATOM     57  C   UNL     1       6.711   9.895   6.088  1.00  0.00     0.049 A 
ATOM     58  H   UNL     1       8.180  10.739   4.824  1.00  0.00     0.167 HD
ATOM     59  C   UNL     1       5.188  10.714   4.306  1.00  0.00     0.074 A 
ATOM     60  C   UNL     1       6.031  10.646   3.112  1.00  0.00     0.031 C 
ATOM     61  C   UNL     1       5.451  10.431   5.617  1.00  0.00     0.037 A 
BRANCH  48  62
ATOM     62  C   UNL     1      10.165   8.731   3.587  1.00  0.00     0.058 A 
ATOM     63  C   UNL     1      11.031   9.740   4.055  1.00  0.00     0.135 A 
ATOM     64  C   UNL     1      10.138   8.554   2.186  1.00  0.00     0.135 A 
ATOM     65  F   UNL     1      11.119  10.011   5.367  1.00  0.00    -0.206 F 
ATOM     66  C   UNL     1      11.774  10.547   3.191  1.00  0.00     0.059 A 
ATOM     67  C   UNL     1      10.911   9.309   1.311  1.00  0.00     0.059 A 
ATOM     68  F   UNL     1       9.289   7.710   1.589  1.00  0.00    -0.206 F 
ATOM     69  C   UNL     1      11.698  10.329   1.818  1.00  0.00     0.060 A 
BRANCH  69  70
ATOM     70  S   UNL     1      12.588  11.419   0.695  1.00  0.00     0.124 S 
ATOM     71  O   UNL     1      11.838  12.661   0.840  1.00  0.00    -0.237 OA
ATOM     72  O   UNL     1      13.931  11.411   1.266  1.00  0.00    -0.237 OA
ATOM     73  O   UNL     1      12.459  10.748  -0.595  1.00  0.00    -0.744 OA
ENDBRANCH  69  70
ENDBRANCH  48  62
BRANCH  49  74
ATOM     74  C   UNL     1       2.364   9.912   0.576  1.00  0.00     0.058 A 
ATOM     75  C   UNL     1       2.164  11.253   0.201  1.00  0.00     0.135 A 
ATOM     76  C   UNL     1       2.196   8.954  -0.445  1.00  0.00     0.135 A 
ATOM     77  F   UNL     1       2.318  12.236   1.101  1.00  0.00    -0.206 F 
ATOM     78  C   UNL     1       1.875  11.626  -1.118  1.00  0.00     0.059 A 
ATOM     79  C   UNL     1       1.897   9.300  -1.763  1.00  0.00     0.059 A 
ATOM     80  F   UNL     1       2.412   7.651  -0.214  1.00  0.00    -0.206 F 
ATOM     81  C   UNL     1       1.766  10.642  -2.100  1.00  0.00     0.060 A 
BRANCH  81  82
ATOM     82  S   UNL     1       1.584  11.127  -3.833  1.00  0.00     0.124 S 
ATOM     83  O   UNL     1       0.223  11.651  -3.860  1.00  0.00    -0.237 OA
ATOM     84  O   UNL     1       2.649  12.113  -3.991  1.00  0.00    -0.237 OA
ATOM     85  O   UNL     1       1.787   9.877  -4.560  1.00  0.00    -0.744 OA
ENDBRANCH  81  82
ENDBRANCH  49  74
BRANCH  61  86
ATOM     86  C   UNL     1       4.313  10.460   6.611  1.00  0.00     0.058 A 
ATOM     87  C   UNL     1       3.182   9.623   6.563  1.00  0.00     0.135 A 
ATOM     88  C   UNL     1       4.455  11.264   7.753  1.00  0.00     0.135 A 
ATOM     89  F   UNL     1       3.014   8.743   5.567  1.00  0.00    -0.206 F 
ATOM     90  C   UNL     1       2.220   9.620   7.578  1.00  0.00     0.059 A 
ATOM     91  C   UNL     1       3.527  11.253   8.791  1.00  0.00     0.059 A 
ATOM     92  F   UNL     1       5.541  12.042   7.895  1.00  0.00    -0.206 F 
ATOM     93  C   UNL     1       2.402  10.439   8.691  1.00  0.00     0.060 A 
BRANCH  93  94
ATOM     94  S   UNL     1       1.194  10.387  10.032  1.00  0.00     0.124 S 
ATOM     95  O   UNL     1       0.037  11.040   9.429  1.00  0.00    -0.237 OA
ATOM     96  O   UNL     1       1.055   8.955  10.282  1.00  0.00    -0.237 OA
ATOM     97  O   UNL     1       1.843  11.137  11.106  1.00  0.00    -0.744 OA
ENDBRANCH  93  94
ENDBRANCH  61  86
ENDBRANCH  35  36
ENDBRANCH  27  30
ENDBRANCH  25  26
ENDBRANCH   1  25
TORSDOF 15
