REMARK SMILES O=C(Cc1ccn(-c2ccccc2F)c1)NCCCCNC(=O)c1ccc(-c2c3nc(c(-c4c(F)cc(S(=O)(=O)[O-])cc4F)c4ccc([nH]4)c(-c4c(F)cc(S(=O)(=O)[O-])cc4F)c4nc(c(-c5c(F)cc(S(=O)(=O)[O-])cc5F)c5ccc2[nH]5)C=C4)C=C3)cc1
REMARK SMILES IDX 19 1 18 2 17 3 16 4 1 5 2 6 3 8 4 9 5 10 15 11 6 12 7 13
REMARK SMILES IDX 8 14 9 15 13 16 10 17 12 18 14 19 11 20 20 21 21 22 22 23
REMARK SMILES IDX 23 25 24 26 25 27 89 28 26 29 88 30 27 31 28 32 29 33 82 34
REMARK SMILES IDX 30 35 87 36 81 37 83 38 31 39 86 40 80 41 79 42 32 44 66 45
REMARK SMILES IDX 45 46 65 47 46 48 49 49 64 50 84 51 47 52 48 53 63 55 85 56
REMARK SMILES IDX 50 57 33 58 34 59 43 60 35 61 36 62 42 63 44 64 37 65 38 66
REMARK SMILES IDX 39 67 40 68 41 69 67 70 68 71 77 72 69 73 70 74 76 75 78 76
REMARK SMILES IDX 71 77 72 78 73 79 74 80 75 81 51 82 52 83 61 84 53 85 54 86
REMARK SMILES IDX 60 87 62 88 55 89 56 90 57 91 58 92 59 93
REMARK H PARENT 16 7 21 24 83 43 49 54
REMARK Flexibility Score: inf
ROOT
ATOM      1  C   UNL     1       4.023   1.918   3.450  1.00  0.00     0.023 C 
ENDROOT
BRANCH   1   2
ATOM      2  C   UNL     1       2.530   1.763   3.122  1.00  0.00     0.023 C 
BRANCH   2   3
ATOM      3  C   UNL     1       2.172   1.908   1.644  1.00  0.00     0.116 C 
BRANCH   3   4
ATOM      4  N   UNL     1       2.828   0.916   0.818  1.00  0.00    -0.356 N 
ATOM      5  O   UNL     1       0.914  -0.164   0.157  1.00  0.00    -0.275 OA
ATOM      6  C   UNL     1       2.131  -0.017   0.075  1.00  0.00     0.224 C 
ATOM      7  H   UNL     1       3.812   0.905   0.786  1.00  0.00     0.163 HD
BRANCH   6   8
ATOM      8  C   UNL     1       2.998  -0.929  -0.780  1.00  0.00     0.137 C 
BRANCH   8   9
ATOM      9  C   UNL     1       3.831  -0.250  -1.828  1.00  0.00    -0.021 A 
ATOM     10  C   UNL     1       4.034   1.136  -2.069  1.00  0.00     0.024 A 
ATOM     11  C   UNL     1       4.587  -0.910  -2.786  1.00  0.00     0.095 A 
ATOM     12  C   UNL     1       4.977   1.261  -3.065  1.00  0.00     0.091 A 
ATOM     13  N   UNL     1       5.299   0.007  -3.536  1.00  0.00    -0.321 N 
BRANCH  13  14
ATOM     14  C   UNL     1       6.214  -0.283  -4.574  1.00  0.00     0.081 A 
ATOM     15  C   UNL     1       7.343   0.525  -4.751  1.00  0.00     0.030 A 
ATOM     16  C   UNL     1       5.993  -1.352  -5.445  1.00  0.00     0.147 A 
ATOM     17  C   UNL     1       8.247   0.243  -5.778  1.00  0.00     0.002 A 
ATOM     18  C   UNL     1       6.875  -1.605  -6.495  1.00  0.00     0.041 A 
ATOM     19  F   UNL     1       4.894  -2.116  -5.351  1.00  0.00    -0.205 F 
ATOM     20  C   UNL     1       8.010  -0.812  -6.656  1.00  0.00     0.003 A 
ENDBRANCH  13  14
ENDBRANCH   8   9
ENDBRANCH   6   8
ENDBRANCH   3   4
ENDBRANCH   2   3
ENDBRANCH   1   2
BRANCH   1  21
ATOM     21  C   UNL     1       4.607   3.288   3.110  1.00  0.00     0.116 C 
BRANCH  21  22
ATOM     22  N   UNL     1       4.035   4.336   3.941  1.00  0.00    -0.352 N 
ATOM     23  C   UNL     1       4.377   5.665   4.011  1.00  0.00     0.251 C 
ATOM     24  H   UNL     1       3.302   4.054   4.534  1.00  0.00     0.163 HD
ATOM     25  O   UNL     1       4.059   6.317   4.998  1.00  0.00    -0.269 OA
BRANCH  23  26
ATOM     26  C   UNL     1       5.138   6.309   2.918  1.00  0.00     0.039 A 
ATOM     27  C   UNL     1       6.120   7.250   3.253  1.00  0.00     0.014 A 
ATOM     28  C   UNL     1       4.835   6.051   1.577  1.00  0.00     0.014 A 
ATOM     29  C   UNL     1       6.841   7.884   2.246  1.00  0.00     0.010 A 
ATOM     30  C   UNL     1       5.576   6.654   0.570  1.00  0.00     0.010 A 
ATOM     31  C   UNL     1       6.582   7.566   0.907  1.00  0.00    -0.014 A 
BRANCH  31  32
ATOM     32  C   UNL     1       7.455   8.120  -0.151  1.00  0.00     0.031 A 
ATOM     33  C   UNL     1       8.821   7.386  -0.198  1.00  0.00     0.074 A 
ATOM     34  C   UNL     1       6.926   9.152  -0.881  1.00  0.00     0.049 A 
ATOM     35  N   UNL     1      10.004   7.824  -0.509  1.00  0.00    -0.248 NA
ATOM     36  C   UNL     1       8.892   5.968   0.258  1.00  0.00     0.031 C 
ATOM     37  C   UNL     1       5.564   9.707  -0.695  1.00  0.00     0.029 A 
ATOM     38  N   UNL     1       7.387   9.940  -1.917  1.00  0.00    -0.354 N 
ATOM     39  C   UNL     1      10.900   6.724  -0.479  1.00  0.00     0.074 A 
ATOM     40  C   UNL     1      10.181   5.642   0.120  1.00  0.00     0.031 C 
ATOM     41  C   UNL     1       5.349  10.762  -1.510  1.00  0.00     0.029 A 
ATOM     42  C   UNL     1       6.527  11.002  -2.316  1.00  0.00     0.049 A 
ATOM     43  H   UNL     1       8.255   9.777  -2.352  1.00  0.00     0.167 HD
ATOM     44  C   UNL     1      12.137   6.737  -1.069  1.00  0.00     0.037 A 
ATOM     45  C   UNL     1       6.777  12.035  -3.186  1.00  0.00     0.037 A 
ATOM     46  C   UNL     1      12.327   7.979  -1.742  1.00  0.00     0.049 A 
ATOM     47  C   UNL     1       8.114  11.746  -3.734  1.00  0.00     0.074 A 
ATOM     48  C   UNL     1      12.571   9.249  -1.294  1.00  0.00     0.029 A 
ATOM     49  N   UNL     1      11.894   8.036  -3.045  1.00  0.00    -0.354 N 
ATOM     50  N   UNL     1       8.397  10.790  -4.569  1.00  0.00    -0.248 NA
ATOM     51  C   UNL     1       9.254  12.498  -3.192  1.00  0.00     0.031 C 
ATOM     52  C   UNL     1      11.793  10.047  -2.158  1.00  0.00     0.029 A 
ATOM     53  C   UNL     1      11.313   9.268  -3.218  1.00  0.00     0.049 A 
ATOM     54  H   UNL     1      11.984   7.329  -3.725  1.00  0.00     0.167 HD
ATOM     55  C   UNL     1       9.751  10.634  -4.393  1.00  0.00     0.074 A 
ATOM     56  C   UNL     1      10.244  11.863  -3.809  1.00  0.00     0.031 C 
ATOM     57  C   UNL     1      10.283   9.399  -4.225  1.00  0.00     0.037 A 
BRANCH  44  58
ATOM     58  C   UNL     1      13.174   5.676  -1.348  1.00  0.00     0.058 A 
ATOM     59  C   UNL     1      12.874   4.366  -1.740  1.00  0.00     0.135 A 
ATOM     60  C   UNL     1      14.513   6.098  -1.569  1.00  0.00     0.135 A 
ATOM     61  F   UNL     1      11.644   3.863  -1.567  1.00  0.00    -0.206 F 
ATOM     62  C   UNL     1      13.812   3.558  -2.397  1.00  0.00     0.059 A 
ATOM     63  C   UNL     1      15.449   5.327  -2.253  1.00  0.00     0.059 A 
ATOM     64  F   UNL     1      14.920   7.317  -1.175  1.00  0.00    -0.206 F 
ATOM     65  C   UNL     1      15.083   4.062  -2.687  1.00  0.00     0.060 A 
BRANCH  65  66
ATOM     66  S   UNL     1      16.218   3.092  -3.709  1.00  0.00     0.124 S 
ATOM     67  O   UNL     1      16.590   2.016  -2.796  1.00  0.00    -0.237 OA
ATOM     68  O   UNL     1      15.374   2.710  -4.835  1.00  0.00    -0.237 OA
ATOM     69  O   UNL     1      17.285   4.037  -4.026  1.00  0.00    -0.744 OA
ENDBRANCH  65  66
ENDBRANCH  44  58
BRANCH  45  70
ATOM     70  C   UNL     1       6.169  13.389  -3.529  1.00  0.00     0.058 A 
ATOM     71  C   UNL     1       6.962  14.362  -4.206  1.00  0.00     0.135 A 
ATOM     72  C   UNL     1       4.909  13.867  -3.141  1.00  0.00     0.135 A 
ATOM     73  F   UNL     1       8.097  14.032  -4.838  1.00  0.00    -0.206 F 
ATOM     74  C   UNL     1       6.664  15.720  -4.249  1.00  0.00     0.059 A 
ATOM     75  C   UNL     1       4.554  15.230  -3.227  1.00  0.00     0.059 A 
ATOM     76  F   UNL     1       3.970  13.037  -2.672  1.00  0.00    -0.206 F 
ATOM     77  C   UNL     1       5.476  16.159  -3.701  1.00  0.00     0.060 A 
BRANCH  77  78
ATOM     78  S   UNL     1       5.194  17.939  -3.606  1.00  0.00     0.124 S 
ATOM     79  O   UNL     1       6.060  18.309  -2.490  1.00  0.00    -0.237 OA
ATOM     80  O   UNL     1       5.628  18.406  -4.919  1.00  0.00    -0.237 OA
ATOM     81  O   UNL     1       3.761  18.041  -3.350  1.00  0.00    -0.744 OA
ENDBRANCH  77  78
ENDBRANCH  45  70
BRANCH  57  82
ATOM     82  C   UNL     1       9.504   8.252  -4.838  1.00  0.00     0.058 A 
ATOM     83  C   UNL     1       8.808   7.290  -4.090  1.00  0.00     0.135 A 
ATOM     84  C   UNL     1       9.430   8.113  -6.231  1.00  0.00     0.135 A 
ATOM     85  F   UNL     1       8.766   7.370  -2.763  1.00  0.00    -0.206 F 
ATOM     86  C   UNL     1       8.131   6.215  -4.665  1.00  0.00     0.059 A 
ATOM     87  C   UNL     1       8.749   7.052  -6.841  1.00  0.00     0.059 A 
ATOM     88  F   UNL     1      10.052   9.001  -7.023  1.00  0.00    -0.206 F 
ATOM     89  C   UNL     1       8.118   6.096  -6.048  1.00  0.00     0.060 A 
BRANCH  89  90
ATOM     90  S   UNL     1       7.337   4.636  -6.769  1.00  0.00     0.124 S 
ATOM     91  O   UNL     1       8.049   3.555  -6.094  1.00  0.00    -0.237 OA
ATOM     92  O   UNL     1       5.941   4.804  -6.378  1.00  0.00    -0.237 OA
ATOM     93  O   UNL     1       7.611   4.769  -8.197  1.00  0.00    -0.744 OA
ENDBRANCH  89  90
ENDBRANCH  57  82
ENDBRANCH  31  32
ENDBRANCH  23  26
ENDBRANCH  21  22
ENDBRANCH   1  21
TORSDOF 16
