REMARK SMILES C[C@H]1CCCCC[C@@H]1[NH2+]Cc1cc(C(=O)NCCCCNC(=O)c2ccc(-c3c4nc(c(-c5c(F)cc(S(=O)(=O)[O-])cc5F)c5ccc([nH]5)c(-c5c(F)cc(S(=O)(=O)[O-])cc5F)c5nc(c(-c6c(F)cc(S(=O)(=O)[O-])cc6F)c6ccc3[nH]6)C=C5)C=C4)cc2)cs1
REMARK SMILES IDX 17 1 16 2 14 3 15 4 13 6 11 7 12 8 91 9 90 10 10 11 9 12
REMARK SMILES IDX 8 15 2 16 1 17 3 18 4 19 7 21 6 22 5 23 18 25 19 26 20 27
REMARK SMILES IDX 21 28 22 29 23 31 24 32 25 33 89 34 26 35 88 36 27 37 28 38
REMARK SMILES IDX 29 39 82 40 30 41 87 42 81 43 83 44 31 45 86 46 80 47 79 48
REMARK SMILES IDX 32 50 66 51 45 52 65 53 46 54 49 55 64 56 84 57 47 58 48 59
REMARK SMILES IDX 63 61 85 62 50 63 33 64 34 65 43 66 35 67 36 68 42 69 44 70
REMARK SMILES IDX 37 71 38 72 39 73 40 74 41 75 67 76 68 77 77 78 69 79 70 80
REMARK SMILES IDX 76 81 78 82 71 83 72 84 73 85 74 86 75 87 51 88 52 89 61 90
REMARK SMILES IDX 53 91 54 92 60 93 62 94 55 95 56 96 57 97 58 98 59 99
REMARK H PARENT 16 5 9 13 9 14 21 30 83 49 49 60
REMARK Flexibility Score: 90.00
ROOT
ATOM      1  C   UNL     1       6.180   4.134  -2.150  1.00  0.00     0.116 C 
ENDROOT
BRANCH   1   2
ATOM      2  N   UNL     1       7.471   3.474  -2.155  1.00  0.00    -0.352 N 
ATOM      3  C   UNL     1       7.814   2.160  -2.357  1.00  0.00     0.252 C 
ATOM      4  O   UNL     1       9.014   1.880  -2.368  1.00  0.00    -0.269 OA
ATOM      5  H   UNL     1       8.235   4.071  -1.982  1.00  0.00     0.163 HD
BRANCH   3   6
ATOM      6  C   UNL     1       6.795   1.145  -2.629  1.00  0.00     0.051 A 
ATOM      7  C   UNL     1       4.698   0.164  -3.009  1.00  0.00     0.059 A 
ATOM      8  C   UNL     1       5.393   1.151  -2.345  1.00  0.00     0.035 A 
ATOM      9  S   UNL     1       5.765  -0.996  -3.666  1.00  0.00    -0.142 S 
ATOM     10  C   UNL     1       7.126  -0.051  -3.248  1.00  0.00     0.079 A 
BRANCH   7  11
ATOM     11  C   UNL     1       3.221   0.071  -3.252  1.00  0.00     0.308 C 
BRANCH  11  12
ATOM     12  N   UNL     1       2.454   0.753  -2.223  1.00  0.00    -0.339 N 
ATOM     13  H   UNL     1       2.722   0.346  -1.327  1.00  0.00     0.346 HD
ATOM     14  H   UNL     1       2.683   1.739  -2.350  1.00  0.00     0.346 HD
BRANCH  12  15
ATOM     15  C   UNL     1       0.986   0.706  -2.302  1.00  0.00     0.185 C 
BRANCH  15  16
ATOM     16  C   UNL     1       0.384  -0.404  -1.405  1.00  0.00     0.044 C 
ATOM     17  C   UNL     1      -1.103  -0.159  -1.093  1.00  0.00     0.014 C 
BRANCH  16  18
ATOM     18  C   UNL     1       0.616  -1.832  -1.905  1.00  0.00     0.009 C 
BRANCH  18  19
ATOM     19  C   UNL     1      -0.105  -2.209  -3.196  1.00  0.00     0.001 CG0
ATOM     20  G   UNL     1       0.520  -1.688  -4.479  1.00  0.00     0.000 G0
ENDBRANCH  18  19
ENDBRANCH  16  18
ENDBRANCH  15  16
BRANCH  15  21
ATOM     21  C   UNL     1       0.323   0.853  -3.684  1.00  0.00     0.065 C 
BRANCH  21  22
ATOM     22  C   UNL     1       0.493  -0.193  -4.784  1.00  0.00     0.006 C 
BRANCH  22  23
ATOM     23  C   UNL     1       0.520  -1.688  -4.479  1.00  0.00     0.000 CG0
ATOM     24  G   UNL     1      -0.105  -2.209  -3.196  1.00  0.00     0.000 G0
ENDBRANCH  22  23
ENDBRANCH  21  22
ENDBRANCH  15  21
ENDBRANCH  12  15
ENDBRANCH  11  12
ENDBRANCH   7  11
ENDBRANCH   3   6
ENDBRANCH   1   2
BRANCH   1  25
ATOM     25  C   UNL     1       5.609   4.213  -0.731  1.00  0.00     0.023 C 
BRANCH  25  26
ATOM     26  C   UNL     1       6.240   5.310   0.125  1.00  0.00     0.023 C 
BRANCH  26  27
ATOM     27  C   UNL     1       6.019   6.720  -0.401  1.00  0.00     0.116 C 
BRANCH  27  28
ATOM     28  N   UNL     1       4.614   7.101  -0.476  1.00  0.00    -0.352 N 
ATOM     29  C   UNL     1       4.091   8.365  -0.321  1.00  0.00     0.251 C 
ATOM     30  H   UNL     1       3.971   6.377  -0.655  1.00  0.00     0.163 HD
ATOM     31  O   UNL     1       2.881   8.556  -0.300  1.00  0.00    -0.269 OA
BRANCH  29  32
ATOM     32  C   UNL     1       5.042   9.479  -0.137  1.00  0.00     0.039 A 
ATOM     33  C   UNL     1       4.987  10.236   1.034  1.00  0.00     0.014 A 
ATOM     34  C   UNL     1       6.069   9.662  -1.065  1.00  0.00     0.014 A 
ATOM     35  C   UNL     1       6.020  11.133   1.314  1.00  0.00     0.010 A 
ATOM     36  C   UNL     1       7.133  10.494  -0.745  1.00  0.00     0.010 A 
ATOM     37  C   UNL     1       7.123  11.234   0.450  1.00  0.00    -0.014 A 
BRANCH  37  38
ATOM     38  C   UNL     1       8.285  12.107   0.750  1.00  0.00     0.031 A 
ATOM     39  C   UNL     1       8.624  13.226  -0.196  1.00  0.00     0.074 A 
ATOM     40  C   UNL     1       9.089  11.833   1.797  1.00  0.00     0.049 A 
ATOM     41  N   UNL     1       9.685  13.988  -0.229  1.00  0.00    -0.248 NA
ATOM     42  C   UNL     1       7.655  13.495  -1.272  1.00  0.00     0.031 C 
ATOM     43  C   UNL     1       8.882  10.757   2.769  1.00  0.00     0.029 A 
ATOM     44  N   UNL     1      10.262  12.422   2.203  1.00  0.00    -0.354 N 
ATOM     45  C   UNL     1       9.523  14.808  -1.339  1.00  0.00     0.074 A 
ATOM     46  C   UNL     1       8.289  14.414  -1.983  1.00  0.00     0.031 C 
ATOM     47  C   UNL     1       9.886  10.769   3.661  1.00  0.00     0.029 A 
ATOM     48  C   UNL     1      10.836  11.817   3.298  1.00  0.00     0.049 A 
ATOM     49  H   UNL     1      10.655  13.205   1.754  1.00  0.00     0.167 HD
ATOM     50  C   UNL     1      10.322  15.812  -1.771  1.00  0.00     0.037 A 
ATOM     51  C   UNL     1      12.006  12.061   3.921  1.00  0.00     0.037 A 
ATOM     52  C   UNL     1      11.533  16.213  -1.107  1.00  0.00     0.049 A 
ATOM     53  C   UNL     1      12.890  13.169   3.410  1.00  0.00     0.074 A 
ATOM     54  C   UNL     1      12.387  17.250  -1.433  1.00  0.00     0.029 A 
ATOM     55  N   UNL     1      12.062  15.595   0.017  1.00  0.00    -0.354 N 
ATOM     56  N   UNL     1      12.701  13.968   2.387  1.00  0.00    -0.248 NA
ATOM     57  C   UNL     1      14.146  13.413   4.136  1.00  0.00     0.031 C 
ATOM     58  C   UNL     1      13.461  17.227  -0.539  1.00  0.00     0.029 A 
ATOM     59  C   UNL     1      13.243  16.217   0.385  1.00  0.00     0.049 A 
ATOM     60  H   UNL     1      11.659  14.827   0.483  1.00  0.00     0.167 HD
ATOM     61  C   UNL     1      13.790  14.833   2.371  1.00  0.00     0.074 A 
ATOM     62  C   UNL     1      14.636  14.459   3.485  1.00  0.00     0.031 C 
ATOM     63  C   UNL     1      14.059  15.850   1.516  1.00  0.00     0.037 A 
BRANCH  50  64
ATOM     64  C   UNL     1       9.913  16.544  -3.020  1.00  0.00     0.058 A 
ATOM     65  C   UNL     1       8.784  17.379  -3.052  1.00  0.00     0.135 A 
ATOM     66  C   UNL     1      10.679  16.436  -4.192  1.00  0.00     0.135 A 
ATOM     67  F   UNL     1       8.005  17.506  -1.965  1.00  0.00    -0.206 F 
ATOM     68  C   UNL     1       8.412  18.054  -4.208  1.00  0.00     0.059 A 
ATOM     69  C   UNL     1      10.344  17.129  -5.351  1.00  0.00     0.059 A 
ATOM     70  F   UNL     1      11.767  15.650  -4.219  1.00  0.00    -0.206 F 
ATOM     71  C   UNL     1       9.199  17.924  -5.353  1.00  0.00     0.060 A 
BRANCH  71  72
ATOM     72  S   UNL     1       8.704  18.814  -6.843  1.00  0.00     0.124 S 
ATOM     73  O   UNL     1       7.523  18.060  -7.252  1.00  0.00    -0.237 OA
ATOM     74  O   UNL     1       8.452  20.158  -6.333  1.00  0.00    -0.237 OA
ATOM     75  O   UNL     1       9.864  18.685  -7.719  1.00  0.00    -0.744 OA
ENDBRANCH  71  72
ENDBRANCH  50  64
BRANCH  51  76
ATOM     76  C   UNL     1      12.406  11.250   5.104  1.00  0.00     0.058 A 
ATOM     77  C   UNL     1      12.448  11.816   6.387  1.00  0.00     0.135 A 
ATOM     78  C   UNL     1      12.748   9.894   4.980  1.00  0.00     0.135 A 
ATOM     79  F   UNL     1      12.138  13.111   6.558  1.00  0.00    -0.206 F 
ATOM     80  C   UNL     1      12.829  11.075   7.501  1.00  0.00     0.059 A 
ATOM     81  C   UNL     1      13.105   9.124   6.083  1.00  0.00     0.059 A 
ATOM     82  F   UNL     1      12.710   9.297   3.778  1.00  0.00    -0.206 F 
ATOM     83  C   UNL     1      13.153   9.727   7.339  1.00  0.00     0.060 A 
BRANCH  83  84
ATOM     84  S   UNL     1      13.602   8.765   8.800  1.00  0.00     0.124 S 
ATOM     85  O   UNL     1      14.918   9.309   9.117  1.00  0.00    -0.237 OA
ATOM     86  O   UNL     1      12.530   9.104   9.730  1.00  0.00    -0.237 OA
ATOM     87  O   UNL     1      13.588   7.389   8.313  1.00  0.00    -0.744 OA
ENDBRANCH  83  84
ENDBRANCH  51  76
BRANCH  63  88
ATOM     88  C   UNL     1      15.282  16.686   1.774  1.00  0.00     0.058 A 
ATOM     89  C   UNL     1      16.575  16.216   1.501  1.00  0.00     0.135 A 
ATOM     90  C   UNL     1      15.142  18.020   2.194  1.00  0.00     0.135 A 
ATOM     91  F   UNL     1      16.764  14.947   1.106  1.00  0.00    -0.206 F 
ATOM     92  C   UNL     1      17.688  17.040   1.634  1.00  0.00     0.059 A 
ATOM     93  C   UNL     1      16.238  18.869   2.306  1.00  0.00     0.059 A 
ATOM     94  F   UNL     1      13.925  18.521   2.460  1.00  0.00    -0.206 F 
ATOM     95  C   UNL     1      17.508  18.369   2.024  1.00  0.00     0.060 A 
BRANCH  95  96
ATOM     96  S   UNL     1      18.952  19.450   2.109  1.00  0.00     0.124 S 
ATOM     97  O   UNL     1      19.634  18.938   3.293  1.00  0.00    -0.237 OA
ATOM     98  O   UNL     1      19.611  19.187   0.834  1.00  0.00    -0.237 OA
ATOM     99  O   UNL     1      18.373  20.783   2.246  1.00  0.00    -0.744 OA
ENDBRANCH  95  96
ENDBRANCH  63  88
ENDBRANCH  37  38
ENDBRANCH  29  32
ENDBRANCH  27  28
ENDBRANCH  26  27
ENDBRANCH  25  26
ENDBRANCH   1  25
TORSDOF 17
