REMARK SMILES Cc1cccc(NC(=O)COc2ccc(N3C[C@@H](C(=O)NCCCCNC(=O)c4ccc(-c5c6nc(c(-c7c(F)cc(S(=O)(=O)[O-])cc7F)c7ccc([nH]7)c(-c7c(F)cc(S(=O)(=O)[O-])cc7F)c7nc(c(-c8c(F)cc(S(=O)(=O)[O-])cc8F)c8ccc5[nH]8)C=C7)C=C6)cc4)CC3=O)cc2)c1
REMARK SMILES IDX 22 1 21 2 19 3 20 4 18 6 16 7 17 8 96 9 95 10 97 11 15 12
REMARK SMILES IDX 12 13 13 14 99 15 14 16 98 17 11 18 10 19 8 20 7 21 9 23
REMARK SMILES IDX 6 24 1 25 2 26 3 27 100 28 4 29 5 30 23 31 24 32 25 33 26 34
REMARK SMILES IDX 27 35 28 37 29 38 30 39 94 40 31 41 93 42 32 43 33 44 34 45
REMARK SMILES IDX 87 46 35 47 92 48 86 49 88 50 36 51 91 52 85 53 84 54 37 56
REMARK SMILES IDX 71 57 50 58 70 59 51 60 54 61 69 62 89 63 52 64 53 65 68 67
REMARK SMILES IDX 90 68 55 69 38 70 39 71 48 72 40 73 41 74 47 75 49 76 42 77
REMARK SMILES IDX 43 78 44 79 45 80 46 81 72 82 73 83 82 84 74 85 75 86 81 87
REMARK SMILES IDX 83 88 76 89 77 90 78 91 79 92 80 93 56 94 57 95 66 96 58 97
REMARK SMILES IDX 59 98 65 99 67 100 60 101 61 102 62 103 63 104 64 105
REMARK H PARENT 21 5 7 22 26 36 88 55 54 66
REMARK Flexibility Score: inf
ROOT
ATOM      1  C   UNL     1      -6.856   5.487  -7.433  1.00  0.00     0.116 C 
ENDROOT
BRANCH   1   2
ATOM      2  N   UNL     1      -7.378   4.654  -8.510  1.00  0.00    -0.356 N 
ATOM      3  C   UNL     1      -6.999   3.461  -9.030  1.00  0.00     0.225 C 
ATOM      4  O   UNL     1      -7.690   3.000  -9.945  1.00  0.00    -0.275 OA
ATOM      5  H   UNL     1      -8.171   5.037  -8.950  1.00  0.00     0.163 HD
BRANCH   3   6
ATOM      6  C   UNL     1      -5.809   2.665  -8.539  1.00  0.00     0.107 C 
ATOM      7  N   UNL     1      -4.796   2.387  -6.426  1.00  0.00    -0.312 N 
ATOM      8  C   UNL     1      -6.010   2.094  -7.150  1.00  0.00     0.139 C 
ATOM      9  C   UNL     1      -3.911   3.175  -7.159  1.00  0.00     0.227 C 
ATOM     10  C   UNL     1      -4.486   3.404  -8.530  1.00  0.00     0.116 C 
ATOM     11  O   UNL     1      -2.809   3.590  -6.831  1.00  0.00    -0.274 OA
BRANCH   7  12
ATOM     12  C   UNL     1      -4.603   1.970  -5.087  1.00  0.00     0.044 A 
ATOM     13  C   UNL     1      -4.231   1.153  -2.415  1.00  0.00     0.120 A 
ATOM     14  C   UNL     1      -4.953   0.357  -3.301  1.00  0.00     0.048 A 
ATOM     15  C   UNL     1      -3.675   2.346  -2.865  1.00  0.00     0.048 A 
ATOM     16  C   UNL     1      -5.166   0.777  -4.618  1.00  0.00     0.030 A 
ATOM     17  C   UNL     1      -3.848   2.741  -4.197  1.00  0.00     0.030 A 
BRANCH  13  18
ATOM     18  O   UNL     1      -4.045   0.639  -1.166  1.00  0.00    -0.484 OA
BRANCH  18  19
ATOM     19  C   UNL     1      -4.248   1.538  -0.088  1.00  0.00     0.329 C 
BRANCH  19  20
ATOM     20  C   UNL     1      -3.132   2.504   0.310  1.00  0.00     0.262 C 
ATOM     21  N   UNL     1      -1.817   2.160   0.372  1.00  0.00    -0.323 N 
ATOM     22  H   UNL     1      -1.230   2.936   0.526  1.00  0.00     0.170 HD
ATOM     23  O   UNL     1      -3.408   3.678   0.593  1.00  0.00    -0.271 OA
BRANCH  21  24
ATOM     24  C   UNL     1      -1.104   0.957   0.266  1.00  0.00     0.041 A 
ATOM     25  C   UNL     1       2.604   0.095  -0.092  1.00  0.00     0.044 C 
ATOM     26  C   UNL     1       1.118  -0.050   0.040  1.00  0.00    -0.049 A 
ATOM     27  C   UNL     1       0.536  -1.319   0.061  1.00  0.00     0.003 A 
ATOM     28  C   UNL     1       0.290   1.077   0.146  1.00  0.00     0.029 A 
ATOM     29  C   UNL     1      -0.844  -1.451   0.202  1.00  0.00     0.002 A 
ATOM     30  C   UNL     1      -1.658  -0.319   0.316  1.00  0.00     0.026 A 
ENDBRANCH  21  24
ENDBRANCH  19  20
ENDBRANCH  18  19
ENDBRANCH  13  18
ENDBRANCH   7  12
ENDBRANCH   3   6
ENDBRANCH   1   2
BRANCH   1  31
ATOM     31  C   UNL     1      -6.144   6.756  -7.929  1.00  0.00     0.023 C 
BRANCH  31  32
ATOM     32  C   UNL     1      -6.906   7.593  -8.960  1.00  0.00     0.023 C 
BRANCH  32  33
ATOM     33  C   UNL     1      -8.190   8.217  -8.428  1.00  0.00     0.116 C 
BRANCH  33  34
ATOM     34  N   UNL     1      -8.103   9.655  -8.226  1.00  0.00    -0.352 N 
ATOM     35  C   UNL     1      -9.159  10.526  -8.022  1.00  0.00     0.251 C 
ATOM     36  H   UNL     1      -7.201  10.049  -8.235  1.00  0.00     0.163 HD
ATOM     37  O   UNL     1      -9.083  11.731  -8.232  1.00  0.00    -0.269 OA
BRANCH  35  38
ATOM     38  C   UNL     1     -10.353   9.958  -7.366  1.00  0.00     0.039 A 
ATOM     39  C   UNL     1     -10.543  10.276  -6.015  1.00  0.00     0.014 A 
ATOM     40  C   UNL     1     -11.052   8.917  -7.971  1.00  0.00     0.014 A 
ATOM     41  C   UNL     1     -11.297   9.426  -5.214  1.00  0.00     0.010 A 
ATOM     42  C   UNL     1     -11.731   8.031  -7.160  1.00  0.00     0.010 A 
ATOM     43  C   UNL     1     -11.804   8.258  -5.777  1.00  0.00    -0.014 A 
BRANCH  43  44
ATOM     44  C   UNL     1     -12.372   7.167  -4.997  1.00  0.00     0.031 A 
ATOM     45  C   UNL     1     -13.835   6.953  -5.006  1.00  0.00     0.074 A 
ATOM     46  C   UNL     1     -11.546   6.299  -4.373  1.00  0.00     0.049 A 
ATOM     47  N   UNL     1     -14.458   6.147  -4.217  1.00  0.00    -0.248 NA
ATOM     48  C   UNL     1     -14.735   7.713  -5.872  1.00  0.00     0.031 C 
ATOM     49  C   UNL     1     -11.871   4.971  -3.863  1.00  0.00     0.029 A 
ATOM     50  N   UNL     1     -10.266   6.557  -3.875  1.00  0.00    -0.354 N 
ATOM     51  C   UNL     1     -15.760   6.059  -4.651  1.00  0.00     0.074 A 
ATOM     52  C   UNL     1     -15.909   7.146  -5.583  1.00  0.00     0.031 C 
ATOM     53  C   UNL     1     -10.960   4.622  -2.942  1.00  0.00     0.029 A 
ATOM     54  C   UNL     1     -10.118   5.782  -2.708  1.00  0.00     0.049 A 
ATOM     55  H   UNL     1      -9.597   7.164  -4.265  1.00  0.00     0.167 HD
ATOM     56  C   UNL     1     -16.500   4.980  -4.268  1.00  0.00     0.037 A 
ATOM     57  C   UNL     1      -9.963   6.385  -1.491  1.00  0.00     0.037 A 
ATOM     58  C   UNL     1     -15.874   4.331  -3.110  1.00  0.00     0.049 A 
ATOM     59  C   UNL     1     -11.099   6.116  -0.526  1.00  0.00     0.074 A 
ATOM     60  C   UNL     1     -15.133   3.174  -2.947  1.00  0.00     0.029 A 
ATOM     61  N   UNL     1     -15.717   5.065  -1.933  1.00  0.00    -0.354 N 
ATOM     62  N   UNL     1     -12.258   5.625  -0.875  1.00  0.00    -0.248 NA
ATOM     63  C   UNL     1     -11.020   6.378   0.909  1.00  0.00     0.031 C 
ATOM     64  C   UNL     1     -14.415   3.288  -1.723  1.00  0.00     0.029 A 
ATOM     65  C   UNL     1     -14.764   4.485  -1.117  1.00  0.00     0.049 A 
ATOM     66  H   UNL     1     -16.217   5.884  -1.714  1.00  0.00     0.167 HD
ATOM     67  C   UNL     1     -13.076   5.542   0.221  1.00  0.00     0.074 A 
ATOM     68  C   UNL     1     -12.242   5.995   1.320  1.00  0.00     0.031 C 
ATOM     69  C   UNL     1     -14.375   5.120   0.139  1.00  0.00     0.037 A 
BRANCH  56  70
ATOM     70  C   UNL     1     -17.650   4.378  -5.070  1.00  0.00     0.058 A 
ATOM     71  C   UNL     1     -18.241   3.158  -4.664  1.00  0.00     0.135 A 
ATOM     72  C   UNL     1     -18.124   4.852  -6.317  1.00  0.00     0.135 A 
ATOM     73  F   UNL     1     -17.900   2.574  -3.506  1.00  0.00    -0.206 F 
ATOM     74  C   UNL     1     -19.178   2.458  -5.441  1.00  0.00     0.059 A 
ATOM     75  C   UNL     1     -19.081   4.191  -7.091  1.00  0.00     0.059 A 
ATOM     76  F   UNL     1     -17.654   5.957  -6.898  1.00  0.00    -0.206 F 
ATOM     77  C   UNL     1     -19.586   2.979  -6.661  1.00  0.00     0.060 A 
BRANCH  77  78
ATOM     78  S   UNL     1     -20.745   2.064  -7.694  1.00  0.00     0.124 S 
ATOM     79  O   UNL     1     -19.951   0.904  -8.084  1.00  0.00    -0.237 OA
ATOM     80  O   UNL     1     -21.846   1.804  -6.773  1.00  0.00    -0.237 OA
ATOM     81  O   UNL     1     -21.050   2.998  -8.775  1.00  0.00    -0.744 OA
ENDBRANCH  77  78
ENDBRANCH  56  70
BRANCH  57  82
ATOM     82  C   UNL     1      -9.138   7.625  -1.564  1.00  0.00     0.058 A 
ATOM     83  C   UNL     1      -7.783   7.476  -1.925  1.00  0.00     0.135 A 
ATOM     84  C   UNL     1      -9.720   8.887  -1.750  1.00  0.00     0.135 A 
ATOM     85  F   UNL     1      -7.171   6.293  -1.752  1.00  0.00    -0.206 F 
ATOM     86  C   UNL     1      -7.092   8.470  -2.611  1.00  0.00     0.059 A 
ATOM     87  C   UNL     1      -9.039   9.904  -2.427  1.00  0.00     0.059 A 
ATOM     88  F   UNL     1     -11.002   9.096  -1.418  1.00  0.00    -0.206 F 
ATOM     89  C   UNL     1      -7.757   9.653  -2.921  1.00  0.00     0.060 A 
BRANCH  89  90
ATOM     90  S   UNL     1      -6.988  10.757  -4.134  1.00  0.00     0.124 S 
ATOM     91  O   UNL     1      -5.722  11.085  -3.489  1.00  0.00    -0.237 OA
ATOM     92  O   UNL     1      -6.891   9.890  -5.309  1.00  0.00    -0.237 OA
ATOM     93  O   UNL     1      -7.944  11.852  -4.242  1.00  0.00    -0.744 OA
ENDBRANCH  89  90
ENDBRANCH  57  82
BRANCH  69  94
ATOM     94  C   UNL     1     -15.383   5.200   1.264  1.00  0.00     0.058 A 
ATOM     95  C   UNL     1     -15.390   6.208   2.244  1.00  0.00     0.135 A 
ATOM     96  C   UNL     1     -16.480   4.306   1.302  1.00  0.00     0.135 A 
ATOM     97  F   UNL     1     -14.473   7.187   2.244  1.00  0.00    -0.206 F 
ATOM     98  C   UNL     1     -16.367   6.280   3.239  1.00  0.00     0.059 A 
ATOM     99  C   UNL     1     -17.496   4.394   2.251  1.00  0.00     0.059 A 
ATOM    100  F   UNL     1     -16.604   3.317   0.404  1.00  0.00    -0.206 F 
ATOM    101  C   UNL     1     -17.416   5.366   3.237  1.00  0.00     0.060 A 
BRANCH 101 102
ATOM    102  S   UNL     1     -18.712   5.476   4.486  1.00  0.00     0.124 S 
ATOM    103  O   UNL     1     -18.208   4.565   5.508  1.00  0.00    -0.237 OA
ATOM    104  O   UNL     1     -18.702   6.892   4.844  1.00  0.00    -0.237 OA
ATOM    105  O   UNL     1     -19.901   5.029   3.768  1.00  0.00    -0.744 OA
ENDBRANCH 101 102
ENDBRANCH  69  94
ENDBRANCH  43  44
ENDBRANCH  35  38
ENDBRANCH  33  34
ENDBRANCH  32  33
ENDBRANCH  31  32
ENDBRANCH   1  31
TORSDOF 19
