REMARK SMILES O=C(NCCCCNC(=O)c1ccc(Cl)nc1NC[C@@H]1C[N@@H+]2CCC[C@@H]2CO1)c1ccc(-c2c3nc(c(-c4c(F)cc(S(=O)(=O)[O-])cc4F)c4ccc([nH]4)c(-c4c(F)cc(S(=O)(=O)[O-])cc4F)c4nc(c(-c5c(F)cc(S(=O)(=O)[O-])cc5F)c5ccc2[nH]5)C=C4)C=C3)cc1
REMARK SMILES IDX 5 1 4 2 3 3 1 4 2 5 29 7 30 8 94 9 31 10 93 11 32 12 33 13
REMARK SMILES IDX 34 14 87 15 35 16 92 17 86 18 88 19 36 20 91 21 85 22 84 23
REMARK SMILES IDX 37 25 71 26 50 27 70 28 51 29 54 30 69 31 89 32 52 33 53 34
REMARK SMILES IDX 68 36 90 37 55 38 38 39 39 40 48 41 40 42 41 43 47 44 49 45
REMARK SMILES IDX 42 46 43 47 44 48 45 49 46 50 72 51 73 52 82 53 74 54 75 55
REMARK SMILES IDX 81 56 83 57 76 58 77 59 78 60 79 61 80 62 56 63 57 64 66 65
REMARK SMILES IDX 58 66 59 67 65 68 67 69 60 70 61 71 62 72 63 73 64 74 6 75
REMARK SMILES IDX 7 76 8 77 9 78 10 80 11 81 12 82 17 83 13 84 16 85 14 86
REMARK SMILES IDX 15 87 18 88 19 90 20 91 21 92 28 93 22 94 27 95 23 96 26 97
REMARK SMILES IDX 24 99 25 100
REMARK H PARENT 3 6 88 24 54 35 8 79 18 89 22 98
REMARK Flexibility Score: inf
ROOT
ATOM      1  C   UNL     1      13.577 -13.290   1.738  1.00  0.00     0.023 C 
ENDROOT
BRANCH   1   2
ATOM      2  C   UNL     1      14.047 -14.726   1.537  1.00  0.00     0.116 C 
BRANCH   2   3
ATOM      3  N   UNL     1      15.391 -14.969   2.038  1.00  0.00    -0.352 N 
ATOM      4  O   UNL     1      17.005 -15.927   3.286  1.00  0.00    -0.269 OA
ATOM      5  C   UNL     1      15.841 -15.947   2.896  1.00  0.00     0.251 C 
ATOM      6  H   UNL     1      16.079 -14.343   1.717  1.00  0.00     0.163 HD
BRANCH   5   7
ATOM      7  C   UNL     1      14.911 -16.993   3.379  1.00  0.00     0.039 A 
ATOM      8  C   UNL     1      14.048 -17.646   2.498  1.00  0.00     0.014 A 
ATOM      9  C   UNL     1      14.885 -17.302   4.742  1.00  0.00     0.014 A 
ATOM     10  C   UNL     1      13.044 -18.468   3.001  1.00  0.00     0.010 A 
ATOM     11  C   UNL     1      13.930 -18.198   5.235  1.00  0.00     0.010 A 
ATOM     12  C   UNL     1      12.966 -18.748   4.376  1.00  0.00    -0.014 A 
BRANCH  12  13
ATOM     13  C   UNL     1      11.870 -19.618   4.879  1.00  0.00     0.031 A 
ATOM     14  C   UNL     1      10.810 -19.077   5.804  1.00  0.00     0.074 A 
ATOM     15  C   UNL     1      11.800 -20.894   4.450  1.00  0.00     0.049 A 
ATOM     16  N   UNL     1       9.752 -19.680   6.285  1.00  0.00    -0.248 NA
ATOM     17  C   UNL     1      10.960 -17.686   6.258  1.00  0.00     0.031 C 
ATOM     18  C   UNL     1      12.775 -21.540   3.567  1.00  0.00     0.029 A 
ATOM     19  N   UNL     1      10.859 -21.866   4.672  1.00  0.00    -0.354 N 
ATOM     20  C   UNL     1       9.127 -18.756   7.115  1.00  0.00     0.074 A 
ATOM     21  C   UNL     1       9.936 -17.556   7.090  1.00  0.00     0.031 C 
ATOM     22  C   UNL     1      12.352 -22.778   3.276  1.00  0.00     0.029 A 
ATOM     23  C   UNL     1      11.104 -23.034   3.988  1.00  0.00     0.049 A 
ATOM     24  H   UNL     1      10.083 -21.741   5.264  1.00  0.00     0.167 HD
ATOM     25  C   UNL     1       7.981 -18.892   7.827  1.00  0.00     0.037 A 
ATOM     26  C   UNL     1      10.404 -24.182   3.936  1.00  0.00     0.037 A 
ATOM     27  C   UNL     1       7.159 -20.075   7.823  1.00  0.00     0.049 A 
ATOM     28  C   UNL     1       9.124 -24.297   4.712  1.00  0.00     0.074 A 
ATOM     29  C   UNL     1       5.959 -20.293   8.480  1.00  0.00     0.029 A 
ATOM     30  N   UNL     1       7.447 -21.239   7.125  1.00  0.00    -0.354 N 
ATOM     31  N   UNL     1       8.537 -23.401   5.469  1.00  0.00    -0.248 NA
ATOM     32  C   UNL     1       8.410 -25.578   4.625  1.00  0.00     0.031 C 
ATOM     33  C   UNL     1       5.537 -21.599   8.203  1.00  0.00     0.029 A 
ATOM     34  C   UNL     1       6.455 -22.181   7.344  1.00  0.00     0.049 A 
ATOM     35  H   UNL     1       8.239 -21.375   6.558  1.00  0.00     0.167 HD
ATOM     36  C   UNL     1       7.375 -24.003   5.935  1.00  0.00     0.074 A 
ATOM     37  C   UNL     1       7.335 -25.334   5.362  1.00  0.00     0.031 C 
ATOM     38  C   UNL     1       6.427 -23.500   6.763  1.00  0.00     0.037 A 
BRANCH  25  39
ATOM     39  C   UNL     1       7.552 -17.734   8.687  1.00  0.00     0.058 A 
ATOM     40  C   UNL     1       7.010 -16.563   8.135  1.00  0.00     0.135 A 
ATOM     41  C   UNL     1       7.650 -17.814  10.086  1.00  0.00     0.135 A 
ATOM     42  F   UNL     1       6.907 -16.428   6.803  1.00  0.00    -0.206 F 
ATOM     43  C   UNL     1       6.606 -15.500   8.938  1.00  0.00     0.059 A 
ATOM     44  C   UNL     1       7.232 -16.772  10.909  1.00  0.00     0.059 A 
ATOM     45  F   UNL     1       8.159 -18.912  10.666  1.00  0.00    -0.206 F 
ATOM     46  C   UNL     1       6.726 -15.612  10.324  1.00  0.00     0.060 A 
BRANCH  46  47
ATOM     47  S   UNL     1       6.205 -14.224  11.355  1.00  0.00     0.124 S 
ATOM     48  O   UNL     1       7.316 -13.296  11.174  1.00  0.00    -0.237 OA
ATOM     49  O   UNL     1       4.943 -13.829  10.737  1.00  0.00    -0.237 OA
ATOM     50  O   UNL     1       6.090 -14.814  12.685  1.00  0.00    -0.744 OA
ENDBRANCH  46  47
ENDBRANCH  25  39
BRANCH  26  51
ATOM     51  C   UNL     1      10.896 -25.305   3.097  1.00  0.00     0.058 A 
ATOM     52  C   UNL     1      10.247 -25.649   1.903  1.00  0.00     0.135 A 
ATOM     53  C   UNL     1      12.041 -26.031   3.456  1.00  0.00     0.135 A 
ATOM     54  F   UNL     1       9.146 -24.984   1.522  1.00  0.00    -0.206 F 
ATOM     55  C   UNL     1      10.711 -26.682   1.095  1.00  0.00     0.059 A 
ATOM     56  C   UNL     1      12.539 -27.051   2.653  1.00  0.00     0.059 A 
ATOM     57  F   UNL     1      12.707 -25.725   4.580  1.00  0.00    -0.206 F 
ATOM     58  C   UNL     1      11.861 -27.375   1.478  1.00  0.00     0.060 A 
BRANCH  58  59
ATOM     59  S   UNL     1      12.497 -28.672   0.394  1.00  0.00     0.124 S 
ATOM     60  O   UNL     1      11.593 -29.775   0.696  1.00  0.00    -0.237 OA
ATOM     61  O   UNL     1      12.352 -28.070  -0.928  1.00  0.00    -0.237 OA
ATOM     62  O   UNL     1      13.874 -28.839   0.849  1.00  0.00    -0.744 OA
ENDBRANCH  58  59
ENDBRANCH  26  51
BRANCH  38  63
ATOM     63  C   UNL     1       5.252 -24.382   7.071  1.00  0.00     0.058 A 
ATOM     64  C   UNL     1       5.360 -25.473   7.947  1.00  0.00     0.135 A 
ATOM     65  C   UNL     1       3.998 -24.120   6.497  1.00  0.00     0.135 A 
ATOM     66  F   UNL     1       6.540 -25.768   8.515  1.00  0.00    -0.206 F 
ATOM     67  C   UNL     1       4.271 -26.294   8.220  1.00  0.00     0.059 A 
ATOM     68  C   UNL     1       2.890 -24.915   6.774  1.00  0.00     0.059 A 
ATOM     69  F   UNL     1       3.840 -23.083   5.660  1.00  0.00    -0.206 F 
ATOM     70  C   UNL     1       3.041 -26.010   7.625  1.00  0.00     0.060 A 
BRANCH  70  71
ATOM     71  S   UNL     1       1.629 -27.073   7.992  1.00  0.00     0.124 S 
ATOM     72  O   UNL     1       1.897 -28.222   7.133  1.00  0.00    -0.237 OA
ATOM     73  O   UNL     1       1.773 -27.307   9.426  1.00  0.00    -0.237 OA
ATOM     74  O   UNL     1       0.482 -26.255   7.609  1.00  0.00    -0.744 OA
ENDBRANCH  70  71
ENDBRANCH  38  63
ENDBRANCH  12  13
ENDBRANCH   5   7
ENDBRANCH   2   3
ENDBRANCH   1   2
BRANCH   1  75
ATOM     75  C   UNL     1      14.423 -12.213   1.060  1.00  0.00     0.023 C 
BRANCH  75  76
ATOM     76  C   UNL     1      14.722 -12.446  -0.420  1.00  0.00     0.116 C 
BRANCH  76  77
ATOM     77  N   UNL     1      13.513 -12.584  -1.213  1.00  0.00    -0.352 N 
ATOM     78  C   UNL     1      12.998 -11.758  -2.178  1.00  0.00     0.255 C 
ATOM     79  H   UNL     1      12.983 -13.393  -1.030  1.00  0.00     0.163 HD
ATOM     80  O   UNL     1      11.849 -11.934  -2.578  1.00  0.00    -0.269 OA
BRANCH  78  81
ATOM     81  C   UNL     1      13.803 -10.659  -2.745  1.00  0.00     0.082 A 
ATOM     82  C   UNL     1      15.088 -10.921  -3.237  1.00  0.00     0.021 A 
ATOM     83  C   UNL     1      13.246  -9.379  -2.899  1.00  0.00     0.140 A 
ATOM     84  C   UNL     1      15.827  -9.884  -3.788  1.00  0.00     0.042 A 
ATOM     85  N   UNL     1      13.972  -8.373  -3.440  1.00  0.00    -0.219 NA
ATOM     86  C   UNL     1      15.226  -8.642  -3.853  1.00  0.00     0.131 A 
ATOM     87  Cl  UNL     1      16.066  -7.295  -4.503  1.00  0.00    -0.062 Cl
BRANCH  83  88
ATOM     88  N   UNL     1      11.970  -9.095  -2.439  1.00  0.00    -0.367 N 
ATOM     89  H   UNL     1      11.512  -9.746  -1.859  1.00  0.00     0.162 HD
BRANCH  88  90
ATOM     90  C   UNL     1      11.292  -7.860  -2.791  1.00  0.00     0.152 C 
BRANCH  90  91
ATOM     91  C   UNL     1      10.279  -7.960  -3.968  1.00  0.00     0.192 C 
ATOM     92  C   UNL     1      10.207  -9.288  -4.784  1.00  0.00     0.296 C 
ATOM     93  O   UNL     1      10.395  -6.788  -4.806  1.00  0.00    -0.364 OA
ATOM     94  N   UNL     1      10.628  -9.303  -6.185  1.00  0.00    -0.328 N 
ATOM     95  C   UNL     1      11.452  -6.948  -5.754  1.00  0.00     0.225 C 
ATOM     96  C   UNL     1      11.553 -10.366  -6.550  1.00  0.00     0.262 C 
ATOM     97  C   UNL     1      11.082  -8.035  -6.760  1.00  0.00     0.210 C 
ATOM     98  H   UNL     1       9.725  -9.504  -6.616  1.00  0.00     0.348 HD
ATOM     99  C   UNL     1      12.069  -9.899  -7.899  1.00  0.00     0.068 C 
ATOM    100  C   UNL     1      12.242  -8.405  -7.685  1.00  0.00     0.073 C 
ENDBRANCH  90  91
ENDBRANCH  88  90
ENDBRANCH  83  88
ENDBRANCH  78  81
ENDBRANCH  76  77
ENDBRANCH  75  76
ENDBRANCH   1  75
TORSDOF 17
