REMARK SMILES COc1c[nH]c(C[N@H+]2CCC[C@@H](c3ccc(C(=O)NCCCCNC(=O)c4ccc(-c5c6nc(c(-c7c(F)cc(S(=O)(=O)[O-])cc7F)c7ccc([nH]7)c(-c7c(F)cc(S(=O)(=O)[O-])cc7F)c7nc(c(-c8c(F)cc(S(=O)(=O)[O-])cc8F)c8ccc5[nH]8)C=C7)C=C6)cc4)cc3)C2)cc1=O
REMARK SMILES IDX 21 1 20 2 19 3 17 4 18 5 16 7 13 8 14 9 94 10 15 11 93 12
REMARK SMILES IDX 12 13 8 14 9 15 95 16 10 18 11 19 7 20 6 21 3 22 4 23 97 24
REMARK SMILES IDX 5 25 96 26 98 27 2 29 1 30 22 31 23 32 24 33 25 34 26 36
REMARK SMILES IDX 27 37 28 38 92 39 29 40 91 41 30 42 31 43 32 44 85 45 33 46
REMARK SMILES IDX 90 47 84 48 86 49 34 50 89 51 83 52 82 53 35 55 69 56 48 57
REMARK SMILES IDX 68 58 49 59 52 60 67 61 87 62 50 63 51 64 66 66 88 67 53 68
REMARK SMILES IDX 36 69 37 70 46 71 38 72 39 73 45 74 47 75 40 76 41 77 42 78
REMARK SMILES IDX 43 79 44 80 70 81 71 82 80 83 72 84 73 85 79 86 81 87 74 88
REMARK SMILES IDX 75 89 76 90 77 91 78 92 54 93 55 94 64 95 56 96 57 97 63 98
REMARK SMILES IDX 65 99 58 100 59 101 60 102 61 103 62 104
REMARK H PARENT 19 6 8 17 5 28 24 35 86 54 52 65
REMARK Flexibility Score: inf
ROOT
ATOM      1  C   UNL     1      -6.992   9.628  -5.035  1.00  0.00     0.023 C 
ENDROOT
BRANCH   1   2
ATOM      2  C   UNL     1      -6.919   8.734  -3.796  1.00  0.00     0.116 C 
BRANCH   2   3
ATOM      3  N   UNL     1      -6.941   7.336  -4.173  1.00  0.00    -0.352 N 
ATOM      4  C   UNL     1      -5.929   6.436  -4.383  1.00  0.00     0.251 C 
ATOM      5  O   UNL     1      -6.242   5.278  -4.663  1.00  0.00    -0.269 OA
ATOM      6  H   UNL     1      -7.844   6.967  -4.303  1.00  0.00     0.163 HD
BRANCH   4   7
ATOM      7  C   UNL     1      -4.486   6.775  -4.228  1.00  0.00     0.039 A 
ATOM      8  C   UNL     1      -1.726   7.238  -3.790  1.00  0.00    -0.039 A 
ATOM      9  C   UNL     1      -2.271   5.951  -3.663  1.00  0.00     0.005 A 
ATOM     10  C   UNL     1      -2.563   8.270  -4.219  1.00  0.00     0.005 A 
ATOM     11  C   UNL     1      -3.634   5.727  -3.862  1.00  0.00     0.014 A 
ATOM     12  C   UNL     1      -3.922   8.033  -4.456  1.00  0.00     0.014 A 
BRANCH   8  13
ATOM     13  C   UNL     1      -0.268   7.532  -3.469  1.00  0.00     0.074 C 
ATOM     14  N   UNL     1       1.548   7.056  -1.762  1.00  0.00    -0.329 N 
ATOM     15  C   UNL     1       2.405   6.527  -2.832  1.00  0.00     0.262 C 
ATOM     16  C   UNL     1       0.125   6.929  -2.104  1.00  0.00     0.270 C 
ATOM     17  H   UNL     1       1.749   8.052  -1.675  1.00  0.00     0.348 HD
ATOM     18  C   UNL     1       2.115   7.200  -4.175  1.00  0.00     0.062 C 
ATOM     19  C   UNL     1       0.655   7.019  -4.579  1.00  0.00     0.020 C 
BRANCH  14  20
ATOM     20  C   UNL     1       1.862   6.447  -0.447  1.00  0.00     0.317 C 
BRANCH  20  21
ATOM     21  C   UNL     1       1.643   4.939  -0.328  1.00  0.00     0.074 A 
ATOM     22  C   UNL     1       0.963   2.168  -0.467  1.00  0.00     0.182 A 
ATOM     23  C   UNL     1       0.045   3.136  -0.353  1.00  0.00     0.133 A 
ATOM     24  C   UNL     1       2.403   2.609  -0.407  1.00  0.00     0.223 A 
ATOM     25  N   UNL     1       0.350   4.462  -0.206  1.00  0.00    -0.357 N 
ATOM     26  C   UNL     1       2.675   4.076  -0.378  1.00  0.00     0.083 A 
ATOM     27  O   UNL     1       3.347   1.823  -0.414  1.00  0.00    -0.286 OA
ATOM     28  H   UNL     1      -0.375   5.098  -0.007  1.00  0.00     0.166 HD
BRANCH  22  29
ATOM     29  O   UNL     1       0.583   0.866  -0.726  1.00  0.00    -0.491 OA
ATOM     30  C   UNL     1       1.121  -0.068   0.201  1.00  0.00     0.278 C 
ENDBRANCH  22  29
ENDBRANCH  20  21
ENDBRANCH  14  20
ENDBRANCH   8  13
ENDBRANCH   4   7
ENDBRANCH   2   3
ENDBRANCH   1   2
BRANCH   1  31
ATOM     31  C   UNL     1      -8.389   9.750  -5.646  1.00  0.00     0.023 C 
BRANCH  31  32
ATOM     32  C   UNL     1      -9.429  10.398  -4.742  1.00  0.00     0.116 C 
BRANCH  32  33
ATOM     33  N   UNL     1      -9.045  11.724  -4.284  1.00  0.00    -0.352 N 
ATOM     34  C   UNL     1      -9.860  12.795  -3.994  1.00  0.00     0.251 C 
ATOM     35  H   UNL     1      -8.079  11.875  -4.167  1.00  0.00     0.163 HD
ATOM     36  O   UNL     1      -9.380  13.881  -3.717  1.00  0.00    -0.269 OA
BRANCH  34  37
ATOM     37  C   UNL     1     -11.325  12.611  -4.071  1.00  0.00     0.039 A 
ATOM     38  C   UNL     1     -12.072  13.502  -4.843  1.00  0.00     0.014 A 
ATOM     39  C   UNL     1     -11.941  11.534  -3.428  1.00  0.00     0.014 A 
ATOM     40  C   UNL     1     -13.436  13.272  -5.026  1.00  0.00     0.010 A 
ATOM     41  C   UNL     1     -13.286  11.271  -3.664  1.00  0.00     0.010 A 
ATOM     42  C   UNL     1     -14.044  12.136  -4.468  1.00  0.00    -0.014 A 
BRANCH  42  43
ATOM     43  C   UNL     1     -15.473  11.830  -4.718  1.00  0.00     0.031 A 
ATOM     44  C   UNL     1     -16.456  11.853  -3.582  1.00  0.00     0.074 A 
ATOM     45  C   UNL     1     -15.867  11.463  -5.953  1.00  0.00     0.049 A 
ATOM     46  N   UNL     1     -17.728  11.549  -3.586  1.00  0.00    -0.248 NA
ATOM     47  C   UNL     1     -15.935  12.243  -2.262  1.00  0.00     0.031 C 
ATOM     48  C   UNL     1     -14.992  11.348  -7.122  1.00  0.00     0.029 A 
ATOM     49  N   UNL     1     -17.103  11.105  -6.429  1.00  0.00    -0.354 N 
ATOM     50  C   UNL     1     -18.155  11.694  -2.272  1.00  0.00     0.074 A 
ATOM     51  C   UNL     1     -16.997  12.068  -1.489  1.00  0.00     0.031 C 
ATOM     52  C   UNL     1     -15.722  10.967  -8.183  1.00  0.00     0.029 A 
ATOM     53  C   UNL     1     -17.108  10.780  -7.765  1.00  0.00     0.049 A 
ATOM     54  H   UNL     1     -17.911  11.083  -5.867  1.00  0.00     0.167 HD
ATOM     55  C   UNL     1     -19.404  11.553  -1.768  1.00  0.00     0.037 A 
ATOM     56  C   UNL     1     -18.115  10.373  -8.560  1.00  0.00     0.037 A 
ATOM     57  C   UNL     1     -20.557  11.214  -2.559  1.00  0.00     0.049 A 
ATOM     58  C   UNL     1     -19.497  10.240  -7.982  1.00  0.00     0.074 A 
ATOM     59  C   UNL     1     -21.877  11.114  -2.157  1.00  0.00     0.029 A 
ATOM     60  N   UNL     1     -20.527  10.920  -3.914  1.00  0.00    -0.354 N 
ATOM     61  N   UNL     1     -19.897  10.448  -6.750  1.00  0.00    -0.248 NA
ATOM     62  C   UNL     1     -20.565   9.821  -8.900  1.00  0.00     0.031 C 
ATOM     63  C   UNL     1     -22.642  10.728  -3.263  1.00  0.00     0.029 A 
ATOM     64  C   UNL     1     -21.803  10.622  -4.362  1.00  0.00     0.049 A 
ATOM     65  H   UNL     1     -19.718  10.922  -4.475  1.00  0.00     0.167 HD
ATOM     66  C   UNL     1     -21.265  10.205  -6.749  1.00  0.00     0.074 A 
ATOM     67  C   UNL     1     -21.627   9.846  -8.105  1.00  0.00     0.031 C 
ATOM     68  C   UNL     1     -22.143  10.271  -5.718  1.00  0.00     0.037 A 
BRANCH  55  69
ATOM     69  C   UNL     1     -19.585  11.777  -0.293  1.00  0.00     0.058 A 
ATOM     70  C   UNL     1     -19.506  13.061   0.269  1.00  0.00     0.135 A 
ATOM     71  C   UNL     1     -19.861  10.701   0.566  1.00  0.00     0.135 A 
ATOM     72  F   UNL     1     -19.227  14.122  -0.506  1.00  0.00    -0.206 F 
ATOM     73  C   UNL     1     -19.663  13.268   1.635  1.00  0.00     0.059 A 
ATOM     74  C   UNL     1     -20.047  10.888   1.932  1.00  0.00     0.059 A 
ATOM     75  F   UNL     1     -19.945   9.453   0.080  1.00  0.00    -0.206 F 
ATOM     76  C   UNL     1     -19.930  12.174   2.459  1.00  0.00     0.060 A 
BRANCH  76  77
ATOM     77  S   UNL     1     -20.128  12.457   4.231  1.00  0.00     0.124 S 
ATOM     78  O   UNL     1     -18.744  12.657   4.649  1.00  0.00    -0.237 OA
ATOM     79  O   UNL     1     -20.978  13.643   4.268  1.00  0.00    -0.237 OA
ATOM     80  O   UNL     1     -20.755  11.226   4.703  1.00  0.00    -0.744 OA
ENDBRANCH  76  77
ENDBRANCH  55  69
BRANCH  56  81
ATOM     81  C   UNL     1     -17.858  10.089  -9.996  1.00  0.00     0.058 A 
ATOM     82  C   UNL     1     -18.313  10.963 -10.994  1.00  0.00     0.135 A 
ATOM     83  C   UNL     1     -17.141   8.952 -10.398  1.00  0.00     0.135 A 
ATOM     84  F   UNL     1     -19.008  12.061 -10.657  1.00  0.00    -0.206 F 
ATOM     85  C   UNL     1     -18.079  10.715 -12.342  1.00  0.00     0.059 A 
ATOM     86  C   UNL     1     -16.875   8.693 -11.739  1.00  0.00     0.059 A 
ATOM     87  F   UNL     1     -16.669   8.095  -9.480  1.00  0.00    -0.206 F 
ATOM     88  C   UNL     1     -17.357   9.576 -12.705  1.00  0.00     0.060 A 
BRANCH  88  89
ATOM     89  S   UNL     1     -17.012   9.289 -14.455  1.00  0.00     0.124 S 
ATOM     90  O   UNL     1     -18.306   8.817 -14.934  1.00  0.00    -0.237 OA
ATOM     91  O   UNL     1     -16.607  10.616 -14.911  1.00  0.00    -0.237 OA
ATOM     92  O   UNL     1     -15.945   8.293 -14.425  1.00  0.00    -0.744 OA
ENDBRANCH  88  89
ENDBRANCH  56  81
BRANCH  68  93
ATOM     93  C   UNL     1     -23.583   9.969  -6.019  1.00  0.00     0.058 A 
ATOM     94  C   UNL     1     -24.028   8.654  -6.224  1.00  0.00     0.135 A 
ATOM     95  C   UNL     1     -24.536  10.999  -6.045  1.00  0.00     0.135 A 
ATOM     96  F   UNL     1     -23.153   7.636  -6.216  1.00  0.00    -0.206 F 
ATOM     97  C   UNL     1     -25.369   8.371  -6.461  1.00  0.00     0.059 A 
ATOM     98  C   UNL     1     -25.886  10.737  -6.258  1.00  0.00     0.059 A 
ATOM     99  F   UNL     1     -24.162  12.272  -5.846  1.00  0.00    -0.206 F 
ATOM    100  C   UNL     1     -26.291   9.420  -6.474  1.00  0.00     0.060 A 
BRANCH 100 101
ATOM    101  S   UNL     1     -28.035   9.037  -6.740  1.00  0.00     0.124 S 
ATOM    102  O   UNL     1     -28.066   8.795  -8.179  1.00  0.00    -0.237 OA
ATOM    103  O   UNL     1     -28.232   7.864  -5.895  1.00  0.00    -0.237 OA
ATOM    104  O   UNL     1     -28.719  10.246  -6.292  1.00  0.00    -0.744 OA
ENDBRANCH 100 101
ENDBRANCH  68  93
ENDBRANCH  42  43
ENDBRANCH  34  37
ENDBRANCH  32  33
ENDBRANCH  31  32
ENDBRANCH   1  31
TORSDOF 18
