REMARK SMILES O=C(NCCCCNC(=O)c1ccc(-c2c3nc(c(-c4c(F)cc(S(=O)(=O)[O-])cc4F)c4ccc([nH]4)c(-c4c(F)cc(S(=O)(=O)[O-])cc4F)c4nc(c(-c5c(F)cc(S(=O)(=O)[O-])cc5F)c5ccc2[nH]5)C=C4)C=C3)cc1)C1=CN(c2ccccc2)C[NH2+][C@H]1c1ccc(NC(=S)NC(=O)c2cc3ccccc3o2)cc1
REMARK SMILES IDX 4 1 3 2 1 3 2 4 77 6 78 7 88 8 79 9 87 10 86 11 89 14 90 15
REMARK SMILES IDX 109 16 91 17 108 18 92 19 93 20 94 22 95 23 96 24 97 25
REMARK SMILES IDX 98 27 99 28 100 29 107 30 101 31 106 32 102 33 105 34 103 35
REMARK SMILES IDX 104 36 80 37 81 38 85 39 82 40 84 41 83 42 5 43 6 44 7 45
REMARK SMILES IDX 8 46 9 47 10 49 11 50 12 51 76 52 13 53 75 54 14 55 15 56
REMARK SMILES IDX 16 57 69 58 17 59 74 60 68 61 70 62 18 63 73 64 67 65 66 66
REMARK SMILES IDX 19 68 53 69 32 70 52 71 33 72 36 73 51 74 71 75 34 76 35 77
REMARK SMILES IDX 50 79 72 80 37 81 20 82 21 83 30 84 22 85 23 86 29 87 31 88
REMARK SMILES IDX 24 89 25 90 26 91 27 92 28 93 54 94 55 95 64 96 56 97 57 98
REMARK SMILES IDX 63 99 65 100 58 101 59 102 60 103 61 104 62 105 38 106
REMARK SMILES IDX 39 107 48 108 40 109 41 110 47 111 49 112 42 113 43 114
REMARK SMILES IDX 44 115 45 116 46 117
REMARK H PARENT 3 5 87 12 87 13 93 21 96 26 8 48 70 67 36 78
REMARK Flexibility Score: inf
ROOT
ATOM      1  C   UNL     1       4.716   1.306   0.800  1.00  0.00     0.116 C 
ENDROOT
BRANCH   1   2
ATOM      2  N   UNL     1       3.297   1.089   1.046  1.00  0.00    -0.352 N 
ATOM      3  O   UNL     1       1.244   0.244   0.723  1.00  0.00    -0.269 OA
ATOM      4  C   UNL     1       2.438   0.224   0.441  1.00  0.00     0.255 C 
ATOM      5  H   UNL     1       2.902   1.649   1.753  1.00  0.00     0.163 HD
BRANCH   4   6
ATOM      6  C   UNL     1       2.982  -0.703  -0.569  1.00  0.00     0.095 C 
ATOM      7  C   UNL     1       4.040  -1.450  -0.228  1.00  0.00     0.107 C 
ATOM      8  C   UNL     1       2.402  -0.665  -1.947  1.00  0.00     0.253 C 
ATOM      9  N   UNL     1       4.804  -2.157  -1.132  1.00  0.00    -0.300 N 
ATOM     10  N   UNL     1       3.297  -1.212  -2.998  1.00  0.00    -0.319 N 
ATOM     11  C   UNL     1       4.357  -2.125  -2.535  1.00  0.00     0.393 C 
ATOM     12  H   UNL     1       2.718  -1.720  -3.667  1.00  0.00     0.348 HD
ATOM     13  H   UNL     1       3.782  -0.406  -3.393  1.00  0.00     0.348 HD
BRANCH   8  14
ATOM     14  C   UNL     1       0.982  -1.241  -2.086  1.00  0.00     0.014 A 
ATOM     15  C   UNL     1       0.370  -2.056  -1.113  1.00  0.00     0.012 A 
ATOM     16  C   UNL     1       0.269  -1.000  -3.275  1.00  0.00     0.012 A 
ATOM     17  C   UNL     1      -0.812  -2.759  -1.395  1.00  0.00     0.026 A 
ATOM     18  C   UNL     1      -0.909  -1.694  -3.557  1.00  0.00     0.026 A 
ATOM     19  C   UNL     1      -1.379  -2.660  -2.664  1.00  0.00     0.040 A 
BRANCH  19  20
ATOM     20  N   UNL     1      -2.390  -3.511  -3.128  1.00  0.00    -0.332 N 
ATOM     21  H   UNL     1      -2.834  -3.222  -3.958  1.00  0.00     0.169 HD
BRANCH  20  22
ATOM     22  C   UNL     1      -2.845  -4.661  -2.611  1.00  0.00     0.177 C 
ATOM     23  S   UNL     1      -4.506  -4.884  -2.524  1.00  0.00    -0.040 S 
BRANCH  22  24
ATOM     24  N   UNL     1      -2.068  -5.741  -2.271  1.00  0.00    -0.296 N 
ATOM     25  C   UNL     1      -0.864  -6.457  -2.448  1.00  0.00     0.293 C 
ATOM     26  H   UNL     1      -2.584  -6.244  -1.599  1.00  0.00     0.172 HD
ATOM     27  O   UNL     1      -0.949  -7.620  -2.023  1.00  0.00    -0.265 OA
BRANCH  25  28
ATOM     28  C   UNL     1       0.383  -5.987  -3.023  1.00  0.00     0.193 A 
ATOM     29  C   UNL     1       1.118  -4.846  -2.797  1.00  0.00     0.065 A 
ATOM     30  O   UNL     1       1.341  -6.970  -3.291  1.00  0.00    -0.451 OA
ATOM     31  C   UNL     1       2.201  -5.337  -2.034  1.00  0.00     0.021 A 
ATOM     32  C   UNL     1       2.433  -6.596  -2.555  1.00  0.00     0.135 A 
ATOM     33  C   UNL     1       2.984  -4.892  -0.964  1.00  0.00     0.012 A 
ATOM     34  C   UNL     1       3.541  -7.372  -2.250  1.00  0.00     0.048 A 
ATOM     35  C   UNL     1       4.026  -5.716  -0.529  1.00  0.00     0.001 A 
ATOM     36  C   UNL     1       4.340  -6.898  -1.203  1.00  0.00     0.004 A 
ENDBRANCH  25  28
ENDBRANCH  22  24
ENDBRANCH  20  22
ENDBRANCH  19  20
ENDBRANCH   8  14
BRANCH   9  37
ATOM     37  C   UNL     1       5.979  -2.867  -0.772  1.00  0.00     0.046 A 
ATOM     38  C   UNL     1       6.218  -3.258   0.565  1.00  0.00     0.026 A 
ATOM     39  C   UNL     1       6.981  -3.212  -1.695  1.00  0.00     0.026 A 
ATOM     40  C   UNL     1       7.373  -3.946   0.958  1.00  0.00     0.002 A 
ATOM     41  C   UNL     1       8.149  -3.889  -1.306  1.00  0.00     0.002 A 
ATOM     42  C   UNL     1       8.344  -4.257   0.019  1.00  0.00     0.000 A 
ENDBRANCH   9  37
ENDBRANCH   4   6
ENDBRANCH   1   2
BRANCH   1  43
ATOM     43  C   UNL     1       5.034   2.756   0.474  1.00  0.00     0.023 C 
BRANCH  43  44
ATOM     44  C   UNL     1       4.586   3.756   1.533  1.00  0.00     0.023 C 
BRANCH  44  45
ATOM     45  C   UNL     1       4.934   3.380   2.967  1.00  0.00     0.116 C 
BRANCH  45  46
ATOM     46  N   UNL     1       6.349   3.106   3.160  1.00  0.00    -0.352 N 
ATOM     47  C   UNL     1       7.193   3.566   4.139  1.00  0.00     0.251 C 
ATOM     48  H   UNL     1       6.758   2.505   2.496  1.00  0.00     0.163 HD
ATOM     49  O   UNL     1       8.392   3.310   4.085  1.00  0.00    -0.269 OA
BRANCH  47  50
ATOM     50  C   UNL     1       6.654   4.406   5.228  1.00  0.00     0.039 A 
ATOM     51  C   UNL     1       7.315   5.594   5.539  1.00  0.00     0.014 A 
ATOM     52  C   UNL     1       5.484   4.047   5.904  1.00  0.00     0.014 A 
ATOM     53  C   UNL     1       6.765   6.455   6.488  1.00  0.00     0.010 A 
ATOM     54  C   UNL     1       4.893   4.947   6.787  1.00  0.00     0.010 A 
ATOM     55  C   UNL     1       5.531   6.157   7.092  1.00  0.00    -0.014 A 
BRANCH  55  56
ATOM     56  C   UNL     1       4.904   7.122   8.029  1.00  0.00     0.031 A 
ATOM     57  C   UNL     1       4.704   6.765   9.475  1.00  0.00     0.074 A 
ATOM     58  C   UNL     1       4.491   8.317   7.561  1.00  0.00     0.049 A 
ATOM     59  N   UNL     1       4.239   7.504  10.449  1.00  0.00    -0.248 NA
ATOM     60  C   UNL     1       5.046   5.391   9.878  1.00  0.00     0.031 C 
ATOM     61  C   UNL     1       4.561   8.748   6.162  1.00  0.00     0.029 A 
ATOM     62  N   UNL     1       3.944   9.393   8.212  1.00  0.00    -0.354 N 
ATOM     63  C   UNL     1       4.221   6.686  11.572  1.00  0.00     0.074 A 
ATOM     64  C   UNL     1       4.668   5.378  11.148  1.00  0.00     0.031 C 
ATOM     65  C   UNL     1       4.126  10.014   6.070  1.00  0.00     0.029 A 
ATOM     66  C   UNL     1       3.724  10.477   7.394  1.00  0.00     0.049 A 
ATOM     67  H   UNL     1       3.730   9.391   9.172  1.00  0.00     0.167 HD
ATOM     68  C   UNL     1       3.888   7.003  12.847  1.00  0.00     0.037 A 
ATOM     69  C   UNL     1       3.269  11.711   7.684  1.00  0.00     0.037 A 
ATOM     70  C   UNL     1       3.468   8.316  13.265  1.00  0.00     0.049 A 
ATOM     71  C   UNL     1       2.944  12.051   9.112  1.00  0.00     0.074 A 
ATOM     72  C   UNL     1       3.183   8.764  14.543  1.00  0.00     0.029 A 
ATOM     73  N   UNL     1       3.265   9.392  12.411  1.00  0.00    -0.354 N 
ATOM     74  N   UNL     1       3.022  11.293  10.180  1.00  0.00    -0.248 NA
ATOM     75  C   UNL     1       2.483  13.420   9.375  1.00  0.00     0.031 C 
ATOM     76  C   UNL     1       2.767  10.098  14.457  1.00  0.00     0.029 A 
ATOM     77  C   UNL     1       2.838  10.496  13.131  1.00  0.00     0.049 A 
ATOM     78  H   UNL     1       3.405   9.373  11.437  1.00  0.00     0.167 HD
ATOM     79  C   UNL     1       2.644  12.100  11.246  1.00  0.00     0.074 A 
ATOM     80  C   UNL     1       2.356  13.409  10.694  1.00  0.00     0.031 C 
ATOM     81  C   UNL     1       2.545  11.789  12.564  1.00  0.00     0.037 A 
BRANCH  68  82
ATOM     82  C   UNL     1       3.965   5.909  13.877  1.00  0.00     0.058 A 
ATOM     83  C   UNL     1       5.193   5.373  14.298  1.00  0.00     0.135 A 
ATOM     84  C   UNL     1       2.795   5.396  14.460  1.00  0.00     0.135 A 
ATOM     85  F   UNL     1       6.343   5.815  13.762  1.00  0.00    -0.206 F 
ATOM     86  C   UNL     1       5.258   4.344  15.231  1.00  0.00     0.059 A 
ATOM     87  C   UNL     1       2.838   4.386  15.418  1.00  0.00     0.059 A 
ATOM     88  F   UNL     1       1.593   5.870  14.096  1.00  0.00    -0.206 F 
ATOM     89  C   UNL     1       4.073   3.853  15.782  1.00  0.00     0.060 A 
BRANCH  89  90
ATOM     90  S   UNL     1       4.172   2.510  16.984  1.00  0.00     0.124 S 
ATOM     91  O   UNL     1       4.478   1.372  16.123  1.00  0.00    -0.237 OA
ATOM     92  O   UNL     1       5.253   2.950  17.859  1.00  0.00    -0.237 OA
ATOM     93  O   UNL     1       2.844   2.499  17.591  1.00  0.00    -0.744 OA
ENDBRANCH  89  90
ENDBRANCH  68  82
BRANCH  69  94
ATOM     94  C   UNL     1       3.161  12.732   6.609  1.00  0.00     0.058 A 
ATOM     95  C   UNL     1       4.055  13.812   6.552  1.00  0.00     0.135 A 
ATOM     96  C   UNL     1       2.182  12.640   5.608  1.00  0.00     0.135 A 
ATOM     97  F   UNL     1       5.006  13.944   7.490  1.00  0.00    -0.206 F 
ATOM     98  C   UNL     1       3.976  14.772   5.550  1.00  0.00     0.059 A 
ATOM     99  C   UNL     1       2.098  13.575   4.581  1.00  0.00     0.059 A 
ATOM    100  F   UNL     1       1.315  11.616   5.607  1.00  0.00    -0.206 F 
ATOM    101  C   UNL     1       2.995  14.643   4.566  1.00  0.00     0.060 A 
BRANCH 101 102
ATOM    102  S   UNL     1       2.939  15.863   3.235  1.00  0.00     0.124 S 
ATOM    103  O   UNL     1       2.378  17.021   3.920  1.00  0.00    -0.237 OA
ATOM    104  O   UNL     1       4.344  15.965   2.852  1.00  0.00    -0.237 OA
ATOM    105  O   UNL     1       2.073  15.234   2.242  1.00  0.00    -0.744 OA
ENDBRANCH 101 102
ENDBRANCH  69  94
BRANCH  81 106
ATOM    106  C   UNL     1       2.131  12.896  13.494  1.00  0.00     0.058 A 
ATOM    107  C   UNL     1       0.823  13.403  13.502  1.00  0.00     0.135 A 
ATOM    108  C   UNL     1       3.058  13.459  14.385  1.00  0.00     0.135 A 
ATOM    109  F   UNL     1      -0.102  12.902  12.666  1.00  0.00    -0.206 F 
ATOM    110  C   UNL     1       0.460  14.465  14.324  1.00  0.00     0.059 A 
ATOM    111  C   UNL     1       2.710  14.501  15.238  1.00  0.00     0.059 A 
ATOM    112  F   UNL     1       4.319  13.000  14.431  1.00  0.00    -0.206 F 
ATOM    113  C   UNL     1       1.415  15.013  15.183  1.00  0.00     0.060 A 
BRANCH 113 114
ATOM    114  S   UNL     1       0.942  16.404  16.232  1.00  0.00     0.124 S 
ATOM    115  O   UNL     1       0.958  17.508  15.278  1.00  0.00    -0.237 OA
ATOM    116  O   UNL     1      -0.375  16.002  16.715  1.00  0.00    -0.237 OA
ATOM    117  O   UNL     1       1.992  16.435  17.246  1.00  0.00    -0.744 OA
ENDBRANCH 113 114
ENDBRANCH  81 106
ENDBRANCH  55  56
ENDBRANCH  47  50
ENDBRANCH  45  46
ENDBRANCH  44  45
ENDBRANCH  43  44
ENDBRANCH   1  43
TORSDOF 20
