REMARK SMILES O=C(CSc1nc2cnccc2n1CCC(F)(F)F)NCCCCNC(=O)c1ccc(-c2c3nc(c(-c4c(F)cc(S(=O)(=O)[O-])cc4F)c4ccc([nH]4)c(-c4c(F)cc(S(=O)(=O)[O-])cc4F)c4nc(c(-c5c(F)cc(S(=O)(=O)[O-])cc5F)c5ccc2[nH]5)C=C4)C=C3)cc1
REMARK SMILES IDX 21 1 20 2 1 3 2 4 3 6 4 7 5 8 6 9 13 10 7 11 12 12 8 13
REMARK SMILES IDX 11 14 9 15 10 16 14 17 15 18 16 19 17 20 18 21 19 22 22 23
REMARK SMILES IDX 23 24 24 25 25 26 26 27 27 29 28 30 29 31 93 32 30 33 92 34
REMARK SMILES IDX 31 35 32 36 33 37 86 38 34 39 91 40 85 41 87 42 35 43 90 44
REMARK SMILES IDX 84 45 83 46 36 48 70 49 49 50 69 51 50 52 53 53 68 54 88 55
REMARK SMILES IDX 51 56 52 57 67 59 89 60 54 61 37 62 38 63 47 64 39 65 40 66
REMARK SMILES IDX 46 67 48 68 41 69 42 70 43 71 44 72 45 73 71 74 72 75 81 76
REMARK SMILES IDX 73 77 74 78 80 79 82 80 75 81 76 82 77 83 78 84 79 85 55 86
REMARK SMILES IDX 56 87 65 88 57 89 58 90 64 91 66 92 59 93 60 94 61 95 62 96
REMARK SMILES IDX 63 97
REMARK H PARENT 20 5 25 28 87 47 53 58
REMARK Flexibility Score: inf
ROOT
ATOM      1  C   UNL     1       2.412   2.201  -1.103  1.00  0.00     0.116 C 
ENDROOT
BRANCH   1   2
ATOM      2  N   UNL     1       3.328   1.179  -0.627  1.00  0.00    -0.355 N 
ATOM      3  O   UNL     1       2.113   0.569   1.200  1.00  0.00    -0.274 OA
ATOM      4  C   UNL     1       3.035   0.338   0.423  1.00  0.00     0.230 C 
ATOM      5  H   UNL     1       4.199   1.083  -1.076  1.00  0.00     0.163 HD
BRANCH   4   6
ATOM      6  C   UNL     1       3.929  -0.896   0.552  1.00  0.00     0.178 C 
BRANCH   6   7
ATOM      7  S   UNL     1       4.494  -1.533  -1.061  1.00  0.00    -0.078 SA
BRANCH   7   8
ATOM      8  C   UNL     1       3.270  -2.642  -1.620  1.00  0.00     0.169 A 
ATOM      9  N   UNL     1       3.452  -3.945  -1.671  1.00  0.00    -0.221 NA
ATOM     10  N   UNL     1       2.171  -2.277  -2.365  1.00  0.00    -0.318 N 
ATOM     11  C   UNL     1       2.535  -4.415  -2.592  1.00  0.00     0.108 A 
ATOM     12  C   UNL     1       1.769  -3.371  -3.096  1.00  0.00     0.072 A 
ATOM     13  C   UNL     1       2.308  -5.700  -3.093  1.00  0.00     0.141 A 
ATOM     14  C   UNL     1       0.828  -3.542  -4.111  1.00  0.00     0.049 A 
ATOM     15  N   UNL     1       1.391  -5.904  -4.082  1.00  0.00    -0.262 NA
ATOM     16  C   UNL     1       0.701  -4.845  -4.565  1.00  0.00     0.113 A 
BRANCH  10  17
ATOM     17  C   UNL     1       1.498  -1.006  -2.421  1.00  0.00     0.134 C 
BRANCH  17  18
ATOM     18  C   UNL     1       0.194  -0.897  -1.628  1.00  0.00     0.137 C 
BRANCH  18  19
ATOM     19  C   UNL     1       0.085  -1.754  -0.386  1.00  0.00     0.390 C 
ATOM     20  F   UNL     1       1.197  -1.728   0.363  1.00  0.00    -0.171 F 
ATOM     21  F   UNL     1      -0.948  -1.340   0.379  1.00  0.00    -0.171 F 
ATOM     22  F   UNL     1      -0.154  -3.043  -0.711  1.00  0.00    -0.171 F 
ENDBRANCH  18  19
ENDBRANCH  17  18
ENDBRANCH  10  17
ENDBRANCH   7   8
ENDBRANCH   6   7
ENDBRANCH   4   6
ENDBRANCH   1   2
BRANCH   1  23
ATOM     23  C   UNL     1       2.887   3.621  -0.859  1.00  0.00     0.023 C 
BRANCH  23  24
ATOM     24  C   UNL     1       4.328   3.894  -1.289  1.00  0.00     0.023 C 
BRANCH  24  25
ATOM     25  C   UNL     1       4.700   3.424  -2.699  1.00  0.00     0.116 C 
BRANCH  25  26
ATOM     26  N   UNL     1       3.964   4.067  -3.764  1.00  0.00    -0.352 N 
ATOM     27  C   UNL     1       4.167   5.210  -4.489  1.00  0.00     0.251 C 
ATOM     28  H   UNL     1       3.147   3.582  -4.021  1.00  0.00     0.163 HD
ATOM     29  O   UNL     1       3.461   5.343  -5.492  1.00  0.00    -0.269 OA
BRANCH  27  30
ATOM     30  C   UNL     1       5.100   6.303  -4.104  1.00  0.00     0.039 A 
ATOM     31  C   UNL     1       6.008   6.257  -3.046  1.00  0.00     0.014 A 
ATOM     32  C   UNL     1       4.968   7.505  -4.824  1.00  0.00     0.014 A 
ATOM     33  C   UNL     1       6.651   7.409  -2.619  1.00  0.00     0.010 A 
ATOM     34  C   UNL     1       5.638   8.654  -4.424  1.00  0.00     0.010 A 
ATOM     35  C   UNL     1       6.425   8.616  -3.279  1.00  0.00    -0.014 A 
BRANCH  35  36
ATOM     36  C   UNL     1       7.094   9.798  -2.754  1.00  0.00     0.031 A 
ATOM     37  C   UNL     1       8.583   9.722  -2.729  1.00  0.00     0.074 A 
ATOM     38  C   UNL     1       6.430  10.911  -2.386  1.00  0.00     0.049 A 
ATOM     39  N   UNL     1       9.366   9.737  -1.700  1.00  0.00    -0.248 NA
ATOM     40  C   UNL     1       9.275   9.459  -4.000  1.00  0.00     0.031 C 
ATOM     41  C   UNL     1       5.015  11.233  -2.579  1.00  0.00     0.029 A 
ATOM     42  N   UNL     1       6.927  12.051  -1.837  1.00  0.00    -0.354 N 
ATOM     43  C   UNL     1      10.666   9.687  -2.201  1.00  0.00     0.074 A 
ATOM     44  C   UNL     1      10.545   9.368  -3.601  1.00  0.00     0.031 C 
ATOM     45  C   UNL     1       4.834  12.560  -2.390  1.00  0.00     0.029 A 
ATOM     46  C   UNL     1       6.084  13.149  -1.942  1.00  0.00     0.049 A 
ATOM     47  H   UNL     1       7.809  12.095  -1.403  1.00  0.00     0.167 HD
ATOM     48  C   UNL     1      11.740  10.097  -1.470  1.00  0.00     0.037 A 
ATOM     49  C   UNL     1       6.434  14.450  -1.769  1.00  0.00     0.037 A 
ATOM     50  C   UNL     1      11.425  10.179  -0.068  1.00  0.00     0.049 A 
ATOM     51  C   UNL     1       7.670  14.456  -0.934  1.00  0.00     0.074 A 
ATOM     52  C   UNL     1      10.997   9.269   0.880  1.00  0.00     0.029 A 
ATOM     53  N   UNL     1      11.189  11.419   0.476  1.00  0.00    -0.354 N 
ATOM     54  N   UNL     1       7.704  14.060   0.311  1.00  0.00    -0.248 NA
ATOM     55  C   UNL     1       8.953  14.443  -1.624  1.00  0.00     0.031 C 
ATOM     56  C   UNL     1      10.071   9.991   1.686  1.00  0.00     0.029 A 
ATOM     57  C   UNL     1      10.042  11.306   1.221  1.00  0.00     0.049 A 
ATOM     58  H   UNL     1      11.735  12.229   0.354  1.00  0.00     0.167 HD
ATOM     59  C   UNL     1       8.897  13.360   0.433  1.00  0.00     0.074 A 
ATOM     60  C   UNL     1       9.656  13.692  -0.772  1.00  0.00     0.031 C 
ATOM     61  C   UNL     1       9.056  12.357   1.347  1.00  0.00     0.037 A 
BRANCH  48  62
ATOM     62  C   UNL     1      12.977  10.738  -2.052  1.00  0.00     0.058 A 
ATOM     63  C   UNL     1      14.100  10.961  -1.227  1.00  0.00     0.135 A 
ATOM     64  C   UNL     1      12.994  11.401  -3.298  1.00  0.00     0.135 A 
ATOM     65  F   UNL     1      14.188  10.382  -0.019  1.00  0.00    -0.206 F 
ATOM     66  C   UNL     1      15.121  11.845  -1.579  1.00  0.00     0.059 A 
ATOM     67  C   UNL     1      14.027  12.244  -3.692  1.00  0.00     0.059 A 
ATOM     68  F   UNL     1      11.963  11.344  -4.150  1.00  0.00    -0.206 F 
ATOM     69  C   UNL     1      15.063  12.497  -2.808  1.00  0.00     0.060 A 
BRANCH  69  70
ATOM     70  S   UNL     1      16.306  13.737  -3.207  1.00  0.00     0.124 S 
ATOM     71  O   UNL     1      16.000  14.779  -2.234  1.00  0.00    -0.237 OA
ATOM     72  O   UNL     1      17.547  13.002  -2.989  1.00  0.00    -0.237 OA
ATOM     73  O   UNL     1      16.015  14.067  -4.600  1.00  0.00    -0.744 OA
ENDBRANCH  69  70
ENDBRANCH  48  62
BRANCH  49  74
ATOM     74  C   UNL     1       6.008  15.600  -2.620  1.00  0.00     0.058 A 
ATOM     75  C   UNL     1       6.323  16.928  -2.275  1.00  0.00     0.135 A 
ATOM     76  C   UNL     1       5.504  15.412  -3.926  1.00  0.00     0.135 A 
ATOM     77  F   UNL     1       6.833  17.207  -1.065  1.00  0.00    -0.206 F 
ATOM     78  C   UNL     1       6.185  17.992  -3.179  1.00  0.00     0.059 A 
ATOM     79  C   UNL     1       5.344  16.455  -4.836  1.00  0.00     0.059 A 
ATOM     80  F   UNL     1       5.232  14.189  -4.402  1.00  0.00    -0.206 F 
ATOM     81  C   UNL     1       5.711  17.740  -4.467  1.00  0.00     0.060 A 
BRANCH  81  82
ATOM     82  S   UNL     1       5.683  19.069  -5.693  1.00  0.00     0.124 S 
ATOM     83  O   UNL     1       4.669  19.965  -5.147  1.00  0.00    -0.237 OA
ATOM     84  O   UNL     1       7.057  19.557  -5.649  1.00  0.00    -0.237 OA
ATOM     85  O   UNL     1       5.308  18.384  -6.928  1.00  0.00    -0.744 OA
ENDBRANCH  81  82
ENDBRANCH  49  74
BRANCH  61  86
ATOM     86  C   UNL     1       8.003  12.152   2.407  1.00  0.00     0.058 A 
ATOM     87  C   UNL     1       6.673  11.782   2.134  1.00  0.00     0.135 A 
ATOM     88  C   UNL     1       8.411  12.117   3.750  1.00  0.00     0.135 A 
ATOM     89  F   UNL     1       6.230  11.682   0.874  1.00  0.00    -0.206 F 
ATOM     90  C   UNL     1       5.786  11.421   3.150  1.00  0.00     0.059 A 
ATOM     91  C   UNL     1       7.553  11.730   4.776  1.00  0.00     0.059 A 
ATOM     92  F   UNL     1       9.685  12.396   4.072  1.00  0.00    -0.206 F 
ATOM     93  C   UNL     1       6.238  11.388   4.468  1.00  0.00     0.060 A 
BRANCH  93  94
ATOM     94  S   UNL     1       5.121  10.817   5.767  1.00  0.00     0.124 S 
ATOM     95  O   UNL     1       4.136  11.897   5.821  1.00  0.00    -0.237 OA
ATOM     96  O   UNL     1       4.634   9.547   5.226  1.00  0.00    -0.237 OA
ATOM     97  O   UNL     1       5.981  10.698   6.935  1.00  0.00    -0.744 OA
ENDBRANCH  93  94
ENDBRANCH  61  86
ENDBRANCH  35  36
ENDBRANCH  27  30
ENDBRANCH  25  26
ENDBRANCH  24  25
ENDBRANCH  23  24
ENDBRANCH   1  23
TORSDOF 19
