REMARK SMILES C[C@H]1[C@H](C(=O)NCCCCNC(=O)c2ccc(-c3c4nc(c(-c5c(F)cc(S(=O)(=O)[O-])cc5F)c5ccc([nH]5)c(-c5c(F)cc(S(=O)(=O)[O-])cc5F)c5nc(c(-c6c(F)cc(S(=O)(=O)[O-])cc6F)c6ccc3[nH]6)C=C5)C=C4)cc2)CCN1S(=O)(=O)C(F)(F)F
REMARK SMILES IDX 9 1 8 2 7 3 6 4 4 5 5 6 3 8 1 9 2 10 82 11 80 12 81 13 83 14
REMARK SMILES IDX 84 15 85 16 86 17 87 18 88 19 89 20 10 21 11 22 12 23 13 25
REMARK SMILES IDX 14 26 15 27 79 28 16 29 78 30 17 31 18 32 19 33 72 34 20 35
REMARK SMILES IDX 77 36 71 37 73 38 21 39 76 40 70 41 69 42 22 44 56 45 35 46
REMARK SMILES IDX 55 47 36 48 39 49 54 50 74 51 37 52 38 53 53 55 75 56 40 57
REMARK SMILES IDX 23 58 24 59 33 60 25 61 26 62 32 63 34 64 27 65 28 66 29 67
REMARK SMILES IDX 30 68 31 69 57 70 58 71 67 72 59 73 60 74 66 75 68 76 61 77
REMARK SMILES IDX 62 78 63 79 64 80 65 81 41 82 42 83 51 84 43 85 44 86 50 87
REMARK SMILES IDX 52 88 45 89 46 90 47 91 48 92 49 93
REMARK H PARENT 6 7 11 24 73 43 39 54
REMARK Flexibility Score: inf
ROOT
ATOM      1  C   UNL     1       0.131   1.038   5.373  1.00  0.00     0.023 C 
ENDROOT
BRANCH   1   2
ATOM      2  C   UNL     1       0.070   0.424   3.980  1.00  0.00     0.023 C 
BRANCH   2   3
ATOM      3  C   UNL     1      -0.938   1.075   3.032  1.00  0.00     0.116 C 
BRANCH   3   4
ATOM      4  N   UNL     1      -0.368   2.179   2.283  1.00  0.00    -0.356 N 
ATOM      5  C   UNL     1      -0.005   2.276   0.975  1.00  0.00     0.224 C 
ATOM      6  O   UNL     1       0.434   3.363   0.588  1.00  0.00    -0.275 OA
ATOM      7  H   UNL     1      -0.218   2.997   2.810  1.00  0.00     0.163 HD
BRANCH   5   8
ATOM      8  C   UNL     1      -0.100   1.116  -0.011  1.00  0.00     0.098 C 
ATOM      9  C   UNL     1       2.061  -0.147  -0.324  1.00  0.00     0.026 C 
ATOM     10  C   UNL     1       0.721  -0.106   0.411  1.00  0.00     0.082 C 
ATOM     11  N   UNL     1      -0.062  -1.312   0.005  1.00  0.00    -0.190 NA
ATOM     12  C   UNL     1      -1.500   0.599  -0.293  1.00  0.00     0.032 C 
ATOM     13  C   UNL     1      -1.282  -0.846  -0.715  1.00  0.00     0.104 C 
BRANCH  11  14
ATOM     14  S   UNL     1      -0.347  -2.560   1.152  1.00  0.00     0.314 S 
ATOM     15  O   UNL     1      -1.257  -1.991   2.132  1.00  0.00    -0.203 OA
ATOM     16  O   UNL     1      -0.801  -3.697   0.368  1.00  0.00    -0.203 OA
BRANCH  14  17
ATOM     17  C   UNL     1       1.302  -2.953   1.969  1.00  0.00     0.511 C 
ATOM     18  F   UNL     1       2.146  -3.621   1.134  1.00  0.00    -0.155 F 
ATOM     19  F   UNL     1       1.961  -1.830   2.375  1.00  0.00    -0.155 F 
ATOM     20  F   UNL     1       1.141  -3.725   3.080  1.00  0.00    -0.155 F 
ENDBRANCH  14  17
ENDBRANCH  11  14
ENDBRANCH   5   8
ENDBRANCH   3   4
ENDBRANCH   2   3
ENDBRANCH   1   2
BRANCH   1  21
ATOM     21  C   UNL     1      -1.181   1.022   6.148  1.00  0.00     0.116 C 
BRANCH  21  22
ATOM     22  N   UNL     1      -1.778  -0.299   6.292  1.00  0.00    -0.352 N 
ATOM     23  C   UNL     1      -2.468  -0.803   7.374  1.00  0.00     0.251 C 
ATOM     24  H   UNL     1      -1.677  -0.905   5.522  1.00  0.00     0.163 HD
ATOM     25  O   UNL     1      -2.851  -1.964   7.389  1.00  0.00    -0.269 OA
BRANCH  23  26
ATOM     26  C   UNL     1      -2.694   0.078   8.541  1.00  0.00     0.039 A 
ATOM     27  C   UNL     1      -2.304  -0.362   9.807  1.00  0.00     0.014 A 
ATOM     28  C   UNL     1      -3.204   1.367   8.363  1.00  0.00     0.014 A 
ATOM     29  C   UNL     1      -2.338   0.529  10.882  1.00  0.00     0.010 A 
ATOM     30  C   UNL     1      -3.158   2.273   9.415  1.00  0.00     0.010 A 
ATOM     31  C   UNL     1      -2.716   1.867  10.683  1.00  0.00    -0.014 A 
BRANCH  31  32
ATOM     32  C   UNL     1      -2.642   2.866  11.780  1.00  0.00     0.031 A 
ATOM     33  C   UNL     1      -3.892   3.555  12.254  1.00  0.00     0.074 A 
ATOM     34  C   UNL     1      -1.442   3.217  12.285  1.00  0.00     0.049 A 
ATOM     35  N   UNL     1      -4.022   4.523  13.124  1.00  0.00    -0.248 NA
ATOM     36  C   UNL     1      -5.159   3.124  11.641  1.00  0.00     0.031 C 
ATOM     37  C   UNL     1      -0.150   2.670  11.863  1.00  0.00     0.029 A 
ATOM     38  N   UNL     1      -1.111   4.129  13.256  1.00  0.00    -0.354 N 
ATOM     39  C   UNL     1      -5.377   4.831  13.146  1.00  0.00     0.074 A 
ATOM     40  C   UNL     1      -6.020   3.983  12.165  1.00  0.00     0.031 C 
ATOM     41  C   UNL     1       0.828   3.239  12.586  1.00  0.00     0.029 A 
ATOM     42  C   UNL     1       0.240   4.214  13.498  1.00  0.00     0.049 A 
ATOM     43  H   UNL     1      -1.779   4.672  13.734  1.00  0.00     0.167 HD
ATOM     44  C   UNL     1      -6.030   5.720  13.931  1.00  0.00     0.037 A 
ATOM     45  C   UNL     1       0.927   4.993  14.357  1.00  0.00     0.037 A 
ATOM     46  C   UNL     1      -5.393   6.529  14.935  1.00  0.00     0.049 A 
ATOM     47  C   UNL     1       0.176   5.947  15.243  1.00  0.00     0.074 A 
ATOM     48  C   UNL     1      -5.976   7.408  15.830  1.00  0.00     0.029 A 
ATOM     49  N   UNL     1      -4.028   6.553  15.183  1.00  0.00    -0.354 N 
ATOM     50  N   UNL     1      -1.114   6.180  15.296  1.00  0.00    -0.248 NA
ATOM     51  C   UNL     1       0.970   6.740  16.192  1.00  0.00     0.031 C 
ATOM     52  C   UNL     1      -4.961   7.985  16.601  1.00  0.00     0.029 A 
ATOM     53  C   UNL     1      -3.749   7.439  16.209  1.00  0.00     0.049 A 
ATOM     54  H   UNL     1      -3.357   6.018  14.700  1.00  0.00     0.167 HD
ATOM     55  C   UNL     1      -1.289   7.128  16.297  1.00  0.00     0.074 A 
ATOM     56  C   UNL     1       0.026   7.418  16.832  1.00  0.00     0.031 C 
ATOM     57  C   UNL     1      -2.434   7.707  16.734  1.00  0.00     0.037 A 
BRANCH  44  58
ATOM     58  C   UNL     1      -7.516   5.851  13.740  1.00  0.00     0.058 A 
ATOM     59  C   UNL     1      -8.399   4.836  14.141  1.00  0.00     0.135 A 
ATOM     60  C   UNL     1      -8.065   7.009  13.167  1.00  0.00     0.135 A 
ATOM     61  F   UNL     1      -7.925   3.700  14.678  1.00  0.00    -0.206 F 
ATOM     62  C   UNL     1      -9.772   4.949  13.950  1.00  0.00     0.059 A 
ATOM     63  C   UNL     1      -9.438   7.155  12.991  1.00  0.00     0.059 A 
ATOM     64  F   UNL     1      -7.265   8.009  12.765  1.00  0.00    -0.206 F 
ATOM     65  C   UNL     1     -10.281   6.112  13.370  1.00  0.00     0.060 A 
BRANCH  65  66
ATOM     66  S   UNL     1     -12.065   6.244  13.124  1.00  0.00     0.124 S 
ATOM     67  O   UNL     1     -12.263   5.376  11.967  1.00  0.00    -0.237 OA
ATOM     68  O   UNL     1     -12.594   5.743  14.389  1.00  0.00    -0.237 OA
ATOM     69  O   UNL     1     -12.269   7.668  12.884  1.00  0.00    -0.744 OA
ENDBRANCH  65  66
ENDBRANCH  44  58
BRANCH  45  70
ATOM     70  C   UNL     1       2.407   4.878  14.443  1.00  0.00     0.058 A 
ATOM     71  C   UNL     1       3.016   4.268  15.549  1.00  0.00     0.135 A 
ATOM     72  C   UNL     1       3.238   5.358  13.420  1.00  0.00     0.135 A 
ATOM     73  F   UNL     1       2.262   3.799  16.555  1.00  0.00    -0.206 F 
ATOM     74  C   UNL     1       4.398   4.150  15.648  1.00  0.00     0.059 A 
ATOM     75  C   UNL     1       4.623   5.233  13.485  1.00  0.00     0.059 A 
ATOM     76  F   UNL     1       2.702   5.933  12.332  1.00  0.00    -0.206 F 
ATOM     77  C   UNL     1       5.194   4.636  14.608  1.00  0.00     0.060 A 
BRANCH  77  78
ATOM     78  S   UNL     1       6.985   4.432  14.719  1.00  0.00     0.124 S 
ATOM     79  O   UNL     1       7.339   5.465  15.685  1.00  0.00    -0.237 OA
ATOM     80  O   UNL     1       7.111   3.054  15.184  1.00  0.00    -0.237 OA
ATOM     81  O   UNL     1       7.433   4.666  13.349  1.00  0.00    -0.744 OA
ENDBRANCH  77  78
ENDBRANCH  45  70
BRANCH  57  82
ATOM     82  C   UNL     1      -2.322   8.689  17.865  1.00  0.00     0.058 A 
ATOM     83  C   UNL     1      -1.821   9.985  17.666  1.00  0.00     0.135 A 
ATOM     84  C   UNL     1      -2.772   8.347  19.150  1.00  0.00     0.135 A 
ATOM     85  F   UNL     1      -1.372  10.357  16.457  1.00  0.00    -0.206 F 
ATOM     86  C   UNL     1      -1.753  10.903  18.708  1.00  0.00     0.059 A 
ATOM     87  C   UNL     1      -2.735   9.257  20.201  1.00  0.00     0.059 A 
ATOM     88  F   UNL     1      -3.269   7.123  19.389  1.00  0.00    -0.206 F 
ATOM     89  C   UNL     1      -2.213  10.530  19.973  1.00  0.00     0.060 A 
BRANCH  89  90
ATOM     90  S   UNL     1      -2.155  11.742  21.310  1.00  0.00     0.124 S 
ATOM     91  O   UNL     1      -0.739  11.724  21.660  1.00  0.00    -0.237 OA
ATOM     92  O   UNL     1      -2.631  12.956  20.655  1.00  0.00    -0.237 OA
ATOM     93  O   UNL     1      -3.058  11.183  22.312  1.00  0.00    -0.744 OA
ENDBRANCH  89  90
ENDBRANCH  57  82
ENDBRANCH  31  32
ENDBRANCH  23  26
ENDBRANCH  21  22
ENDBRANCH   1  21
TORSDOF 16
