REMARK SMILES C[C@H]1C[NH2+]C[C@@H](CC(=O)NCCCCNC(=O)c2ccc(-c3c4nc(c(-c5c(F)cc(S(=O)(=O)[O-])cc5F)c5ccc([nH]5)c(-c5c(F)cc(S(=O)(=O)[O-])cc5F)c5nc(c(-c6c(F)cc(S(=O)(=O)[O-])cc6F)c6ccc3[nH]6)C=C5)C=C4)cc2)C1
REMARK SMILES IDX 13 1 12 2 11 3 10 4 8 5 9 6 7 8 6 9 1 10 2 11 3 12 84 13
REMARK SMILES IDX 4 14 5 15 14 18 15 19 16 20 17 22 18 23 19 24 83 25 20 26
REMARK SMILES IDX 82 27 21 28 22 29 23 30 76 31 24 32 81 33 75 34 77 35 25 36
REMARK SMILES IDX 80 37 74 38 73 39 26 41 60 42 39 43 59 44 40 45 43 46 58 47
REMARK SMILES IDX 78 48 41 49 42 50 57 52 79 53 44 54 27 55 28 56 37 57 29 58
REMARK SMILES IDX 30 59 36 60 38 61 31 62 32 63 33 64 34 65 35 66 61 67 62 68
REMARK SMILES IDX 71 69 63 70 64 71 70 72 72 73 65 74 66 75 67 76 68 77 69 78
REMARK SMILES IDX 45 79 46 80 55 81 47 82 48 83 54 84 56 85 49 86 50 87 51 88
REMARK SMILES IDX 52 89 53 90
REMARK H PARENT 10 7 4 16 4 17 15 21 77 40 43 51
REMARK Flexibility Score: inf
ROOT
ATOM      1  C   UNL     1      -3.264  -3.974  -0.205  1.00  0.00     0.023 C 
ENDROOT
BRANCH   1   2
ATOM      2  C   UNL     1      -2.173  -3.001   0.204  1.00  0.00     0.023 C 
BRANCH   2   3
ATOM      3  C   UNL     1      -0.989  -3.619   0.953  1.00  0.00     0.116 C 
BRANCH   3   4
ATOM      4  N   UNL     1       0.068  -4.010   0.033  1.00  0.00    -0.356 N 
ATOM      5  C   UNL     1       1.246  -3.397  -0.278  1.00  0.00     0.220 C 
ATOM      6  O   UNL     1       1.938  -3.878  -1.177  1.00  0.00    -0.275 OA
ATOM      7  H   UNL     1      -0.094  -4.856  -0.443  1.00  0.00     0.163 HD
BRANCH   5   8
ATOM      8  C   UNL     1       1.708  -2.157   0.469  1.00  0.00     0.109 C 
BRANCH   8   9
ATOM      9  C   UNL     1       1.406  -0.833  -0.264  1.00  0.00     0.054 C 
ATOM     10  C   UNL     1      -2.020   1.014  -0.375  1.00  0.00     0.013 C 
ATOM     11  C   UNL     1      -0.525   0.847  -0.667  1.00  0.00     0.041 C 
ATOM     12  C   UNL     1       0.306   1.865   0.111  1.00  0.00     0.263 C 
ATOM     13  C   UNL     1      -0.100  -0.578  -0.321  1.00  0.00     0.019 C 
ATOM     14  N   UNL     1       1.738   1.636  -0.097  1.00  0.00    -0.346 N 
ATOM     15  C   UNL     1       2.130   0.327   0.434  1.00  0.00     0.264 C 
ATOM     16  H   UNL     1       2.268   2.364   0.382  1.00  0.00     0.346 HD
ATOM     17  H   UNL     1       1.934   1.659  -1.097  1.00  0.00     0.346 HD
ENDBRANCH   8   9
ENDBRANCH   5   8
ENDBRANCH   3   4
ENDBRANCH   2   3
ENDBRANCH   1   2
BRANCH   1  18
ATOM     18  C   UNL     1      -4.087  -4.503   0.952  1.00  0.00     0.116 C 
BRANCH  18  19
ATOM     19  N   UNL     1      -4.831  -3.468   1.662  1.00  0.00    -0.352 N 
ATOM     20  C   UNL     1      -6.148  -3.492   2.071  1.00  0.00     0.251 C 
ATOM     21  H   UNL     1      -4.329  -2.649   1.876  1.00  0.00     0.163 HD
ATOM     22  O   UNL     1      -6.663  -2.508   2.583  1.00  0.00    -0.269 OA
BRANCH  20  23
ATOM     23  C   UNL     1      -6.932  -4.720   1.828  1.00  0.00     0.039 A 
ATOM     24  C   UNL     1      -8.154  -4.630   1.159  1.00  0.00     0.014 A 
ATOM     25  C   UNL     1      -6.388  -5.963   2.156  1.00  0.00     0.014 A 
ATOM     26  C   UNL     1      -8.787  -5.800   0.732  1.00  0.00     0.010 A 
ATOM     27  C   UNL     1      -6.959  -7.112   1.633  1.00  0.00     0.010 A 
ATOM     28  C   UNL     1      -8.168  -7.046   0.921  1.00  0.00    -0.014 A 
BRANCH  28  29
ATOM     29  C   UNL     1      -8.764  -8.313   0.431  1.00  0.00     0.031 A 
ATOM     30  C   UNL     1      -9.072  -9.401   1.425  1.00  0.00     0.074 A 
ATOM     31  C   UNL     1      -8.920  -8.532  -0.890  1.00  0.00     0.049 A 
ATOM     32  N   UNL     1      -9.390 -10.651   1.214  1.00  0.00    -0.248 NA
ATOM     33  C   UNL     1      -8.948  -9.045   2.849  1.00  0.00     0.031 C 
ATOM     34  C   UNL     1      -8.605  -7.579  -1.957  1.00  0.00     0.029 A 
ATOM     35  N   UNL     1      -9.365  -9.642  -1.563  1.00  0.00    -0.354 N 
ATOM     36  C   UNL     1      -9.449 -11.239   2.472  1.00  0.00     0.074 A 
ATOM     37  C   UNL     1      -9.085 -10.224   3.435  1.00  0.00     0.031 C 
ATOM     38  C   UNL     1      -8.890  -8.136  -3.146  1.00  0.00     0.029 A 
ATOM     39  C   UNL     1      -9.367  -9.498  -2.930  1.00  0.00     0.049 A 
ATOM     40  H   UNL     1      -9.657 -10.466  -1.108  1.00  0.00     0.167 HD
ATOM     41  C   UNL     1      -9.803 -12.503   2.799  1.00  0.00     0.037 A 
ATOM     42  C   UNL     1      -9.709 -10.371  -3.898  1.00  0.00     0.037 A 
ATOM     43  C   UNL     1     -10.241 -13.482   1.842  1.00  0.00     0.049 A 
ATOM     44  C   UNL     1     -10.175 -11.748  -3.507  1.00  0.00     0.074 A 
ATOM     45  C   UNL     1     -10.686 -14.771   2.069  1.00  0.00     0.029 A 
ATOM     46  N   UNL     1     -10.312 -13.265   0.474  1.00  0.00    -0.354 N 
ATOM     47  N   UNL     1     -10.254 -12.281  -2.310  1.00  0.00    -0.248 NA
ATOM     48  C   UNL     1     -10.604 -12.641  -4.593  1.00  0.00     0.031 C 
ATOM     49  C   UNL     1     -11.018 -15.339   0.834  1.00  0.00     0.029 A 
ATOM     50  C   UNL     1     -10.805 -14.393  -0.157  1.00  0.00     0.049 A 
ATOM     51  H   UNL     1     -10.052 -12.432   0.019  1.00  0.00     0.167 HD
ATOM     52  C   UNL     1     -10.770 -13.558  -2.496  1.00  0.00     0.074 A 
ATOM     53  C   UNL     1     -10.987 -13.718  -3.920  1.00  0.00     0.031 C 
ATOM     54  C   UNL     1     -11.040 -14.513  -1.573  1.00  0.00     0.037 A 
BRANCH  41  55
ATOM     55  C   UNL     1      -9.746 -12.882   4.252  1.00  0.00     0.058 A 
ATOM     56  C   UNL     1     -10.659 -12.360   5.184  1.00  0.00     0.135 A 
ATOM     57  C   UNL     1      -8.766 -13.770   4.722  1.00  0.00     0.135 A 
ATOM     58  F   UNL     1     -11.603 -11.491   4.791  1.00  0.00    -0.206 F 
ATOM     59  C   UNL     1     -10.574 -12.671   6.536  1.00  0.00     0.059 A 
ATOM     60  C   UNL     1      -8.681 -14.118   6.067  1.00  0.00     0.059 A 
ATOM     61  F   UNL     1      -7.868 -14.296   3.874  1.00  0.00    -0.206 F 
ATOM     62  C   UNL     1      -9.578 -13.546   6.969  1.00  0.00     0.060 A 
BRANCH  62  63
ATOM     63  S   UNL     1      -9.468 -13.928   8.730  1.00  0.00     0.124 S 
ATOM     64  O   UNL     1      -8.823 -12.726   9.247  1.00  0.00    -0.237 OA
ATOM     65  O   UNL     1     -10.868 -14.105   9.102  1.00  0.00    -0.237 OA
ATOM     66  O   UNL     1      -8.657 -15.141   8.762  1.00  0.00    -0.744 OA
ENDBRANCH  62  63
ENDBRANCH  41  55
BRANCH  42  67
ATOM     67  C   UNL     1      -9.665  -9.958  -5.325  1.00  0.00     0.058 A 
ATOM     68  C   UNL     1     -10.849  -9.710  -6.035  1.00  0.00     0.135 A 
ATOM     69  C   UNL     1      -8.449  -9.789  -6.005  1.00  0.00     0.135 A 
ATOM     70  F   UNL     1     -12.037  -9.863  -5.429  1.00  0.00    -0.206 F 
ATOM     71  C   UNL     1     -10.834  -9.325  -7.371  1.00  0.00     0.059 A 
ATOM     72  C   UNL     1      -8.406  -9.385  -7.336  1.00  0.00     0.059 A 
ATOM     73  F   UNL     1      -7.287  -9.996  -5.365  1.00  0.00    -0.206 F 
ATOM     74  C   UNL     1      -9.605  -9.165  -8.014  1.00  0.00     0.060 A 
BRANCH  74  75
ATOM     75  S   UNL     1      -9.592  -8.617  -9.735  1.00  0.00     0.124 S 
ATOM     76  O   UNL     1      -9.974  -9.838 -10.434  1.00  0.00    -0.237 OA
ATOM     77  O   UNL     1     -10.588  -7.548  -9.726  1.00  0.00    -0.237 OA
ATOM     78  O   UNL     1      -8.215  -8.176  -9.935  1.00  0.00    -0.744 OA
ENDBRANCH  74  75
ENDBRANCH  42  67
BRANCH  54  79
ATOM     79  C   UNL     1     -11.651 -15.794  -2.060  1.00  0.00     0.058 A 
ATOM     80  C   UNL     1     -10.882 -16.781  -2.692  1.00  0.00     0.135 A 
ATOM     81  C   UNL     1     -13.006 -16.067  -1.814  1.00  0.00     0.135 A 
ATOM     82  F   UNL     1      -9.584 -16.563  -2.953  1.00  0.00    -0.206 F 
ATOM     83  C   UNL     1     -11.439 -17.996  -3.074  1.00  0.00     0.059 A 
ATOM     84  C   UNL     1     -13.579 -17.283  -2.169  1.00  0.00     0.059 A 
ATOM     85  F   UNL     1     -13.779 -15.155  -1.202  1.00  0.00    -0.206 F 
ATOM     86  C   UNL     1     -12.788 -18.239  -2.804  1.00  0.00     0.060 A 
BRANCH  86  87
ATOM     87  S   UNL     1     -13.487 -19.843  -3.251  1.00  0.00     0.124 S 
ATOM     88  O   UNL     1     -13.667 -19.694  -4.691  1.00  0.00    -0.237 OA
ATOM     89  O   UNL     1     -12.439 -20.770  -2.834  1.00  0.00    -0.237 OA
ATOM     90  O   UNL     1     -14.717 -19.906  -2.466  1.00  0.00    -0.744 OA
ENDBRANCH  86  87
ENDBRANCH  54  79
ENDBRANCH  28  29
ENDBRANCH  20  23
ENDBRANCH  18  19
ENDBRANCH   1  18
TORSDOF 15
