REMARK SMILES CCC[NH+]1CCC(NC(=O)NC2(CC(=O)NCCCCNC(=O)c3ccc(-c4c5nc(c(-c6c(F)cc(S(=O)(=O)[O-])cc6F)c6ccc([nH]6)c(-c6c(F)cc(S(=O)(=O)[O-])cc6F)c6nc(c(-c7c(F)cc(S(=O)(=O)[O-])cc7F)c7ccc4[nH]7)C=C6)C=C5)cc3)CCC2)CC1
REMARK SMILES IDX 17 1 16 2 14 3 15 4 13 6 12 7 90 8 92 9 91 10 11 11 8 12
REMARK SMILES IDX 9 13 10 15 7 17 4 18 5 19 94 20 6 22 93 23 3 24 2 25 1 26
REMARK SMILES IDX 18 27 19 28 20 29 21 30 22 31 23 33 24 34 25 35 89 36 26 37
REMARK SMILES IDX 88 38 27 39 28 40 29 41 82 42 30 43 87 44 81 45 83 46 31 47
REMARK SMILES IDX 86 48 80 49 79 50 32 52 66 53 45 54 65 55 46 56 49 57 64 58
REMARK SMILES IDX 84 59 47 60 48 61 63 63 85 64 50 65 33 66 34 67 43 68 35 69
REMARK SMILES IDX 36 70 42 71 44 72 37 73 38 74 39 75 40 76 41 77 67 78 68 79
REMARK SMILES IDX 77 80 69 81 70 82 76 83 78 84 71 85 72 86 73 87 74 88 75 89
REMARK SMILES IDX 51 90 52 91 61 92 53 93 54 94 60 95 62 96 55 97 56 98 57 99
REMARK SMILES IDX 58 100 59 101
REMARK H PARENT 16 5 8 14 11 16 4 21 21 32 83 51 49 62
REMARK Flexibility Score: inf
ROOT
ATOM      1  C   UNL     1       0.558   3.835  -3.368  1.00  0.00     0.116 C 
ENDROOT
BRANCH   1   2
ATOM      2  N   UNL     1       0.533   5.279  -3.492  1.00  0.00    -0.356 N 
ATOM      3  C   UNL     1       1.294   6.234  -2.894  1.00  0.00     0.222 C 
ATOM      4  O   UNL     1       1.023   7.414  -3.130  1.00  0.00    -0.275 OA
ATOM      5  H   UNL     1      -0.149   5.625  -4.112  1.00  0.00     0.163 HD
BRANCH   3   6
ATOM      6  C   UNL     1       2.430   5.902  -1.942  1.00  0.00     0.128 C 
BRANCH   6   7
ATOM      7  C   UNL     1       2.037   5.425  -0.516  1.00  0.00     0.051 C 
ATOM      8  C   UNL     1       3.154   5.594   0.557  1.00  0.00     0.029 C 
ATOM      9  C   UNL     1       2.268   3.899  -0.451  1.00  0.00     0.029 C 
ATOM     10  C   UNL     1       3.482   4.102   0.461  1.00  0.00     0.005 C 
BRANCH   7  11
ATOM     11  N   UNL     1       0.750   6.080  -0.112  1.00  0.00    -0.332 N 
ATOM     12  N   UNL     1      -0.079   5.491   2.058  1.00  0.00    -0.335 N 
ATOM     13  C   UNL     1       0.011   6.294   0.992  1.00  0.00     0.315 C 
ATOM     14  H   UNL     1      -0.394   5.930   2.881  1.00  0.00     0.165 HD
ATOM     15  O   UNL     1      -0.680   7.318   1.007  1.00  0.00    -0.249 OA
ATOM     16  H   UNL     1       0.309   6.476  -0.898  1.00  0.00     0.165 HD
BRANCH  12  17
ATOM     17  C   UNL     1       0.212   4.090   2.193  1.00  0.00     0.095 C 
ATOM     18  N   UNL     1       0.213   1.241   2.752  1.00  0.00    -0.335 N 
ATOM     19  C   UNL     1       1.029   2.195   3.532  1.00  0.00     0.264 C 
ATOM     20  C   UNL     1      -0.371   1.777   1.522  1.00  0.00     0.264 C 
ATOM     21  H   UNL     1      -0.617   1.030   3.306  1.00  0.00     0.348 HD
ATOM     22  C   UNL     1       0.473   3.622   3.616  1.00  0.00     0.086 C 
ATOM     23  C   UNL     1      -0.893   3.207   1.628  1.00  0.00     0.086 C 
BRANCH  18  24
ATOM     24  C   UNL     1       0.991  -0.004   2.542  1.00  0.00     0.261 C 
BRANCH  24  25
ATOM     25  C   UNL     1       0.534  -1.021   1.476  1.00  0.00     0.058 C 
ATOM     26  C   UNL     1       1.087  -0.762   0.075  1.00  0.00     0.010 C 
ENDBRANCH  24  25
ENDBRANCH  18  24
ENDBRANCH  12  17
ENDBRANCH   7  11
ENDBRANCH   6   7
ENDBRANCH   3   6
ENDBRANCH   1   2
BRANCH   1  27
ATOM     27  C   UNL     1      -0.325   3.340  -2.220  1.00  0.00     0.023 C 
BRANCH  27  28
ATOM     28  C   UNL     1      -1.810   3.182  -2.543  1.00  0.00     0.023 C 
BRANCH  28  29
ATOM     29  C   UNL     1      -2.131   2.023  -3.475  1.00  0.00     0.116 C 
BRANCH  29  30
ATOM     30  N   UNL     1      -1.786   0.717  -2.929  1.00  0.00    -0.352 N 
ATOM     31  C   UNL     1      -2.367  -0.500  -3.210  1.00  0.00     0.251 C 
ATOM     32  H   UNL     1      -1.048   0.702  -2.278  1.00  0.00     0.163 HD
ATOM     33  O   UNL     1      -2.014  -1.507  -2.604  1.00  0.00    -0.269 OA
BRANCH  31  34
ATOM     34  C   UNL     1      -3.457  -0.564  -4.209  1.00  0.00     0.039 A 
ATOM     35  C   UNL     1      -4.649  -1.210  -3.870  1.00  0.00     0.014 A 
ATOM     36  C   UNL     1      -3.329   0.073  -5.445  1.00  0.00     0.014 A 
ATOM     37  C   UNL     1      -5.743  -1.136  -4.736  1.00  0.00     0.010 A 
ATOM     38  C   UNL     1      -4.442   0.213  -6.268  1.00  0.00     0.010 A 
ATOM     39  C   UNL     1      -5.663  -0.381  -5.918  1.00  0.00    -0.014 A 
BRANCH  39  40
ATOM     40  C   UNL     1      -6.843  -0.187  -6.801  1.00  0.00     0.031 A 
ATOM     41  C   UNL     1      -6.814  -0.697  -8.216  1.00  0.00     0.074 A 
ATOM     42  C   UNL     1      -7.903   0.519  -6.357  1.00  0.00     0.049 A 
ATOM     43  N   UNL     1      -7.686  -0.523  -9.175  1.00  0.00    -0.248 NA
ATOM     44  C   UNL     1      -5.632  -1.480  -8.615  1.00  0.00     0.031 C 
ATOM     45  C   UNL     1      -8.032   1.111  -5.022  1.00  0.00     0.029 A 
ATOM     46  N   UNL     1      -9.072   0.870  -6.986  1.00  0.00    -0.354 N 
ATOM     47  C   UNL     1      -7.156  -1.161 -10.290  1.00  0.00     0.074 A 
ATOM     48  C   UNL     1      -5.861  -1.680  -9.905  1.00  0.00     0.031 C 
ATOM     49  C   UNL     1      -9.220   1.731  -4.927  1.00  0.00     0.029 A 
ATOM     50  C   UNL     1      -9.922   1.615  -6.201  1.00  0.00     0.049 A 
ATOM     51  H   UNL     1      -9.282   0.613  -7.912  1.00  0.00     0.167 HD
ATOM     52  C   UNL     1      -7.709  -1.326 -11.515  1.00  0.00     0.037 A 
ATOM     53  C   UNL     1     -11.126   2.149  -6.480  1.00  0.00     0.037 A 
ATOM     54  C   UNL     1      -9.012  -0.841 -11.885  1.00  0.00     0.049 A 
ATOM     55  C   UNL     1     -11.722   1.944  -7.847  1.00  0.00     0.074 A 
ATOM     56  C   UNL     1      -9.675  -0.988 -13.091  1.00  0.00     0.029 A 
ATOM     57  N   UNL     1      -9.857  -0.128 -11.049  1.00  0.00    -0.354 N 
ATOM     58  N   UNL     1     -11.220   1.304  -8.877  1.00  0.00    -0.248 NA
ATOM     59  C   UNL     1     -13.048   2.528  -8.091  1.00  0.00     0.031 C 
ATOM     60  C   UNL     1     -10.913  -0.346 -12.991  1.00  0.00     0.029 A 
ATOM     61  C   UNL     1     -11.035   0.172 -11.712  1.00  0.00     0.049 A 
ATOM     62  H   UNL     1      -9.650   0.128 -10.120  1.00  0.00     0.167 HD
ATOM     63  C   UNL     1     -12.182   1.384  -9.877  1.00  0.00     0.074 A 
ATOM     64  C   UNL     1     -13.299   2.124  -9.328  1.00  0.00     0.031 C 
ATOM     65  C   UNL     1     -12.145   0.889 -11.139  1.00  0.00     0.037 A 
BRANCH  52  66
ATOM     66  C   UNL     1      -6.916  -2.088 -12.540  1.00  0.00     0.058 A 
ATOM     67  C   UNL     1      -6.746  -3.478 -12.442  1.00  0.00     0.135 A 
ATOM     68  C   UNL     1      -6.362  -1.435 -13.652  1.00  0.00     0.135 A 
ATOM     69  F   UNL     1      -7.239  -4.147 -11.388  1.00  0.00    -0.206 F 
ATOM     70  C   UNL     1      -6.036  -4.192 -13.400  1.00  0.00     0.059 A 
ATOM     71  C   UNL     1      -5.669  -2.134 -14.637  1.00  0.00     0.059 A 
ATOM     72  F   UNL     1      -6.494  -0.107 -13.792  1.00  0.00    -0.206 F 
ATOM     73  C   UNL     1      -5.502  -3.512 -14.495  1.00  0.00     0.060 A 
BRANCH  73  74
ATOM     74  S   UNL     1      -4.601  -4.458 -15.741  1.00  0.00     0.124 S 
ATOM     75  O   UNL     1      -3.346  -4.730 -15.045  1.00  0.00    -0.237 OA
ATOM     76  O   UNL     1      -5.471  -5.610 -15.950  1.00  0.00    -0.237 OA
ATOM     77  O   UNL     1      -4.506  -3.534 -16.866  1.00  0.00    -0.744 OA
ENDBRANCH  73  74
ENDBRANCH  52  66
BRANCH  53  78
ATOM     78  C   UNL     1     -11.870   2.915  -5.444  1.00  0.00     0.058 A 
ATOM     79  C   UNL     1     -13.033   2.390  -4.861  1.00  0.00     0.135 A 
ATOM     80  C   UNL     1     -11.454   4.191  -5.037  1.00  0.00     0.135 A 
ATOM     81  F   UNL     1     -13.473   1.174  -5.222  1.00  0.00    -0.206 F 
ATOM     82  C   UNL     1     -13.778   3.115  -3.938  1.00  0.00     0.059 A 
ATOM     83  C   UNL     1     -12.169   4.927  -4.097  1.00  0.00     0.059 A 
ATOM     84  F   UNL     1     -10.337   4.730  -5.551  1.00  0.00    -0.206 F 
ATOM     85  C   UNL     1     -13.340   4.388  -3.567  1.00  0.00     0.060 A 
BRANCH  85  86
ATOM     86  S   UNL     1     -14.307   5.321  -2.360  1.00  0.00     0.124 S 
ATOM     87  O   UNL     1     -15.419   5.790  -3.178  1.00  0.00    -0.237 OA
ATOM     88  O   UNL     1     -14.631   4.302  -1.367  1.00  0.00    -0.237 OA
ATOM     89  O   UNL     1     -13.374   6.349  -1.910  1.00  0.00    -0.744 OA
ENDBRANCH  85  86
ENDBRANCH  53  78
BRANCH  65  90
ATOM     90  C   UNL     1     -13.361   1.090 -11.996  1.00  0.00     0.058 A 
ATOM     91  C   UNL     1     -13.662   2.335 -12.568  1.00  0.00     0.135 A 
ATOM     92  C   UNL     1     -14.206   0.007 -12.290  1.00  0.00     0.135 A 
ATOM     93  F   UNL     1     -12.888   3.401 -12.311  1.00  0.00    -0.206 F 
ATOM     94  C   UNL     1     -14.771   2.505 -13.390  1.00  0.00     0.059 A 
ATOM     95  C   UNL     1     -15.307   0.150 -13.128  1.00  0.00     0.059 A 
ATOM     96  F   UNL     1     -13.955  -1.206 -11.774  1.00  0.00    -0.206 F 
ATOM     97  C   UNL     1     -15.588   1.406 -13.665  1.00  0.00     0.060 A 
BRANCH  97  98
ATOM     98  S   UNL     1     -17.001   1.629 -14.765  1.00  0.00     0.124 S 
ATOM     99  O   UNL     1     -17.954   2.301 -13.887  1.00  0.00    -0.237 OA
ATOM    100  O   UNL     1     -16.440   2.448 -15.836  1.00  0.00    -0.237 OA
ATOM    101  O   UNL     1     -17.352   0.265 -15.147  1.00  0.00    -0.744 OA
ENDBRANCH  97  98
ENDBRANCH  65  90
ENDBRANCH  39  40
ENDBRANCH  31  34
ENDBRANCH  29  30
ENDBRANCH  28  29
ENDBRANCH  27  28
ENDBRANCH   1  27
TORSDOF 19
