REMARK SMILES O=C(NCCCCNC(=O)C1(Cc2ccncc2)Cc2ccccc2C1)c1ccc(-c2c3nc(c(-c4c(F)cc(S(=O)(=O)[O-])cc4F)c4ccc([nH]4)c(-c4c(F)cc(S(=O)(=O)[O-])cc4F)c4nc(c(-c5c(F)cc(S(=O)(=O)[O-])cc5F)c5ccc2[nH]5)C=C4)C=C3)cc1
REMARK SMILES IDX 5 1 4 2 3 3 1 4 2 5 27 7 28 8 92 9 29 10 91 11 30 12 31 13
REMARK SMILES IDX 32 14 85 15 33 16 90 17 84 18 86 19 34 20 89 21 83 22 82 23
REMARK SMILES IDX 35 25 69 26 48 27 68 28 49 29 52 30 67 31 87 32 50 33 51 34
REMARK SMILES IDX 66 36 88 37 53 38 36 39 37 40 46 41 38 42 39 43 45 44 47 45
REMARK SMILES IDX 40 46 41 47 42 48 43 49 44 50 70 51 71 52 80 53 72 54 73 55
REMARK SMILES IDX 79 56 81 57 74 58 75 59 76 60 77 61 78 62 54 63 55 64 64 65
REMARK SMILES IDX 56 66 57 67 63 68 65 69 58 70 59 71 60 72 61 73 62 74 6 75
REMARK SMILES IDX 7 76 8 77 9 78 10 80 11 81 19 82 26 83 20 84 25 85 21 86
REMARK SMILES IDX 24 87 22 88 23 89 12 90 13 91 14 92 18 93 15 94 17 95 16 96
REMARK H PARENT 3 6 86 24 52 35 8 79
REMARK Flexibility Score: inf
ROOT
ATOM      1  C   UNL     1       4.709  -2.612  -0.022  1.00  0.00     0.023 C 
ENDROOT
BRANCH   1   2
ATOM      2  C   UNL     1       4.430  -1.117  -0.107  1.00  0.00     0.116 C 
BRANCH   2   3
ATOM      3  N   UNL     1       3.045  -0.801  -0.424  1.00  0.00    -0.352 N 
ATOM      4  O   UNL     1       1.126   0.391  -0.293  1.00  0.00    -0.269 OA
ATOM      5  C   UNL     1       2.322   0.301  -0.031  1.00  0.00     0.251 C 
ATOM      6  H   UNL     1       2.569  -1.454  -0.987  1.00  0.00     0.163 HD
BRANCH   5   7
ATOM      7  C   UNL     1       3.003   1.348   0.756  1.00  0.00     0.039 A 
ATOM      8  C   UNL     1       4.221   1.872   0.318  1.00  0.00     0.014 A 
ATOM      9  C   UNL     1       2.458   1.742   1.980  1.00  0.00     0.014 A 
ATOM     10  C   UNL     1       4.968   2.670   1.174  1.00  0.00     0.010 A 
ATOM     11  C   UNL     1       3.178   2.608   2.806  1.00  0.00     0.010 A 
ATOM     12  C   UNL     1       4.459   3.041   2.430  1.00  0.00    -0.014 A 
BRANCH  12  13
ATOM     13  C   UNL     1       5.286   3.890   3.322  1.00  0.00     0.031 A 
ATOM     14  C   UNL     1       5.819   3.357   4.624  1.00  0.00     0.074 A 
ATOM     15  C   UNL     1       5.597   5.138   2.920  1.00  0.00     0.049 A 
ATOM     16  N   UNL     1       6.592   3.947   5.499  1.00  0.00    -0.248 NA
ATOM     17  C   UNL     1       5.431   1.988   4.997  1.00  0.00     0.031 C 
ATOM     18  C   UNL     1       5.128   5.763   1.680  1.00  0.00     0.029 A 
ATOM     19  N   UNL     1       6.399   6.091   3.490  1.00  0.00    -0.354 N 
ATOM     20  C   UNL     1       6.756   3.040   6.540  1.00  0.00     0.074 A 
ATOM     21  C   UNL     1       5.993   1.861   6.192  1.00  0.00     0.031 C 
ATOM     22  C   UNL     1       5.695   6.972   1.557  1.00  0.00     0.029 A 
ATOM     23  C   UNL     1       6.524   7.228   2.729  1.00  0.00     0.049 A 
ATOM     24  H   UNL     1       6.842   5.973   4.362  1.00  0.00     0.167 HD
ATOM     25  C   UNL     1       7.480   3.179   7.677  1.00  0.00     0.037 A 
ATOM     26  C   UNL     1       7.229   8.352   2.949  1.00  0.00     0.037 A 
ATOM     27  C   UNL     1       8.266   4.343   7.999  1.00  0.00     0.049 A 
ATOM     28  C   UNL     1       8.047   8.468   4.202  1.00  0.00     0.074 A 
ATOM     29  C   UNL     1       9.060   4.567   9.111  1.00  0.00     0.029 A 
ATOM     30  N   UNL     1       8.362   5.478   7.207  1.00  0.00    -0.354 N 
ATOM     31  N   UNL     1       8.201   7.592   5.167  1.00  0.00    -0.248 NA
ATOM     32  C   UNL     1       8.786   9.721   4.396  1.00  0.00     0.031 C 
ATOM     33  C   UNL     1       9.616   5.848   9.002  1.00  0.00     0.029 A 
ATOM     34  C   UNL     1       9.194   6.408   7.808  1.00  0.00     0.049 A 
ATOM     35  H   UNL     1       7.905   5.604   6.344  1.00  0.00     0.167 HD
ATOM     36  C   UNL     1       9.067   8.184   6.078  1.00  0.00     0.074 A 
ATOM     37  C   UNL     1       9.414   9.484   5.540  1.00  0.00     0.031 C 
ATOM     38  C   UNL     1       9.530   7.695   7.254  1.00  0.00     0.037 A 
BRANCH  25  39
ATOM     39  C   UNL     1       7.441   2.051   8.671  1.00  0.00     0.058 A 
ATOM     40  C   UNL     1       8.130   0.848   8.454  1.00  0.00     0.135 A 
ATOM     41  C   UNL     1       6.727   2.189   9.873  1.00  0.00     0.135 A 
ATOM     42  F   UNL     1       8.814   0.657   7.314  1.00  0.00    -0.206 F 
ATOM     43  C   UNL     1       8.093  -0.189   9.382  1.00  0.00     0.059 A 
ATOM     44  C   UNL     1       6.694   1.174  10.824  1.00  0.00     0.059 A 
ATOM     45  F   UNL     1       6.051   3.320  10.130  1.00  0.00    -0.206 F 
ATOM     46  C   UNL     1       7.367  -0.018  10.562  1.00  0.00     0.060 A 
BRANCH  46  47
ATOM     47  S   UNL     1       7.321  -1.371  11.757  1.00  0.00     0.124 S 
ATOM     48  O   UNL     1       6.362  -2.277  11.131  1.00  0.00    -0.237 OA
ATOM     49  O   UNL     1       8.707  -1.829  11.771  1.00  0.00    -0.237 OA
ATOM     50  O   UNL     1       6.866  -0.725  12.984  1.00  0.00    -0.744 OA
ENDBRANCH  46  47
ENDBRANCH  25  39
BRANCH  26  51
ATOM     51  C   UNL     1       7.201   9.444   1.943  1.00  0.00     0.058 A 
ATOM     52  C   UNL     1       8.313   9.700   1.130  1.00  0.00     0.135 A 
ATOM     53  C   UNL     1       6.048  10.220   1.746  1.00  0.00     0.135 A 
ATOM     54  F   UNL     1       9.437   8.984   1.284  1.00  0.00    -0.206 F 
ATOM     55  C   UNL     1       8.288  10.694   0.158  1.00  0.00     0.059 A 
ATOM     56  C   UNL     1       5.991  11.203   0.766  1.00  0.00     0.059 A 
ATOM     57  F   UNL     1       4.952   9.996   2.489  1.00  0.00    -0.206 F 
ATOM     58  C   UNL     1       7.120  11.439  -0.018  1.00  0.00     0.060 A 
BRANCH  58  59
ATOM     59  S   UNL     1       7.069  12.683  -1.326  1.00  0.00     0.124 S 
ATOM     60  O   UNL     1       7.790  13.788  -0.707  1.00  0.00    -0.237 OA
ATOM     61  O   UNL     1       7.754  12.008  -2.424  1.00  0.00    -0.237 OA
ATOM     62  O   UNL     1       5.638  12.894  -1.528  1.00  0.00    -0.744 OA
ENDBRANCH  58  59
ENDBRANCH  26  51
BRANCH  38  63
ATOM     63  C   UNL     1      10.486   8.563   8.019  1.00  0.00     0.058 A 
ATOM     64  C   UNL     1      10.045   9.686   8.736  1.00  0.00     0.135 A 
ATOM     65  C   UNL     1      11.855   8.257   8.048  1.00  0.00     0.135 A 
ATOM     66  F   UNL     1       8.746  10.023   8.731  1.00  0.00    -0.206 F 
ATOM     67  C   UNL     1      10.935  10.496   9.432  1.00  0.00     0.059 A 
ATOM     68  C   UNL     1      12.761   9.041   8.755  1.00  0.00     0.059 A 
ATOM     69  F   UNL     1      12.324   7.188   7.386  1.00  0.00    -0.206 F 
ATOM     70  C   UNL     1      12.293  10.168   9.431  1.00  0.00     0.060 A 
BRANCH  70  71
ATOM     71  S   UNL     1      13.443  11.217  10.345  1.00  0.00     0.124 S 
ATOM     72  O   UNL     1      13.625  12.329   9.418  1.00  0.00    -0.237 OA
ATOM     73  O   UNL     1      12.697  11.522  11.562  1.00  0.00    -0.237 OA
ATOM     74  O   UNL     1      14.607  10.357  10.532  1.00  0.00    -0.744 OA
ENDBRANCH  70  71
ENDBRANCH  38  63
ENDBRANCH  12  13
ENDBRANCH   5   7
ENDBRANCH   2   3
ENDBRANCH   1   2
BRANCH   1  75
ATOM     75  C   UNL     1       4.389  -3.397  -1.294  1.00  0.00     0.023 C 
BRANCH  75  76
ATOM     76  C   UNL     1       5.230  -3.004  -2.510  1.00  0.00     0.116 C 
BRANCH  76  77
ATOM     77  N   UNL     1       6.555  -3.589  -2.439  1.00  0.00    -0.356 N 
ATOM     78  C   UNL     1       7.094  -4.699  -3.003  1.00  0.00     0.227 C 
ATOM     79  H   UNL     1       7.184  -3.085  -1.873  1.00  0.00     0.163 HD
ATOM     80  O   UNL     1       8.286  -4.907  -2.740  1.00  0.00    -0.274 OA
BRANCH  78  81
ATOM     81  C   UNL     1       6.365  -5.603  -4.012  1.00  0.00     0.061 C 
ATOM     82  C   UNL     1       6.929  -7.055  -3.775  1.00  0.00     0.053 C 
ATOM     83  C   UNL     1       4.837  -5.771  -3.828  1.00  0.00     0.053 C 
ATOM     84  C   UNL     1       5.765  -7.944  -4.081  1.00  0.00    -0.044 A 
ATOM     85  C   UNL     1       4.583  -7.213  -4.128  1.00  0.00    -0.044 A 
ATOM     86  C   UNL     1       5.754  -9.321  -4.218  1.00  0.00     0.004 A 
ATOM     87  C   UNL     1       3.359  -7.832  -4.321  1.00  0.00     0.004 A 
ATOM     88  C   UNL     1       4.527  -9.959  -4.418  1.00  0.00     0.000 A 
ATOM     89  C   UNL     1       3.336  -9.218  -4.472  1.00  0.00     0.000 A 
BRANCH  81  90
ATOM     90  C   UNL     1       6.758  -5.160  -5.454  1.00  0.00     0.053 C 
BRANCH  90  91
ATOM     91  C   UNL     1       6.297  -3.792  -5.904  1.00  0.00    -0.044 A 
ATOM     92  C   UNL     1       7.013  -2.641  -5.559  1.00  0.00     0.024 A 
ATOM     93  C   UNL     1       5.153  -3.643  -6.692  1.00  0.00     0.024 A 
ATOM     94  C   UNL     1       6.541  -1.407  -5.979  1.00  0.00     0.111 A 
ATOM     95  C   UNL     1       4.764  -2.367  -7.071  1.00  0.00     0.111 A 
ATOM     96  N   UNL     1       5.427  -1.245  -6.723  1.00  0.00    -0.265 NA
ENDBRANCH  90  91
ENDBRANCH  81  90
ENDBRANCH  78  81
ENDBRANCH  76  77
ENDBRANCH  75  76
ENDBRANCH   1  75
TORSDOF 16
