REMARK SMILES C[C@H]1CC[C@@]1(C(=O)NCCCCNC(=O)c1ccc(-c2c3nc(c(-c4c(F)cc(S(=O)(=O)[O-])cc4F)c4ccc([nH]4)c(-c4c(F)cc(S(=O)(=O)[O-])cc4F)c4nc(c(-c5c(F)cc(S(=O)(=O)[O-])cc5F)c5ccc2[nH]5)C=C4)C=C3)cc1)c1cc(F)cc(F)c1
REMARK SMILES IDX 11 1 10 2 9 3 8 4 6 5 7 6 5 8 1 9 2 10 3 11 4 12 82 13 83 14
REMARK SMILES IDX 89 15 84 16 87 17 85 18 86 19 88 20 12 21 13 22 14 23 15 25
REMARK SMILES IDX 16 26 17 27 81 28 18 29 80 30 19 31 20 32 21 33 74 34 22 35
REMARK SMILES IDX 79 36 73 37 75 38 23 39 78 40 72 41 71 42 24 44 58 45 37 46
REMARK SMILES IDX 57 47 38 48 41 49 56 50 76 51 39 52 40 53 55 55 77 56 42 57
REMARK SMILES IDX 25 58 26 59 35 60 27 61 28 62 34 63 36 64 29 65 30 66 31 67
REMARK SMILES IDX 32 68 33 69 59 70 60 71 69 72 61 73 62 74 68 75 70 76 63 77
REMARK SMILES IDX 64 78 65 79 66 80 67 81 43 82 44 83 53 84 45 85 46 86 52 87
REMARK SMILES IDX 54 88 47 89 48 90 49 91 50 92 51 93
REMARK H PARENT 8 7 13 24 75 43 41 54
REMARK Flexibility Score: inf
ROOT
ATOM      1  C   UNL     1       4.416   4.425   0.651  1.00  0.00     0.023 C 
ENDROOT
BRANCH   1   2
ATOM      2  C   UNL     1       3.643   3.638  -0.406  1.00  0.00     0.023 C 
BRANCH   2   3
ATOM      3  C   UNL     1       3.391   2.167  -0.082  1.00  0.00     0.116 C 
BRANCH   3   4
ATOM      4  N   UNL     1       2.686   1.962   1.169  1.00  0.00    -0.355 N 
ATOM      5  C   UNL     1       1.420   1.466   1.396  1.00  0.00     0.230 C 
ATOM      6  O   UNL     1       1.073   1.380   2.580  1.00  0.00    -0.274 OA
ATOM      7  H   UNL     1       3.187   2.216   1.977  1.00  0.00     0.163 HD
BRANCH   5   8
ATOM      8  C   UNL     1       0.495   1.052   0.149  1.00  0.00     0.077 C 
ATOM      9  C   UNL     1      -1.975   0.021  -0.304  1.00  0.00     0.009 C 
ATOM     10  C   UNL     1      -0.707   0.067   0.540  1.00  0.00     0.006 C 
ATOM     11  C   UNL     1       0.259  -1.108   0.264  1.00  0.00     0.006 C 
ATOM     12  C   UNL     1       1.054  -0.180  -0.668  1.00  0.00     0.022 C 
BRANCH   8  13
ATOM     13  C   UNL     1       0.057   2.417  -0.636  1.00  0.00    -0.026 A 
ATOM     14  C   UNL     1      -0.278   2.436  -2.008  1.00  0.00     0.044 A 
ATOM     15  C   UNL     1      -0.014   3.674   0.011  1.00  0.00     0.044 A 
ATOM     16  C   UNL     1      -0.617   3.616  -2.676  1.00  0.00     0.126 A 
ATOM     17  C   UNL     1      -0.324   4.851  -0.674  1.00  0.00     0.126 A 
ATOM     18  F   UNL     1      -0.932   3.563  -3.976  1.00  0.00    -0.207 F 
ATOM     19  C   UNL     1      -0.626   4.834  -2.022  1.00  0.00     0.078 A 
ATOM     20  F   UNL     1      -0.312   6.017  -0.016  1.00  0.00    -0.207 F 
ENDBRANCH   8  13
ENDBRANCH   5   8
ENDBRANCH   3   4
ENDBRANCH   2   3
ENDBRANCH   1   2
BRANCH   1  21
ATOM     21  C   UNL     1       5.746   3.817   1.084  1.00  0.00     0.116 C 
BRANCH  21  22
ATOM     22  N   UNL     1       6.671   3.619  -0.022  1.00  0.00    -0.352 N 
ATOM     23  C   UNL     1       7.973   4.038  -0.162  1.00  0.00     0.251 C 
ATOM     24  H   UNL     1       6.311   3.109  -0.784  1.00  0.00     0.163 HD
ATOM     25  O   UNL     1       8.557   3.871  -1.230  1.00  0.00    -0.269 OA
BRANCH  23  26
ATOM     26  C   UNL     1       8.653   4.723   0.958  1.00  0.00     0.039 A 
ATOM     27  C   UNL     1       9.327   5.921   0.703  1.00  0.00     0.014 A 
ATOM     28  C   UNL     1       8.595   4.212   2.256  1.00  0.00     0.014 A 
ATOM     29  C   UNL     1       9.852   6.658   1.767  1.00  0.00     0.010 A 
ATOM     30  C   UNL     1       9.060   4.979   3.322  1.00  0.00     0.010 A 
ATOM     31  C   UNL     1       9.671   6.220   3.089  1.00  0.00    -0.014 A 
BRANCH  31  32
ATOM     32  C   UNL     1      10.049   7.074   4.244  1.00  0.00     0.031 A 
ATOM     33  C   UNL     1      11.111   6.629   5.210  1.00  0.00     0.074 A 
ATOM     34  C   UNL     1       9.362   8.212   4.473  1.00  0.00     0.049 A 
ATOM     35  N   UNL     1      11.495   7.188   6.327  1.00  0.00    -0.248 NA
ATOM     36  C   UNL     1      11.816   5.378   4.889  1.00  0.00     0.031 C 
ATOM     37  C   UNL     1       8.274   8.725   3.636  1.00  0.00     0.029 A 
ATOM     38  N   UNL     1       9.460   9.132   5.486  1.00  0.00    -0.354 N 
ATOM     39  C   UNL     1      12.476   6.355   6.851  1.00  0.00     0.074 A 
ATOM     40  C   UNL     1      12.598   5.230   5.949  1.00  0.00     0.031 C 
ATOM     41  C   UNL     1       7.815   9.871   4.163  1.00  0.00     0.029 A 
ATOM     42  C   UNL     1       8.544  10.154   5.395  1.00  0.00     0.049 A 
ATOM     43  H   UNL     1      10.123   9.067   6.211  1.00  0.00     0.167 HD
ATOM     44  C   UNL     1      13.217   6.523   7.973  1.00  0.00     0.037 A 
ATOM     45  C   UNL     1       8.304  11.193   6.218  1.00  0.00     0.037 A 
ATOM     46  C   UNL     1      13.104   7.655   8.856  1.00  0.00     0.049 A 
ATOM     47  C   UNL     1       9.130  11.349   7.464  1.00  0.00     0.074 A 
ATOM     48  C   UNL     1      13.863   7.952   9.975  1.00  0.00     0.029 A 
ATOM     49  N   UNL     1      12.171   8.673   8.725  1.00  0.00    -0.354 N 
ATOM     50  N   UNL     1      10.100  10.586   7.908  1.00  0.00    -0.248 NA
ATOM     51  C   UNL     1       8.827  12.502   8.323  1.00  0.00     0.031 C 
ATOM     52  C   UNL     1      13.361   9.127  10.546  1.00  0.00     0.029 A 
ATOM     53  C   UNL     1      12.316   9.584   9.759  1.00  0.00     0.049 A 
ATOM     54  H   UNL     1      11.504   8.739   8.004  1.00  0.00     0.167 HD
ATOM     55  C   UNL     1      10.531  11.173   9.092  1.00  0.00     0.074 A 
ATOM     56  C   UNL     1       9.729  12.364   9.285  1.00  0.00     0.031 C 
ATOM     57  C   UNL     1      11.502  10.760   9.944  1.00  0.00     0.037 A 
BRANCH  44  58
ATOM     58  C   UNL     1      14.222   5.457   8.308  1.00  0.00     0.058 A 
ATOM     59  C   UNL     1      15.403   5.302   7.565  1.00  0.00     0.135 A 
ATOM     60  C   UNL     1      14.023   4.604   9.405  1.00  0.00     0.135 A 
ATOM     61  F   UNL     1      15.637   6.081   6.497  1.00  0.00    -0.206 F 
ATOM     62  C   UNL     1      16.338   4.322   7.881  1.00  0.00     0.059 A 
ATOM     63  C   UNL     1      14.956   3.632   9.755  1.00  0.00     0.059 A 
ATOM     64  F   UNL     1      12.910   4.709  10.149  1.00  0.00    -0.206 F 
ATOM     65  C   UNL     1      16.105   3.490   8.977  1.00  0.00     0.060 A 
BRANCH  65  66
ATOM     66  S   UNL     1      17.329   2.224   9.376  1.00  0.00     0.124 S 
ATOM     67  O   UNL     1      17.082   1.242   8.325  1.00  0.00    -0.237 OA
ATOM     68  O   UNL     1      18.585   2.960   9.273  1.00  0.00    -0.237 OA
ATOM     69  O   UNL     1      16.959   1.807  10.725  1.00  0.00    -0.744 OA
ENDBRANCH  65  66
ENDBRANCH  44  58
BRANCH  45  70
ATOM     70  C   UNL     1       7.234  12.169   5.885  1.00  0.00     0.058 A 
ATOM     71  C   UNL     1       7.552  13.465   5.454  1.00  0.00     0.135 A 
ATOM     72  C   UNL     1       5.877  11.822   5.971  1.00  0.00     0.135 A 
ATOM     73  F   UNL     1       8.836  13.845   5.364  1.00  0.00    -0.206 F 
ATOM     74  C   UNL     1       6.564  14.387   5.128  1.00  0.00     0.059 A 
ATOM     75  C   UNL     1       4.870  12.719   5.628  1.00  0.00     0.059 A 
ATOM     76  F   UNL     1       5.521  10.589   6.363  1.00  0.00    -0.206 F 
ATOM     77  C   UNL     1       5.224  14.003   5.215  1.00  0.00     0.060 A 
BRANCH  77  78
ATOM     78  S   UNL     1       3.949  15.189   4.734  1.00  0.00     0.124 S 
ATOM     79  O   UNL     1       3.941  16.092   5.879  1.00  0.00    -0.237 OA
ATOM     80  O   UNL     1       4.490  15.736   3.493  1.00  0.00    -0.237 OA
ATOM     81  O   UNL     1       2.761  14.356   4.576  1.00  0.00    -0.744 OA
ENDBRANCH  77  78
ENDBRANCH  45  70
BRANCH  57  82
ATOM     82  C   UNL     1      11.753  11.604  11.161  1.00  0.00     0.058 A 
ATOM     83  C   UNL     1      10.868  11.599  12.250  1.00  0.00     0.135 A 
ATOM     84  C   UNL     1      12.912  12.390  11.260  1.00  0.00     0.135 A 
ATOM     85  F   UNL     1       9.740  10.872  12.200  1.00  0.00    -0.206 F 
ATOM     86  C   UNL     1      11.114  12.358  13.389  1.00  0.00     0.059 A 
ATOM     87  C   UNL     1      13.190  13.139  12.400  1.00  0.00     0.059 A 
ATOM     88  F   UNL     1      13.795  12.424  10.249  1.00  0.00    -0.206 F 
ATOM     89  C   UNL     1      12.279  13.124  13.455  1.00  0.00     0.060 A 
BRANCH  89  90
ATOM     90  S   UNL     1      12.607  14.075  14.954  1.00  0.00     0.124 S 
ATOM     91  O   UNL     1      11.679  15.191  14.802  1.00  0.00    -0.237 OA
ATOM     92  O   UNL     1      12.282  13.120  16.010  1.00  0.00    -0.237 OA
ATOM     93  O   UNL     1      14.022  14.414  14.839  1.00  0.00    -0.744 OA
ENDBRANCH  89  90
ENDBRANCH  57  82
ENDBRANCH  31  32
ENDBRANCH  23  26
ENDBRANCH  21  22
ENDBRANCH   1  21
TORSDOF 15
