REMARK SMILES O=C(NCCCCNC(=O)c1ccc(-c2c3nc(c(-c4c(F)cc(S(=O)(=O)[O-])cc4F)c4ccc([nH]4)c(-c4c(F)cc(S(=O)(=O)[O-])cc4F)c4nc(c(-c5c(F)cc(S(=O)(=O)[O-])cc5F)c5ccc2[nH]5)C=C4)C=C3)cc1)C1=Cc2cc(OC(F)(F)F)ccc2O[C@@H]1C(F)(F)F
REMARK SMILES IDX 6 1 5 2 4 3 3 4 1 5 2 6 77 8 78 9 91 10 79 11 90 12 80 13
REMARK SMILES IDX 89 14 81 15 88 16 87 17 92 18 93 19 94 20 95 21 82 22 83 23
REMARK SMILES IDX 84 24 85 25 86 26 7 27 8 28 9 29 10 31 11 32 12 33 76 34
REMARK SMILES IDX 13 35 75 36 14 37 15 38 16 39 69 40 17 41 74 42 68 43 70 44
REMARK SMILES IDX 18 45 73 46 67 47 66 48 19 50 53 51 32 52 52 53 33 54 36 55
REMARK SMILES IDX 51 56 71 57 34 58 35 59 50 61 72 62 37 63 20 64 21 65 30 66
REMARK SMILES IDX 22 67 23 68 29 69 31 70 24 71 25 72 26 73 27 74 28 75 54 76
REMARK SMILES IDX 55 77 64 78 56 79 57 80 63 81 65 82 58 83 59 84 60 85 61 86
REMARK SMILES IDX 62 87 38 88 39 89 48 90 40 91 41 92 47 93 49 94 42 95 43 96
REMARK SMILES IDX 44 97 45 98 46 99
REMARK H PARENT 3 7 8 30 70 49 36 60
REMARK Flexibility Score: inf
ROOT
ATOM      1  C   UNL     1       3.973  -3.786  -2.008  1.00  0.00     0.023 C 
ENDROOT
BRANCH   1   2
ATOM      2  C   UNL     1       4.033  -2.912  -0.751  1.00  0.00     0.023 C 
BRANCH   2   3
ATOM      3  C   UNL     1       3.257  -1.598  -0.893  1.00  0.00     0.116 C 
BRANCH   3   4
ATOM      4  N   UNL     1       2.270  -1.383   0.170  1.00  0.00    -0.352 N 
ATOM      5  O   UNL     1       1.122  -0.161   1.709  1.00  0.00    -0.270 OA
ATOM      6  C   UNL     1       2.133  -0.329   1.041  1.00  0.00     0.251 C 
ATOM      7  H   UNL     1       1.605  -2.101   0.274  1.00  0.00     0.163 HD
BRANCH   6   8
ATOM      8  C   UNL     1       3.264   0.608   1.121  1.00  0.00     0.067 C 
ATOM      9  C   UNL     1       4.393   0.104   1.634  1.00  0.00     0.025 C 
ATOM     10  C   UNL     1       3.205   1.854   0.293  1.00  0.00     0.314 C 
ATOM     11  C   UNL     1       5.598   0.488   0.903  1.00  0.00     0.021 A 
ATOM     12  O   UNL     1       4.360   2.004  -0.573  1.00  0.00    -0.475 OA
ATOM     13  C   UNL     1       6.750  -0.277   1.105  1.00  0.00     0.058 A 
ATOM     14  C   UNL     1       5.491   1.304  -0.235  1.00  0.00     0.128 A 
ATOM     15  C   UNL     1       7.726  -0.333   0.112  1.00  0.00     0.130 A 
ATOM     16  C   UNL     1       6.505   1.299  -1.190  1.00  0.00     0.051 A 
ATOM     17  C   UNL     1       7.610   0.460  -1.032  1.00  0.00     0.050 A 
BRANCH  10  18
ATOM     18  C   UNL     1       3.017   3.108   1.162  1.00  0.00     0.429 C 
ATOM     19  F   UNL     1       2.820   4.208   0.393  1.00  0.00    -0.167 F 
ATOM     20  F   UNL     1       1.940   3.009   1.976  1.00  0.00    -0.167 F 
ATOM     21  F   UNL     1       4.092   3.359   1.947  1.00  0.00    -0.167 F 
ENDBRANCH  10  18
BRANCH  15  22
ATOM     22  O   UNL     1       8.752  -1.209   0.332  1.00  0.00    -0.406 OA
BRANCH  22  23
ATOM     23  C   UNL     1       8.995  -2.092  -0.761  1.00  0.00     0.573 C 
ATOM     24  F   UNL     1       7.833  -2.580  -1.250  1.00  0.00    -0.132 F 
ATOM     25  F   UNL     1       9.683  -1.460  -1.730  1.00  0.00    -0.132 F 
ATOM     26  F   UNL     1       9.737  -3.128  -0.312  1.00  0.00    -0.132 F 
ENDBRANCH  22  23
ENDBRANCH  15  22
ENDBRANCH   6   8
ENDBRANCH   3   4
ENDBRANCH   2   3
ENDBRANCH   1   2
BRANCH   1  27
ATOM     27  C   UNL     1       4.502  -3.150  -3.292  1.00  0.00     0.116 C 
BRANCH  27  28
ATOM     28  N   UNL     1       5.945  -2.962  -3.314  1.00  0.00    -0.352 N 
ATOM     29  C   UNL     1       6.829  -3.271  -4.327  1.00  0.00     0.251 C 
ATOM     30  H   UNL     1       6.340  -2.564  -2.505  1.00  0.00     0.163 HD
ATOM     31  O   UNL     1       8.035  -3.081  -4.196  1.00  0.00    -0.269 OA
BRANCH  29  32
ATOM     32  C   UNL     1       6.299  -3.898  -5.556  1.00  0.00     0.039 A 
ATOM     33  C   UNL     1       6.723  -5.186  -5.894  1.00  0.00     0.014 A 
ATOM     34  C   UNL     1       5.279  -3.272  -6.275  1.00  0.00     0.014 A 
ATOM     35  C   UNL     1       6.044  -5.896  -6.888  1.00  0.00     0.010 A 
ATOM     36  C   UNL     1       4.561  -4.008  -7.213  1.00  0.00     0.010 A 
ATOM     37  C   UNL     1       4.918  -5.335  -7.511  1.00  0.00    -0.014 A 
BRANCH  37  38
ATOM     38  C   UNL     1       4.068  -6.109  -8.456  1.00  0.00     0.031 A 
ATOM     39  C   UNL     1       3.892  -5.611  -9.865  1.00  0.00     0.074 A 
ATOM     40  C   UNL     1       3.355  -7.168  -8.016  1.00  0.00     0.049 A 
ATOM     41  N   UNL     1       3.036  -5.994 -10.776  1.00  0.00    -0.248 NA
ATOM     42  C   UNL     1       4.766  -4.505 -10.289  1.00  0.00     0.031 C 
ATOM     43  C   UNL     1       3.396  -7.719  -6.658  1.00  0.00     0.029 A 
ATOM     44  N   UNL     1       2.430  -7.955  -8.659  1.00  0.00    -0.354 N 
ATOM     45  C   UNL     1       3.231  -5.143 -11.857  1.00  0.00     0.074 A 
ATOM     46  C   UNL     1       4.270  -4.209 -11.482  1.00  0.00     0.031 C 
ATOM     47  C   UNL     1       2.540  -8.751  -6.573  1.00  0.00     0.029 A 
ATOM     48  C   UNL     1       1.856  -8.912  -7.851  1.00  0.00     0.049 A 
ATOM     49  H   UNL     1       2.198  -7.844  -9.609  1.00  0.00     0.167 HD
ATOM     50  C   UNL     1       2.607  -5.149 -13.058  1.00  0.00     0.037 A 
ATOM     51  C   UNL     1       0.876  -9.801  -8.107  1.00  0.00     0.037 A 
ATOM     52  C   UNL     1       1.634  -6.131 -13.454  1.00  0.00     0.049 A 
ATOM     53  C   UNL     1       0.245  -9.826  -9.475  1.00  0.00     0.074 A 
ATOM     54  C   UNL     1       1.020  -6.283 -14.684  1.00  0.00     0.029 A 
ATOM     55  N   UNL     1       1.145  -7.136 -12.634  1.00  0.00    -0.354 N 
ATOM     56  N   UNL     1       0.486  -9.051 -10.505  1.00  0.00    -0.248 NA
ATOM     57  C   UNL     1      -0.789 -10.842  -9.718  1.00  0.00     0.031 C 
ATOM     58  C   UNL     1       0.140  -7.367 -14.602  1.00  0.00     0.029 A 
ATOM     59  C   UNL     1       0.233  -7.909 -13.330  1.00  0.00     0.049 A 
ATOM     60  H   UNL     1       1.409  -7.279 -11.696  1.00  0.00     0.167 HD
ATOM     61  C   UNL     1      -0.338  -9.511 -11.526  1.00  0.00     0.074 A 
ATOM     62  C   UNL     1      -1.084 -10.631 -10.993  1.00  0.00     0.031 C 
ATOM     63  C   UNL     1      -0.467  -9.046 -12.792  1.00  0.00     0.037 A 
BRANCH  50  64
ATOM     64  C   UNL     1       2.964  -4.076 -14.046  1.00  0.00     0.058 A 
ATOM     65  C   UNL     1       4.189  -4.081 -14.729  1.00  0.00     0.135 A 
ATOM     66  C   UNL     1       2.038  -3.069 -14.365  1.00  0.00     0.135 A 
ATOM     67  F   UNL     1       5.116  -5.011 -14.447  1.00  0.00    -0.206 F 
ATOM     68  C   UNL     1       4.490  -3.119 -15.686  1.00  0.00     0.059 A 
ATOM     69  C   UNL     1       2.308  -2.111 -15.337  1.00  0.00     0.059 A 
ATOM     70  F   UNL     1       0.853  -3.018 -13.737  1.00  0.00    -0.206 F 
ATOM     71  C   UNL     1       3.541  -2.140 -15.987  1.00  0.00     0.060 A 
BRANCH  71  72
ATOM     72  S   UNL     1       3.930  -0.923 -17.262  1.00  0.00     0.124 S 
ATOM     73  O   UNL     1       4.870  -0.056 -16.557  1.00  0.00    -0.237 OA
ATOM     74  O   UNL     1       4.503  -1.750 -18.319  1.00  0.00    -0.237 OA
ATOM     75  O   UNL     1       2.635  -0.326 -17.569  1.00  0.00    -0.744 OA
ENDBRANCH  71  72
ENDBRANCH  50  64
BRANCH  51  76
ATOM     76  C   UNL     1       0.421 -10.752  -7.056  1.00  0.00     0.058 A 
ATOM     77  C   UNL     1       0.699 -12.124  -7.158  1.00  0.00     0.135 A 
ATOM     78  C   UNL     1      -0.331 -10.320  -5.953  1.00  0.00     0.135 A 
ATOM     79  F   UNL     1       1.410 -12.587  -8.198  1.00  0.00    -0.206 F 
ATOM     80  C   UNL     1       0.219 -13.039  -6.226  1.00  0.00     0.059 A 
ATOM     81  C   UNL     1      -0.802 -11.213  -4.994  1.00  0.00     0.059 A 
ATOM     82  F   UNL     1      -0.609  -9.016  -5.797  1.00  0.00    -0.206 F 
ATOM     83  C   UNL     1      -0.538 -12.573  -5.151  1.00  0.00     0.060 A 
BRANCH  83  84
ATOM     84  S   UNL     1      -1.154 -13.764  -3.940  1.00  0.00     0.124 S 
ATOM     85  O   UNL     1      -2.285 -14.346  -4.653  1.00  0.00    -0.237 OA
ATOM     86  O   UNL     1      -0.001 -14.638  -3.749  1.00  0.00    -0.237 OA
ATOM     87  O   UNL     1      -1.492 -12.927  -2.792  1.00  0.00    -0.744 OA
ENDBRANCH  83  84
ENDBRANCH  51  76
BRANCH  63  88
ATOM     88  C   UNL     1      -1.398  -9.779 -13.714  1.00  0.00     0.058 A 
ATOM     89  C   UNL     1      -2.789  -9.623 -13.632  1.00  0.00     0.135 A 
ATOM     90  C   UNL     1      -0.882 -10.575 -14.749  1.00  0.00     0.135 A 
ATOM     91  F   UNL     1      -3.329  -8.877 -12.655  1.00  0.00    -0.206 F 
ATOM     92  C   UNL     1      -3.640 -10.237 -14.544  1.00  0.00     0.059 A 
ATOM     93  C   UNL     1      -1.713 -11.181 -15.685  1.00  0.00     0.059 A 
ATOM     94  F   UNL     1       0.444 -10.746 -14.873  1.00  0.00    -0.206 F 
ATOM     95  C   UNL     1      -3.092 -11.009 -15.571  1.00  0.00     0.060 A 
BRANCH  95  96
ATOM     96  S   UNL     1      -4.201 -11.746 -16.790  1.00  0.00     0.124 S 
ATOM     97  O   UNL     1      -4.752 -12.872 -16.043  1.00  0.00    -0.237 OA
ATOM     98  O   UNL     1      -5.130 -10.656 -17.069  1.00  0.00    -0.237 OA
ATOM     99  O   UNL     1      -3.309 -12.098 -17.891  1.00  0.00    -0.744 OA
ENDBRANCH  95  96
ENDBRANCH  63  88
ENDBRANCH  37  38
ENDBRANCH  29  32
ENDBRANCH  27  28
ENDBRANCH   1  27
TORSDOF 17
