REMARK SMILES CO[C@H](C)c1noc(C[C@](C)(C(=O)NCCCCNC(=O)c2ccc(-c3c4nc(c(-c5c(F)cc(S(=O)(=O)[O-])cc5F)c5ccc([nH]5)c(-c5c(F)cc(S(=O)(=O)[O-])cc5F)c5nc(c(-c6c(F)cc(S(=O)(=O)[O-])cc6F)c6ccc3[nH]6)C=C5)C=C4)cc2)c2ccccc2)n1
REMARK SMILES IDX 16 1 15 2 14 3 12 4 13 5 10 7 11 8 9 9 8 10 5 11 6 12 94 13
REMARK SMILES IDX 7 14 3 15 4 16 2 17 1 18 88 19 89 20 93 21 90 22 92 23 91 24
REMARK SMILES IDX 17 25 18 26 19 27 20 28 21 30 22 31 23 32 87 33 24 34 86 35
REMARK SMILES IDX 25 36 26 37 27 38 80 39 28 40 85 41 79 42 81 43 29 44 84 45
REMARK SMILES IDX 78 46 77 47 30 49 64 50 43 51 63 52 44 53 47 54 62 55 82 56
REMARK SMILES IDX 45 57 46 58 61 60 83 61 48 62 31 63 32 64 41 65 33 66 34 67
REMARK SMILES IDX 40 68 42 69 35 70 36 71 37 72 38 73 39 74 65 75 66 76 75 77
REMARK SMILES IDX 67 78 68 79 74 80 76 81 69 82 70 83 71 84 72 85 73 86 49 87
REMARK SMILES IDX 50 88 59 89 51 90 52 91 58 92 60 93 53 94 54 95 55 96 56 97
REMARK SMILES IDX 57 98
REMARK H PARENT 14 6 19 29 81 48 47 59
REMARK Flexibility Score: inf
ROOT
ATOM      1  C   UNL     1       8.239   3.095  -0.202  1.00  0.00     0.023 C 
ENDROOT
BRANCH   1   2
ATOM      2  C   UNL     1       8.346   2.221   1.042  1.00  0.00     0.116 C 
BRANCH   2   3
ATOM      3  N   UNL     1       8.384   3.001   2.267  1.00  0.00    -0.355 N 
ATOM      4  C   UNL     1       7.618   3.027   3.396  1.00  0.00     0.230 C 
ATOM      5  O   UNL     1       8.065   3.750   4.292  1.00  0.00    -0.274 OA
ATOM      6  H   UNL     1       9.123   3.651   2.287  1.00  0.00     0.163 HD
BRANCH   4   7
ATOM      7  C   UNL     1       6.311   2.186   3.562  1.00  0.00     0.080 C 
ATOM      8  C   UNL     1       5.344   2.505   2.395  1.00  0.00     0.027 C 
BRANCH   7   9
ATOM      9  C   UNL     1       6.728   0.688   3.531  1.00  0.00     0.122 C 
BRANCH   9  10
ATOM     10  C   UNL     1       7.349   0.170   4.780  1.00  0.00     0.228 A 
ATOM     11  C   UNL     1       7.922  -0.879   6.494  1.00  0.00     0.200 A 
ATOM     12  N   UNL     1       8.750   0.177   6.485  1.00  0.00    -0.060 NA
ATOM     13  N   UNL     1       7.050  -0.930   5.433  1.00  0.00    -0.193 NA
ATOM     14  O   UNL     1       8.368   0.878   5.342  1.00  0.00    -0.339 OA
BRANCH  11  15
ATOM     15  C   UNL     1       7.978  -1.962   7.531  1.00  0.00     0.186 C 
ATOM     16  C   UNL     1       9.395  -2.483   7.763  1.00  0.00     0.047 C 
BRANCH  15  17
ATOM     17  O   UNL     1       7.329  -1.677   8.790  1.00  0.00    -0.374 OA
ATOM     18  C   UNL     1       7.649  -0.419   9.369  1.00  0.00     0.195 C 
ENDBRANCH  15  17
ENDBRANCH  11  15
ENDBRANCH   9  10
ENDBRANCH   7   9
BRANCH   7  19
ATOM     19  C   UNL     1       5.481   2.550   4.836  1.00  0.00    -0.032 A 
ATOM     20  C   UNL     1       5.406   3.870   5.315  1.00  0.00     0.005 A 
ATOM     21  C   UNL     1       4.717   1.581   5.521  1.00  0.00     0.005 A 
ATOM     22  C   UNL     1       4.694   4.184   6.478  1.00  0.00     0.000 A 
ATOM     23  C   UNL     1       4.012   1.892   6.687  1.00  0.00     0.000 A 
ATOM     24  C   UNL     1       4.012   3.192   7.174  1.00  0.00     0.000 A 
ENDBRANCH   7  19
ENDBRANCH   4   7
ENDBRANCH   2   3
ENDBRANCH   1   2
BRANCH   1  25
ATOM     25  C   UNL     1       9.476   3.944  -0.502  1.00  0.00     0.023 C 
BRANCH  25  26
ATOM     26  C   UNL     1      10.796   3.183  -0.576  1.00  0.00     0.116 C 
BRANCH  26  27
ATOM     27  N   UNL     1      10.777   2.086  -1.533  1.00  0.00    -0.352 N 
ATOM     28  C   UNL     1      11.720   1.743  -2.473  1.00  0.00     0.251 C 
ATOM     29  H   UNL     1       9.978   1.512  -1.504  1.00  0.00     0.163 HD
ATOM     30  O   UNL     1      11.486   0.847  -3.279  1.00  0.00    -0.269 OA
BRANCH  28  31
ATOM     31  C   UNL     1      12.997   2.485  -2.528  1.00  0.00     0.039 A 
ATOM     32  C   UNL     1      13.435   2.986  -3.756  1.00  0.00     0.014 A 
ATOM     33  C   UNL     1      13.736   2.720  -1.365  1.00  0.00     0.014 A 
ATOM     34  C   UNL     1      14.576   3.789  -3.806  1.00  0.00     0.010 A 
ATOM     35  C   UNL     1      14.831   3.577  -1.406  1.00  0.00     0.010 A 
ATOM     36  C   UNL     1      15.259   4.124  -2.625  1.00  0.00    -0.014 A 
BRANCH  36  37
ATOM     37  C   UNL     1      16.418   5.053  -2.642  1.00  0.00     0.031 A 
ATOM     38  C   UNL     1      17.782   4.565  -2.238  1.00  0.00     0.074 A 
ATOM     39  C   UNL     1      16.228   6.350  -2.955  1.00  0.00     0.049 A 
ATOM     40  N   UNL     1      18.898   5.237  -2.118  1.00  0.00    -0.248 NA
ATOM     41  C   UNL     1      17.900   3.138  -1.899  1.00  0.00     0.031 C 
ATOM     42  C   UNL     1      14.944   6.955  -3.318  1.00  0.00     0.029 A 
ATOM     43  N   UNL     1      17.113   7.398  -3.009  1.00  0.00    -0.354 N 
ATOM     44  C   UNL     1      19.846   4.320  -1.679  1.00  0.00     0.074 A 
ATOM     45  C   UNL     1      19.161   3.058  -1.501  1.00  0.00     0.031 C 
ATOM     46  C   UNL     1      15.131   8.258  -3.583  1.00  0.00     0.029 A 
ATOM     47  C   UNL     1      16.536   8.591  -3.373  1.00  0.00     0.049 A 
ATOM     48  H   UNL     1      18.072   7.303  -2.806  1.00  0.00     0.167 HD
ATOM     49  C   UNL     1      21.171   4.506  -1.468  1.00  0.00     0.037 A 
ATOM     50  C   UNL     1      17.078   9.816  -3.518  1.00  0.00     0.037 A 
ATOM     51  C   UNL     1      21.851   5.759  -1.668  1.00  0.00     0.049 A 
ATOM     52  C   UNL     1      18.550  10.001  -3.271  1.00  0.00     0.074 A 
ATOM     53  C   UNL     1      23.198   6.040  -1.529  1.00  0.00     0.029 A 
ATOM     54  N   UNL     1      21.234   6.942  -2.051  1.00  0.00    -0.354 N 
ATOM     55  N   UNL     1      19.443   9.111  -2.909  1.00  0.00    -0.248 NA
ATOM     56  C   UNL     1      19.090  11.355  -3.457  1.00  0.00     0.031 C 
ATOM     57  C   UNL     1      23.392   7.401  -1.793  1.00  0.00     0.029 A 
ATOM     58  C   UNL     1      22.171   7.958  -2.139  1.00  0.00     0.049 A 
ATOM     59  H   UNL     1      20.272   7.043  -2.234  1.00  0.00     0.167 HD
ATOM     60  C   UNL     1      20.655   9.790  -2.850  1.00  0.00     0.074 A 
ATOM     61  C   UNL     1      20.382  11.163  -3.223  1.00  0.00     0.031 C 
ATOM     62  C   UNL     1      21.883   9.319  -2.519  1.00  0.00     0.037 A 
BRANCH  49  63
ATOM     63  C   UNL     1      21.970   3.320  -1.004  1.00  0.00     0.058 A 
ATOM     64  C   UNL     1      22.232   2.233  -1.854  1.00  0.00     0.135 A 
ATOM     65  C   UNL     1      22.488   3.270   0.300  1.00  0.00     0.135 A 
ATOM     66  F   UNL     1      21.747   2.222  -3.106  1.00  0.00    -0.206 F 
ATOM     67  C   UNL     1      22.947   1.123  -1.417  1.00  0.00     0.059 A 
ATOM     68  C   UNL     1      23.230   2.181   0.750  1.00  0.00     0.059 A 
ATOM     69  F   UNL     1      22.268   4.281   1.155  1.00  0.00    -0.206 F 
ATOM     70  C   UNL     1      23.437   1.104  -0.111  1.00  0.00     0.060 A 
BRANCH  70  71
ATOM     71  S   UNL     1      24.350  -0.350   0.446  1.00  0.00     0.124 S 
ATOM     72  O   UNL     1      23.272  -1.317   0.629  1.00  0.00    -0.237 OA
ATOM     73  O   UNL     1      25.246  -0.608  -0.677  1.00  0.00    -0.237 OA
ATOM     74  O   UNL     1      25.000   0.105   1.670  1.00  0.00    -0.744 OA
ENDBRANCH  70  71
ENDBRANCH  49  63
BRANCH  50  75
ATOM     75  C   UNL     1      16.229  10.958  -3.951  1.00  0.00     0.058 A 
ATOM     76  C   UNL     1      16.358  11.498  -5.239  1.00  0.00     0.135 A 
ATOM     77  C   UNL     1      15.265  11.520  -3.100  1.00  0.00     0.135 A 
ATOM     78  F   UNL     1      17.270  10.998  -6.087  1.00  0.00    -0.206 F 
ATOM     79  C   UNL     1      15.572  12.563  -5.665  1.00  0.00     0.059 A 
ATOM     80  C   UNL     1      14.451  12.571  -3.511  1.00  0.00     0.059 A 
ATOM     81  F   UNL     1      15.092  11.028  -1.863  1.00  0.00    -0.206 F 
ATOM     82  C   UNL     1      14.619  13.092  -4.794  1.00  0.00     0.060 A 
BRANCH  82  83
ATOM     83  S   UNL     1      13.567  14.440  -5.375  1.00  0.00     0.124 S 
ATOM     84  O   UNL     1      14.493  15.566  -5.354  1.00  0.00    -0.237 OA
ATOM     85  O   UNL     1      13.165  13.968  -6.697  1.00  0.00    -0.237 OA
ATOM     86  O   UNL     1      12.497  14.482  -4.382  1.00  0.00    -0.744 OA
ENDBRANCH  82  83
ENDBRANCH  50  75
BRANCH  62  87
ATOM     87  C   UNL     1      23.032  10.286  -2.578  1.00  0.00     0.058 A 
ATOM     88  C   UNL     1      23.206  11.284  -1.606  1.00  0.00     0.135 A 
ATOM     89  C   UNL     1      23.998  10.180  -3.591  1.00  0.00     0.135 A 
ATOM     90  F   UNL     1      22.306  11.432  -0.621  1.00  0.00    -0.206 F 
ATOM     91  C   UNL     1      24.288  12.157  -1.649  1.00  0.00     0.059 A 
ATOM     92  C   UNL     1      25.101  11.026  -3.639  1.00  0.00     0.059 A 
ATOM     93  F   UNL     1      23.882   9.236  -4.539  1.00  0.00    -0.206 F 
ATOM     94  C   UNL     1      25.231  12.019  -2.669  1.00  0.00     0.060 A 
BRANCH  94  95
ATOM     95  S   UNL     1      26.650  13.135  -2.694  1.00  0.00     0.124 S 
ATOM     96  O   UNL     1      26.045  14.369  -3.185  1.00  0.00    -0.237 OA
ATOM     97  O   UNL     1      27.065  13.146  -1.295  1.00  0.00    -0.237 OA
ATOM     98  O   UNL     1      27.579  12.482  -3.611  1.00  0.00    -0.744 OA
ENDBRANCH  94  95
ENDBRANCH  62  87
ENDBRANCH  36  37
ENDBRANCH  28  31
ENDBRANCH  26  27
ENDBRANCH  25  26
ENDBRANCH   1  25
TORSDOF 19
