REMARK SMILES Cc1ccc(NC(=O)C[C@H]([NH2+]Cc2cccnc2)C(=O)NCCCCNC(=O)c2ccc(-c3c4nc(c(-c5c(F)cc(S(=O)(=O)[O-])cc5F)c5ccc([nH]5)c(-c5c(F)cc(S(=O)(=O)[O-])cc5F)c5nc(c(-c6c(F)cc(S(=O)(=O)[O-])cc6F)c6ccc3[nH]6)C=C5)C=C4)cc2)cc1Cl
REMARK SMILES IDX 23 1 22 2 21 3 19 4 20 5 10 7 9 8 7 9 6 10 8 12 5 13 1 14
REMARK SMILES IDX 2 15 3 16 96 17 4 18 95 19 97 20 11 21 12 24 13 25 14 26
REMARK SMILES IDX 18 27 15 28 17 29 16 30 24 31 25 32 26 33 27 34 28 36 29 37
REMARK SMILES IDX 30 38 94 39 31 40 93 41 32 42 33 43 34 44 87 45 35 46 92 47
REMARK SMILES IDX 86 48 88 49 36 50 91 51 85 52 84 53 37 55 71 56 50 57 70 58
REMARK SMILES IDX 51 59 54 60 69 61 89 62 52 63 53 64 68 66 90 67 55 68 38 69
REMARK SMILES IDX 39 70 48 71 40 72 41 73 47 74 49 75 42 76 43 77 44 78 45 79
REMARK SMILES IDX 46 80 72 81 73 82 82 83 74 84 75 85 81 86 83 87 76 88 77 89
REMARK SMILES IDX 78 90 79 91 80 92 56 93 57 94 66 95 58 96 59 97 65 98 67 99
REMARK SMILES IDX 60 100 61 101 62 102 63 103 64 104
REMARK H PARENT 21 6 6 11 11 22 11 23 26 35 88 54 54 65
REMARK Flexibility Score: inf
ROOT
ATOM      1  C   UNL     1       2.816  -2.997   1.399  1.00  0.00     0.023 C 
ENDROOT
BRANCH   1   2
ATOM      2  C   UNL     1       2.586  -2.247   0.085  1.00  0.00     0.116 C 
BRANCH   2   3
ATOM      3  N   UNL     1       2.122  -3.139  -0.978  1.00  0.00    -0.351 N 
ATOM      4  C   UNL     1       0.952  -3.423  -1.603  1.00  0.00     0.278 C 
ATOM      5  O   UNL     1       1.020  -4.324  -2.457  1.00  0.00    -0.268 OA
ATOM      6  H   UNL     1       2.861  -3.680  -1.339  1.00  0.00     0.163 HD
BRANCH   4   7
ATOM      7  C   UNL     1      -0.454  -2.800  -1.323  1.00  0.00     0.282 C 
BRANCH   7   8
ATOM      8  C   UNL     1      -0.480  -1.417  -0.712  1.00  0.00     0.175 C 
BRANCH   8   9
ATOM      9  C   UNL     1      -0.753  -0.976   0.717  1.00  0.00     0.230 C 
ATOM     10  N   UNL     1      -0.700  -1.594   1.909  1.00  0.00    -0.326 N 
ATOM     11  H   UNL     1      -0.902  -0.946   2.622  1.00  0.00     0.169 HD
ATOM     12  O   UNL     1      -1.058   0.232   0.830  1.00  0.00    -0.274 OA
BRANCH  10  13
ATOM     13  C   UNL     1      -0.456  -2.852   2.482  1.00  0.00     0.042 A 
ATOM     14  C   UNL     1       0.202  -6.605   4.575  1.00  0.00     0.046 C 
ATOM     15  C   UNL     1      -0.014  -5.311   3.850  1.00  0.00    -0.032 A 
ATOM     16  C   UNL     1      -0.392  -4.159   4.547  1.00  0.00     0.007 A 
ATOM     17  C   UNL     1       0.146  -5.214   2.470  1.00  0.00     0.046 A 
ATOM     18  C   UNL     1      -0.614  -2.951   3.870  1.00  0.00     0.026 A 
ATOM     19  C   UNL     1      -0.049  -3.992   1.817  1.00  0.00     0.047 A 
ATOM     20  Cl  UNL     1       0.612  -6.573   1.506  1.00  0.00    -0.084 Cl
ENDBRANCH  10  13
ENDBRANCH   8   9
ENDBRANCH   7   8
BRANCH   7  21
ATOM     21  N   UNL     1      -1.348  -3.850  -0.812  1.00  0.00    -0.332 N 
ATOM     22  H   UNL     1      -0.976  -4.146   0.090  1.00  0.00     0.347 HD
ATOM     23  H   UNL     1      -1.354  -4.550  -1.554  1.00  0.00     0.347 HD
BRANCH  21  24
ATOM     24  C   UNL     1      -2.755  -3.541  -0.612  1.00  0.00     0.299 C 
BRANCH  24  25
ATOM     25  C   UNL     1      -3.250  -4.196   0.657  1.00  0.00     0.024 A 
ATOM     26  C   UNL     1      -3.171  -5.578   0.862  1.00  0.00     0.013 A 
ATOM     27  C   UNL     1      -3.737  -3.432   1.716  1.00  0.00     0.120 A 
ATOM     28  C   UNL     1      -3.526  -6.121   2.095  1.00  0.00     0.021 A 
ATOM     29  N   UNL     1      -4.111  -3.932   2.918  1.00  0.00    -0.264 NA
ATOM     30  C   UNL     1      -3.975  -5.264   3.085  1.00  0.00     0.111 A 
ENDBRANCH  24  25
ENDBRANCH  21  24
ENDBRANCH   7  21
ENDBRANCH   4   7
ENDBRANCH   2   3
ENDBRANCH   1   2
BRANCH   1  31
ATOM     31  C   UNL     1       4.191  -2.878   2.032  1.00  0.00     0.023 C 
BRANCH  31  32
ATOM     32  C   UNL     1       4.584  -1.474   2.461  1.00  0.00     0.116 C 
BRANCH  32  33
ATOM     33  N   UNL     1       3.752  -0.891   3.509  1.00  0.00    -0.352 N 
ATOM     34  C   UNL     1       4.146  -0.145   4.603  1.00  0.00     0.251 C 
ATOM     35  H   UNL     1       2.784  -1.051   3.425  1.00  0.00     0.163 HD
ATOM     36  O   UNL     1       3.318   0.249   5.419  1.00  0.00    -0.269 OA
BRANCH  34  37
ATOM     37  C   UNL     1       5.590   0.113   4.815  1.00  0.00     0.039 A 
ATOM     38  C   UNL     1       6.159  -0.178   6.058  1.00  0.00     0.014 A 
ATOM     39  C   UNL     1       6.397   0.512   3.750  1.00  0.00     0.014 A 
ATOM     40  C   UNL     1       7.551  -0.199   6.189  1.00  0.00     0.010 A 
ATOM     41  C   UNL     1       7.776   0.376   3.852  1.00  0.00     0.010 A 
ATOM     42  C   UNL     1       8.372   0.004   5.067  1.00  0.00    -0.014 A 
BRANCH  42  43
ATOM     43  C   UNL     1       9.847  -0.187   5.120  1.00  0.00     0.031 A 
ATOM     44  C   UNL     1      10.763   0.942   4.722  1.00  0.00     0.074 A 
ATOM     45  C   UNL     1      10.363  -1.401   5.410  1.00  0.00     0.049 A 
ATOM     46  N   UNL     1      12.059   0.935   4.553  1.00  0.00    -0.248 NA
ATOM     47  C   UNL     1      10.129   2.238   4.426  1.00  0.00     0.031 C 
ATOM     48  C   UNL     1       9.588  -2.602   5.735  1.00  0.00     0.029 A 
ATOM     49  N   UNL     1      11.666  -1.832   5.460  1.00  0.00    -0.354 N 
ATOM     50  C   UNL     1      12.387   2.203   4.088  1.00  0.00     0.074 A 
ATOM     51  C   UNL     1      11.149   2.939   3.955  1.00  0.00     0.031 C 
ATOM     52  C   UNL     1      10.429  -3.619   5.984  1.00  0.00     0.029 A 
ATOM     53  C   UNL     1      11.801  -3.160   5.797  1.00  0.00     0.049 A 
ATOM     54  H   UNL     1      12.434  -1.245   5.273  1.00  0.00     0.167 HD
ATOM     55  C   UNL     1      13.610   2.719   3.822  1.00  0.00     0.037 A 
ATOM     56  C   UNL     1      12.904  -3.921   5.936  1.00  0.00     0.037 A 
ATOM     57  C   UNL     1      14.845   2.013   4.034  1.00  0.00     0.049 A 
ATOM     58  C   UNL     1      14.256  -3.303   5.702  1.00  0.00     0.074 A 
ATOM     59  C   UNL     1      16.139   2.484   3.899  1.00  0.00     0.029 A 
ATOM     60  N   UNL     1      14.939   0.692   4.441  1.00  0.00    -0.354 N 
ATOM     61  N   UNL     1      14.549  -2.079   5.334  1.00  0.00    -0.248 NA
ATOM     62  C   UNL     1      15.428  -4.168   5.903  1.00  0.00     0.031 C 
ATOM     63  C   UNL     1      17.017   1.438   4.201  1.00  0.00     0.029 A 
ATOM     64  C   UNL     1      16.269   0.327   4.554  1.00  0.00     0.049 A 
ATOM     65  H   UNL     1      14.173   0.100   4.623  1.00  0.00     0.167 HD
ATOM     66  C   UNL     1      15.938  -2.018   5.291  1.00  0.00     0.074 A 
ATOM     67  C   UNL     1      16.427  -3.326   5.676  1.00  0.00     0.031 C 
ATOM     68  C   UNL     1      16.736  -0.974   4.961  1.00  0.00     0.037 A 
BRANCH  55  69
ATOM     69  C   UNL     1      13.674   4.125   3.294  1.00  0.00     0.058 A 
ATOM     70  C   UNL     1      13.383   5.231   4.108  1.00  0.00     0.135 A 
ATOM     71  C   UNL     1      14.058   4.371   1.966  1.00  0.00     0.135 A 
ATOM     72  F   UNL     1      12.994   5.051   5.380  1.00  0.00    -0.206 F 
ATOM     73  C   UNL     1      13.441   6.530   3.616  1.00  0.00     0.059 A 
ATOM     74  C   UNL     1      14.149   5.664   1.460  1.00  0.00     0.059 A 
ATOM     75  F   UNL     1      14.345   3.349   1.145  1.00  0.00    -0.206 F 
ATOM     76  C   UNL     1      13.823   6.737   2.290  1.00  0.00     0.060 A 
BRANCH  76  77
ATOM     77  S   UNL     1      13.900   8.429   1.667  1.00  0.00     0.124 S 
ATOM     78  O   UNL     1      12.485   8.732   1.477  1.00  0.00    -0.237 OA
ATOM     79  O   UNL     1      14.557   9.137   2.761  1.00  0.00    -0.237 OA
ATOM     80  O   UNL     1      14.686   8.305   0.444  1.00  0.00    -0.744 OA
ENDBRANCH  76  77
ENDBRANCH  55  69
BRANCH  56  81
ATOM     81  C   UNL     1      12.789  -5.344   6.356  1.00  0.00     0.058 A 
ATOM     82  C   UNL     1      13.181  -5.743   7.643  1.00  0.00     0.135 A 
ATOM     83  C   UNL     1      12.302  -6.330   5.486  1.00  0.00     0.135 A 
ATOM     84  F   UNL     1      13.659  -4.836   8.508  1.00  0.00    -0.206 F 
ATOM     85  C   UNL     1      13.120  -7.073   8.045  1.00  0.00     0.059 A 
ATOM     86  C   UNL     1      12.210  -7.665   5.873  1.00  0.00     0.059 A 
ATOM     87  F   UNL     1      11.897  -5.998   4.250  1.00  0.00    -0.206 F 
ATOM     88  C   UNL     1      12.635  -8.028   7.151  1.00  0.00     0.060 A 
BRANCH  88  89
ATOM     89  S   UNL     1      12.531  -9.749   7.691  1.00  0.00     0.124 S 
ATOM     90  O   UNL     1      13.925 -10.166   7.608  1.00  0.00    -0.237 OA
ATOM     91  O   UNL     1      11.982  -9.618   9.038  1.00  0.00    -0.237 OA
ATOM     92  O   UNL     1      11.630 -10.351   6.713  1.00  0.00    -0.744 OA
ENDBRANCH  88  89
ENDBRANCH  56  81
BRANCH  68  93
ATOM     93  C   UNL     1      18.220  -1.185   5.044  1.00  0.00     0.058 A 
ATOM     94  C   UNL     1      18.914  -1.920   4.072  1.00  0.00     0.135 A 
ATOM     95  C   UNL     1      18.963  -0.592   6.078  1.00  0.00     0.135 A 
ATOM     96  F   UNL     1      18.246  -2.511   3.068  1.00  0.00    -0.206 F 
ATOM     97  C   UNL     1      20.294  -2.076   4.130  1.00  0.00     0.059 A 
ATOM     98  C   UNL     1      20.346  -0.715   6.143  1.00  0.00     0.059 A 
ATOM     99  F   UNL     1      18.345   0.130   7.026  1.00  0.00    -0.206 F 
ATOM    100  C   UNL     1      21.002  -1.468   5.170  1.00  0.00     0.060 A 
BRANCH 100 101
ATOM    101  S   UNL     1      22.799  -1.639   5.213  1.00  0.00     0.124 S 
ATOM    102  O   UNL     1      22.952  -2.996   5.727  1.00  0.00    -0.237 OA
ATOM    103  O   UNL     1      23.168  -1.445   3.814  1.00  0.00    -0.237 OA
ATOM    104  O   UNL     1      23.218  -0.573   6.117  1.00  0.00    -0.744 OA
ENDBRANCH 100 101
ENDBRANCH  68  93
ENDBRANCH  42  43
ENDBRANCH  34  37
ENDBRANCH  32  33
ENDBRANCH  31  32
ENDBRANCH   1  31
TORSDOF 20
