REMARK SMILES O=C(CSc1nnc(Cc2ccncc2)n1-c1ccccc1Cl)NCCCCNC(=O)c1ccc(-c2c3nc(c(-c4c(F)cc(S(=O)(=O)[O-])cc4F)c4ccc([nH]4)c(-c4c(F)cc(S(=O)(=O)[O-])cc4F)c4nc(c(-c5c(F)cc(S(=O)(=O)[O-])cc5F)c5ccc2[nH]5)C=C4)C=C3)cc1
REMARK SMILES IDX 26 1 25 2 24 3 1 4 2 5 3 7 4 8 5 9 6 10 16 11 7 12 8 13
REMARK SMILES IDX 17 14 18 15 22 16 19 17 21 18 23 19 20 20 9 21 10 22 11 23
REMARK SMILES IDX 15 24 12 25 14 26 13 27 27 28 28 29 29 30 30 31 31 33 32 34
REMARK SMILES IDX 33 35 97 36 34 37 96 38 35 39 36 40 37 41 90 42 38 43 95 44
REMARK SMILES IDX 89 45 91 46 39 47 94 48 88 49 87 50 40 52 74 53 53 54 73 55
REMARK SMILES IDX 54 56 57 57 72 58 92 59 55 60 56 61 71 63 93 64 58 65 41 66
REMARK SMILES IDX 42 67 51 68 43 69 44 70 50 71 52 72 45 73 46 74 47 75 48 76
REMARK SMILES IDX 49 77 75 78 76 79 85 80 77 81 78 82 84 83 86 84 79 85 80 86
REMARK SMILES IDX 81 87 82 88 83 89 59 90 60 91 69 92 61 93 62 94 68 95 70 96
REMARK SMILES IDX 63 97 64 98 65 99 66 100 67 101
REMARK H PARENT 24 6 29 32 91 51 57 62
REMARK Flexibility Score: inf
ROOT
ATOM      1  C   UNL     1       2.505   1.680   3.021  1.00  0.00     0.023 C 
ENDROOT
BRANCH   1   2
ATOM      2  C   UNL     1       2.241   1.897   1.520  1.00  0.00     0.116 C 
BRANCH   2   3
ATOM      3  N   UNL     1       2.751   0.842   0.649  1.00  0.00    -0.355 N 
ATOM      4  O   UNL     1       0.669   0.102   0.046  1.00  0.00    -0.274 OA
ATOM      5  C   UNL     1       1.892   0.019  -0.067  1.00  0.00     0.230 C 
ATOM      6  H   UNL     1       3.724   0.712   0.567  1.00  0.00     0.163 HD
BRANCH   5   7
ATOM      7  C   UNL     1       2.516  -1.101  -0.881  1.00  0.00     0.178 C 
BRANCH   7   8
ATOM      8  S   UNL     1       3.610  -0.610  -2.201  1.00  0.00    -0.076 SA
BRANCH   8   9
ATOM      9  C   UNL     1       2.700   0.465  -3.224  1.00  0.00     0.196 A 
ATOM     10  N   UNL     1       1.544   0.237  -3.797  1.00  0.00    -0.123 NA
ATOM     11  N   UNL     1       3.092   1.766  -3.468  1.00  0.00    -0.272 N 
ATOM     12  N   UNL     1       1.151   1.404  -4.432  1.00  0.00    -0.134 NA
ATOM     13  C   UNL     1       2.070   2.336  -4.229  1.00  0.00     0.142 A 
BRANCH  11  14
ATOM     14  C   UNL     1       4.066   2.434  -2.714  1.00  0.00     0.068 A 
ATOM     15  C   UNL     1       3.601   3.445  -1.865  1.00  0.00     0.028 A 
ATOM     16  C   UNL     1       5.428   2.076  -2.774  1.00  0.00     0.065 A 
ATOM     17  C   UNL     1       4.520   4.176  -1.160  1.00  0.00     0.002 A 
ATOM     18  C   UNL     1       6.336   2.799  -2.032  1.00  0.00     0.023 A 
ATOM     19  Cl  UNL     1       6.108   0.903  -3.839  1.00  0.00    -0.082 Cl
ATOM     20  C   UNL     1       5.874   3.863  -1.287  1.00  0.00     0.002 A 
ENDBRANCH  11  14
BRANCH  13  21
ATOM     21  C   UNL     1       1.946   3.805  -4.588  1.00  0.00     0.113 C 
BRANCH  21  22
ATOM     22  C   UNL     1       2.146   4.255  -6.022  1.00  0.00    -0.037 A 
ATOM     23  C   UNL     1       1.762   3.498  -7.127  1.00  0.00     0.024 A 
ATOM     24  C   UNL     1       2.679   5.536  -6.273  1.00  0.00     0.024 A 
ATOM     25  C   UNL     1       1.942   4.032  -8.400  1.00  0.00     0.111 A 
ATOM     26  C   UNL     1       2.824   5.981  -7.581  1.00  0.00     0.111 A 
ATOM     27  N   UNL     1       2.436   5.268  -8.649  1.00  0.00    -0.265 NA
ENDBRANCH  21  22
ENDBRANCH  13  21
ENDBRANCH   8   9
ENDBRANCH   7   8
ENDBRANCH   5   7
ENDBRANCH   2   3
ENDBRANCH   1   2
BRANCH   1  28
ATOM     28  C   UNL     1       3.957   1.825   3.509  1.00  0.00     0.023 C 
BRANCH  28  29
ATOM     29  C   UNL     1       4.595   3.203   3.310  1.00  0.00     0.116 C 
BRANCH  29  30
ATOM     30  N   UNL     1       4.100   4.265   4.210  1.00  0.00    -0.352 N 
ATOM     31  C   UNL     1       4.567   5.580   4.382  1.00  0.00     0.251 C 
ATOM     32  H   UNL     1       3.331   4.015   4.771  1.00  0.00     0.163 HD
ATOM     33  O   UNL     1       4.296   6.211   5.389  1.00  0.00    -0.269 OA
BRANCH  31  34
ATOM     34  C   UNL     1       5.346   6.224   3.292  1.00  0.00     0.039 A 
ATOM     35  C   UNL     1       6.414   7.132   3.417  1.00  0.00     0.014 A 
ATOM     36  C   UNL     1       4.967   5.855   2.038  1.00  0.00     0.014 A 
ATOM     37  C   UNL     1       7.127   7.548   2.256  1.00  0.00     0.010 A 
ATOM     38  C   UNL     1       5.960   5.889   1.115  1.00  0.00     0.010 A 
ATOM     39  C   UNL     1       6.865   6.917   1.044  1.00  0.00    -0.014 A 
BRANCH  39  40
ATOM     40  C   UNL     1       7.601   6.977  -0.234  1.00  0.00     0.031 A 
ATOM     41  C   UNL     1       9.010   6.507  -0.166  1.00  0.00     0.074 A 
ATOM     42  C   UNL     1       7.002   7.059  -1.461  1.00  0.00     0.049 A 
ATOM     43  N   UNL     1      10.060   7.254  -0.206  1.00  0.00    -0.248 NA
ATOM     44  C   UNL     1       9.311   5.089   0.097  1.00  0.00     0.031 C 
ATOM     45  C   UNL     1       5.573   7.179  -1.788  1.00  0.00     0.029 A 
ATOM     46  N   UNL     1       7.554   6.914  -2.711  1.00  0.00    -0.354 N 
ATOM     47  C   UNL     1      11.146   6.388  -0.239  1.00  0.00     0.074 A 
ATOM     48  C   UNL     1      10.644   5.110   0.187  1.00  0.00     0.031 C 
ATOM     49  C   UNL     1       5.362   6.884  -3.098  1.00  0.00     0.029 A 
ATOM     50  C   UNL     1       6.645   6.720  -3.765  1.00  0.00     0.049 A 
ATOM     51  H   UNL     1       8.527   6.945  -2.859  1.00  0.00     0.167 HD
ATOM     52  C   UNL     1      12.306   6.736  -0.865  1.00  0.00     0.037 A 
ATOM     53  C   UNL     1       6.925   6.486  -5.088  1.00  0.00     0.037 A 
ATOM     54  C   UNL     1      12.275   8.124  -1.270  1.00  0.00     0.049 A 
ATOM     55  C   UNL     1       8.284   7.030  -5.321  1.00  0.00     0.074 A 
ATOM     56  C   UNL     1      12.047   9.319  -0.610  1.00  0.00     0.029 A 
ATOM     57  N   UNL     1      12.056   8.395  -2.602  1.00  0.00    -0.354 N 
ATOM     58  N   UNL     1       8.562   8.302  -5.229  1.00  0.00    -0.248 NA
ATOM     59  C   UNL     1       9.409   6.125  -5.147  1.00  0.00     0.031 C 
ATOM     60  C   UNL     1      11.202  10.064  -1.487  1.00  0.00     0.029 A 
ATOM     61  C   UNL     1      11.053   9.331  -2.664  1.00  0.00     0.049 A 
ATOM     62  H   UNL     1      12.529   7.992  -3.366  1.00  0.00     0.167 HD
ATOM     63  C   UNL     1       9.763   8.344  -4.539  1.00  0.00     0.074 A 
ATOM     64  C   UNL     1      10.280   6.973  -4.590  1.00  0.00     0.031 C 
ATOM     65  C   UNL     1      10.079   9.399  -3.730  1.00  0.00     0.037 A 
BRANCH  52  66
ATOM     66  C   UNL     1      13.322   5.776  -1.432  1.00  0.00     0.058 A 
ATOM     67  C   UNL     1      14.588   6.273  -1.805  1.00  0.00     0.135 A 
ATOM     68  C   UNL     1      13.032   4.462  -1.857  1.00  0.00     0.135 A 
ATOM     69  F   UNL     1      14.963   7.515  -1.458  1.00  0.00    -0.206 F 
ATOM     70  C   UNL     1      15.473   5.546  -2.599  1.00  0.00     0.059 A 
ATOM     71  C   UNL     1      13.925   3.695  -2.600  1.00  0.00     0.059 A 
ATOM     72  F   UNL     1      11.836   3.895  -1.659  1.00  0.00    -0.206 F 
ATOM     73  C   UNL     1      15.126   4.261  -3.001  1.00  0.00     0.060 A 
BRANCH  73  74
ATOM     74  S   UNL     1      16.230   3.360  -4.102  1.00  0.00     0.124 S 
ATOM     75  O   UNL     1      16.097   4.127  -5.335  1.00  0.00    -0.237 OA
ATOM     76  O   UNL     1      17.508   3.477  -3.408  1.00  0.00    -0.237 OA
ATOM     77  O   UNL     1      15.656   2.018  -4.125  1.00  0.00    -0.744 OA
ENDBRANCH  73  74
ENDBRANCH  52  66
BRANCH  53  78
ATOM     78  C   UNL     1       6.297   5.518  -6.054  1.00  0.00     0.058 A 
ATOM     79  C   UNL     1       6.509   5.504  -7.448  1.00  0.00     0.135 A 
ATOM     80  C   UNL     1       5.662   4.378  -5.556  1.00  0.00     0.135 A 
ATOM     81  F   UNL     1       7.116   6.545  -8.038  1.00  0.00    -0.206 F 
ATOM     82  C   UNL     1       6.130   4.418  -8.273  1.00  0.00     0.059 A 
ATOM     83  C   UNL     1       5.310   3.274  -6.336  1.00  0.00     0.059 A 
ATOM     84  F   UNL     1       5.359   4.324  -4.261  1.00  0.00    -0.206 F 
ATOM     85  C   UNL     1       5.551   3.288  -7.699  1.00  0.00     0.060 A 
BRANCH  85  86
ATOM     86  S   UNL     1       5.120   1.827  -8.689  1.00  0.00     0.124 S 
ATOM     87  O   UNL     1       4.251   2.367  -9.728  1.00  0.00    -0.237 OA
ATOM     88  O   UNL     1       6.429   1.366  -9.136  1.00  0.00    -0.237 OA
ATOM     89  O   UNL     1       4.450   0.955  -7.725  1.00  0.00    -0.744 OA
ENDBRANCH  85  86
ENDBRANCH  53  78
BRANCH  65  90
ATOM     90  C   UNL     1       9.215  10.637  -3.786  1.00  0.00     0.058 A 
ATOM     91  C   UNL     1       7.863  10.689  -3.400  1.00  0.00     0.135 A 
ATOM     92  C   UNL     1       9.830  11.860  -4.086  1.00  0.00     0.135 A 
ATOM     93  F   UNL     1       7.216   9.590  -3.000  1.00  0.00    -0.206 F 
ATOM     94  C   UNL     1       7.148  11.886  -3.345  1.00  0.00     0.059 A 
ATOM     95  C   UNL     1       9.146  13.072  -4.014  1.00  0.00     0.059 A 
ATOM     96  F   UNL     1      11.134  11.893  -4.404  1.00  0.00    -0.206 F 
ATOM     97  C   UNL     1       7.800  13.076  -3.654  1.00  0.00     0.060 A 
BRANCH  97  98
ATOM     98  S   UNL     1       6.895  14.632  -3.513  1.00  0.00     0.124 S 
ATOM     99  O   UNL     1       5.992  14.564  -4.657  1.00  0.00    -0.237 OA
ATOM    100  O   UNL     1       6.264  14.515  -2.201  1.00  0.00    -0.237 OA
ATOM    101  O   UNL     1       7.944  15.645  -3.602  1.00  0.00    -0.744 OA
ENDBRANCH  97  98
ENDBRANCH  65  90
ENDBRANCH  39  40
ENDBRANCH  31  34
ENDBRANCH  29  30
ENDBRANCH  28  29
ENDBRANCH   1  28
TORSDOF 19
