REMARK SMILES COc1cc([C@H]2[NH2+]CCC3=c4ccccc4=N[C@H]32)ccc1OCC(=O)NCCCCNC(=O)c1ccc(-c2c3nc(c(-c4c(F)cc(S(=O)(=O)[O-])cc4F)c4ccc([nH]4)c(-c4c(F)cc(S(=O)(=O)[O-])cc4F)c4nc(c(-c5c(F)cc(S(=O)(=O)[O-])cc5F)c5ccc2[nH]5)C=C4)C=C3)cc1
REMARK SMILES IDX 28 1 27 2 26 3 24 4 25 5 23 7 22 8 21 9 3 10 4 11 5 12 20 13
REMARK SMILES IDX 19 14 2 15 1 16 6 17 7 18 18 19 8 20 10 23 17 24 9 25 11 26
REMARK SMILES IDX 16 27 12 28 15 29 13 30 14 31 29 32 30 33 31 34 32 35 33 37
REMARK SMILES IDX 34 38 35 39 99 40 36 41 98 42 37 43 38 44 39 45 92 46 40 47
REMARK SMILES IDX 97 48 91 49 93 50 41 51 96 52 90 53 89 54 42 56 76 57 55 58
REMARK SMILES IDX 75 59 56 60 59 61 74 62 94 63 57 64 58 65 73 67 95 68 60 69
REMARK SMILES IDX 43 70 44 71 53 72 45 73 46 74 52 75 54 76 47 77 48 78 49 79
REMARK SMILES IDX 50 80 51 81 77 82 78 83 87 84 79 85 80 86 86 87 88 88 81 89
REMARK SMILES IDX 82 90 83 91 84 92 85 93 61 94 62 95 71 96 63 97 64 98 70 99
REMARK SMILES IDX 72 100 65 101 66 102 67 103 68 104 69 105
REMARK H PARENT 26 6 7 21 7 22 31 36 93 55 59 66
REMARK Flexibility Score: inf
ROOT
ATOM      1  C   UNL     1       2.076  12.370  -0.365  1.00  0.00     0.023 C 
ENDROOT
BRANCH   1   2
ATOM      2  C   UNL     1       1.824  12.818  -1.801  1.00  0.00     0.116 C 
BRANCH   2   3
ATOM      3  N   UNL     1       2.440  11.957  -2.791  1.00  0.00    -0.353 N 
ATOM      4  C   UNL     1       1.821  11.193  -3.741  1.00  0.00     0.257 C 
ATOM      5  O   UNL     1       2.506  10.722  -4.652  1.00  0.00    -0.271 OA
ATOM      6  H   UNL     1       3.424  11.918  -2.778  1.00  0.00     0.163 HD
BRANCH   4   7
ATOM      7  C   UNL     1       0.305  11.011  -3.684  1.00  0.00     0.329 C 
BRANCH   7   8
ATOM      8  O   UNL     1      -0.205  10.723  -2.395  1.00  0.00    -0.480 OA
BRANCH   8   9
ATOM      9  C   UNL     1      -0.017   9.496  -1.827  1.00  0.00     0.161 A 
ATOM     10  C   UNL     1       0.222   8.273  -2.452  1.00  0.00     0.161 A 
ATOM     11  C   UNL     1       0.084   7.086  -1.718  1.00  0.00     0.060 A 
ATOM     12  C   UNL     1      -0.280   7.114  -0.358  1.00  0.00     0.016 A 
ATOM     13  C   UNL     1      -0.195   9.513  -0.437  1.00  0.00     0.051 A 
ATOM     14  C   UNL     1      -0.249   8.338   0.309  1.00  0.00     0.014 A 
BRANCH  10  15
ATOM     15  O   UNL     1       0.362   8.171  -3.809  1.00  0.00    -0.493 OA
ATOM     16  C   UNL     1       1.700   7.834  -4.181  1.00  0.00     0.278 C 
ENDBRANCH  10  15
BRANCH  12  17
ATOM     17  C   UNL     1      -0.942   5.886   0.270  1.00  0.00     0.243 C 
ATOM     18  N   UNL     1      -0.001   5.053   1.058  1.00  0.00    -0.338 N 
ATOM     19  C   UNL     1      -2.409   6.128   0.841  1.00  0.00     0.196 C 
ATOM     20  C   UNL     1      -0.315   4.827   2.473  1.00  0.00     0.265 C 
ATOM     21  H   UNL     1       0.913   5.504   1.017  1.00  0.00     0.346 HD
ATOM     22  H   UNL     1      -0.053   4.129   0.630  1.00  0.00     0.346 HD
ATOM     23  C   UNL     1      -2.462   5.905   2.318  1.00  0.00    -0.025 C 
ATOM     24  N   UNL     1      -2.960   7.508   0.658  1.00  0.00    -0.270 NA
ATOM     25  C   UNL     1      -1.804   4.673   2.805  1.00  0.00     0.095 C 
ATOM     26  C   UNL     1      -2.937   6.959   2.969  1.00  0.00     0.001 A 
ATOM     27  C   UNL     1      -3.175   7.914   1.874  1.00  0.00     0.066 A 
ATOM     28  C   UNL     1      -3.094   7.317   4.338  1.00  0.00     0.010 A 
ATOM     29  C   UNL     1      -3.572   9.282   2.281  1.00  0.00     0.028 A 
ATOM     30  C   UNL     1      -3.455   8.576   4.635  1.00  0.00     0.001 A 
ATOM     31  C   UNL     1      -3.677   9.566   3.591  1.00  0.00     0.002 A 
ENDBRANCH  12  17
ENDBRANCH   8   9
ENDBRANCH   7   8
ENDBRANCH   4   7
ENDBRANCH   2   3
ENDBRANCH   1   2
BRANCH   1  32
ATOM     32  C   UNL     1       3.540  12.261   0.050  1.00  0.00     0.023 C 
BRANCH  32  33
ATOM     33  C   UNL     1       4.403  13.456  -0.316  1.00  0.00     0.116 C 
BRANCH  33  34
ATOM     34  N   UNL     1       3.875  14.712   0.193  1.00  0.00    -0.352 N 
ATOM     35  C   UNL     1       4.522  15.713   0.871  1.00  0.00     0.251 C 
ATOM     36  H   UNL     1       2.916  14.865   0.027  1.00  0.00     0.163 HD
ATOM     37  O   UNL     1       3.879  16.651   1.337  1.00  0.00    -0.269 OA
BRANCH  35  38
ATOM     38  C   UNL     1       5.984  15.636   1.067  1.00  0.00     0.039 A 
ATOM     39  C   UNL     1       6.506  15.906   2.333  1.00  0.00     0.014 A 
ATOM     40  C   UNL     1       6.832  15.271   0.017  1.00  0.00     0.014 A 
ATOM     41  C   UNL     1       7.874  15.753   2.560  1.00  0.00     0.010 A 
ATOM     42  C   UNL     1       8.178  15.031   0.269  1.00  0.00     0.010 A 
ATOM     43  C   UNL     1       8.716  15.280   1.540  1.00  0.00    -0.014 A 
BRANCH  43  44
ATOM     44  C   UNL     1      10.164  15.053   1.783  1.00  0.00     0.031 A 
ATOM     45  C   UNL     1      11.190  15.843   1.015  1.00  0.00     0.074 A 
ATOM     46  C   UNL     1      10.553  14.100   2.653  1.00  0.00     0.049 A 
ATOM     47  N   UNL     1      12.494  15.757   1.052  1.00  0.00    -0.248 NA
ATOM     48  C   UNL     1      10.683  16.842   0.060  1.00  0.00     0.031 C 
ATOM     49  C   UNL     1       9.653  13.232   3.416  1.00  0.00     0.029 A 
ATOM     50  N   UNL     1      11.807  13.695   3.038  1.00  0.00    -0.354 N 
ATOM     51  C   UNL     1      12.961  16.677   0.120  1.00  0.00     0.074 A 
ATOM     52  C   UNL     1      11.801  17.267  -0.509  1.00  0.00     0.031 C 
ATOM     53  C   UNL     1      10.382  12.417   4.195  1.00  0.00     0.029 A 
ATOM     54  C   UNL     1      11.800  12.674   3.960  1.00  0.00     0.049 A 
ATOM     55  H   UNL     1      12.634  14.098   2.688  1.00  0.00     0.167 HD
ATOM     56  C   UNL     1      14.240  17.017  -0.167  1.00  0.00     0.037 A 
ATOM     57  C   UNL     1      12.819  12.015   4.544  1.00  0.00     0.037 A 
ATOM     58  C   UNL     1      15.389  16.440   0.481  1.00  0.00     0.049 A 
ATOM     59  C   UNL     1      14.232  12.413   4.211  1.00  0.00     0.074 A 
ATOM     60  C   UNL     1      16.724  16.757   0.306  1.00  0.00     0.029 A 
ATOM     61  N   UNL     1      15.341  15.424   1.426  1.00  0.00    -0.354 N 
ATOM     62  N   UNL     1      14.655  13.334   3.377  1.00  0.00    -0.248 NA
ATOM     63  C   UNL     1      15.307  11.691   4.905  1.00  0.00     0.031 C 
ATOM     64  C   UNL     1      17.486  15.898   1.104  1.00  0.00     0.029 A 
ATOM     65  C   UNL     1      16.624  15.088   1.825  1.00  0.00     0.049 A 
ATOM     66  H   UNL     1      14.516  15.005   1.763  1.00  0.00     0.167 HD
ATOM     67  C   UNL     1      16.043  13.324   3.471  1.00  0.00     0.074 A 
ATOM     68  C   UNL     1      16.386  12.314   4.451  1.00  0.00     0.031 C 
ATOM     69  C   UNL     1      16.950  14.084   2.809  1.00  0.00     0.037 A 
BRANCH  56  70
ATOM     70  C   UNL     1      14.466  18.061  -1.227  1.00  0.00     0.058 A 
ATOM     71  C   UNL     1      14.115  19.407  -1.028  1.00  0.00     0.135 A 
ATOM     72  C   UNL     1      15.077  17.720  -2.445  1.00  0.00     0.135 A 
ATOM     73  F   UNL     1      13.513  19.787   0.111  1.00  0.00    -0.206 F 
ATOM     74  C   UNL     1      14.334  20.370  -2.007  1.00  0.00     0.059 A 
ATOM     75  C   UNL     1      15.335  18.673  -3.426  1.00  0.00     0.059 A 
ATOM     76  F   UNL     1      15.432  16.450  -2.692  1.00  0.00    -0.206 F 
ATOM     77  C   UNL     1      14.947  19.993  -3.203  1.00  0.00     0.060 A 
BRANCH  77  78
ATOM     78  S   UNL     1      15.235  21.259  -4.458  1.00  0.00     0.124 S 
ATOM     79  O   UNL     1      13.877  21.515  -4.929  1.00  0.00    -0.237 OA
ATOM     80  O   UNL     1      15.848  22.332  -3.682  1.00  0.00    -0.237 OA
ATOM     81  O   UNL     1      16.116  20.597  -5.414  1.00  0.00    -0.744 OA
ENDBRANCH  77  78
ENDBRANCH  56  70
BRANCH  57  82
ATOM     82  C   UNL     1      12.540  10.926   5.519  1.00  0.00     0.058 A 
ATOM     83  C   UNL     1      12.821  11.086   6.884  1.00  0.00     0.135 A 
ATOM     84  C   UNL     1      11.973   9.709   5.109  1.00  0.00     0.135 A 
ATOM     85  F   UNL     1      13.369  12.228   7.327  1.00  0.00    -0.206 F 
ATOM     86  C   UNL     1      12.570  10.074   7.805  1.00  0.00     0.059 A 
ATOM     87  C   UNL     1      11.685   8.693   6.014  1.00  0.00     0.059 A 
ATOM     88  F   UNL     1      11.667   9.511   3.817  1.00  0.00    -0.206 F 
ATOM     89  C   UNL     1      11.997   8.881   7.360  1.00  0.00     0.060 A 
BRANCH  89  90
ATOM     90  S   UNL     1      11.629   7.593   8.571  1.00  0.00     0.124 S 
ATOM     91  O   UNL     1      12.964   7.113   8.906  1.00  0.00    -0.237 OA
ATOM     92  O   UNL     1      10.938   8.344   9.615  1.00  0.00    -0.237 OA
ATOM     93  O   UNL     1      10.791   6.659   7.824  1.00  0.00    -0.744 OA
ENDBRANCH  89  90
ENDBRANCH  57  82
BRANCH  69  94
ATOM     94  C   UNL     1      18.403  13.889   3.152  1.00  0.00     0.058 A 
ATOM     95  C   UNL     1      19.105  12.732   2.781  1.00  0.00     0.135 A 
ATOM     96  C   UNL     1      19.112  14.898   3.824  1.00  0.00     0.135 A 
ATOM     97  F   UNL     1      18.476  11.734   2.142  1.00  0.00    -0.206 F 
ATOM     98  C   UNL     1      20.452  12.569   3.092  1.00  0.00     0.059 A 
ATOM     99  C   UNL     1      20.466  14.771   4.115  1.00  0.00     0.059 A 
ATOM    100  F   UNL     1      18.492  16.031   4.191  1.00  0.00    -0.206 F 
ATOM    101  C   UNL     1      21.124  13.596   3.758  1.00  0.00     0.060 A 
BRANCH 101 102
ATOM    102  S   UNL     1      22.876  13.381   4.134  1.00  0.00     0.124 S 
ATOM    103  O   UNL     1      22.827  12.401   5.214  1.00  0.00    -0.237 OA
ATOM    104  O   UNL     1      23.412  12.900   2.865  1.00  0.00    -0.237 OA
ATOM    105  O   UNL     1      23.308  14.721   4.522  1.00  0.00    -0.744 OA
ENDBRANCH 101 102
ENDBRANCH  69  94
ENDBRANCH  43  44
ENDBRANCH  35  38
ENDBRANCH  33  34
ENDBRANCH  32  33
ENDBRANCH   1  32
TORSDOF 18
