REMARK SMILES CSCC[C@@H](C(=O)NCCCCNC(=O)c1ccc(-c2c3nc(c(-c4c(F)cc(S(=O)(=O)[O-])cc4F)c4ccc([nH]4)c(-c4c(F)cc(S(=O)(=O)[O-])cc4F)c4nc(c(-c5c(F)cc(S(=O)(=O)[O-])cc5F)c5ccc2[nH]5)C=C4)C=C3)cc1)N1C(=O)/C(=C/c2ccc(Cl)cc2Cl)SC1=S
REMARK SMILES IDX 10 1 9 2 8 3 6 4 7 5 5 7 4 8 3 9 2 10 1 11 82 12 83 13 96 14
REMARK SMILES IDX 84 15 85 16 95 17 97 18 86 19 87 20 88 21 93 22 89 23 92 24
REMARK SMILES IDX 94 25 90 26 91 27 11 28 12 29 13 30 14 31 15 33 16 34 17 35
REMARK SMILES IDX 81 36 18 37 80 38 19 39 20 40 21 41 74 42 22 43 79 44 73 45
REMARK SMILES IDX 75 46 23 47 78 48 72 49 71 50 24 52 58 53 37 54 57 55 38 56
REMARK SMILES IDX 41 57 56 58 76 59 39 60 40 61 55 63 77 64 42 65 25 66 26 67
REMARK SMILES IDX 35 68 27 69 28 70 34 71 36 72 29 73 30 74 31 75 32 76 33 77
REMARK SMILES IDX 59 78 60 79 69 80 61 81 62 82 68 83 70 84 63 85 64 86 65 87
REMARK SMILES IDX 66 88 67 89 43 90 44 91 53 92 45 93 46 94 52 95 54 96 47 97
REMARK SMILES IDX 48 98 49 99 50 100 51 101
REMARK H PARENT 8 6 13 32 75 51 41 62
REMARK Flexibility Score: inf
ROOT
ATOM      1  C   UNL     1       3.145   2.486   1.905  1.00  0.00     0.023 C 
ENDROOT
BRANCH   1   2
ATOM      2  C   UNL     1       3.139   0.987   1.601  1.00  0.00     0.116 C 
BRANCH   2   3
ATOM      3  N   UNL     1       3.314   0.232   2.818  1.00  0.00    -0.354 N 
ATOM      4  C   UNL     1       2.422  -0.476   3.560  1.00  0.00     0.243 C 
ATOM      5  O   UNL     1       2.868  -0.988   4.593  1.00  0.00    -0.273 OA
ATOM      6  H   UNL     1       4.233   0.230   3.171  1.00  0.00     0.163 HD
BRANCH   4   7
ATOM      7  C   UNL     1       0.941  -0.669   3.120  1.00  0.00     0.182 C 
BRANCH   7   8
ATOM      8  C   UNL     1       0.010   0.544   3.315  1.00  0.00     0.046 C 
BRANCH   8   9
ATOM      9  C   UNL     1      -0.303   1.456   2.124  1.00  0.00     0.072 C 
BRANCH   9  10
ATOM     10  S   UNL     1      -1.464   0.770   0.895  1.00  0.00    -0.165 SA
ATOM     11  C   UNL     1      -0.330  -0.066  -0.240  1.00  0.00     0.085 C 
ENDBRANCH   9  10
ENDBRANCH   8   9
ENDBRANCH   7   8
BRANCH   7  12
ATOM     12  N   UNL     1       0.502  -1.883   3.877  1.00  0.00    -0.280 N 
ATOM     13  C   UNL     1       0.726  -3.115   3.275  1.00  0.00     0.266 C 
ATOM     14  C   UNL     1       0.110  -1.933   5.208  1.00  0.00     0.149 C 
ATOM     15  O   UNL     1       1.164  -3.294   2.145  1.00  0.00    -0.268 OA
ATOM     16  C   UNL     1       0.376  -4.229   4.196  1.00  0.00     0.081 C 
ATOM     17  S   UNL     1      -0.160  -3.603   5.698  1.00  0.00    -0.054 SA
ATOM     18  S   UNL     1      -0.132  -0.709   6.322  1.00  0.00    -0.052 S 
ATOM     19  C   UNL     1       0.477  -5.522   3.855  1.00  0.00     0.031 C 
BRANCH  19  20
ATOM     20  C   UNL     1       0.064  -6.640   4.721  1.00  0.00    -0.006 A 
ATOM     21  C   UNL     1       1.054  -7.374   5.390  1.00  0.00     0.011 A 
ATOM     22  C   UNL     1      -1.288  -6.979   4.924  1.00  0.00     0.049 A 
ATOM     23  C   UNL     1       0.700  -8.418   6.252  1.00  0.00     0.021 A 
ATOM     24  C   UNL     1      -1.640  -8.015   5.793  1.00  0.00     0.041 A 
ATOM     25  Cl  UNL     1      -2.571  -6.150   4.109  1.00  0.00    -0.084 Cl
ATOM     26  C   UNL     1      -0.644  -8.728   6.452  1.00  0.00     0.042 A 
ATOM     27  Cl  UNL     1      -1.078 -10.006   7.520  1.00  0.00    -0.084 Cl
ENDBRANCH  19  20
ENDBRANCH   7  12
ENDBRANCH   4   7
ENDBRANCH   2   3
ENDBRANCH   1   2
BRANCH   1  28
ATOM     28  C   UNL     1       4.540   3.108   1.859  1.00  0.00     0.023 C 
BRANCH  28  29
ATOM     29  C   UNL     1       5.135   3.193   0.457  1.00  0.00     0.116 C 
BRANCH  29  30
ATOM     30  N   UNL     1       4.359   4.029  -0.450  1.00  0.00    -0.352 N 
ATOM     31  C   UNL     1       4.824   4.881  -1.426  1.00  0.00     0.251 C 
ATOM     32  H   UNL     1       3.381   3.979  -0.353  1.00  0.00     0.163 HD
ATOM     33  O   UNL     1       4.048   5.593  -2.054  1.00  0.00    -0.269 OA
BRANCH  31  34
ATOM     34  C   UNL     1       6.278   4.952  -1.665  1.00  0.00     0.039 A 
ATOM     35  C   UNL     1       6.915   6.192  -1.596  1.00  0.00     0.014 A 
ATOM     36  C   UNL     1       7.015   3.780  -1.855  1.00  0.00     0.014 A 
ATOM     37  C   UNL     1       8.309   6.248  -1.633  1.00  0.00     0.010 A 
ATOM     38  C   UNL     1       8.402   3.831  -1.812  1.00  0.00     0.010 A 
ATOM     39  C   UNL     1       9.063   5.064  -1.694  1.00  0.00    -0.014 A 
BRANCH  39  40
ATOM     40  C   UNL     1      10.546   5.088  -1.628  1.00  0.00     0.031 A 
ATOM     41  C   UNL     1      11.354   4.578  -2.789  1.00  0.00     0.074 A 
ATOM     42  C   UNL     1      11.159   5.487  -0.495  1.00  0.00     0.049 A 
ATOM     43  N   UNL     1      12.648   4.419  -2.888  1.00  0.00    -0.248 NA
ATOM     44  C   UNL     1      10.604   4.155  -3.983  1.00  0.00     0.031 C 
ATOM     45  C   UNL     1      10.482   5.941   0.722  1.00  0.00     0.029 A 
ATOM     46  N   UNL     1      12.492   5.561  -0.178  1.00  0.00    -0.354 N 
ATOM     47  C   UNL     1      12.865   3.862  -4.142  1.00  0.00     0.074 A 
ATOM     48  C   UNL     1      11.566   3.657  -4.745  1.00  0.00     0.031 C 
ATOM     49  C   UNL     1      11.403   6.265   1.645  1.00  0.00     0.029 A 
ATOM     50  C   UNL     1      12.732   6.013   1.099  1.00  0.00     0.049 A 
ATOM     51  H   UNL     1      13.209   5.314  -0.805  1.00  0.00     0.167 HD
ATOM     52  C   UNL     1      14.040   3.573  -4.748  1.00  0.00     0.037 A 
ATOM     53  C   UNL     1      13.894   6.198   1.756  1.00  0.00     0.037 A 
ATOM     54  C   UNL     1      15.330   3.817  -4.160  1.00  0.00     0.049 A 
ATOM     55  C   UNL     1      15.189   5.905   1.048  1.00  0.00     0.074 A 
ATOM     56  C   UNL     1      16.581   3.616  -4.713  1.00  0.00     0.029 A 
ATOM     57  N   UNL     1      15.533   4.326  -2.885  1.00  0.00    -0.354 N 
ATOM     58  N   UNL     1      15.377   5.433  -0.161  1.00  0.00    -0.248 NA
ATOM     59  C   UNL     1      16.428   6.178   1.788  1.00  0.00     0.031 C 
ATOM     60  C   UNL     1      17.543   3.978  -3.763  1.00  0.00     0.029 A 
ATOM     61  C   UNL     1      16.889   4.439  -2.631  1.00  0.00     0.049 A 
ATOM     62  H   UNL     1      14.818   4.570  -2.253  1.00  0.00     0.167 HD
ATOM     63  C   UNL     1      16.755   5.374  -0.335  1.00  0.00     0.074 A 
ATOM     64  C   UNL     1      17.352   5.870   0.888  1.00  0.00     0.031 C 
ATOM     65  C   UNL     1      17.462   4.946  -1.410  1.00  0.00     0.037 A 
BRANCH  52  66
ATOM     66  C   UNL     1      13.979   2.979  -6.127  1.00  0.00     0.058 A 
ATOM     67  C   UNL     1      13.572   3.740  -7.236  1.00  0.00     0.135 A 
ATOM     68  C   UNL     1      14.342   1.641  -6.349  1.00  0.00     0.135 A 
ATOM     69  F   UNL     1      13.196   5.019  -7.077  1.00  0.00    -0.206 F 
ATOM     70  C   UNL     1      13.495   3.186  -8.509  1.00  0.00     0.059 A 
ATOM     71  C   UNL     1      14.299   1.074  -7.619  1.00  0.00     0.059 A 
ATOM     72  F   UNL     1      14.736   0.869  -5.324  1.00  0.00    -0.206 F 
ATOM     73  C   UNL     1      13.857   1.851  -8.690  1.00  0.00     0.060 A 
BRANCH  73  74
ATOM     74  S   UNL     1      13.747   1.145 -10.348  1.00  0.00     0.124 S 
ATOM     75  O   UNL     1      12.306   0.961 -10.488  1.00  0.00    -0.237 OA
ATOM     76  O   UNL     1      14.336   2.193 -11.175  1.00  0.00    -0.237 OA
ATOM     77  O   UNL     1      14.530  -0.083 -10.246  1.00  0.00    -0.744 OA
ENDBRANCH  73  74
ENDBRANCH  52  66
BRANCH  53  78
ATOM     78  C   UNL     1      13.886   6.715   3.150  1.00  0.00     0.058 A 
ATOM     79  C   UNL     1      14.295   8.026   3.433  1.00  0.00     0.135 A 
ATOM     80  C   UNL     1      13.456   5.918   4.221  1.00  0.00     0.135 A 
ATOM     81  F   UNL     1      14.719   8.825   2.442  1.00  0.00    -0.206 F 
ATOM     82  C   UNL     1      14.296   8.525   4.731  1.00  0.00     0.059 A 
ATOM     83  C   UNL     1      13.426   6.402   5.526  1.00  0.00     0.059 A 
ATOM     84  F   UNL     1      13.036   4.663   4.000  1.00  0.00    -0.206 F 
ATOM     85  C   UNL     1      13.859   7.705   5.772  1.00  0.00     0.060 A 
BRANCH  85  86
ATOM     86  S   UNL     1      13.815   8.377   7.448  1.00  0.00     0.124 S 
ATOM     87  O   UNL     1      15.228   8.360   7.807  1.00  0.00    -0.237 OA
ATOM     88  O   UNL     1      13.226   9.695   7.236  1.00  0.00    -0.237 OA
ATOM     89  O   UNL     1      12.968   7.429   8.166  1.00  0.00    -0.744 OA
ENDBRANCH  85  86
ENDBRANCH  53  78
BRANCH  65  90
ATOM     90  C   UNL     1      18.960   5.026  -1.327  1.00  0.00     0.058 A 
ATOM     91  C   UNL     1      19.702   4.117  -0.557  1.00  0.00     0.135 A 
ATOM     92  C   UNL     1      19.662   5.986  -2.072  1.00  0.00     0.135 A 
ATOM     93  F   UNL     1      19.076   3.184   0.178  1.00  0.00    -0.206 F 
ATOM     94  C   UNL     1      21.091   4.170  -0.514  1.00  0.00     0.059 A 
ATOM     95  C   UNL     1      21.052   6.042  -2.062  1.00  0.00     0.059 A 
ATOM     96  F   UNL     1      18.998   6.871  -2.831  1.00  0.00    -0.206 F 
ATOM     97  C   UNL     1      21.757   5.135  -1.272  1.00  0.00     0.060 A 
BRANCH  97  98
ATOM     98  S   UNL     1      23.562   5.168  -1.241  1.00  0.00     0.124 S 
ATOM     99  O   UNL     1      23.821   5.784   0.056  1.00  0.00    -0.237 OA
ATOM    100  O   UNL     1      23.904   3.753  -1.351  1.00  0.00    -0.237 OA
ATOM    101  O   UNL     1      23.906   5.981  -2.404  1.00  0.00    -0.744 OA
ENDBRANCH  97  98
ENDBRANCH  65  90
ENDBRANCH  39  40
ENDBRANCH  31  34
ENDBRANCH  29  30
ENDBRANCH  28  29
ENDBRANCH   1  28
TORSDOF 19
