REMARK SMILES C[C@H]1[C@@H](C(=O)NCCCCNC(=O)c2ccc(-c3c4nc(c(-c5c(F)cc(S(=O)(=O)[O-])cc5F)c5ccc([nH]5)c(-c5c(F)cc(S(=O)(=O)[O-])cc5F)c5nc(c(-c6c(F)cc(S(=O)(=O)[O-])cc6F)c6ccc3[nH]6)C=C5)C=C4)cc2)CCN1S(=O)(=O)c1ccc(Cl)cc1
REMARK SMILES IDX 9 1 8 2 7 3 6 4 4 5 5 6 3 8 1 9 2 10 82 11 80 12 81 13 83 14
REMARK SMILES IDX 84 15 85 16 86 17 87 18 92 19 88 20 91 21 89 22 90 23 10 24
REMARK SMILES IDX 11 25 12 26 13 28 14 29 15 30 79 31 16 32 78 33 17 34 18 35
REMARK SMILES IDX 19 36 72 37 20 38 77 39 71 40 73 41 21 42 76 43 70 44 69 45
REMARK SMILES IDX 22 47 56 48 35 49 55 50 36 51 39 52 54 53 74 54 37 55 38 56
REMARK SMILES IDX 53 58 75 59 40 60 23 61 24 62 33 63 25 64 26 65 32 66 34 67
REMARK SMILES IDX 27 68 28 69 29 70 30 71 31 72 57 73 58 74 67 75 59 76 60 77
REMARK SMILES IDX 66 78 68 79 61 80 62 81 63 82 64 83 65 84 41 85 42 86 51 87
REMARK SMILES IDX 43 88 44 89 50 90 52 91 45 92 46 93 47 94 48 95 49 96
REMARK H PARENT 6 7 11 27 73 46 39 57
REMARK Flexibility Score: inf
ROOT
ATOM      1  C   UNL     1       4.234   0.737  -3.151  1.00  0.00     0.023 C 
ENDROOT
BRANCH   1   2
ATOM      2  C   UNL     1       3.439   0.418  -1.899  1.00  0.00     0.023 C 
BRANCH   2   3
ATOM      3  C   UNL     1       2.697   1.605  -1.272  1.00  0.00     0.116 C 
BRANCH   3   4
ATOM      4  N   UNL     1       1.392   1.716  -1.888  1.00  0.00    -0.356 N 
ATOM      5  C   UNL     1       0.195   1.191  -1.502  1.00  0.00     0.224 C 
ATOM      6  O   UNL     1      -0.677   1.097  -2.368  1.00  0.00    -0.275 OA
ATOM      7  H   UNL     1       1.365   2.254  -2.712  1.00  0.00     0.163 HD
BRANCH   5   8
ATOM      8  C   UNL     1      -0.095   0.887  -0.030  1.00  0.00     0.098 C 
ATOM      9  C   UNL     1       1.557  -1.194  -0.003  1.00  0.00     0.026 C 
ATOM     10  C   UNL     1       0.503  -0.347   0.679  1.00  0.00     0.082 C 
ATOM     11  N   UNL     1      -0.619  -1.293   0.967  1.00  0.00    -0.194 NA
ATOM     12  C   UNL     1      -1.606   0.709   0.198  1.00  0.00     0.032 C 
ATOM     13  C   UNL     1      -1.792  -0.797   0.211  1.00  0.00     0.104 C 
BRANCH  11  14
ATOM     14  S   UNL     1      -0.897  -1.706   2.595  1.00  0.00     0.243 S 
ATOM     15  O   UNL     1      -1.171  -0.482   3.319  1.00  0.00    -0.207 OA
ATOM     16  O   UNL     1      -1.832  -2.812   2.619  1.00  0.00    -0.207 OA
BRANCH  14  17
ATOM     17  C   UNL     1       0.686  -2.317   3.161  1.00  0.00     0.082 A 
ATOM     18  C   UNL     1       0.978  -3.683   3.101  1.00  0.00     0.023 A 
ATOM     19  C   UNL     1       1.613  -1.420   3.712  1.00  0.00     0.023 A 
ATOM     20  C   UNL     1       2.218  -4.142   3.560  1.00  0.00     0.022 A 
ATOM     21  C   UNL     1       2.859  -1.880   4.142  1.00  0.00     0.022 A 
ATOM     22  C   UNL     1       3.155  -3.240   4.068  1.00  0.00     0.041 A 
ATOM     23  Cl  UNL     1       4.682  -3.807   4.621  1.00  0.00    -0.084 Cl
ENDBRANCH  14  17
ENDBRANCH  11  14
ENDBRANCH   5   8
ENDBRANCH   3   4
ENDBRANCH   2   3
ENDBRANCH   1   2
BRANCH   1  24
ATOM     24  C   UNL     1       5.496   1.532  -2.880  1.00  0.00     0.116 C 
BRANCH  24  25
ATOM     25  N   UNL     1       6.420   0.870  -1.961  1.00  0.00    -0.352 N 
ATOM     26  C   UNL     1       7.788   0.764  -2.056  1.00  0.00     0.251 C 
ATOM     27  H   UNL     1       6.010   0.447  -1.172  1.00  0.00     0.163 HD
ATOM     28  O   UNL     1       8.424   0.101  -1.245  1.00  0.00    -0.269 OA
BRANCH  26  29
ATOM     29  C   UNL     1       8.458   1.428  -3.189  1.00  0.00     0.039 A 
ATOM     30  C   UNL     1       9.297   0.681  -4.016  1.00  0.00     0.014 A 
ATOM     31  C   UNL     1       8.133   2.750  -3.501  1.00  0.00     0.014 A 
ATOM     32  C   UNL     1       9.739   1.239  -5.215  1.00  0.00     0.010 A 
ATOM     33  C   UNL     1       8.477   3.256  -4.744  1.00  0.00     0.010 A 
ATOM     34  C   UNL     1       9.289   2.510  -5.611  1.00  0.00    -0.014 A 
BRANCH  34  35
ATOM     35  C   UNL     1       9.666   3.097  -6.920  1.00  0.00     0.031 A 
ATOM     36  C   UNL     1      10.416   4.401  -6.953  1.00  0.00     0.074 A 
ATOM     37  C   UNL     1       9.261   2.511  -8.064  1.00  0.00     0.049 A 
ATOM     38  N   UNL     1      10.745   5.138  -7.981  1.00  0.00    -0.248 NA
ATOM     39  C   UNL     1      10.806   4.976  -5.654  1.00  0.00     0.031 C 
ATOM     40  C   UNL     1       8.464   1.284  -8.157  1.00  0.00     0.029 A 
ATOM     41  N   UNL     1       9.456   2.875  -9.372  1.00  0.00    -0.354 N 
ATOM     42  C   UNL     1      11.350   6.272  -7.451  1.00  0.00     0.074 A 
ATOM     43  C   UNL     1      11.282   6.158  -6.012  1.00  0.00     0.031 C 
ATOM     44  C   UNL     1       8.268   0.982  -9.451  1.00  0.00     0.029 A 
ATOM     45  C   UNL     1       8.892   2.008 -10.279  1.00  0.00     0.049 A 
ATOM     46  H   UNL     1       9.953   3.683  -9.637  1.00  0.00     0.167 HD
ATOM     47  C   UNL     1      11.942   7.298  -8.104  1.00  0.00     0.037 A 
ATOM     48  C   UNL     1       8.884   2.039 -11.625  1.00  0.00     0.037 A 
ATOM     49  C   UNL     1      12.058   7.373  -9.535  1.00  0.00     0.049 A 
ATOM     50  C   UNL     1       9.591   3.165 -12.331  1.00  0.00     0.074 A 
ATOM     51  C   UNL     1      12.705   8.327 -10.297  1.00  0.00     0.029 A 
ATOM     52  N   UNL     1      11.522   6.447 -10.418  1.00  0.00    -0.354 N 
ATOM     53  N   UNL     1      10.218   4.196 -11.814  1.00  0.00    -0.248 NA
ATOM     54  C   UNL     1       9.599   3.130 -13.799  1.00  0.00     0.031 C 
ATOM     55  C   UNL     1      12.537   7.993 -11.645  1.00  0.00     0.029 A 
ATOM     56  C   UNL     1      11.816   6.811 -11.720  1.00  0.00     0.049 A 
ATOM     57  H   UNL     1      11.008   5.648 -10.157  1.00  0.00     0.167 HD
ATOM     58  C   UNL     1      10.715   4.918 -12.892  1.00  0.00     0.074 A 
ATOM     59  C   UNL     1      10.327   4.200 -14.089  1.00  0.00     0.031 C 
ATOM     60  C   UNL     1      11.427   6.072 -12.894  1.00  0.00     0.037 A 
BRANCH  47  61
ATOM     61  C   UNL     1      12.525   8.404  -7.270  1.00  0.00     0.058 A 
ATOM     62  C   UNL     1      13.670   8.204  -6.481  1.00  0.00     0.135 A 
ATOM     63  C   UNL     1      11.941   9.680  -7.264  1.00  0.00     0.135 A 
ATOM     64  F   UNL     1      14.256   6.997  -6.433  1.00  0.00    -0.206 F 
ATOM     65  C   UNL     1      14.192   9.218  -5.686  1.00  0.00     0.059 A 
ATOM     66  C   UNL     1      12.464  10.719  -6.500  1.00  0.00     0.059 A 
ATOM     67  F   UNL     1      10.843   9.925  -7.998  1.00  0.00    -0.206 F 
ATOM     68  C   UNL     1      13.580  10.472  -5.700  1.00  0.00     0.060 A 
BRANCH  68  69
ATOM     69  S   UNL     1      14.267  11.778  -4.661  1.00  0.00     0.124 S 
ATOM     70  O   UNL     1      13.811  11.364  -3.337  1.00  0.00    -0.237 OA
ATOM     71  O   UNL     1      15.700  11.651  -4.905  1.00  0.00    -0.237 OA
ATOM     72  O   UNL     1      13.649  12.991  -5.187  1.00  0.00    -0.744 OA
ENDBRANCH  68  69
ENDBRANCH  47  61
BRANCH  48  73
ATOM     73  C   UNL     1       8.221   0.952 -12.393  1.00  0.00     0.058 A 
ATOM     74  C   UNL     1       8.979   0.003 -13.095  1.00  0.00     0.135 A 
ATOM     75  C   UNL     1       6.824   0.829 -12.431  1.00  0.00     0.135 A 
ATOM     76  F   UNL     1      10.319   0.081 -13.092  1.00  0.00    -0.206 F 
ATOM     77  C   UNL     1       8.378  -1.020 -13.821  1.00  0.00     0.059 A 
ATOM     78  C   UNL     1       6.199  -0.199 -13.132  1.00  0.00     0.059 A 
ATOM     79  F   UNL     1       6.053   1.700 -11.760  1.00  0.00    -0.206 F 
ATOM     80  C   UNL     1       6.985  -1.113 -13.832  1.00  0.00     0.060 A 
BRANCH  80  81
ATOM     81  S   UNL     1       6.215  -2.473 -14.737  1.00  0.00     0.124 S 
ATOM     82  O   UNL     1       6.379  -2.036 -16.119  1.00  0.00    -0.237 OA
ATOM     83  O   UNL     1       7.028  -3.614 -14.327  1.00  0.00    -0.237 OA
ATOM     84  O   UNL     1       4.845  -2.477 -14.233  1.00  0.00    -0.744 OA
ENDBRANCH  80  81
ENDBRANCH  48  73
BRANCH  60  85
ATOM     85  C   UNL     1      11.860   6.613 -14.226  1.00  0.00     0.058 A 
ATOM     86  C   UNL     1      10.954   7.240 -15.093  1.00  0.00     0.135 A 
ATOM     87  C   UNL     1      13.210   6.556 -14.610  1.00  0.00     0.135 A 
ATOM     88  F   UNL     1       9.652   7.314 -14.773  1.00  0.00    -0.206 F 
ATOM     89  C   UNL     1      11.367   7.777 -16.307  1.00  0.00     0.059 A 
ATOM     90  C   UNL     1      13.649   7.108 -15.808  1.00  0.00     0.059 A 
ATOM     91  F   UNL     1      14.117   5.976 -13.808  1.00  0.00    -0.206 F 
ATOM     92  C   UNL     1      12.718   7.708 -16.655  1.00  0.00     0.060 A 
BRANCH  92  93
ATOM     93  S   UNL     1      13.250   8.444 -18.214  1.00  0.00     0.124 S 
ATOM     94  O   UNL     1      12.784   7.454 -19.180  1.00  0.00    -0.237 OA
ATOM     95  O   UNL     1      12.538   9.719 -18.219  1.00  0.00    -0.237 OA
ATOM     96  O   UNL     1      14.699   8.544 -18.065  1.00  0.00    -0.744 OA
ENDBRANCH  92  93
ENDBRANCH  60  85
ENDBRANCH  34  35
ENDBRANCH  26  29
ENDBRANCH  24  25
ENDBRANCH   1  24
TORSDOF 16
