REMARK SMILES [NH3+][C@]1(C(=O)NCCCCNC(=O)c2ccc(-c3c4nc(c(-c5c(F)cc(S(=O)(=O)[O-])cc5F)c5ccc([nH]5)c(-c5c(F)cc(S(=O)(=O)[O-])cc5F)c5nc(c(-c6c(F)cc(S(=O)(=O)[O-])cc6F)c6ccc3[nH]6)C=C5)C=C4)cc2)CCC[C@@H](OC2CCC2)C1
REMARK SMILES IDX 8 1 7 2 6 3 5 4 3 5 4 6 2 8 79 9 88 10 80 11 82 12 81 13
REMARK SMILES IDX 1 14 83 18 84 19 85 20 87 21 86 22 9 23 10 24 11 25 12 27
REMARK SMILES IDX 13 28 14 29 78 30 15 31 77 32 16 33 17 34 18 35 71 36 19 37
REMARK SMILES IDX 76 38 70 39 72 40 20 41 75 42 69 43 68 44 21 46 55 47 34 48
REMARK SMILES IDX 54 49 35 50 38 51 53 52 73 53 36 54 37 55 52 57 74 58 39 59
REMARK SMILES IDX 22 60 23 61 32 62 24 63 25 64 31 65 33 66 26 67 27 68 28 69
REMARK SMILES IDX 29 70 30 71 56 72 57 73 66 74 58 75 59 76 65 77 67 78 60 79
REMARK SMILES IDX 61 80 62 81 63 82 64 83 40 84 41 85 50 86 42 87 43 88 49 89
REMARK SMILES IDX 51 90 44 91 45 92 46 93 47 94 48 95
REMARK H PARENT 5 7 1 15 1 16 1 17 10 26 72 45 38 56
REMARK Flexibility Score: inf
ROOT
ATOM      1  C   UNL     1      -1.719   3.462  -3.577  1.00  0.00     0.023 C 
ENDROOT
BRANCH   1   2
ATOM      2  C   UNL     1      -1.697   3.436  -2.046  1.00  0.00     0.023 C 
BRANCH   2   3
ATOM      3  C   UNL     1      -2.707   2.520  -1.355  1.00  0.00     0.116 C 
BRANCH   3   4
ATOM      4  N   UNL     1      -2.553   1.124  -1.684  1.00  0.00    -0.351 N 
ATOM      5  C   UNL     1      -2.046   0.052  -1.018  1.00  0.00     0.281 C 
ATOM      6  O   UNL     1      -2.311  -1.035  -1.552  1.00  0.00    -0.268 OA
ATOM      7  H   UNL     1      -2.886   0.900  -2.583  1.00  0.00     0.163 HD
BRANCH   5   8
ATOM      8  C   UNL     1      -1.297   0.125   0.386  1.00  0.00     0.176 C 
ATOM      9  C   UNL     1      -0.606  -1.263   0.608  1.00  0.00     0.079 C 
ATOM     10  C   UNL     1      -0.259   1.264   0.575  1.00  0.00     0.111 C 
ATOM     11  C   UNL     1       0.816  -1.238   1.173  1.00  0.00     0.010 C 
ATOM     12  C   UNL     1       1.044   0.947  -0.164  1.00  0.00     0.125 C 
ATOM     13  C   UNL     1       1.756  -0.194   0.560  1.00  0.00     0.032 C 
BRANCH   8  14
ATOM     14  N   UNL     1      -2.356   0.292   1.417  1.00  0.00    -0.345 N 
ATOM     15  H   UNL     1      -3.051  -0.447   1.312  1.00  0.00     0.345 HD
ATOM     16  H   UNL     1      -2.805   1.200   1.299  1.00  0.00     0.345 HD
ATOM     17  H   UNL     1      -1.938   0.237   2.346  1.00  0.00     0.345 HD
ENDBRANCH   8  14
BRANCH  12  18
ATOM     18  O   UNL     1       0.600   0.681  -1.479  1.00  0.00    -0.375 OA
BRANCH  18  19
ATOM     19  C   UNL     1       1.389   0.080  -2.513  1.00  0.00     0.118 C 
ATOM     20  C   UNL     1       1.611  -1.448  -2.480  1.00  0.00     0.032 C 
ATOM     21  C   UNL     1       0.535  -0.134  -3.793  1.00  0.00     0.032 C 
ATOM     22  C   UNL     1       0.457  -1.629  -3.468  1.00  0.00     0.005 C 
ENDBRANCH  18  19
ENDBRANCH  12  18
ENDBRANCH   5   8
ENDBRANCH   3   4
ENDBRANCH   2   3
ENDBRANCH   1   2
BRANCH   1  23
ATOM     23  C   UNL     1      -3.075   3.651  -4.247  1.00  0.00     0.116 C 
BRANCH  23  24
ATOM     24  N   UNL     1      -3.819   4.798  -3.752  1.00  0.00    -0.352 N 
ATOM     25  C   UNL     1      -4.513   5.767  -4.434  1.00  0.00     0.251 C 
ATOM     26  H   UNL     1      -3.826   4.895  -2.772  1.00  0.00     0.163 HD
ATOM     27  O   UNL     1      -5.024   6.692  -3.804  1.00  0.00    -0.269 OA
BRANCH  25  28
ATOM     28  C   UNL     1      -4.611   5.739  -5.912  1.00  0.00     0.039 A 
ATOM     29  C   UNL     1      -4.448   6.939  -6.612  1.00  0.00     0.014 A 
ATOM     30  C   UNL     1      -4.859   4.556  -6.613  1.00  0.00     0.014 A 
ATOM     31  C   UNL     1      -4.452   6.940  -8.009  1.00  0.00     0.010 A 
ATOM     32  C   UNL     1      -4.789   4.545  -8.005  1.00  0.00     0.010 A 
ATOM     33  C   UNL     1      -4.579   5.735  -8.719  1.00  0.00    -0.014 A 
BRANCH  33  34
ATOM     34  C   UNL     1      -4.481   5.698 -10.202  1.00  0.00     0.031 A 
ATOM     35  C   UNL     1      -5.659   5.260 -11.029  1.00  0.00     0.074 A 
ATOM     36  C   UNL     1      -3.308   5.991 -10.799  1.00  0.00     0.049 A 
ATOM     37  N   UNL     1      -5.739   5.082 -12.323  1.00  0.00    -0.248 NA
ATOM     38  C   UNL     1      -6.903   4.958 -10.304  1.00  0.00     0.031 C 
ATOM     39  C   UNL     1      -2.079   6.383 -10.105  1.00  0.00     0.029 A 
ATOM     40  N   UNL     1      -2.952   5.990 -12.125  1.00  0.00    -0.354 N 
ATOM     41  C   UNL     1      -7.031   4.632 -12.565  1.00  0.00     0.074 A 
ATOM     42  C   UNL     1      -7.686   4.519 -11.280  1.00  0.00     0.031 C 
ATOM     43  C   UNL     1      -1.112   6.602 -11.010  1.00  0.00     0.029 A 
ATOM     44  C   UNL     1      -1.637   6.329 -12.345  1.00  0.00     0.049 A 
ATOM     45  H   UNL     1      -3.579   5.768 -12.851  1.00  0.00     0.167 HD
ATOM     46  C   UNL     1      -7.625   4.358 -13.752  1.00  0.00     0.037 A 
ATOM     47  C   UNL     1      -0.929   6.402 -13.489  1.00  0.00     0.037 A 
ATOM     48  C   UNL     1      -6.978   4.499 -15.030  1.00  0.00     0.049 A 
ATOM     49  C   UNL     1      -1.611   6.095 -14.795  1.00  0.00     0.074 A 
ATOM     50  C   UNL     1      -7.513   4.304 -16.292  1.00  0.00     0.029 A 
ATOM     51  N   UNL     1      -5.653   4.868 -15.212  1.00  0.00    -0.354 N 
ATOM     52  N   UNL     1      -2.852   5.729 -15.009  1.00  0.00    -0.248 NA
ATOM     53  C   UNL     1      -0.800   6.215 -16.014  1.00  0.00     0.031 C 
ATOM     54  C   UNL     1      -6.502   4.517 -17.234  1.00  0.00     0.029 A 
ATOM     55  C   UNL     1      -5.348   4.889 -16.563  1.00  0.00     0.049 A 
ATOM     56  H   UNL     1      -5.022   5.083 -14.487  1.00  0.00     0.167 HD
ATOM     57  C   UNL     1      -2.978   5.599 -16.388  1.00  0.00     0.074 A 
ATOM     58  C   UNL     1      -1.689   5.936 -16.958  1.00  0.00     0.031 C 
ATOM     59  C   UNL     1      -4.062   5.235 -17.116  1.00  0.00     0.037 A 
BRANCH  46  60
ATOM     60  C   UNL     1      -9.052   3.884 -13.723  1.00  0.00     0.058 A 
ATOM     61  C   UNL     1     -10.107   4.746 -13.384  1.00  0.00     0.135 A 
ATOM     62  C   UNL     1      -9.374   2.561 -14.069  1.00  0.00     0.135 A 
ATOM     63  F   UNL     1      -9.856   6.016 -13.030  1.00  0.00    -0.206 F 
ATOM     64  C   UNL     1     -11.427   4.306 -13.358  1.00  0.00     0.059 A 
ATOM     65  C   UNL     1     -10.690   2.107 -14.077  1.00  0.00     0.059 A 
ATOM     66  F   UNL     1      -8.404   1.695 -14.403  1.00  0.00    -0.206 F 
ATOM     67  C   UNL     1     -11.708   2.984 -13.705  1.00  0.00     0.060 A 
BRANCH  67  68
ATOM     68  S   UNL     1     -13.426   2.430 -13.668  1.00  0.00     0.124 S 
ATOM     69  O   UNL     1     -13.666   2.325 -12.232  1.00  0.00    -0.237 OA
ATOM     70  O   UNL     1     -14.121   3.518 -14.348  1.00  0.00    -0.237 OA
ATOM     71  O   UNL     1     -13.390   1.163 -14.393  1.00  0.00    -0.744 OA
ENDBRANCH  67  68
ENDBRANCH  46  60
BRANCH  47  72
ATOM     72  C   UNL     1       0.503   6.801 -13.453  1.00  0.00     0.058 A 
ATOM     73  C   UNL     1       0.913   8.053 -13.934  1.00  0.00     0.135 A 
ATOM     74  C   UNL     1       1.485   5.950 -12.924  1.00  0.00     0.135 A 
ATOM     75  F   UNL     1       0.012   8.899 -14.456  1.00  0.00    -0.206 F 
ATOM     76  C   UNL     1       2.249   8.442 -13.908  1.00  0.00     0.059 A 
ATOM     77  C   UNL     1       2.824   6.326 -12.864  1.00  0.00     0.059 A 
ATOM     78  F   UNL     1       1.142   4.748 -12.436  1.00  0.00    -0.206 F 
ATOM     79  C   UNL     1       3.197   7.572 -13.368  1.00  0.00     0.060 A 
BRANCH  79  80
ATOM     80  S   UNL     1       4.920   8.107 -13.290  1.00  0.00     0.124 S 
ATOM     81  O   UNL     1       5.327   7.991 -14.686  1.00  0.00    -0.237 OA
ATOM     82  O   UNL     1       4.797   9.465 -12.771  1.00  0.00    -0.237 OA
ATOM     83  O   UNL     1       5.528   7.147 -12.373  1.00  0.00    -0.744 OA
ENDBRANCH  79  80
ENDBRANCH  47  72
BRANCH  59  84
ATOM     84  C   UNL     1      -3.917   5.212 -18.612  1.00  0.00     0.058 A 
ATOM     85  C   UNL     1      -3.199   4.200 -19.267  1.00  0.00     0.135 A 
ATOM     86  C   UNL     1      -4.553   6.184 -19.402  1.00  0.00     0.135 A 
ATOM     87  F   UNL     1      -2.566   3.252 -18.558  1.00  0.00    -0.206 F 
ATOM     88  C   UNL     1      -3.101   4.162 -20.655  1.00  0.00     0.059 A 
ATOM     89  C   UNL     1      -4.490   6.150 -20.791  1.00  0.00     0.059 A 
ATOM     90  F   UNL     1      -5.259   7.168 -18.824  1.00  0.00    -0.206 F 
ATOM     91  C   UNL     1      -3.753   5.140 -21.408  1.00  0.00     0.060 A 
BRANCH  91  92
ATOM     92  S   UNL     1      -3.653   5.056 -23.209  1.00  0.00     0.124 S 
ATOM     93  O   UNL     1      -2.290   5.519 -23.450  1.00  0.00    -0.237 OA
ATOM     94  O   UNL     1      -3.898   3.641 -23.471  1.00  0.00    -0.237 OA
ATOM     95  O   UNL     1      -4.711   5.961 -23.651  1.00  0.00    -0.744 OA
ENDBRANCH  91  92
ENDBRANCH  59  84
ENDBRANCH  33  34
ENDBRANCH  25  28
ENDBRANCH  23  24
ENDBRANCH   1  23
TORSDOF 17
