REMARK SMILES CC1(C)[C@H](C(=O)NCCCCNC(=O)c2ccc(-c3c4nc(c(-c5c(F)cc(S(=O)(=O)[O-])cc5F)c5ccc([nH]5)c(-c5c(F)cc(S(=O)(=O)[O-])cc5F)c5nc(c(-c6c(F)cc(S(=O)(=O)[O-])cc6F)c6ccc3[nH]6)C=C5)C=C4)cc2)[C@@H]1c1nc2ccc(F)cc2s1
REMARK SMILES IDX 10 1 9 2 8 3 7 4 5 5 6 6 4 8 1 9 2 10 3 11 81 12 82 13 83 14
REMARK SMILES IDX 91 15 84 16 90 17 85 18 89 19 86 20 87 21 88 22 11 23 12 24
REMARK SMILES IDX 13 25 14 27 15 28 16 29 80 30 17 31 79 32 18 33 19 34 20 35
REMARK SMILES IDX 73 36 21 37 78 38 72 39 74 40 22 41 77 42 71 43 70 44 23 46
REMARK SMILES IDX 57 47 36 48 56 49 37 50 40 51 55 52 75 53 38 54 39 55 54 57
REMARK SMILES IDX 76 58 41 59 24 60 25 61 34 62 26 63 27 64 33 65 35 66 28 67
REMARK SMILES IDX 29 68 30 69 31 70 32 71 58 72 59 73 68 74 60 75 61 76 67 77
REMARK SMILES IDX 69 78 62 79 63 80 64 81 65 82 66 83 42 84 43 85 52 86 44 87
REMARK SMILES IDX 45 88 51 89 53 90 46 91 47 92 48 93 49 94 50 95
REMARK H PARENT 7 7 12 26 74 45 40 56
REMARK Flexibility Score: inf
ROOT
ATOM      1  C   UNL     1      -0.486   5.234  -1.908  1.00  0.00     0.023 C 
ENDROOT
BRANCH   1   2
ATOM      2  C   UNL     1       0.028   4.040  -1.113  1.00  0.00     0.023 C 
BRANCH   2   3
ATOM      3  C   UNL     1      -1.053   3.103  -0.587  1.00  0.00     0.116 C 
BRANCH   3   4
ATOM      4  N   UNL     1      -1.480   2.125  -1.549  1.00  0.00    -0.356 N 
ATOM      5  C   UNL     1      -1.523   0.760  -1.544  1.00  0.00     0.224 C 
ATOM      6  O   UNL     1      -1.987   0.248  -2.566  1.00  0.00    -0.275 OA
ATOM      7  H   UNL     1      -1.811   2.522  -2.387  1.00  0.00     0.163 HD
BRANCH   5   8
ATOM      8  C   UNL     1      -1.074  -0.189  -0.486  1.00  0.00     0.095 C 
ATOM      9  C   UNL     1       0.958  -1.554   0.307  1.00  0.00     0.013 C 
ATOM     10  C   UNL     1       0.256  -0.209   0.284  1.00  0.00    -0.013 C 
ATOM     11  C   UNL     1       1.240   0.921   0.138  1.00  0.00     0.013 C 
ATOM     12  C   UNL     1      -1.080  -0.118   1.008  1.00  0.00     0.068 C 
BRANCH  12  13
ATOM     13  C   UNL     1      -1.750   0.995   1.790  1.00  0.00     0.098 A 
ATOM     14  N   UNL     1      -3.063   1.029   1.823  1.00  0.00    -0.241 NA
ATOM     15  S   UNL     1      -0.967   2.131   2.806  1.00  0.00    -0.118 S 
ATOM     16  C   UNL     1      -3.486   2.171   2.473  1.00  0.00     0.082 A 
ATOM     17  C   UNL     1      -2.467   2.959   3.016  1.00  0.00     0.057 A 
ATOM     18  C   UNL     1      -4.824   2.601   2.595  1.00  0.00     0.033 A 
ATOM     19  C   UNL     1      -2.732   4.197   3.621  1.00  0.00     0.060 A 
ATOM     20  C   UNL     1      -5.101   3.829   3.202  1.00  0.00     0.041 A 
ATOM     21  C   UNL     1      -4.062   4.611   3.688  1.00  0.00     0.124 A 
ATOM     22  F   UNL     1      -4.347   5.796   4.243  1.00  0.00    -0.207 F 
ENDBRANCH  12  13
ENDBRANCH   5   8
ENDBRANCH   3   4
ENDBRANCH   2   3
ENDBRANCH   1   2
BRANCH   1  23
ATOM     23  C   UNL     1      -1.496   6.120  -1.185  1.00  0.00     0.116 C 
BRANCH  23  24
ATOM     24  N   UNL     1      -1.051   6.578   0.126  1.00  0.00    -0.352 N 
ATOM     25  C   UNL     1      -1.122   7.845   0.666  1.00  0.00     0.251 C 
ATOM     26  H   UNL     1      -0.645   5.891   0.703  1.00  0.00     0.163 HD
ATOM     27  O   UNL     1      -0.638   8.083   1.764  1.00  0.00    -0.269 OA
BRANCH  25  28
ATOM     28  C   UNL     1      -1.748   8.917  -0.134  1.00  0.00     0.039 A 
ATOM     29  C   UNL     1      -0.998  10.053  -0.445  1.00  0.00     0.014 A 
ATOM     30  C   UNL     1      -3.024   8.734  -0.672  1.00  0.00     0.014 A 
ATOM     31  C   UNL     1      -1.483  10.954  -1.395  1.00  0.00     0.010 A 
ATOM     32  C   UNL     1      -3.474   9.596  -1.666  1.00  0.00     0.010 A 
ATOM     33  C   UNL     1      -2.694  10.696  -2.058  1.00  0.00    -0.014 A 
BRANCH  33  34
ATOM     34  C   UNL     1      -3.139  11.515  -3.214  1.00  0.00     0.031 A 
ATOM     35  C   UNL     1      -4.420  12.294  -3.137  1.00  0.00     0.074 A 
ATOM     36  C   UNL     1      -2.445  11.463  -4.370  1.00  0.00     0.049 A 
ATOM     37  N   UNL     1      -5.046  12.945  -4.081  1.00  0.00    -0.248 NA
ATOM     38  C   UNL     1      -5.099  12.319  -1.832  1.00  0.00     0.031 C 
ATOM     39  C   UNL     1      -1.211  10.703  -4.585  1.00  0.00     0.029 A 
ATOM     40  N   UNL     1      -2.692  12.042  -5.589  1.00  0.00    -0.354 N 
ATOM     41  C   UNL     1      -6.203  13.440  -3.494  1.00  0.00     0.074 A 
ATOM     42  C   UNL     1      -6.210  12.981  -2.121  1.00  0.00     0.031 C 
ATOM     43  C   UNL     1      -0.803  10.873  -5.853  1.00  0.00     0.029 A 
ATOM     44  C   UNL     1      -1.766  11.717  -6.553  1.00  0.00     0.049 A 
ATOM     45  H   UNL     1      -3.459  12.635  -5.758  1.00  0.00     0.167 HD
ATOM     46  C   UNL     1      -7.163  14.220  -4.044  1.00  0.00     0.037 A 
ATOM     47  C   UNL     1      -1.709  12.043  -7.859  1.00  0.00     0.037 A 
ATOM     48  C   UNL     1      -7.136  14.699  -5.401  1.00  0.00     0.049 A 
ATOM     49  C   UNL     1      -2.793  12.898  -8.452  1.00  0.00     0.074 A 
ATOM     50  C   UNL     1      -8.020  15.560  -6.027  1.00  0.00     0.029 A 
ATOM     51  N   UNL     1      -6.178  14.354  -6.343  1.00  0.00    -0.354 N 
ATOM     52  N   UNL     1      -3.850  13.408  -7.866  1.00  0.00    -0.248 NA
ATOM     53  C   UNL     1      -2.686  13.214  -9.883  1.00  0.00     0.031 C 
ATOM     54  C   UNL     1      -7.615  15.709  -7.358  1.00  0.00     0.029 A 
ATOM     55  C   UNL     1      -6.462  14.965  -7.552  1.00  0.00     0.049 A 
ATOM     56  H   UNL     1      -5.409  13.762  -6.175  1.00  0.00     0.167 HD
ATOM     57  C   UNL     1      -4.527  14.114  -8.853  1.00  0.00     0.074 A 
ATOM     58  C   UNL     1      -3.755  13.977 -10.071  1.00  0.00     0.031 C 
ATOM     59  C   UNL     1      -5.685  14.813  -8.757  1.00  0.00     0.037 A 
BRANCH  46  60
ATOM     60  C   UNL     1      -8.320  14.609  -3.170  1.00  0.00     0.058 A 
ATOM     61  C   UNL     1      -8.174  15.547  -2.137  1.00  0.00     0.135 A 
ATOM     62  C   UNL     1      -9.590  14.047  -3.374  1.00  0.00     0.135 A 
ATOM     63  F   UNL     1      -6.976  16.101  -1.891  1.00  0.00    -0.206 F 
ATOM     64  C   UNL     1      -9.240  15.892  -1.313  1.00  0.00     0.059 A 
ATOM     65  C   UNL     1     -10.677  14.395  -2.576  1.00  0.00     0.059 A 
ATOM     66  F   UNL     1      -9.782  13.144  -4.348  1.00  0.00    -0.206 F 
ATOM     67  C   UNL     1     -10.487  15.305  -1.537  1.00  0.00     0.060 A 
BRANCH  67  68
ATOM     68  S   UNL     1     -11.859  15.750  -0.452  1.00  0.00     0.124 S 
ATOM     69  O   UNL     1     -11.544  14.977   0.745  1.00  0.00    -0.237 OA
ATOM     70  O   UNL     1     -11.708  17.197  -0.330  1.00  0.00    -0.237 OA
ATOM     71  O   UNL     1     -13.035  15.307  -1.194  1.00  0.00    -0.744 OA
ENDBRANCH  67  68
ENDBRANCH  46  60
BRANCH  47  72
ATOM     72  C   UNL     1      -0.578  11.561  -8.693  1.00  0.00     0.058 A 
ATOM     73  C   UNL     1       0.440  12.438  -9.094  1.00  0.00     0.135 A 
ATOM     74  C   UNL     1      -0.474  10.216  -9.079  1.00  0.00     0.135 A 
ATOM     75  F   UNL     1       0.379  13.735  -8.755  1.00  0.00    -0.206 F 
ATOM     76  C   UNL     1       1.520  12.001  -9.853  1.00  0.00     0.059 A 
ATOM     77  C   UNL     1       0.606   9.751  -9.822  1.00  0.00     0.059 A 
ATOM     78  F   UNL     1      -1.416   9.335  -8.706  1.00  0.00    -0.206 F 
ATOM     79  C   UNL     1       1.597  10.653 -10.209  1.00  0.00     0.060 A 
BRANCH  79  80
ATOM     80  S   UNL     1       3.038  10.080 -11.136  1.00  0.00     0.124 S 
ATOM     81  O   UNL     1       2.734  10.562 -12.478  1.00  0.00    -0.237 OA
ATOM     82  O   UNL     1       4.135  10.754 -10.448  1.00  0.00    -0.237 OA
ATOM     83  O   UNL     1       2.994   8.632 -10.957  1.00  0.00    -0.744 OA
ENDBRANCH  79  80
ENDBRANCH  47  72
BRANCH  59  84
ATOM     84  C   UNL     1      -6.189  15.488  -9.999  1.00  0.00     0.058 A 
ATOM     85  C   UNL     1      -6.833  14.762 -11.012  1.00  0.00     0.135 A 
ATOM     86  C   UNL     1      -6.093  16.881 -10.144  1.00  0.00     0.135 A 
ATOM     87  F   UNL     1      -6.940  13.427 -10.922  1.00  0.00    -0.206 F 
ATOM     88  C   UNL     1      -7.364  15.394 -12.131  1.00  0.00     0.059 A 
ATOM     89  C   UNL     1      -6.634  17.536 -11.246  1.00  0.00     0.059 A 
ATOM     90  F   UNL     1      -5.491  17.619  -9.199  1.00  0.00    -0.206 F 
ATOM     91  C   UNL     1      -7.263  16.783 -12.237  1.00  0.00     0.060 A 
BRANCH  91  92
ATOM     92  S   UNL     1      -8.010  17.600 -13.664  1.00  0.00     0.124 S 
ATOM     93  O   UNL     1      -7.040  17.303 -14.713  1.00  0.00    -0.237 OA
ATOM     94  O   UNL     1      -9.296  16.920 -13.778  1.00  0.00    -0.237 OA
ATOM     95  O   UNL     1      -8.083  18.999 -13.253  1.00  0.00    -0.744 OA
ENDBRANCH  91  92
ENDBRANCH  59  84
ENDBRANCH  33  34
ENDBRANCH  25  28
ENDBRANCH  23  24
ENDBRANCH   1  23
TORSDOF 15
