REMARK SMILES CCn1cnc(S(=O)(=O)N2CCC(C)(C(=O)NCCCCNC(=O)c3ccc(-c4c5nc(c(-c6c(F)cc(S(=O)(=O)[O-])cc6F)c6ccc([nH]6)c(-c6c(F)cc(S(=O)(=O)[O-])cc6F)c6nc(c(-c7c(F)cc(S(=O)(=O)[O-])cc7F)c7ccc4[nH]7)C=C6)C=C5)cc3)CC2)c1
REMARK SMILES IDX 19 1 18 2 17 3 15 4 16 5 13 7 10 8 11 9 92 10 12 11 91 12
REMARK SMILES IDX 14 13 7 14 8 15 9 16 6 17 3 18 4 19 93 20 5 21 2 22 1 23
REMARK SMILES IDX 20 24 21 25 22 26 23 27 24 29 25 30 26 31 90 32 27 33 89 34
REMARK SMILES IDX 28 35 29 36 30 37 83 38 31 39 88 40 82 41 84 42 32 43 87 44
REMARK SMILES IDX 81 45 80 46 33 48 67 49 46 50 66 51 47 52 50 53 65 54 85 55
REMARK SMILES IDX 48 56 49 57 64 59 86 60 51 61 34 62 35 63 44 64 36 65 37 66
REMARK SMILES IDX 43 67 45 68 38 69 39 70 40 71 41 72 42 73 68 74 69 75 78 76
REMARK SMILES IDX 70 77 71 78 77 79 79 80 72 81 73 82 74 83 75 84 76 85 52 86
REMARK SMILES IDX 53 87 62 88 54 89 55 90 61 91 63 92 56 93 57 94 58 95 59 96
REMARK SMILES IDX 60 97
REMARK H PARENT 17 6 22 28 84 47 50 58
REMARK Flexibility Score: inf
ROOT
ATOM      1  C   UNL     1       7.435  -1.260   1.207  1.00  0.00     0.023 C 
ENDROOT
BRANCH   1   2
ATOM      2  C   UNL     1       6.334  -1.653   2.198  1.00  0.00     0.116 C 
BRANCH   2   3
ATOM      3  N   UNL     1       6.507  -1.030   3.507  1.00  0.00    -0.356 N 
ATOM      4  C   UNL     1       5.819  -0.047   4.161  1.00  0.00     0.226 C 
ATOM      5  O   UNL     1       6.284   0.347   5.232  1.00  0.00    -0.275 OA
ATOM      6  H   UNL     1       7.268  -1.389   4.018  1.00  0.00     0.163 HD
BRANCH   4   7
ATOM      7  C   UNL     1       4.525   0.553   3.580  1.00  0.00     0.049 C 
ATOM      8  N   UNL     1       4.533   3.462   3.172  1.00  0.00    -0.196 NA
ATOM      9  C   UNL     1       5.401   2.649   2.330  1.00  0.00     0.103 C 
ATOM     10  C   UNL     1       4.449   2.984   4.556  1.00  0.00     0.103 C 
ATOM     11  C   UNL     1       4.864   1.227   2.219  1.00  0.00     0.033 C 
ATOM     12  C   UNL     1       3.887   1.570   4.592  1.00  0.00     0.033 C 
ATOM     13  C   UNL     1       3.490  -0.603   3.478  1.00  0.00     0.022 C 
BRANCH   8  14
ATOM     14  S   UNL     1       3.427   4.567   2.522  1.00  0.00     0.262 S 
ATOM     15  O   UNL     1       4.024   5.107   1.306  1.00  0.00    -0.205 OA
ATOM     16  O   UNL     1       2.953   5.419   3.579  1.00  0.00    -0.205 OA
BRANCH  14  17
ATOM     17  C   UNL     1       1.982   3.759   1.931  1.00  0.00     0.188 A 
ATOM     18  N   UNL     1       0.564   2.197   1.321  1.00  0.00    -0.336 N 
ATOM     19  C   UNL     1       0.068   3.418   0.981  1.00  0.00     0.201 A 
ATOM     20  C   UNL     1       1.732   2.412   1.983  1.00  0.00     0.129 A 
ATOM     21  N   UNL     1       0.906   4.385   1.307  1.00  0.00    -0.224 NA
BRANCH  18  22
ATOM     22  C   UNL     1       0.002   0.884   1.071  1.00  0.00     0.120 C 
ATOM     23  C   UNL     1       0.751   0.132  -0.022  1.00  0.00     0.027 C 
ENDBRANCH  18  22
ENDBRANCH  14  17
ENDBRANCH   8  14
ENDBRANCH   4   7
ENDBRANCH   2   3
ENDBRANCH   1   2
BRANCH   1  24
ATOM     24  C   UNL     1       8.846  -1.735   1.556  1.00  0.00     0.023 C 
BRANCH  24  25
ATOM     25  C   UNL     1       8.990  -3.245   1.641  1.00  0.00     0.116 C 
BRANCH  25  26
ATOM     26  N   UNL     1       8.664  -3.914   0.381  1.00  0.00    -0.352 N 
ATOM     27  C   UNL     1       8.544  -5.272   0.150  1.00  0.00     0.251 C 
ATOM     28  H   UNL     1       8.511  -3.327  -0.395  1.00  0.00     0.163 HD
ATOM     29  O   UNL     1       8.635  -5.730  -0.982  1.00  0.00    -0.269 OA
BRANCH  27  30
ATOM     30  C   UNL     1       8.292  -6.150   1.303  1.00  0.00     0.039 A 
ATOM     31  C   UNL     1       9.001  -7.338   1.493  1.00  0.00     0.014 A 
ATOM     32  C   UNL     1       7.362  -5.711   2.240  1.00  0.00     0.014 A 
ATOM     33  C   UNL     1       8.825  -8.036   2.686  1.00  0.00     0.010 A 
ATOM     34  C   UNL     1       7.319  -6.301   3.474  1.00  0.00     0.010 A 
ATOM     35  C   UNL     1       7.997  -7.497   3.683  1.00  0.00    -0.014 A 
BRANCH  35  36
ATOM     36  C   UNL     1       7.909  -8.113   5.003  1.00  0.00     0.031 A 
ATOM     37  C   UNL     1       9.216  -8.231   5.707  1.00  0.00     0.074 A 
ATOM     38  C   UNL     1       6.725  -8.302   5.629  1.00  0.00     0.049 A 
ATOM     39  N   UNL     1       9.889  -9.303   5.964  1.00  0.00    -0.248 NA
ATOM     40  C   UNL     1       9.952  -6.991   6.014  1.00  0.00     0.031 C 
ATOM     41  C   UNL     1       5.395  -7.869   5.169  1.00  0.00     0.029 A 
ATOM     42  N   UNL     1       6.458  -8.796   6.869  1.00  0.00    -0.354 N 
ATOM     43  C   UNL     1      10.989  -8.885   6.713  1.00  0.00     0.074 A 
ATOM     44  C   UNL     1      11.102  -7.470   6.494  1.00  0.00     0.031 C 
ATOM     45  C   UNL     1       4.532  -7.871   6.207  1.00  0.00     0.029 A 
ATOM     46  C   UNL     1       5.185  -8.494   7.341  1.00  0.00     0.049 A 
ATOM     47  H   UNL     1       7.110  -9.321   7.388  1.00  0.00     0.167 HD
ATOM     48  C   UNL     1      11.504  -9.676   7.697  1.00  0.00     0.037 A 
ATOM     49  C   UNL     1       4.697  -8.721   8.584  1.00  0.00     0.037 A 
ATOM     50  C   UNL     1      10.947 -11.002   7.611  1.00  0.00     0.049 A 
ATOM     51  C   UNL     1       5.530  -9.788   9.187  1.00  0.00     0.074 A 
ATOM     52  C   UNL     1      11.056 -12.080   6.763  1.00  0.00     0.029 A 
ATOM     53  N   UNL     1       9.800 -11.168   8.346  1.00  0.00    -0.354 N 
ATOM     54  N   UNL     1       5.611 -11.002   8.706  1.00  0.00    -0.248 NA
ATOM     55  C   UNL     1       6.590  -9.419  10.118  1.00  0.00     0.031 C 
ATOM     56  C   UNL     1       9.814 -12.774   6.854  1.00  0.00     0.029 A 
ATOM     57  C   UNL     1       9.005 -12.132   7.792  1.00  0.00     0.049 A 
ATOM     58  H   UNL     1       9.581 -10.661   9.161  1.00  0.00     0.167 HD
ATOM     59  C   UNL     1       6.922 -11.379   8.931  1.00  0.00     0.074 A 
ATOM     60  C   UNL     1       7.418 -10.450   9.938  1.00  0.00     0.031 C 
ATOM     61  C   UNL     1       7.579 -12.192   8.054  1.00  0.00     0.037 A 
BRANCH  48  62
ATOM     62  C   UNL     1      12.095  -9.187   9.011  1.00  0.00     0.058 A 
ATOM     63  C   UNL     1      12.649 -10.135   9.903  1.00  0.00     0.135 A 
ATOM     64  C   UNL     1      11.867  -7.908   9.564  1.00  0.00     0.135 A 
ATOM     65  F   UNL     1      12.911 -11.387   9.495  1.00  0.00    -0.206 F 
ATOM     66  C   UNL     1      12.879  -9.856  11.253  1.00  0.00     0.059 A 
ATOM     67  C   UNL     1      12.137  -7.594  10.893  1.00  0.00     0.059 A 
ATOM     68  F   UNL     1      11.280  -6.921   8.879  1.00  0.00    -0.206 F 
ATOM     69  C   UNL     1      12.604  -8.584  11.741  1.00  0.00     0.060 A 
BRANCH  69  70
ATOM     70  S   UNL     1      12.810  -8.239  13.497  1.00  0.00     0.124 S 
ATOM     71  O   UNL     1      11.730  -9.028  14.078  1.00  0.00    -0.237 OA
ATOM     72  O   UNL     1      14.164  -8.723  13.744  1.00  0.00    -0.237 OA
ATOM     73  O   UNL     1      12.646  -6.790  13.574  1.00  0.00    -0.744 OA
ENDBRANCH  69  70
ENDBRANCH  48  62
BRANCH  49  74
ATOM     74  C   UNL     1       3.766  -7.866   9.365  1.00  0.00     0.058 A 
ATOM     75  C   UNL     1       3.077  -8.357  10.487  1.00  0.00     0.135 A 
ATOM     76  C   UNL     1       3.742  -6.467   9.185  1.00  0.00     0.135 A 
ATOM     77  F   UNL     1       3.065  -9.674  10.744  1.00  0.00    -0.206 F 
ATOM     78  C   UNL     1       2.438  -7.510  11.400  1.00  0.00     0.059 A 
ATOM     79  C   UNL     1       3.108  -5.603  10.077  1.00  0.00     0.059 A 
ATOM     80  F   UNL     1       4.412  -5.891   8.174  1.00  0.00    -0.206 F 
ATOM     81  C   UNL     1       2.475  -6.131  11.196  1.00  0.00     0.060 A 
BRANCH  81  82
ATOM     82  S   UNL     1       1.781  -5.026  12.450  1.00  0.00     0.124 S 
ATOM     83  O   UNL     1       0.353  -5.303  12.338  1.00  0.00    -0.237 OA
ATOM     84  O   UNL     1       2.430  -5.497  13.668  1.00  0.00    -0.237 OA
ATOM     85  O   UNL     1       2.194  -3.699  11.998  1.00  0.00    -0.744 OA
ENDBRANCH  81  82
ENDBRANCH  49  74
BRANCH  61  86
ATOM     86  C   UNL     1       6.769 -13.118   7.195  1.00  0.00     0.058 A 
ATOM     87  C   UNL     1       5.951 -12.730   6.123  1.00  0.00     0.135 A 
ATOM     88  C   UNL     1       6.965 -14.494   7.394  1.00  0.00     0.135 A 
ATOM     89  F   UNL     1       5.772 -11.435   5.824  1.00  0.00    -0.206 F 
ATOM     90  C   UNL     1       5.346 -13.675   5.290  1.00  0.00     0.059 A 
ATOM     91  C   UNL     1       6.400 -15.450   6.560  1.00  0.00     0.059 A 
ATOM     92  F   UNL     1       7.774 -14.921   8.378  1.00  0.00    -0.206 F 
ATOM     93  C   UNL     1       5.586 -15.033   5.511  1.00  0.00     0.060 A 
BRANCH  93  94
ATOM     94  S   UNL     1       4.894 -16.254   4.375  1.00  0.00     0.124 S 
ATOM     95  O   UNL     1       3.475 -16.215   4.710  1.00  0.00    -0.237 OA
ATOM     96  O   UNL     1       5.253 -15.710   3.068  1.00  0.00    -0.237 OA
ATOM     97  O   UNL     1       5.587 -17.488   4.736  1.00  0.00    -0.744 OA
ENDBRANCH  93  94
ENDBRANCH  61  86
ENDBRANCH  35  36
ENDBRANCH  27  30
ENDBRANCH  25  26
ENDBRANCH  24  25
ENDBRANCH   1  24
TORSDOF 17
