REMARK SMILES O=C(NCCCCNC(=O)c1ccc(-c2c3nc(c(-c4c(F)cc(S(=O)(=O)[O-])cc4F)c4ccc([nH]4)c(-c4c(F)cc(S(=O)(=O)[O-])cc4F)c4nc(c(-c5c(F)cc(S(=O)(=O)[O-])cc5F)c5ccc2[nH]5)C=C4)C=C3)cc1)C1=Cc2cc(S(F)(F)(F)(F)F)cc(Br)c2O[C@@H]1C(F)(F)F
REMARK SMILES IDX 6 1 5 2 4 3 3 4 1 5 2 6 77 8 78 9 93 10 79 11 92 12 80 13
REMARK SMILES IDX 91 14 81 15 89 16 88 17 90 18 94 19 95 20 96 21 97 22 82 23
REMARK SMILES IDX 83 24 84 25 85 26 86 27 87 28 7 29 8 30 9 31 10 33 11 34
REMARK SMILES IDX 12 35 76 36 13 37 75 38 14 39 15 40 16 41 69 42 17 43 74 44
REMARK SMILES IDX 68 45 70 46 18 47 73 48 67 49 66 50 19 52 53 53 32 54 52 55
REMARK SMILES IDX 33 56 36 57 51 58 71 59 34 60 35 61 50 63 72 64 37 65 20 66
REMARK SMILES IDX 21 67 30 68 22 69 23 70 29 71 31 72 24 73 25 74 26 75 27 76
REMARK SMILES IDX 28 77 54 78 55 79 64 80 56 81 57 82 63 83 65 84 58 85 59 86
REMARK SMILES IDX 60 87 61 88 62 89 38 90 39 91 48 92 40 93 41 94 47 95 49 96
REMARK SMILES IDX 42 97 43 98 44 99 45 100 46 101
REMARK H PARENT 3 7 8 32 70 51 36 62
REMARK Flexibility Score: inf
ROOT
ATOM      1  C   UNL     1       4.555   2.861  -2.154  1.00  0.00     0.023 C 
ENDROOT
BRANCH   1   2
ATOM      2  C   UNL     1       5.062   1.489  -1.738  1.00  0.00     0.023 C 
BRANCH   2   3
ATOM      3  C   UNL     1       4.555   1.164  -0.342  1.00  0.00     0.116 C 
BRANCH   3   4
ATOM      4  N   UNL     1       3.085   1.164  -0.342  1.00  0.00    -0.352 N 
ATOM      5  O   UNL     1       1.079  -0.054   0.027  1.00  0.00    -0.270 OA
ATOM      6  C   UNL     1       2.350  -0.054   0.027  1.00  0.00     0.251 C 
ATOM      7  H   UNL     1       2.593   1.980  -0.590  1.00  0.00     0.163 HD
BRANCH   6   8
ATOM      8  C   UNL     1       3.110  -1.314   0.410  1.00  0.00     0.067 C 
ATOM      9  C   UNL     1       4.471  -1.314   0.410  1.00  0.00     0.025 C 
ATOM     10  C   UNL     1       2.350  -2.574   0.792  1.00  0.00     0.314 C 
ATOM     11  C   UNL     1       5.231  -0.054   0.027  1.00  0.00     0.020 A 
ATOM     12  O   UNL     1       3.618   1.128   1.312  1.00  0.00    -0.474 OA
ATOM     13  C   UNL     1       6.304  -0.100  -0.847  1.00  0.00     0.036 A 
ATOM     14  C   UNL     1       4.816   1.094   0.549  1.00  0.00     0.142 A 
ATOM     15  C   UNL     1       7.064   1.093  -0.885  1.00  0.00     0.109 A 
ATOM     16  C   UNL     1       5.535   2.249   0.359  1.00  0.00     0.062 A 
ATOM     17  C   UNL     1       6.640   2.265  -0.445  1.00  0.00     0.044 A 
ATOM     18  Br  UNL     1       4.967   3.899   1.252  1.00  0.00    -0.047 Br
BRANCH  10  19
ATOM     19  C   UNL     1       2.717  -2.976   2.211  1.00  0.00     0.429 C 
ATOM     20  F   UNL     1       2.396  -1.993   3.047  1.00  0.00    -0.167 F 
ATOM     21  F   UNL     1       2.053  -4.078   2.545  1.00  0.00    -0.167 F 
ATOM     22  F   UNL     1       4.025  -3.209   2.281  1.00  0.00    -0.167 F 
ENDBRANCH  10  19
BRANCH  15  23
ATOM     23  S   UNL     1       8.731   1.009  -1.585  1.00  0.00     0.310 S 
ATOM     24  F   UNL     1       9.401   0.993  -0.147  1.00  0.00    -0.094 F 
ATOM     25  F   UNL     1       8.804   2.582  -1.527  1.00  0.00    -0.094 F 
ATOM     26  F   UNL     1      10.162   0.936  -2.186  1.00  0.00    -0.094 F 
ATOM     27  F   UNL     1       8.693  -0.568  -1.504  1.00  0.00    -0.094 F 
ATOM     28  F   UNL     1       7.322   1.064  -0.869  1.00  0.00    -0.094 F 
ENDBRANCH  15  23
ENDBRANCH   6   8
ENDBRANCH   3   4
ENDBRANCH   2   3
ENDBRANCH   1   2
BRANCH   1  29
ATOM     29  C   UNL     1       5.062   3.907  -1.174  1.00  0.00     0.116 C 
BRANCH  29  30
ATOM     30  N   UNL     1       6.532   3.907  -1.174  1.00  0.00    -0.352 N 
ATOM     31  C   UNL     1       7.267   5.125  -1.544  1.00  0.00     0.251 C 
ATOM     32  H   UNL     1       7.024   3.091  -0.927  1.00  0.00     0.163 HD
ATOM     33  O   UNL     1       8.538   5.125  -1.544  1.00  0.00    -0.269 OA
BRANCH  31  34
ATOM     34  C   UNL     1       6.507   6.385  -1.926  1.00  0.00     0.039 A 
ATOM     35  C   UNL     1       6.931   7.069  -3.054  1.00  0.00     0.014 A 
ATOM     36  C   UNL     1       5.467   6.805  -1.215  1.00  0.00     0.014 A 
ATOM     37  C   UNL     1       6.365   8.359  -3.188  1.00  0.00     0.010 A 
ATOM     38  C   UNL     1       4.877   8.015  -1.489  1.00  0.00     0.010 A 
ATOM     39  C   UNL     1       5.284   8.772  -2.552  1.00  0.00    -0.014 A 
BRANCH  39  40
ATOM     40  C   UNL     1       4.533  10.023  -2.980  1.00  0.00     0.031 A 
ATOM     41  C   UNL     1       4.381  11.094  -2.098  1.00  0.00     0.074 A 
ATOM     42  C   UNL     1       3.999   9.989  -4.256  1.00  0.00     0.049 A 
ATOM     43  N   UNL     1       3.751  12.248  -2.321  1.00  0.00    -0.248 NA
ATOM     44  C   UNL     1       4.918  11.118  -0.729  1.00  0.00     0.031 C 
ATOM     45  C   UNL     1       4.155   8.915  -5.155  1.00  0.00     0.029 A 
ATOM     46  N   UNL     1       3.240  10.954  -4.881  1.00  0.00    -0.354 N 
ATOM     47  C   UNL     1       3.834  13.034  -1.246  1.00  0.00     0.074 A 
ATOM     48  C   UNL     1       4.580  12.316  -0.204  1.00  0.00     0.031 C 
ATOM     49  C   UNL     1       3.490   9.224  -6.299  1.00  0.00     0.029 A 
ATOM     50  C   UNL     1       2.908  10.495  -6.136  1.00  0.00     0.049 A 
ATOM     51  H   UNL     1       2.979  11.822  -4.496  1.00  0.00     0.167 HD
ATOM     52  C   UNL     1       3.318  14.322  -1.093  1.00  0.00     0.037 A 
ATOM     53  C   UNL     1       2.140  11.133  -7.098  1.00  0.00     0.037 A 
ATOM     54  C   UNL     1       2.587  14.978  -2.072  1.00  0.00     0.049 A 
ATOM     55  C   UNL     1       1.575  12.398  -6.924  1.00  0.00     0.074 A 
ATOM     56  C   UNL     1       2.066  16.279  -1.937  1.00  0.00     0.029 A 
ATOM     57  N   UNL     1       2.235  14.509  -3.318  1.00  0.00    -0.354 N 
ATOM     58  N   UNL     1       1.691  13.199  -5.864  1.00  0.00    -0.248 NA
ATOM     59  C   UNL     1       0.733  13.070  -7.923  1.00  0.00     0.031 C 
ATOM     60  C   UNL     1       1.401  16.587  -3.082  1.00  0.00     0.029 A 
ATOM     61  C   UNL     1       1.495  15.483  -3.951  1.00  0.00     0.049 A 
ATOM     62  H   UNL     1       2.471  13.629  -3.691  1.00  0.00     0.167 HD
ATOM     63  C   UNL     1       1.026  14.337  -6.072  1.00  0.00     0.074 A 
ATOM     64  C   UNL     1       0.394  14.268  -7.397  1.00  0.00     0.031 C 
ATOM     65  C   UNL     1       0.923  15.432  -5.213  1.00  0.00     0.037 A 
BRANCH  52  66
ATOM     66  C   UNL     1       3.572  15.046   0.219  1.00  0.00     0.058 A 
ATOM     67  C   UNL     1       4.875  15.164   0.671  1.00  0.00     0.135 A 
ATOM     68  C   UNL     1       2.545  15.434   0.966  1.00  0.00     0.135 A 
ATOM     69  F   UNL     1       5.934  15.030  -0.123  1.00  0.00    -0.206 F 
ATOM     70  C   UNL     1       4.979  15.439   2.055  1.00  0.00     0.059 A 
ATOM     71  C   UNL     1       2.737  15.821   2.271  1.00  0.00     0.059 A 
ATOM     72  F   UNL     1       1.321  15.449   0.448  1.00  0.00    -0.206 F 
ATOM     73  C   UNL     1       3.994  15.903   2.803  1.00  0.00     0.060 A 
BRANCH  73  74
ATOM     74  S   UNL     1       4.292  16.609   4.442  1.00  0.00     0.124 S 
ATOM     75  O   UNL     1       4.939  15.555   5.342  1.00  0.00    -0.237 OA
ATOM     76  O   UNL     1       5.226  17.815   4.316  1.00  0.00    -0.237 OA
ATOM     77  O   UNL     1       2.806  17.108   5.126  1.00  0.00    -0.744 OA
ENDBRANCH  73  74
ENDBRANCH  52  66
BRANCH  53  78
ATOM     78  C   UNL     1       1.901  10.416  -8.416  1.00  0.00     0.058 A 
ATOM     79  C   UNL     1       2.408  10.899  -9.611  1.00  0.00     0.135 A 
ATOM     80  C   UNL     1       1.283   9.242  -8.354  1.00  0.00     0.135 A 
ATOM     81  F   UNL     1       3.244  11.931  -9.680  1.00  0.00    -0.206 F 
ATOM     82  C   UNL     1       1.955  10.195 -10.752  1.00  0.00     0.059 A 
ATOM     83  C   UNL     1       0.992   8.544  -9.501  1.00  0.00     0.059 A 
ATOM     84  F   UNL     1       0.942   8.738  -7.172  1.00  0.00    -0.206 F 
ATOM     85  C   UNL     1       1.411   8.992 -10.723  1.00  0.00     0.060 A 
BRANCH  85  86
ATOM     86  S   UNL     1       1.229   7.992 -12.220  1.00  0.00     0.124 S 
ATOM     87  O   UNL     1       0.357   8.740 -13.231  1.00  0.00    -0.237 OA
ATOM     88  O   UNL     1       2.608   7.731 -12.830  1.00  0.00    -0.237 OA
ATOM     89  O   UNL     1       0.490   6.501 -11.823  1.00  0.00    -0.744 OA
ENDBRANCH  85  86
ENDBRANCH  53  78
BRANCH  65  90
ATOM     90  C   UNL     1       0.137  16.643  -5.689  1.00  0.00     0.058 A 
ATOM     91  C   UNL     1      -1.205  16.442  -5.968  1.00  0.00     0.135 A 
ATOM     92  C   UNL     1       0.693  17.843  -5.807  1.00  0.00     0.135 A 
ATOM     93  F   UNL     1      -1.859  15.335  -5.628  1.00  0.00    -0.206 F 
ATOM     94  C   UNL     1      -1.817  17.521  -6.649  1.00  0.00     0.059 A 
ATOM     95  C   UNL     1      -0.009  18.888  -6.357  1.00  0.00     0.059 A 
ATOM     96  F   UNL     1       1.941  18.035  -5.389  1.00  0.00    -0.206 F 
ATOM     97  C   UNL     1      -1.322  18.744  -6.711  1.00  0.00     0.060 A 
BRANCH  97  98
ATOM     98  S   UNL     1      -2.328  20.154  -7.237  1.00  0.00     0.124 S 
ATOM     99  O   UNL     1      -2.836  19.915  -8.661  1.00  0.00    -0.237 OA
ATOM    100  O   UNL     1      -3.519  20.313  -6.290  1.00  0.00    -0.237 OA
ATOM    101  O   UNL     1      -1.379  21.576  -7.202  1.00  0.00    -0.744 OA
ENDBRANCH  97  98
ENDBRANCH  65  90
ENDBRANCH  39  40
ENDBRANCH  31  34
ENDBRANCH  29  30
ENDBRANCH   1  29
TORSDOF 16
