REMARK SMILES CC(C)C[C@H](NC(=O)CNC(=O)[C@@H]([NH3+])C(C)C)C(=O)NCCCCNC(=O)c1ccc(-c2c3nc(c(-c4c(F)cc(S(=O)(=O)[O-])cc4F)c4ccc([nH]4)c(-c4c(F)cc(S(=O)(=O)[O-])cc4F)c4nc(c(-c5c(F)cc(S(=O)(=O)[O-])cc5F)c5ccc2[nH]5)C=C4)C=C3)cc1
REMARK SMILES IDX 21 1 20 2 18 3 19 4 5 6 4 7 2 8 1 9 3 10 6 11 7 12 8 14 9 15
REMARK SMILES IDX 10 16 11 17 12 19 13 20 14 21 15 25 16 26 17 27 22 28 23 29
REMARK SMILES IDX 24 30 25 31 26 32 27 34 28 35 29 36 93 37 30 38 92 39 31 40
REMARK SMILES IDX 32 41 33 42 86 43 34 44 91 45 85 46 87 47 35 48 90 49 84 50
REMARK SMILES IDX 83 51 36 53 70 54 49 55 69 56 50 57 53 58 68 59 88 60 51 61
REMARK SMILES IDX 52 62 67 64 89 65 54 66 37 67 38 68 47 69 39 70 40 71 46 72
REMARK SMILES IDX 48 73 41 74 42 75 43 76 44 77 45 78 71 79 72 80 81 81 73 82
REMARK SMILES IDX 74 83 80 84 82 85 75 86 76 87 77 88 78 89 79 90 55 91 56 92
REMARK SMILES IDX 65 93 57 94 58 95 64 96 66 97 59 98 60 99 61 100 62 101
REMARK SMILES IDX 63 102
REMARK H PARENT 20 5 6 13 10 18 14 22 14 23 14 24 25 33 87 52 53 63
REMARK Flexibility Score: inf
ROOT
ATOM      1  C   UNL     1      -3.168  -0.406  -3.743  1.00  0.00     0.116 C 
ENDROOT
BRANCH   1   2
ATOM      2  N   UNL     1      -3.641  -0.076  -2.412  1.00  0.00    -0.354 N 
ATOM      3  C   UNL     1      -3.065   0.704  -1.451  1.00  0.00     0.242 C 
ATOM      4  O   UNL     1      -3.731   0.985  -0.452  1.00  0.00    -0.273 OA
ATOM      5  H   UNL     1      -4.506  -0.475  -2.164  1.00  0.00     0.163 HD
BRANCH   3   6
ATOM      6  C   UNL     1      -1.644   1.272  -1.639  1.00  0.00     0.171 C 
BRANCH   6   7
ATOM      7  C   UNL     1      -1.588   2.298  -2.786  1.00  0.00     0.038 C 
BRANCH   7   8
ATOM      8  C   UNL     1      -2.620   3.450  -2.711  1.00  0.00    -0.015 C 
ATOM      9  C   UNL     1      -2.625   4.209  -1.384  1.00  0.00     0.007 C 
ATOM     10  C   UNL     1      -2.363   4.440  -3.852  1.00  0.00     0.007 C 
ENDBRANCH   7   8
ENDBRANCH   6   7
BRANCH   6  11
ATOM     11  N   UNL     1      -0.705   0.153  -1.793  1.00  0.00    -0.343 N 
ATOM     12  C   UNL     1       0.552  -0.041  -1.311  1.00  0.00     0.240 C 
ATOM     13  H   UNL     1      -1.046  -0.589  -2.343  1.00  0.00     0.164 HD
ATOM     14  O   UNL     1       1.018  -1.181  -1.415  1.00  0.00    -0.273 OA
BRANCH  12  15
ATOM     15  C   UNL     1       1.318   1.039  -0.538  1.00  0.00     0.216 C 
BRANCH  15  16
ATOM     16  N   UNL     1       1.296   2.335  -1.188  1.00  0.00    -0.342 N 
ATOM     17  C   UNL     1       0.936   3.564  -0.738  1.00  0.00     0.278 C 
ATOM     18  H   UNL     1       1.596   2.321  -2.125  1.00  0.00     0.164 HD
ATOM     19  O   UNL     1       0.956   4.481  -1.568  1.00  0.00    -0.268 OA
BRANCH  17  20
ATOM     20  C   UNL     1       0.594   3.870   0.741  1.00  0.00     0.273 C 
BRANCH  20  21
ATOM     21  N   UNL     1      -0.296   2.850   1.329  1.00  0.00    -0.347 N 
ATOM     22  H   UNL     1       0.177   1.947   1.332  1.00  0.00     0.345 HD
ATOM     23  H   UNL     1      -1.151   2.785   0.776  1.00  0.00     0.345 HD
ATOM     24  H   UNL     1      -0.530   3.115   2.286  1.00  0.00     0.345 HD
ENDBRANCH  20  21
BRANCH  20  25
ATOM     25  C   UNL     1       1.882   4.103   1.563  1.00  0.00     0.051 C 
ATOM     26  C   UNL     1       2.689   5.272   0.977  1.00  0.00     0.014 C 
ATOM     27  C   UNL     1       1.570   4.419   3.032  1.00  0.00     0.014 C 
ENDBRANCH  20  25
ENDBRANCH  17  20
ENDBRANCH  15  16
ENDBRANCH  12  15
ENDBRANCH   6  11
ENDBRANCH   3   6
ENDBRANCH   1   2
BRANCH   1  28
ATOM     28  C   UNL     1      -3.614  -1.796  -4.177  1.00  0.00     0.023 C 
BRANCH  28  29
ATOM     29  C   UNL     1      -5.109  -1.913  -4.469  1.00  0.00     0.023 C 
BRANCH  29  30
ATOM     30  C   UNL     1      -5.661  -0.862  -5.426  1.00  0.00     0.116 C 
BRANCH  30  31
ATOM     31  N   UNL     1      -4.920  -0.790  -6.678  1.00  0.00    -0.352 N 
ATOM     32  C   UNL     1      -5.414  -0.752  -7.962  1.00  0.00     0.251 C 
ATOM     33  H   UNL     1      -3.940  -0.765  -6.595  1.00  0.00     0.163 HD
ATOM     34  O   UNL     1      -4.666  -0.809  -8.923  1.00  0.00    -0.269 OA
BRANCH  32  35
ATOM     35  C   UNL     1      -6.876  -0.675  -8.140  1.00  0.00     0.039 A 
ATOM     36  C   UNL     1      -7.518  -1.667  -8.883  1.00  0.00     0.014 A 
ATOM     37  C   UNL     1      -7.604   0.326  -7.491  1.00  0.00     0.014 A 
ATOM     38  C   UNL     1      -8.912  -1.695  -8.916  1.00  0.00     0.010 A 
ATOM     39  C   UNL     1      -8.991   0.254  -7.470  1.00  0.00     0.010 A 
ATOM     40  C   UNL     1      -9.656  -0.758  -8.179  1.00  0.00    -0.014 A 
BRANCH  40  41
ATOM     41  C   UNL     1     -11.137  -0.816  -8.137  1.00  0.00     0.031 A 
ATOM     42  C   UNL     1     -11.941   0.307  -8.728  1.00  0.00     0.074 A 
ATOM     43  C   UNL     1     -11.748  -1.836  -7.504  1.00  0.00     0.049 A 
ATOM     44  N   UNL     1     -13.235   0.490  -8.716  1.00  0.00    -0.248 NA
ATOM     45  C   UNL     1     -11.187   1.383  -9.391  1.00  0.00     0.031 C 
ATOM     46  C   UNL     1     -11.068  -2.951  -6.839  1.00  0.00     0.029 A 
ATOM     47  N   UNL     1     -13.080  -2.093  -7.302  1.00  0.00    -0.354 N 
ATOM     48  C   UNL     1     -13.449   1.707  -9.351  1.00  0.00     0.074 A 
ATOM     49  C   UNL     1     -12.149   2.243  -9.690  1.00  0.00     0.031 C 
ATOM     50  C   UNL     1     -11.989  -3.780  -6.319  1.00  0.00     0.029 A 
ATOM     51  C   UNL     1     -13.319  -3.243  -6.587  1.00  0.00     0.049 A 
ATOM     52  H   UNL     1     -13.798  -1.508  -7.638  1.00  0.00     0.167 HD
ATOM     53  C   UNL     1     -14.623   2.311  -9.647  1.00  0.00     0.037 A 
ATOM     54  C   UNL     1     -14.481  -3.797  -6.192  1.00  0.00     0.037 A 
ATOM     55  C   UNL     1     -15.913   1.754  -9.338  1.00  0.00     0.049 A 
ATOM     56  C   UNL     1     -15.774  -3.128  -6.566  1.00  0.00     0.074 A 
ATOM     57  C   UNL     1     -17.165   2.258  -9.644  1.00  0.00     0.029 A 
ATOM     58  N   UNL     1     -16.116   0.561  -8.660  1.00  0.00    -0.354 N 
ATOM     59  N   UNL     1     -15.961  -2.004  -7.216  1.00  0.00    -0.248 NA
ATOM     60  C   UNL     1     -17.015  -3.804  -6.163  1.00  0.00     0.031 C 
ATOM     61  C   UNL     1     -18.125   1.380  -9.129  1.00  0.00     0.029 A 
ATOM     62  C   UNL     1     -17.471   0.314  -8.532  1.00  0.00     0.049 A 
ATOM     63  H   UNL     1     -15.400  -0.023  -8.319  1.00  0.00     0.167 HD
ATOM     64  C   UNL     1     -17.338  -1.849  -7.318  1.00  0.00     0.074 A 
ATOM     65  C   UNL     1     -17.937  -3.000  -6.673  1.00  0.00     0.031 C 
ATOM     66  C   UNL     1     -18.044  -0.844  -7.893  1.00  0.00     0.037 A 
BRANCH  53  67
ATOM     67  C   UNL     1     -14.558   3.636 -10.352  1.00  0.00     0.058 A 
ATOM     68  C   UNL     1     -14.165   3.730 -11.697  1.00  0.00     0.135 A 
ATOM     69  C   UNL     1     -14.898   4.822  -9.683  1.00  0.00     0.135 A 
ATOM     70  F   UNL     1     -13.811   2.628 -12.376  1.00  0.00    -0.206 F 
ATOM     71  C   UNL     1     -14.079   4.957 -12.345  1.00  0.00     0.059 A 
ATOM     72  C   UNL     1     -14.844   6.059 -10.319  1.00  0.00     0.059 A 
ATOM     73  F   UNL     1     -15.278   4.788  -8.396  1.00  0.00    -0.206 F 
ATOM     74  C   UNL     1     -14.416   6.117 -11.646  1.00  0.00     0.060 A 
BRANCH  74  75
ATOM     75  S   UNL     1     -14.294   7.705 -12.496  1.00  0.00     0.124 S 
ATOM     76  O   UNL     1     -12.851   7.930 -12.482  1.00  0.00    -0.237 OA
ATOM     77  O   UNL     1     -14.875   7.409 -13.802  1.00  0.00    -0.237 OA
ATOM     78  O   UNL     1     -15.078   8.602 -11.653  1.00  0.00    -0.744 OA
ENDBRANCH  74  75
ENDBRANCH  53  67
BRANCH  54  79
ATOM     79  C   UNL     1     -14.472  -5.071  -5.426  1.00  0.00     0.058 A 
ATOM     80  C   UNL     1     -14.857  -6.276  -6.031  1.00  0.00     0.135 A 
ATOM     81  C   UNL     1     -14.059  -5.112  -4.086  1.00  0.00     0.135 A 
ATOM     82  F   UNL     1     -15.262  -6.285  -7.310  1.00  0.00    -0.206 F 
ATOM     83  C   UNL     1     -14.848  -7.478  -5.331  1.00  0.00     0.059 A 
ATOM     84  C   UNL     1     -14.022  -6.305  -3.370  1.00  0.00     0.059 A 
ATOM     85  F   UNL     1     -13.663  -3.988  -3.469  1.00  0.00    -0.206 F 
ATOM     86  C   UNL     1     -14.427  -7.482  -4.000  1.00  0.00     0.060 A 
BRANCH  86  87
ATOM     87  S   UNL     1     -14.365  -9.055  -3.114  1.00  0.00     0.124 S 
ATOM     88  O   UNL     1     -15.774  -9.280  -2.816  1.00  0.00    -0.237 OA
ATOM     89  O   UNL     1     -13.771  -9.946  -4.107  1.00  0.00    -0.237 OA
ATOM     90  O   UNL     1     -13.514  -8.757  -1.965  1.00  0.00    -0.744 OA
ENDBRANCH  86  87
ENDBRANCH  54  79
BRANCH  66  91
ATOM     91  C   UNL     1     -19.541  -0.958  -7.875  1.00  0.00     0.058 A 
ATOM     92  C   UNL     1     -20.281  -0.707  -6.711  1.00  0.00     0.135 A 
ATOM     93  C   UNL     1     -20.243  -1.266  -9.051  1.00  0.00     0.135 A 
ATOM     94  F   UNL     1     -19.654  -0.415  -5.561  1.00  0.00    -0.206 F 
ATOM     95  C   UNL     1     -21.670  -0.775  -6.707  1.00  0.00     0.059 A 
ATOM     96  C   UNL     1     -21.633  -1.318  -9.075  1.00  0.00     0.059 A 
ATOM     97  F   UNL     1     -19.579  -1.504 -10.193  1.00  0.00    -0.206 F 
ATOM     98  C   UNL     1     -22.337  -1.081  -7.895  1.00  0.00     0.060 A 
BRANCH  98  99
ATOM     99  S   UNL     1     -24.142  -1.129  -7.890  1.00  0.00     0.124 S 
ATOM    100  O   UNL     1     -24.399  -2.420  -7.262  1.00  0.00    -0.237 OA
ATOM    101  O   UNL     1     -24.486   0.044  -7.093  1.00  0.00    -0.237 OA
ATOM    102  O   UNL     1     -24.486  -1.038  -9.306  1.00  0.00    -0.744 OA
ENDBRANCH  98  99
ENDBRANCH  66  91
ENDBRANCH  40  41
ENDBRANCH  32  35
ENDBRANCH  30  31
ENDBRANCH  29  30
ENDBRANCH  28  29
ENDBRANCH   1  28
TORSDOF 22
