REMARK SMILES C[C@H](C(=O)NCCCCNC(=O)c1ccc(-c2c3nc(c(-c4c(F)cc(S(=O)(=O)[O-])cc4F)c4ccc([nH]4)c(-c4c(F)cc(S(=O)(=O)[O-])cc4F)c4nc(c(-c5c(F)cc(S(=O)(=O)[O-])cc5F)c5ccc2[nH]5)C=C4)C=C3)cc1)c1ccc(-c2ccccc2)c(F)c1
REMARK SMILES IDX 8 1 7 2 6 3 5 4 3 5 4 6 2 8 1 9 79 10 80 11 91 12 81 13
REMARK SMILES IDX 89 14 82 15 90 16 83 17 84 18 88 19 85 20 87 21 86 22 9 23
REMARK SMILES IDX 10 24 11 25 12 27 13 28 14 29 78 30 15 31 77 32 16 33 17 34
REMARK SMILES IDX 18 35 71 36 19 37 76 38 70 39 72 40 20 41 75 42 69 43 68 44
REMARK SMILES IDX 21 46 55 47 34 48 54 49 35 50 38 51 53 52 73 53 36 54 37 55
REMARK SMILES IDX 52 57 74 58 39 59 22 60 23 61 32 62 24 63 25 64 31 65 33 66
REMARK SMILES IDX 26 67 27 68 28 69 29 70 30 71 56 72 57 73 66 74 58 75 59 76
REMARK SMILES IDX 65 77 67 78 60 79 61 80 62 81 63 82 64 83 40 84 41 85 50 86
REMARK SMILES IDX 42 87 43 88 49 89 51 90 44 91 45 92 46 93 47 94 48 95
REMARK H PARENT 5 7 10 26 72 45 38 56
REMARK Flexibility Score: inf
ROOT
ATOM      1  C   UNL     1       2.854   1.885   3.536  1.00  0.00     0.023 C 
ENDROOT
BRANCH   1   2
ATOM      2  C   UNL     1       1.750   0.829   3.497  1.00  0.00     0.023 C 
BRANCH   2   3
ATOM      3  C   UNL     1       0.729   1.018   2.380  1.00  0.00     0.116 C 
BRANCH   3   4
ATOM      4  N   UNL     1       1.328   0.928   1.062  1.00  0.00    -0.356 N 
ATOM      5  C   UNL     1       1.274  -0.068   0.133  1.00  0.00     0.227 C 
ATOM      6  O   UNL     1       1.806   0.147  -0.960  1.00  0.00    -0.274 OA
ATOM      7  H   UNL     1       1.859   1.713   0.795  1.00  0.00     0.163 HD
BRANCH   5   8
ATOM      8  C   UNL     1       0.573  -1.402   0.407  1.00  0.00     0.105 C 
ATOM      9  C   UNL     1       1.164  -2.111   1.631  1.00  0.00     0.023 C 
BRANCH   8  10
ATOM     10  C   UNL     1      -0.952  -1.366   0.414  1.00  0.00    -0.033 A 
ATOM     11  C   UNL     1      -1.691  -0.181   0.300  1.00  0.00     0.005 A 
ATOM     12  C   UNL     1      -1.668  -2.568   0.531  1.00  0.00     0.044 A 
ATOM     13  C   UNL     1      -3.088  -0.189   0.375  1.00  0.00     0.012 A 
ATOM     14  C   UNL     1      -3.064  -2.570   0.586  1.00  0.00     0.131 A 
ATOM     15  C   UNL     1      -3.806  -1.385   0.525  1.00  0.00     0.017 A 
ATOM     16  F   UNL     1      -3.685  -3.755   0.700  1.00  0.00    -0.206 F 
BRANCH  15  17
ATOM     17  C   UNL     1      -5.274  -1.365   0.619  1.00  0.00    -0.015 A 
ATOM     18  C   UNL     1      -6.047  -0.660  -0.320  1.00  0.00     0.009 A 
ATOM     19  C   UNL     1      -5.946  -2.017   1.666  1.00  0.00     0.009 A 
ATOM     20  C   UNL     1      -7.438  -0.600  -0.212  1.00  0.00     0.001 A 
ATOM     21  C   UNL     1      -7.338  -1.957   1.776  1.00  0.00     0.001 A 
ATOM     22  C   UNL     1      -8.083  -1.246   0.839  1.00  0.00     0.000 A 
ENDBRANCH  15  17
ENDBRANCH   8  10
ENDBRANCH   5   8
ENDBRANCH   3   4
ENDBRANCH   2   3
ENDBRANCH   1   2
BRANCH   1  23
ATOM     23  C   UNL     1       2.369   3.325   3.649  1.00  0.00     0.116 C 
BRANCH  23  24
ATOM     24  N   UNL     1       1.567   3.557   4.840  1.00  0.00    -0.352 N 
ATOM     25  C   UNL     1       1.687   4.542   5.791  1.00  0.00     0.251 C 
ATOM     26  H   UNL     1       0.833   2.917   4.987  1.00  0.00     0.163 HD
ATOM     27  O   UNL     1       1.013   4.482   6.817  1.00  0.00    -0.269 OA
BRANCH  25  28
ATOM     28  C   UNL     1       2.644   5.651   5.590  1.00  0.00     0.039 A 
ATOM     29  C   UNL     1       3.447   6.050   6.661  1.00  0.00     0.014 A 
ATOM     30  C   UNL     1       2.760   6.289   4.352  1.00  0.00     0.014 A 
ATOM     31  C   UNL     1       4.409   7.045   6.470  1.00  0.00     0.010 A 
ATOM     32  C   UNL     1       3.776   7.218   4.141  1.00  0.00     0.010 A 
ATOM     33  C   UNL     1       4.608   7.611   5.199  1.00  0.00    -0.014 A 
BRANCH  33  34
ATOM     34  C   UNL     1       5.681   8.614   4.968  1.00  0.00     0.031 A 
ATOM     35  C   UNL     1       5.333  10.012   4.530  1.00  0.00     0.074 A 
ATOM     36  C   UNL     1       6.972   8.253   5.117  1.00  0.00     0.049 A 
ATOM     37  N   UNL     1       6.130  11.013   4.255  1.00  0.00    -0.248 NA
ATOM     38  C   UNL     1       3.905  10.320   4.354  1.00  0.00     0.031 C 
ATOM     39  C   UNL     1       7.440   6.913   5.480  1.00  0.00     0.029 A 
ATOM     40  N   UNL     1       8.129   8.978   4.976  1.00  0.00    -0.354 N 
ATOM     41  C   UNL     1       5.303  12.065   3.880  1.00  0.00     0.074 A 
ATOM     42  C   UNL     1       3.948  11.561   3.890  1.00  0.00     0.031 C 
ATOM     43  C   UNL     1       8.780   6.920   5.562  1.00  0.00     0.029 A 
ATOM     44  C   UNL     1       9.271   8.251   5.220  1.00  0.00     0.049 A 
ATOM     45  H   UNL     1       8.140   9.930   4.725  1.00  0.00     0.167 HD
ATOM     46  C   UNL     1       5.637  13.345   3.588  1.00  0.00     0.037 A 
ATOM     47  C   UNL     1      10.568   8.613   5.167  1.00  0.00     0.037 A 
ATOM     48  C   UNL     1       6.988  13.845   3.588  1.00  0.00     0.049 A 
ATOM     49  C   UNL     1      10.915  10.037   4.821  1.00  0.00     0.074 A 
ATOM     50  C   UNL     1       7.430  15.132   3.334  1.00  0.00     0.029 A 
ATOM     51  N   UNL     1       8.116  13.082   3.855  1.00  0.00    -0.354 N 
ATOM     52  N   UNL     1      10.113  11.034   4.530  1.00  0.00    -0.248 NA
ATOM     53  C   UNL     1      12.341  10.389   4.809  1.00  0.00     0.031 C 
ATOM     54  C   UNL     1       8.827  15.137   3.404  1.00  0.00     0.029 A 
ATOM     55  C   UNL     1       9.253  13.867   3.757  1.00  0.00     0.049 A 
ATOM     56  H   UNL     1       8.109  12.124   4.081  1.00  0.00     0.167 HD
ATOM     57  C   UNL     1      10.936  12.138   4.330  1.00  0.00     0.074 A 
ATOM     58  C   UNL     1      12.295  11.689   4.553  1.00  0.00     0.031 C 
ATOM     59  C   UNL     1      10.600  13.407   3.991  1.00  0.00     0.037 A 
BRANCH  46  60
ATOM     60  C   UNL     1       4.520  14.301   3.262  1.00  0.00     0.058 A 
ATOM     61  C   UNL     1       3.603  14.717   4.241  1.00  0.00     0.135 A 
ATOM     62  C   UNL     1       4.385  14.839   1.972  1.00  0.00     0.135 A 
ATOM     63  F   UNL     1       3.673  14.223   5.488  1.00  0.00    -0.206 F 
ATOM     64  C   UNL     1       2.577  15.610   3.948  1.00  0.00     0.059 A 
ATOM     65  C   UNL     1       3.385  15.758   1.663  1.00  0.00     0.059 A 
ATOM     66  F   UNL     1       5.232  14.476   0.995  1.00  0.00    -0.206 F 
ATOM     67  C   UNL     1       2.478  16.127   2.655  1.00  0.00     0.060 A 
BRANCH  67  68
ATOM     68  S   UNL     1       1.149  17.294   2.298  1.00  0.00     0.124 S 
ATOM     69  O   UNL     1      -0.021  16.422   2.331  1.00  0.00    -0.237 OA
ATOM     70  O   UNL     1       1.263  18.243   3.401  1.00  0.00    -0.237 OA
ATOM     71  O   UNL     1       1.501  17.820   0.983  1.00  0.00    -0.744 OA
ENDBRANCH  67  68
ENDBRANCH  46  60
BRANCH  47  72
ATOM     72  C   UNL     1      11.637   7.618   5.458  1.00  0.00     0.058 A 
ATOM     73  C   UNL     1      12.444   7.731   6.600  1.00  0.00     0.135 A 
ATOM     74  C   UNL     1      11.883   6.541   4.592  1.00  0.00     0.135 A 
ATOM     75  F   UNL     1      12.253   8.745   7.459  1.00  0.00    -0.206 F 
ATOM     76  C   UNL     1      13.477   6.835   6.857  1.00  0.00     0.059 A 
ATOM     77  C   UNL     1      12.888   5.613   4.843  1.00  0.00     0.059 A 
ATOM     78  F   UNL     1      11.127   6.373   3.495  1.00  0.00    -0.206 F 
ATOM     79  C   UNL     1      13.692   5.779   5.970  1.00  0.00     0.060 A 
BRANCH  79  80
ATOM     80  S   UNL     1      15.022   4.609   6.322  1.00  0.00     0.124 S 
ATOM     81  O   UNL     1      16.203   5.409   6.021  1.00  0.00    -0.237 OA
ATOM     82  O   UNL     1      14.797   4.304   7.731  1.00  0.00    -0.237 OA
ATOM     83  O   UNL     1      14.752   3.509   5.400  1.00  0.00    -0.744 OA
ENDBRANCH  79  80
ENDBRANCH  47  72
BRANCH  59  84
ATOM     84  C   UNL     1      11.715  14.412   3.883  1.00  0.00     0.058 A 
ATOM     85  C   UNL     1      12.651  14.372   2.837  1.00  0.00     0.135 A 
ATOM     86  C   UNL     1      11.828  15.451   4.822  1.00  0.00     0.135 A 
ATOM     87  F   UNL     1      12.593  13.398   1.915  1.00  0.00    -0.206 F 
ATOM     88  C   UNL     1      13.681  15.303   2.748  1.00  0.00     0.059 A 
ATOM     89  C   UNL     1      12.829  16.412   4.732  1.00  0.00     0.059 A 
ATOM     90  F   UNL     1      10.952  15.546   5.835  1.00  0.00    -0.206 F 
ATOM     91  C   UNL     1      13.762  16.320   3.701  1.00  0.00     0.060 A 
BRANCH  91  92
ATOM     92  S   UNL     1      15.094  17.530   3.563  1.00  0.00     0.124 S 
ATOM     93  O   UNL     1      16.251  16.742   3.973  1.00  0.00    -0.237 OA
ATOM     94  O   UNL     1      15.041  17.892   2.150  1.00  0.00    -0.237 OA
ATOM     95  O   UNL     1      14.692  18.585   4.489  1.00  0.00    -0.744 OA
ENDBRANCH  91  92
ENDBRANCH  59  84
ENDBRANCH  33  34
ENDBRANCH  25  28
ENDBRANCH  23  24
ENDBRANCH   1  23
TORSDOF 16
