REMARK SMILES CCCC(=O)Nc1cccc(C(=O)N[C@@H](C(=O)NCCCCNC(=O)c2ccc(-c3c4nc(c(-c5c(F)cc(S(=O)(=O)[O-])cc5F)c5ccc([nH]5)c(-c5c(F)cc(S(=O)(=O)[O-])cc5F)c5nc(c(-c6c(F)cc(S(=O)(=O)[O-])cc6F)c6ccc3[nH]6)C=C5)C=C4)cc2)C2=C(C)N=N[C@@H]2C)c1
REMARK SMILES IDX 19 1 18 2 16 3 17 4 15 6 14 7 12 8 13 9 11 11 7 12 8 13
REMARK SMILES IDX 99 14 9 15 10 16 6 17 4 18 5 19 3 21 2 22 1 23 92 24 93 25
REMARK SMILES IDX 97 26 94 27 95 28 96 29 98 30 20 31 21 32 22 33 23 34 24 35
REMARK SMILES IDX 25 37 26 38 27 39 91 40 28 41 90 42 29 43 30 44 31 45 84 46
REMARK SMILES IDX 32 47 89 48 83 49 85 50 33 51 88 52 82 53 81 54 34 56 68 57
REMARK SMILES IDX 47 58 67 59 48 60 51 61 66 62 86 63 49 64 50 65 65 67 87 68
REMARK SMILES IDX 52 69 35 70 36 71 45 72 37 73 38 74 44 75 46 76 39 77 40 78
REMARK SMILES IDX 41 79 42 80 43 81 69 82 70 83 79 84 71 85 72 86 78 87 80 88
REMARK SMILES IDX 73 89 74 90 75 91 76 92 77 93 53 94 54 95 63 96 55 97 56 98
REMARK SMILES IDX 62 99 64 100 57 101 58 102 59 103 60 104 61 105
REMARK H PARENT 18 5 14 10 6 20 23 36 85 55 51 66
REMARK Flexibility Score: inf
ROOT
ATOM      1  C   UNL     1      -1.445  -1.054  -2.559  1.00  0.00     0.116 C 
ENDROOT
BRANCH   1   2
ATOM      2  N   UNL     1      -2.173  -1.695  -1.488  1.00  0.00    -0.354 N 
ATOM      3  C   UNL     1      -1.779  -1.983  -0.212  1.00  0.00     0.247 C 
ATOM      4  O   UNL     1      -2.657  -2.398   0.551  1.00  0.00    -0.272 OA
ATOM      5  H   UNL     1      -3.092  -1.966  -1.712  1.00  0.00     0.163 HD
BRANCH   3   6
ATOM      6  C   UNL     1      -0.334  -1.639   0.285  1.00  0.00     0.202 C 
BRANCH   6   7
ATOM      7  N   UNL     1       0.695  -2.151  -0.627  1.00  0.00    -0.337 N 
ATOM      8  C   UNL     1       1.661  -1.653  -1.466  1.00  0.00     0.252 C 
ATOM      9  O   UNL     1       2.251  -2.496  -2.148  1.00  0.00    -0.269 OA
ATOM     10  H   UNL     1       0.691  -3.135  -0.642  1.00  0.00     0.165 HD
BRANCH   8  11
ATOM     11  C   UNL     1       2.069  -0.223  -1.631  1.00  0.00     0.041 A 
ATOM     12  C   UNL     1       1.925   2.161  -1.192  1.00  0.00     0.041 A 
ATOM     13  C   UNL     1       3.101   2.409  -1.883  1.00  0.00     0.026 A 
ATOM     14  C   UNL     1       1.381   0.875  -1.126  1.00  0.00     0.040 A 
ATOM     15  C   UNL     1       3.769   1.338  -2.467  1.00  0.00     0.003 A 
ATOM     16  C   UNL     1       3.265   0.036  -2.330  1.00  0.00     0.014 A 
BRANCH  12  17
ATOM     17  N   UNL     1       1.278   3.188  -0.495  1.00  0.00    -0.326 N 
ATOM     18  C   UNL     1       1.127   3.170   0.874  1.00  0.00     0.224 C 
ATOM     19  O   UNL     1       0.114   3.639   1.391  1.00  0.00    -0.275 OA
ATOM     20  H   UNL     1       0.917   3.951  -1.002  1.00  0.00     0.169 HD
BRANCH  18  21
ATOM     21  C   UNL     1       2.266   2.594   1.709  1.00  0.00     0.100 C 
BRANCH  21  22
ATOM     22  C   UNL     1       2.052   1.147   2.150  1.00  0.00     0.006 C 
ATOM     23  C   UNL     1       3.203   0.217   1.786  1.00  0.00     0.004 C 
ENDBRANCH  21  22
ENDBRANCH  18  21
ENDBRANCH  12  17
ENDBRANCH   8  11
ENDBRANCH   6   7
BRANCH   6  24
ATOM     24  C   UNL     1      -0.140  -2.183   1.671  1.00  0.00     0.011 C 
ATOM     25  C   UNL     1      -0.439  -1.601   2.844  1.00  0.00     0.064 C 
ATOM     26  C   UNL     1       0.161  -3.604   2.025  1.00  0.00     0.156 C 
ATOM     27  C   UNL     1      -1.011  -0.250   3.122  1.00  0.00     0.069 C 
ATOM     28  N   UNL     1      -0.299  -2.454   3.909  1.00  0.00    -0.160 NA
ATOM     29  N   UNL     1       0.007  -3.606   3.507  1.00  0.00    -0.181 NA
ATOM     30  C   UNL     1       1.569  -4.098   1.724  1.00  0.00     0.040 C 
ENDBRANCH   6  24
ENDBRANCH   3   6
ENDBRANCH   1   2
BRANCH   1  31
ATOM     31  C   UNL     1      -1.028  -2.041  -3.644  1.00  0.00     0.023 C 
BRANCH  31  32
ATOM     32  C   UNL     1      -2.135  -2.333  -4.656  1.00  0.00     0.023 C 
BRANCH  32  33
ATOM     33  C   UNL     1      -2.640  -1.112  -5.416  1.00  0.00     0.116 C 
BRANCH  33  34
ATOM     34  N   UNL     1      -1.606  -0.427  -6.178  1.00  0.00    -0.352 N 
ATOM     35  C   UNL     1      -1.758   0.251  -7.371  1.00  0.00     0.251 C 
ATOM     36  H   UNL     1      -0.697  -0.450  -5.801  1.00  0.00     0.163 HD
ATOM     37  O   UNL     1      -0.799   0.707  -7.965  1.00  0.00    -0.269 OA
BRANCH  35  38
ATOM     38  C   UNL     1      -3.125   0.364  -7.925  1.00  0.00     0.039 A 
ATOM     39  C   UNL     1      -3.385  -0.163  -9.190  1.00  0.00     0.014 A 
ATOM     40  C   UNL     1      -4.156   0.879  -7.136  1.00  0.00     0.014 A 
ATOM     41  C   UNL     1      -4.705  -0.239  -9.638  1.00  0.00     0.010 A 
ATOM     42  C   UNL     1      -5.473   0.731  -7.552  1.00  0.00     0.010 A 
ATOM     43  C   UNL     1      -5.762   0.168  -8.805  1.00  0.00    -0.014 A 
BRANCH  43  44
ATOM     44  C   UNL     1      -7.178   0.005  -9.222  1.00  0.00     0.031 A 
ATOM     45  C   UNL     1      -8.053   1.216  -9.393  1.00  0.00     0.074 A 
ATOM     46  C   UNL     1      -7.694  -1.232  -9.373  1.00  0.00     0.049 A 
ATOM     47  N   UNL     1      -9.328   1.279  -9.676  1.00  0.00    -0.248 NA
ATOM     48  C   UNL     1      -7.418   2.529  -9.187  1.00  0.00     0.031 C 
ATOM     49  C   UNL     1      -6.963  -2.486  -9.172  1.00  0.00     0.029 A 
ATOM     50  N   UNL     1      -8.959  -1.639  -9.717  1.00  0.00    -0.354 N 
ATOM     51  C   UNL     1      -9.651   2.630  -9.663  1.00  0.00     0.074 A 
ATOM     52  C   UNL     1      -8.453   3.350  -9.293  1.00  0.00     0.031 C 
ATOM     53  C   UNL     1      -7.786  -3.519  -9.416  1.00  0.00     0.029 A 
ATOM     54  C   UNL     1      -9.109  -3.006  -9.757  1.00  0.00     0.049 A 
ATOM     55  H   UNL     1      -9.690  -1.012  -9.918  1.00  0.00     0.167 HD
ATOM     56  C   UNL     1     -10.834   3.219  -9.959  1.00  0.00     0.037 A 
ATOM     57  C   UNL     1     -10.191  -3.761 -10.031  1.00  0.00     0.037 A 
ATOM     58  C   UNL     1     -12.012   2.499 -10.365  1.00  0.00     0.049 A 
ATOM     59  C   UNL     1     -11.486  -3.083 -10.386  1.00  0.00     0.074 A 
ATOM     60  C   UNL     1     -13.237   3.009 -10.757  1.00  0.00     0.029 A 
ATOM     61  N   UNL     1     -12.113   1.117 -10.433  1.00  0.00    -0.354 N 
ATOM     62  N   UNL     1     -11.756  -1.800 -10.437  1.00  0.00    -0.248 NA
ATOM     63  C   UNL     1     -12.621  -3.951 -10.731  1.00  0.00     0.031 C 
ATOM     64  C   UNL     1     -14.092   1.935 -11.023  1.00  0.00     0.029 A 
ATOM     65  C   UNL     1     -13.385   0.756 -10.844  1.00  0.00     0.049 A 
ATOM     66  H   UNL     1     -11.387   0.487 -10.221  1.00  0.00     0.167 HD
ATOM     67  C   UNL     1     -13.083  -1.706 -10.841  1.00  0.00     0.074 A 
ATOM     68  C   UNL     1     -13.557  -3.062 -11.034  1.00  0.00     0.031 C 
ATOM     69  C   UNL     1     -13.840  -0.598 -11.036  1.00  0.00     0.037 A 
BRANCH  56  70
ATOM     70  C   UNL     1     -10.911   4.718  -9.867  1.00  0.00     0.058 A 
ATOM     71  C   UNL     1     -10.258   5.547 -10.793  1.00  0.00     0.135 A 
ATOM     72  C   UNL     1     -11.684   5.332  -8.869  1.00  0.00     0.135 A 
ATOM     73  F   UNL     1      -9.490   5.012 -11.756  1.00  0.00    -0.206 F 
ATOM     74  C   UNL     1     -10.351   6.932 -10.721  1.00  0.00     0.059 A 
ATOM     75  C   UNL     1     -11.814   6.716  -8.794  1.00  0.00     0.059 A 
ATOM     76  F   UNL     1     -12.325   4.587  -7.955  1.00  0.00    -0.206 F 
ATOM     77  C   UNL     1     -11.135   7.508  -9.719  1.00  0.00     0.060 A 
BRANCH  77  78
ATOM     78  S   UNL     1     -11.263   9.307  -9.654  1.00  0.00     0.124 S 
ATOM     79  O   UNL     1      -9.943   9.674  -9.151  1.00  0.00    -0.237 OA
ATOM     80  O   UNL     1     -11.528   9.651 -11.047  1.00  0.00    -0.237 OA
ATOM     81  O   UNL     1     -12.371   9.536  -8.733  1.00  0.00    -0.744 OA
ENDBRANCH  77  78
ENDBRANCH  56  70
BRANCH  57  82
ATOM     82  C   UNL     1     -10.085  -5.244 -10.003  1.00  0.00     0.058 A 
ATOM     83  C   UNL     1     -10.113  -5.994 -11.188  1.00  0.00     0.135 A 
ATOM     84  C   UNL     1      -9.926  -5.940  -8.794  1.00  0.00     0.135 A 
ATOM     85  F   UNL     1     -10.270  -5.375 -12.369  1.00  0.00    -0.206 F 
ATOM     86  C   UNL     1      -9.997  -7.380 -11.178  1.00  0.00     0.059 A 
ATOM     87  C   UNL     1      -9.784  -7.324  -8.760  1.00  0.00     0.059 A 
ATOM     88  F   UNL     1      -9.876  -5.268  -7.633  1.00  0.00    -0.206 F 
ATOM     89  C   UNL     1      -9.827  -8.036  -9.958  1.00  0.00     0.060 A 
BRANCH  89  90
ATOM     90  S   UNL     1      -9.611  -9.829  -9.961  1.00  0.00     0.124 S 
ATOM     91  O   UNL     1     -10.963 -10.288 -10.257  1.00  0.00    -0.237 OA
ATOM     92  O   UNL     1      -8.626 -10.017 -11.022  1.00  0.00    -0.237 OA
ATOM     93  O   UNL     1      -9.127 -10.110  -8.613  1.00  0.00    -0.744 OA
ENDBRANCH  89  90
ENDBRANCH  57  82
BRANCH  69  94
ATOM     94  C   UNL     1     -15.253  -0.796 -11.508  1.00  0.00     0.058 A 
ATOM     95  C   UNL     1     -16.255  -1.280 -10.654  1.00  0.00     0.135 A 
ATOM     96  C   UNL     1     -15.621  -0.436 -12.815  1.00  0.00     0.135 A 
ATOM     97  F   UNL     1     -15.954  -1.643  -9.397  1.00  0.00    -0.206 F 
ATOM     98  C   UNL     1     -17.570  -1.420 -11.085  1.00  0.00     0.059 A 
ATOM     99  C   UNL     1     -16.935  -0.542 -13.259  1.00  0.00     0.059 A 
ATOM    100  F   UNL     1     -14.703   0.044 -13.669  1.00  0.00    -0.206 F 
ATOM    101  C   UNL     1     -17.901  -1.046 -12.389  1.00  0.00     0.060 A 
BRANCH 101 102
ATOM    102  S   UNL     1     -19.619  -1.197 -12.924  1.00  0.00     0.124 S 
ATOM    103  O   UNL     1     -19.746  -2.640 -13.097  1.00  0.00    -0.237 OA
ATOM    104  O   UNL     1     -20.349  -0.626 -11.796  1.00  0.00    -0.237 OA
ATOM    105  O   UNL     1     -19.662  -0.411 -14.153  1.00  0.00    -0.744 OA
ENDBRANCH 101 102
ENDBRANCH  69  94
ENDBRANCH  43  44
ENDBRANCH  35  38
ENDBRANCH  33  34
ENDBRANCH  32  33
ENDBRANCH  31  32
ENDBRANCH   1  31
TORSDOF 20
