REMARK SMILES CC[N@@H+]1CCO[C@H](C[NH2+][C@@H]2CCC[C@H](C(=O)NCCCCNC(=O)c3ccc(-c4c5nc(c(-c6c(F)cc(S(=O)(=O)[O-])cc6F)c6ccc([nH]6)c(-c6c(F)cc(S(=O)(=O)[O-])cc6F)c6nc(c(-c7c(F)cc(S(=O)(=O)[O-])cc7F)c7ccc4[nH]7)C=C6)C=C5)cc3)C2)C1
REMARK SMILES IDX 19 1 18 2 17 3 15 4 16 5 14 7 10 8 11 9 91 10 12 11 13 12
REMARK SMILES IDX 9 13 8 16 7 17 3 18 4 19 92 20 5 22 6 23 2 24 1 25 20 26
REMARK SMILES IDX 21 27 22 28 23 29 24 31 25 32 26 33 90 34 27 35 89 36 28 37
REMARK SMILES IDX 29 38 30 39 83 40 31 41 88 42 82 43 84 44 32 45 87 46 81 47
REMARK SMILES IDX 80 48 33 50 67 51 46 52 66 53 47 54 50 55 65 56 85 57 48 58
REMARK SMILES IDX 49 59 64 61 86 62 51 63 34 64 35 65 44 66 36 67 37 68 43 69
REMARK SMILES IDX 45 70 38 71 39 72 40 73 41 74 42 75 68 76 69 77 78 78 70 79
REMARK SMILES IDX 71 80 77 81 79 82 72 83 73 84 74 85 75 86 76 87 52 88 53 89
REMARK SMILES IDX 62 90 54 91 55 92 61 93 63 94 56 95 57 96 58 97 59 98 60 99
REMARK H PARENT 17 6 9 14 9 15 3 21 22 30 84 49 50 60
REMARK Flexibility Score: inf
ROOT
ATOM      1  C   UNL     1       1.988   3.210  -3.949  1.00  0.00     0.023 C 
ENDROOT
BRANCH   1   2
ATOM      2  C   UNL     1       1.287   2.239  -3.002  1.00  0.00     0.116 C 
BRANCH   2   3
ATOM      3  N   UNL     1      -0.015   1.826  -3.501  1.00  0.00    -0.356 N 
ATOM      4  C   UNL     1      -0.469   0.625  -3.959  1.00  0.00     0.223 C 
ATOM      5  O   UNL     1      -1.648   0.557  -4.318  1.00  0.00    -0.275 OA
ATOM      6  H   UNL     1      -0.691   2.542  -3.508  1.00  0.00     0.163 HD
BRANCH   4   7
ATOM      7  C   UNL     1       0.415  -0.619  -3.999  1.00  0.00     0.084 C 
ATOM      8  C   UNL     1       1.877  -2.121  -2.488  1.00  0.00     0.183 C 
ATOM      9  C   UNL     1       3.065  -1.744  -3.376  1.00  0.00     0.065 C 
ATOM     10  C   UNL     1       0.762  -1.069  -2.575  1.00  0.00     0.078 C 
ATOM     11  C   UNL     1       2.628  -1.566  -4.824  1.00  0.00     0.007 C 
ATOM     12  C   UNL     1       1.602  -0.450  -4.952  1.00  0.00     0.014 C 
BRANCH   8  13
ATOM     13  N   UNL     1       2.365  -2.189  -1.111  1.00  0.00    -0.341 N 
ATOM     14  H   UNL     1       3.372  -2.027  -1.126  1.00  0.00     0.346 HD
ATOM     15  H   UNL     1       1.844  -1.482  -0.592  1.00  0.00     0.346 HD
BRANCH  13  16
ATOM     16  C   UNL     1       2.123  -3.454  -0.422  1.00  0.00     0.299 C 
BRANCH  16  17
ATOM     17  C   UNL     1       2.401  -3.466   1.114  1.00  0.00     0.227 C 
ATOM     18  N   UNL     1       1.146  -1.497   2.166  1.00  0.00    -0.331 N 
ATOM     19  C   UNL     1       2.461  -0.915   2.438  1.00  0.00     0.291 C 
ATOM     20  C   UNL     1       1.253  -2.954   2.021  1.00  0.00     0.300 C 
ATOM     21  H   UNL     1       0.634  -1.240   3.010  1.00  0.00     0.348 HD
ATOM     22  C   UNL     1       3.627  -1.446   1.587  1.00  0.00     0.222 C 
ATOM     23  O   UNL     1       3.662  -2.876   1.483  1.00  0.00    -0.361 OA
BRANCH  18  24
ATOM     24  C   UNL     1       0.226  -0.879   1.218  1.00  0.00     0.258 C 
ATOM     25  C   UNL     1       0.491   0.564   0.808  1.00  0.00     0.071 C 
ENDBRANCH  18  24
ENDBRANCH  16  17
ENDBRANCH  13  16
ENDBRANCH   8  13
ENDBRANCH   4   7
ENDBRANCH   2   3
ENDBRANCH   1   2
BRANCH   1  26
ATOM     26  C   UNL     1       1.326   4.582  -4.072  1.00  0.00     0.023 C 
BRANCH  26  27
ATOM     27  C   UNL     1       1.149   5.342  -2.764  1.00  0.00     0.116 C 
BRANCH  27  28
ATOM     28  N   UNL     1       2.402   5.569  -2.059  1.00  0.00    -0.352 N 
ATOM     29  C   UNL     1       2.877   6.724  -1.485  1.00  0.00     0.251 C 
ATOM     30  H   UNL     1       2.993   4.785  -1.983  1.00  0.00     0.163 HD
ATOM     31  O   UNL     1       4.023   6.757  -1.042  1.00  0.00    -0.269 OA
BRANCH  29  32
ATOM     32  C   UNL     1       2.021   7.929  -1.430  1.00  0.00     0.039 A 
ATOM     33  C   UNL     1       2.571   9.166  -1.777  1.00  0.00     0.014 A 
ATOM     34  C   UNL     1       0.678   7.840  -1.054  1.00  0.00     0.014 A 
ATOM     35  C   UNL     1       1.757  10.301  -1.806  1.00  0.00     0.010 A 
ATOM     36  C   UNL     1      -0.148   8.954  -1.165  1.00  0.00     0.010 A 
ATOM     37  C   UNL     1       0.382  10.199  -1.534  1.00  0.00    -0.014 A 
BRANCH  37  38
ATOM     38  C   UNL     1      -0.512  11.383  -1.613  1.00  0.00     0.031 A 
ATOM     39  C   UNL     1      -1.223  11.875  -0.380  1.00  0.00     0.074 A 
ATOM     40  C   UNL     1      -0.731  11.980  -2.802  1.00  0.00     0.049 A 
ATOM     41  N   UNL     1      -2.078  12.857  -0.254  1.00  0.00    -0.248 NA
ATOM     42  C   UNL     1      -0.959  11.147   0.872  1.00  0.00     0.031 C 
ATOM     43  C   UNL     1      -0.138  11.570  -4.077  1.00  0.00     0.029 A 
ATOM     44  N   UNL     1      -1.514  13.057  -3.133  1.00  0.00    -0.354 N 
ATOM     45  C   UNL     1      -2.464  12.854   1.081  1.00  0.00     0.074 A 
ATOM     46  C   UNL     1      -1.799  11.735   1.710  1.00  0.00     0.031 C 
ATOM     47  C   UNL     1      -0.549  12.408  -5.043  1.00  0.00     0.029 A 
ATOM     48  C   UNL     1      -1.464  13.388  -4.466  1.00  0.00     0.049 A 
ATOM     49  H   UNL     1      -2.061  13.547  -2.477  1.00  0.00     0.167 HD
ATOM     50  C   UNL     1      -3.277  13.721   1.733  1.00  0.00     0.037 A 
ATOM     51  C   UNL     1      -2.083  14.373  -5.147  1.00  0.00     0.037 A 
ATOM     52  C   UNL     1      -3.919  14.847   1.105  1.00  0.00     0.049 A 
ATOM     53  C   UNL     1      -2.990  15.318  -4.405  1.00  0.00     0.074 A 
ATOM     54  C   UNL     1      -4.717  15.817   1.686  1.00  0.00     0.029 A 
ATOM     55  N   UNL     1      -3.839  15.152  -0.246  1.00  0.00    -0.354 N 
ATOM     56  N   UNL     1      -3.294  15.340  -3.129  1.00  0.00    -0.248 NA
ATOM     57  C   UNL     1      -3.634  16.376  -5.196  1.00  0.00     0.031 C 
ATOM     58  C   UNL     1      -5.157  16.682   0.678  1.00  0.00     0.029 A 
ATOM     59  C   UNL     1      -4.590  16.283  -0.522  1.00  0.00     0.049 A 
ATOM     60  H   UNL     1      -3.324  14.641  -0.911  1.00  0.00     0.167 HD
ATOM     61  C   UNL     1      -4.134  16.435  -2.957  1.00  0.00     0.074 A 
ATOM     62  C   UNL     1      -4.285  17.052  -4.260  1.00  0.00     0.031 C 
ATOM     63  C   UNL     1      -4.723  16.892  -1.823  1.00  0.00     0.037 A 
BRANCH  50  64
ATOM     64  C   UNL     1      -3.515  13.478   3.199  1.00  0.00     0.058 A 
ATOM     65  C   UNL     1      -2.493  13.637   4.151  1.00  0.00     0.135 A 
ATOM     66  C   UNL     1      -4.780  13.082   3.663  1.00  0.00     0.135 A 
ATOM     67  F   UNL     1      -1.260  14.002   3.764  1.00  0.00    -0.206 F 
ATOM     68  C   UNL     1      -2.703  13.366   5.499  1.00  0.00     0.059 A 
ATOM     69  C   UNL     1      -5.021  12.837   5.012  1.00  0.00     0.059 A 
ATOM     70  F   UNL     1      -5.795  12.917   2.800  1.00  0.00    -0.206 F 
ATOM     71  C   UNL     1      -3.970  12.960   5.919  1.00  0.00     0.060 A 
BRANCH  71  72
ATOM     72  S   UNL     1      -4.220  12.586   7.667  1.00  0.00     0.124 S 
ATOM     73  O   UNL     1      -3.526  11.307   7.792  1.00  0.00    -0.237 OA
ATOM     74  O   UNL     1      -3.579  13.720   8.325  1.00  0.00    -0.237 OA
ATOM     75  O   UNL     1      -5.672  12.527   7.798  1.00  0.00    -0.744 OA
ENDBRANCH  71  72
ENDBRANCH  50  64
BRANCH  51  76
ATOM     76  C   UNL     1      -1.830  14.545  -6.603  1.00  0.00     0.058 A 
ATOM     77  C   UNL     1      -1.091  15.641  -7.075  1.00  0.00     0.135 A 
ATOM     78  C   UNL     1      -2.303  13.621  -7.546  1.00  0.00     0.135 A 
ATOM     79  F   UNL     1      -0.623  16.556  -6.213  1.00  0.00    -0.206 F 
ATOM     80  C   UNL     1      -0.843  15.823  -8.432  1.00  0.00     0.059 A 
ATOM     81  C   UNL     1      -2.045  13.768  -8.906  1.00  0.00     0.059 A 
ATOM     82  F   UNL     1      -3.000  12.547  -7.145  1.00  0.00    -0.206 F 
ATOM     83  C   UNL     1      -1.322  14.878  -9.340  1.00  0.00     0.060 A 
BRANCH  83  84
ATOM     84  S   UNL     1      -0.949  15.099 -11.093  1.00  0.00     0.124 S 
ATOM     85  O   UNL     1      -1.816  16.219 -11.440  1.00  0.00    -0.237 OA
ATOM     86  O   UNL     1       0.482  15.383 -11.068  1.00  0.00    -0.237 OA
ATOM     87  O   UNL     1      -1.315  13.812 -11.678  1.00  0.00    -0.744 OA
ENDBRANCH  83  84
ENDBRANCH  51  76
BRANCH  63  88
ATOM     88  C   UNL     1      -5.548  18.146  -1.929  1.00  0.00     0.058 A 
ATOM     89  C   UNL     1      -6.800  18.160  -2.563  1.00  0.00     0.135 A 
ATOM     90  C   UNL     1      -5.094  19.341  -1.347  1.00  0.00     0.135 A 
ATOM     91  F   UNL     1      -7.277  17.046  -3.141  1.00  0.00    -0.206 F 
ATOM     92  C   UNL     1      -7.561  19.322  -2.642  1.00  0.00     0.059 A 
ATOM     93  C   UNL     1      -5.852  20.507  -1.388  1.00  0.00     0.059 A 
ATOM     94  F   UNL     1      -3.909  19.381  -0.718  1.00  0.00    -0.206 F 
ATOM     95  C   UNL     1      -7.078  20.491  -2.051  1.00  0.00     0.060 A 
BRANCH  95  96
ATOM     96  S   UNL     1      -8.087  21.986  -2.137  1.00  0.00     0.124 S 
ATOM     97  O   UNL     1      -7.911  22.379  -3.531  1.00  0.00    -0.237 OA
ATOM     98  O   UNL     1      -9.412  21.489  -1.780  1.00  0.00    -0.237 OA
ATOM     99  O   UNL     1      -7.470  22.869  -1.152  1.00  0.00    -0.744 OA
ENDBRANCH  95  96
ENDBRANCH  63  88
ENDBRANCH  37  38
ENDBRANCH  29  32
ENDBRANCH  27  28
ENDBRANCH  26  27
ENDBRANCH   1  26
TORSDOF 18
