REMARK SMILES CCc1noc(C[N@@H+]2CC[C@H](Cc3cccc(C(=O)NCCCCNC(=O)c4ccc(-c5c6nc(c(-c7c(F)cc(S(=O)(=O)[O-])cc7F)c7ccc([nH]7)c(-c7c(F)cc(S(=O)(=O)[O-])cc7F)c7nc(c(-c8c(F)cc(S(=O)(=O)[O-])cc8F)c8ccc5[nH]8)C=C7)C=C6)cc4)c3)C2)n1
REMARK SMILES IDX 21 1 20 2 18 3 19 4 17 6 13 7 14 8 94 9 15 10 16 11 12 12
REMARK SMILES IDX 11 13 8 14 9 15 95 16 10 18 7 19 6 20 3 21 4 22 96 23 5 24
REMARK SMILES IDX 2 25 1 26 22 27 23 28 24 29 25 30 26 31 27 33 28 34 29 35
REMARK SMILES IDX 93 36 30 37 92 38 31 39 32 40 33 41 86 42 34 43 91 44 85 45
REMARK SMILES IDX 87 46 35 47 90 48 84 49 83 50 36 52 70 53 49 54 69 55 50 56
REMARK SMILES IDX 53 57 68 58 88 59 51 60 52 61 67 63 89 64 54 65 37 66 38 67
REMARK SMILES IDX 47 68 39 69 40 70 46 71 48 72 41 73 42 74 43 75 44 76 45 77
REMARK SMILES IDX 71 78 72 79 81 80 73 81 74 82 80 83 82 84 75 85 76 86 77 87
REMARK SMILES IDX 78 88 79 89 55 90 56 91 65 92 57 93 58 94 64 95 66 96 59 97
REMARK SMILES IDX 60 98 61 99 62 100 63 101
REMARK H PARENT 20 5 8 17 25 32 87 51 53 62
REMARK Flexibility Score: inf
ROOT
ATOM      1  C   UNL     1      -4.672  -5.053   5.255  1.00  0.00     0.116 C 
ENDROOT
BRANCH   1   2
ATOM      2  N   UNL     1      -5.693  -5.677   4.423  1.00  0.00    -0.352 N 
ATOM      3  C   UNL     1      -5.845  -5.708   3.050  1.00  0.00     0.251 C 
ATOM      4  O   UNL     1      -6.811  -6.292   2.564  1.00  0.00    -0.269 OA
ATOM      5  H   UNL     1      -6.391  -6.157   4.923  1.00  0.00     0.163 HD
BRANCH   3   6
ATOM      6  C   UNL     1      -4.901  -4.995   2.148  1.00  0.00     0.040 A 
ATOM      7  C   UNL     1      -2.729  -3.963   1.800  1.00  0.00    -0.047 A 
ATOM      8  C   UNL     1      -3.244  -3.302   0.677  1.00  0.00     0.004 A 
ATOM      9  C   UNL     1      -3.545  -4.891   2.452  1.00  0.00     0.017 A 
ATOM     10  C   UNL     1      -4.554  -3.537   0.253  1.00  0.00     0.001 A 
ATOM     11  C   UNL     1      -5.394  -4.359   1.006  1.00  0.00     0.014 A 
BRANCH   7  12
ATOM     12  C   UNL     1      -1.400  -3.542   2.388  1.00  0.00     0.045 C 
BRANCH  12  13
ATOM     13  C   UNL     1      -0.638  -4.598   3.201  1.00  0.00     0.054 C 
ATOM     14  N   UNL     1       1.742  -4.964   3.415  1.00  0.00    -0.327 N 
ATOM     15  C   UNL     1       1.121  -6.198   2.934  1.00  0.00     0.263 C 
ATOM     16  C   UNL     1       0.659  -4.062   3.824  1.00  0.00     0.266 C 
ATOM     17  H   UNL     1       2.338  -5.177   4.215  1.00  0.00     0.348 HD
ATOM     18  C   UNL     1      -0.214  -5.790   2.350  1.00  0.00     0.071 C 
BRANCH  14  19
ATOM     19  C   UNL     1       2.705  -4.357   2.476  1.00  0.00     0.364 C 
BRANCH  19  20
ATOM     20  C   UNL     1       2.151  -3.689   1.261  1.00  0.00     0.281 A 
ATOM     21  C   UNL     1       1.299  -2.453  -0.196  1.00  0.00     0.171 A 
ATOM     22  N   UNL     1       1.472  -3.612  -0.844  1.00  0.00    -0.062 NA
ATOM     23  N   UNL     1       1.715  -2.457   1.110  1.00  0.00    -0.191 NA
ATOM     24  O   UNL     1       2.051  -4.439   0.124  1.00  0.00    -0.333 OA
BRANCH  21  25
ATOM     25  C   UNL     1       0.635  -1.284  -0.827  1.00  0.00     0.078 C 
ATOM     26  C   UNL     1       0.975   0.041  -0.161  1.00  0.00     0.012 C 
ENDBRANCH  21  25
ENDBRANCH  19  20
ENDBRANCH  14  19
ENDBRANCH  12  13
ENDBRANCH   7  12
ENDBRANCH   3   6
ENDBRANCH   1   2
BRANCH   1  27
ATOM     27  C   UNL     1      -5.200  -4.260   6.441  1.00  0.00     0.023 C 
BRANCH  27  28
ATOM     28  C   UNL     1      -5.932  -5.053   7.513  1.00  0.00     0.023 C 
BRANCH  28  29
ATOM     29  C   UNL     1      -5.208  -6.281   8.050  1.00  0.00     0.116 C 
BRANCH  29  30
ATOM     30  N   UNL     1      -3.887  -6.003   8.596  1.00  0.00    -0.352 N 
ATOM     31  C   UNL     1      -3.334  -6.403   9.794  1.00  0.00     0.251 C 
ATOM     32  H   UNL     1      -3.304  -5.450   8.027  1.00  0.00     0.163 HD
ATOM     33  O   UNL     1      -2.220  -6.011  10.112  1.00  0.00    -0.269 OA
BRANCH  31  34
ATOM     34  C   UNL     1      -4.112  -7.269  10.711  1.00  0.00     0.039 A 
ATOM     35  C   UNL     1      -4.181  -6.927  12.064  1.00  0.00     0.014 A 
ATOM     36  C   UNL     1      -4.798  -8.388  10.235  1.00  0.00     0.014 A 
ATOM     37  C   UNL     1      -5.006  -7.660  12.922  1.00  0.00     0.010 A 
ATOM     38  C   UNL     1      -5.684  -9.062  11.070  1.00  0.00     0.010 A 
ATOM     39  C   UNL     1      -5.798  -8.707  12.423  1.00  0.00    -0.014 A 
BRANCH  39  40
ATOM     40  C   UNL     1      -6.739  -9.454  13.298  1.00  0.00     0.031 A 
ATOM     41  C   UNL     1      -6.539 -10.929  13.526  1.00  0.00     0.074 A 
ATOM     42  C   UNL     1      -7.809  -8.828  13.827  1.00  0.00     0.049 A 
ATOM     43  N   UNL     1      -7.292 -11.775  14.182  1.00  0.00    -0.248 NA
ATOM     44  C   UNL     1      -5.352 -11.540  12.906  1.00  0.00     0.031 C 
ATOM     45  C   UNL     1      -8.147  -7.415  13.634  1.00  0.00     0.029 A 
ATOM     46  N   UNL     1      -8.818  -9.301  14.629  1.00  0.00    -0.354 N 
ATOM     47  C   UNL     1      -6.684 -13.016  14.034  1.00  0.00     0.074 A 
ATOM     48  C   UNL     1      -5.531 -12.823  13.181  1.00  0.00     0.031 C 
ATOM     49  C   UNL     1      -9.268  -7.133  14.318  1.00  0.00     0.029 A 
ATOM     50  C   UNL     1      -9.746  -8.347  14.973  1.00  0.00     0.049 A 
ATOM     51  H   UNL     1      -8.871 -10.237  14.930  1.00  0.00     0.167 HD
ATOM     52  C   UNL     1      -7.035 -14.204  14.582  1.00  0.00     0.037 A 
ATOM     53  C   UNL     1     -10.856  -8.440  15.731  1.00  0.00     0.037 A 
ATOM     54  C   UNL     1      -8.160 -14.384  15.461  1.00  0.00     0.049 A 
ATOM     55  C   UNL     1     -11.205  -9.762  16.360  1.00  0.00     0.074 A 
ATOM     56  C   UNL     1      -8.574 -15.537  16.106  1.00  0.00     0.029 A 
ATOM     57  N   UNL     1      -9.044 -13.380  15.829  1.00  0.00    -0.354 N 
ATOM     58  N   UNL     1     -10.590 -10.915  16.250  1.00  0.00    -0.248 NA
ATOM     59  C   UNL     1     -12.391  -9.793  17.228  1.00  0.00     0.031 C 
ATOM     60  C   UNL     1      -9.724 -15.235  16.845  1.00  0.00     0.029 A 
ATOM     61  C   UNL     1     -10.002 -13.886  16.692  1.00  0.00     0.049 A 
ATOM     62  H   UNL     1      -8.997 -12.446  15.522  1.00  0.00     0.167 HD
ATOM     63  C   UNL     1     -11.292 -11.799  17.062  1.00  0.00     0.074 A 
ATOM     64  C   UNL     1     -12.374 -11.046  17.661  1.00  0.00     0.031 C 
ATOM     65  C   UNL     1     -11.059 -13.115  17.295  1.00  0.00     0.037 A 
BRANCH  52  66
ATOM     66  C   UNL     1      -6.181 -15.397  14.252  1.00  0.00     0.058 A 
ATOM     67  C   UNL     1      -4.875 -15.527  14.754  1.00  0.00     0.135 A 
ATOM     68  C   UNL     1      -6.673 -16.429  13.437  1.00  0.00     0.135 A 
ATOM     69  F   UNL     1      -4.348 -14.561  15.524  1.00  0.00    -0.206 F 
ATOM     70  C   UNL     1      -4.076 -16.617  14.431  1.00  0.00     0.059 A 
ATOM     71  C   UNL     1      -5.901 -17.544  13.124  1.00  0.00     0.059 A 
ATOM     72  F   UNL     1      -7.914 -16.357  12.930  1.00  0.00    -0.206 F 
ATOM     73  C   UNL     1      -4.596 -17.620  13.612  1.00  0.00     0.060 A 
BRANCH  73  74
ATOM     74  S   UNL     1      -3.545 -19.027  13.196  1.00  0.00     0.124 S 
ATOM     75  O   UNL     1      -2.647 -18.436  12.209  1.00  0.00    -0.237 OA
ATOM     76  O   UNL     1      -2.941 -19.359  14.483  1.00  0.00    -0.237 OA
ATOM     77  O   UNL     1      -4.487 -20.013  12.678  1.00  0.00    -0.744 OA
ENDBRANCH  73  74
ENDBRANCH  52  66
BRANCH  53  78
ATOM     78  C   UNL     1     -11.694  -7.236  15.978  1.00  0.00     0.058 A 
ATOM     79  C   UNL     1     -11.707  -6.616  17.236  1.00  0.00     0.135 A 
ATOM     80  C   UNL     1     -12.492  -6.679  14.967  1.00  0.00     0.135 A 
ATOM     81  F   UNL     1     -10.965  -7.115  18.237  1.00  0.00    -0.206 F 
ATOM     82  C   UNL     1     -12.496  -5.500  17.492  1.00  0.00     0.059 A 
ATOM     83  C   UNL     1     -13.272  -5.549  15.191  1.00  0.00     0.059 A 
ATOM     84  F   UNL     1     -12.500  -7.224  13.740  1.00  0.00    -0.206 F 
ATOM     85  C   UNL     1     -13.276  -4.973  16.462  1.00  0.00     0.060 A 
BRANCH  85  86
ATOM     86  S   UNL     1     -14.264  -3.497  16.791  1.00  0.00     0.124 S 
ATOM     87  O   UNL     1     -15.363  -4.048  17.575  1.00  0.00    -0.237 OA
ATOM     88  O   UNL     1     -13.322  -2.651  17.517  1.00  0.00    -0.237 OA
ATOM     89  O   UNL     1     -14.615  -3.025  15.454  1.00  0.00    -0.744 OA
ENDBRANCH  85  86
ENDBRANCH  53  78
BRANCH  65  90
ATOM     90  C   UNL     1     -11.956 -13.810  18.280  1.00  0.00     0.058 A 
ATOM     91  C   UNL     1     -13.280 -14.150  17.966  1.00  0.00     0.135 A 
ATOM     92  C   UNL     1     -11.466 -14.175  19.544  1.00  0.00     0.135 A 
ATOM     93  F   UNL     1     -13.798 -13.819  16.772  1.00  0.00    -0.206 F 
ATOM     94  C   UNL     1     -14.099 -14.802  18.883  1.00  0.00     0.059 A 
ATOM     95  C   UNL     1     -12.258 -14.850  20.467  1.00  0.00     0.059 A 
ATOM     96  F   UNL     1     -10.201 -13.884  19.890  1.00  0.00    -0.206 F 
ATOM     97  C   UNL     1     -13.579 -15.146  20.132  1.00  0.00     0.060 A 
BRANCH  97  98
ATOM     98  S   UNL     1     -14.641 -16.010  21.308  1.00  0.00     0.124 S 
ATOM     99  O   UNL     1     -15.481 -14.922  21.799  1.00  0.00    -0.237 OA
ATOM    100  O   UNL     1     -15.310 -16.995  20.464  1.00  0.00    -0.237 OA
ATOM    101  O   UNL     1     -13.697 -16.562  22.276  1.00  0.00    -0.744 OA
ENDBRANCH  97  98
ENDBRANCH  65  90
ENDBRANCH  39  40
ENDBRANCH  31  34
ENDBRANCH  29  30
ENDBRANCH  28  29
ENDBRANCH  27  28
ENDBRANCH   1  27
TORSDOF 19
