REMARK SMILES CC(C)[C@@H](NC(=O)c1ccc2[nH]nnc2c1)C(=O)NCCCCNC(=O)c1ccc(-c2c3nc(c(-c4c(F)cc(S(=O)(=O)[O-])cc4F)c4ccc([nH]4)c(-c4c(F)cc(S(=O)(=O)[O-])cc4F)c4nc(c(-c5c(F)cc(S(=O)(=O)[O-])cc5F)c5ccc2[nH]5)C=C4)C=C3)cc1
REMARK SMILES IDX 22 1 21 2 20 3 19 4 17 5 18 6 4 8 2 9 1 10 3 11 5 12 6 13
REMARK SMILES IDX 7 15 8 16 9 17 16 18 10 19 15 20 11 21 14 22 12 23 13 24
REMARK SMILES IDX 23 26 24 27 25 28 26 30 27 31 28 32 92 33 29 34 91 35 30 36
REMARK SMILES IDX 31 37 32 38 85 39 33 40 90 41 84 42 86 43 34 44 89 45 83 46
REMARK SMILES IDX 82 47 35 49 69 50 48 51 68 52 49 53 52 54 67 55 87 56 50 57
REMARK SMILES IDX 51 58 66 60 88 61 53 62 36 63 37 64 46 65 38 66 39 67 45 68
REMARK SMILES IDX 47 69 40 70 41 71 42 72 43 73 44 74 70 75 71 76 80 77 72 78
REMARK SMILES IDX 73 79 79 80 81 81 74 82 75 83 76 84 77 85 78 86 54 87 55 88
REMARK SMILES IDX 64 89 56 90 57 91 63 92 65 93 58 94 59 95 60 96 61 97 62 98
REMARK H PARENT 19 7 5 14 12 25 24 29 86 48 52 59
REMARK Flexibility Score: inf
ROOT
ATOM      1  C   UNL     1       1.276  -3.992   5.014  1.00  0.00     0.023 C 
ENDROOT
BRANCH   1   2
ATOM      2  C   UNL     1       1.468  -3.389   3.619  1.00  0.00     0.023 C 
BRANCH   2   3
ATOM      3  C   UNL     1       0.163  -3.027   2.924  1.00  0.00     0.116 C 
BRANCH   3   4
ATOM      4  N   UNL     1      -0.489  -1.929   3.610  1.00  0.00    -0.354 N 
ATOM      5  C   UNL     1      -0.979  -0.762   3.115  1.00  0.00     0.242 C 
ATOM      6  O   UNL     1      -1.365   0.093   3.919  1.00  0.00    -0.273 OA
ATOM      7  H   UNL     1      -0.591  -2.046   4.582  1.00  0.00     0.163 HD
BRANCH   5   8
ATOM      8  C   UNL     1      -0.951  -0.453   1.603  1.00  0.00     0.174 C 
BRANCH   8   9
ATOM      9  C   UNL     1       0.519  -0.098   1.198  1.00  0.00     0.015 C 
ATOM     10  C   UNL     1       0.662   0.315  -0.270  1.00  0.00     0.010 C 
ATOM     11  C   UNL     1       1.111   1.014   2.077  1.00  0.00     0.010 C 
ENDBRANCH   8   9
BRANCH   8  12
ATOM     12  N   UNL     1      -1.520  -1.524   0.752  1.00  0.00    -0.340 N 
ATOM     13  C   UNL     1      -2.719  -2.199   0.838  1.00  0.00     0.252 C 
ATOM     14  H   UNL     1      -0.947  -1.799   0.000  1.00  0.00     0.164 HD
ATOM     15  O   UNL     1      -3.170  -2.765  -0.153  1.00  0.00    -0.269 OA
BRANCH  13  16
ATOM     16  C   UNL     1      -3.361  -2.420   2.147  1.00  0.00     0.042 A 
ATOM     17  C   UNL     1      -3.941  -1.377   2.876  1.00  0.00     0.016 A 
ATOM     18  C   UNL     1      -3.260  -3.718   2.677  1.00  0.00     0.046 A 
ATOM     19  C   UNL     1      -4.323  -1.565   4.214  1.00  0.00     0.031 A 
ATOM     20  C   UNL     1      -3.591  -3.899   4.023  1.00  0.00     0.113 A 
ATOM     21  C   UNL     1      -4.088  -2.831   4.757  1.00  0.00     0.086 A 
ATOM     22  N   UNL     1      -3.455  -4.992   4.833  1.00  0.00    -0.130 NA
ATOM     23  N   UNL     1      -4.221  -3.360   6.013  1.00  0.00    -0.258 N 
ATOM     24  N   UNL     1      -3.820  -4.642   6.059  1.00  0.00    -0.069 NA
ATOM     25  H   UNL     1      -4.567  -2.861   6.788  1.00  0.00     0.192 HD
ENDBRANCH  13  16
ENDBRANCH   8  12
ENDBRANCH   5   8
ENDBRANCH   3   4
ENDBRANCH   2   3
ENDBRANCH   1   2
BRANCH   1  26
ATOM     26  C   UNL     1       0.369  -5.217   5.061  1.00  0.00     0.116 C 
BRANCH  26  27
ATOM     27  N   UNL     1       0.843  -6.291   4.202  1.00  0.00    -0.352 N 
ATOM     28  C   UNL     1       0.937  -7.630   4.487  1.00  0.00     0.251 C 
ATOM     29  H   UNL     1       1.134  -6.022   3.301  1.00  0.00     0.163 HD
ATOM     30  O   UNL     1       1.505  -8.387   3.706  1.00  0.00    -0.269 OA
BRANCH  28  31
ATOM     31  C   UNL     1       0.384  -8.137   5.758  1.00  0.00     0.039 A 
ATOM     32  C   UNL     1       1.187  -8.948   6.563  1.00  0.00     0.014 A 
ATOM     33  C   UNL     1      -0.907  -7.787   6.166  1.00  0.00     0.014 A 
ATOM     34  C   UNL     1       0.710  -9.370   7.804  1.00  0.00     0.010 A 
ATOM     35  C   UNL     1      -1.354  -8.154   7.432  1.00  0.00     0.010 A 
ATOM     36  C   UNL     1      -0.554  -8.956   8.259  1.00  0.00    -0.014 A 
BRANCH  36  37
ATOM     37  C   UNL     1      -1.048  -9.372   9.596  1.00  0.00     0.031 A 
ATOM     38  C   UNL     1      -2.245 -10.277   9.708  1.00  0.00     0.074 A 
ATOM     39  C   UNL     1      -0.443  -8.904  10.705  1.00  0.00     0.049 A 
ATOM     40  N   UNL     1      -2.825 -10.746  10.783  1.00  0.00    -0.248 NA
ATOM     41  C   UNL     1      -2.887 -10.693   8.451  1.00  0.00     0.031 C 
ATOM     42  C   UNL     1       0.685  -7.969  10.724  1.00  0.00     0.029 A 
ATOM     43  N   UNL     1      -0.695  -9.145  12.032  1.00  0.00    -0.354 N 
ATOM     44  C   UNL     1      -3.905 -11.496  10.333  1.00  0.00     0.074 A 
ATOM     45  C   UNL     1      -3.929 -11.383   8.892  1.00  0.00     0.031 C 
ATOM     46  C   UNL     1       1.039  -7.732  11.998  1.00  0.00     0.029 A 
ATOM     47  C   UNL     1       0.151  -8.477  12.886  1.00  0.00     0.049 A 
ATOM     48  H   UNL     1      -1.414  -9.740  12.344  1.00  0.00     0.167 HD
ATOM     49  C   UNL     1      -4.784 -12.231  11.055  1.00  0.00     0.037 A 
ATOM     50  C   UNL     1       0.206  -8.467  14.232  1.00  0.00     0.037 A 
ATOM     51  C   UNL     1      -4.737 -12.364  12.488  1.00  0.00     0.049 A 
ATOM     52  C   UNL     1      -0.756  -9.325  15.009  1.00  0.00     0.074 A 
ATOM     53  C   UNL     1      -5.541 -13.137  13.308  1.00  0.00     0.029 A 
ATOM     54  N   UNL     1      -3.837 -11.708  13.315  1.00  0.00    -0.354 N 
ATOM     55  N   UNL     1      -1.723 -10.091  14.562  1.00  0.00    -0.248 NA
ATOM     56  C   UNL     1      -0.608  -9.333  16.470  1.00  0.00     0.031 C 
ATOM     57  C   UNL     1      -5.151 -12.920  14.634  1.00  0.00     0.029 A 
ATOM     58  C   UNL     1      -4.074 -12.048  14.637  1.00  0.00     0.049 A 
ATOM     59  H   UNL     1      -3.134 -11.092  13.008  1.00  0.00     0.167 HD
ATOM     60  C   UNL     1      -2.279 -10.694  15.685  1.00  0.00     0.074 A 
ATOM     61  C   UNL     1      -1.532 -10.213  16.829  1.00  0.00     0.031 C 
ATOM     62  C   UNL     1      -3.315 -11.567  15.763  1.00  0.00     0.037 A 
BRANCH  49  63
ATOM     63  C   UNL     1      -5.869 -12.957  10.308  1.00  0.00     0.058 A 
ATOM     64  C   UNL     1      -5.590 -14.078   9.509  1.00  0.00     0.135 A 
ATOM     65  C   UNL     1      -7.209 -12.556  10.427  1.00  0.00     0.135 A 
ATOM     66  F   UNL     1      -4.324 -14.495   9.347  1.00  0.00    -0.206 F 
ATOM     67  C   UNL     1      -6.598 -14.763   8.839  1.00  0.00     0.059 A 
ATOM     68  C   UNL     1      -8.237 -13.242   9.787  1.00  0.00     0.059 A 
ATOM     69  F   UNL     1      -7.531 -11.489  11.175  1.00  0.00    -0.206 F 
ATOM     70  C   UNL     1      -7.920 -14.339   8.986  1.00  0.00     0.060 A 
BRANCH  70  71
ATOM     71  S   UNL     1      -9.220 -15.255   8.133  1.00  0.00     0.124 S 
ATOM     72  O   UNL     1      -9.016 -14.832   6.751  1.00  0.00    -0.237 OA
ATOM     73  O   UNL     1      -8.871 -16.642   8.428  1.00  0.00    -0.237 OA
ATOM     74  O   UNL     1     -10.445 -14.774   8.762  1.00  0.00    -0.744 OA
ENDBRANCH  70  71
ENDBRANCH  49  63
BRANCH  50  75
ATOM     75  C   UNL     1       1.225  -7.639  14.930  1.00  0.00     0.058 A 
ATOM     76  C   UNL     1       2.308  -8.231  15.596  1.00  0.00     0.135 A 
ATOM     77  C   UNL     1       1.135  -6.239  14.946  1.00  0.00     0.135 A 
ATOM     78  F   UNL     1       2.436  -9.566  15.613  1.00  0.00    -0.206 F 
ATOM     79  C   UNL     1       3.253  -7.467  16.274  1.00  0.00     0.059 A 
ATOM     80  C   UNL     1       2.081  -5.452  15.595  1.00  0.00     0.059 A 
ATOM     81  F   UNL     1       0.128  -5.622  14.307  1.00  0.00    -0.206 F 
ATOM     82  C   UNL     1       3.130  -6.077  16.269  1.00  0.00     0.060 A 
BRANCH  82  83
ATOM     83  S   UNL     1       4.380  -5.090  17.121  1.00  0.00     0.124 S 
ATOM     84  O   UNL     1       4.011  -5.293  18.517  1.00  0.00    -0.237 OA
ATOM     85  O   UNL     1       5.621  -5.725  16.689  1.00  0.00    -0.237 OA
ATOM     86  O   UNL     1       4.158  -3.746  16.597  1.00  0.00    -0.744 OA
ENDBRANCH  82  83
ENDBRANCH  50  75
BRANCH  62  87
ATOM     87  C   UNL     1      -3.672 -12.090  17.127  1.00  0.00     0.058 A 
ATOM     88  C   UNL     1      -4.302 -11.284  18.087  1.00  0.00     0.135 A 
ATOM     89  C   UNL     1      -3.402 -13.426  17.466  1.00  0.00     0.135 A 
ATOM     90  F   UNL     1      -4.579  -9.999  17.814  1.00  0.00    -0.206 F 
ATOM     91  C   UNL     1      -4.619 -11.773  19.350  1.00  0.00     0.059 A 
ATOM     92  C   UNL     1      -3.736 -13.944  18.713  1.00  0.00     0.059 A 
ATOM     93  F   UNL     1      -2.813 -14.243  16.579  1.00  0.00    -0.206 F 
ATOM     94  C   UNL     1      -4.327 -13.103  19.655  1.00  0.00     0.060 A 
BRANCH  94  95
ATOM     95  S   UNL     1      -4.746 -13.730  21.296  1.00  0.00     0.124 S 
ATOM     96  O   UNL     1      -3.685 -13.148  22.111  1.00  0.00    -0.237 OA
ATOM     97  O   UNL     1      -6.082 -13.184  21.510  1.00  0.00    -0.237 OA
ATOM     98  O   UNL     1      -4.688 -15.179  21.130  1.00  0.00    -0.744 OA
ENDBRANCH  94  95
ENDBRANCH  62  87
ENDBRANCH  36  37
ENDBRANCH  28  31
ENDBRANCH  26  27
ENDBRANCH   1  26
TORSDOF 17
