REMARK SMILES CC(C)[C@H]([NH2+]Cc1ccc(N(C)C)cc1)C(=O)NCCCCNC(=O)c1ccc(-c2c3nc(c(-c4c(F)cc(S(=O)(=O)[O-])cc4F)c4ccc([nH]4)c(-c4c(F)cc(S(=O)(=O)[O-])cc4F)c4nc(c(-c5c(F)cc(S(=O)(=O)[O-])cc5F)c5ccc2[nH]5)C=C4)C=C3)cc1
REMARK SMILES IDX 20 1 19 2 18 3 16 4 17 5 4 7 2 8 1 9 3 10 5 11 6 14 7 15
REMARK SMILES IDX 8 16 15 17 9 18 14 19 10 20 11 21 12 22 13 23 21 24 22 25
REMARK SMILES IDX 23 26 24 27 25 29 26 30 27 31 91 32 28 33 90 34 29 35 30 36
REMARK SMILES IDX 31 37 84 38 32 39 89 40 83 41 85 42 33 43 88 44 82 45 81 46
REMARK SMILES IDX 34 48 68 49 47 50 67 51 48 52 51 53 66 54 86 55 49 56 50 57
REMARK SMILES IDX 65 59 87 60 52 61 35 62 36 63 45 64 37 65 38 66 44 67 46 68
REMARK SMILES IDX 39 69 40 70 41 71 42 72 43 73 69 74 70 75 79 76 71 77 72 78
REMARK SMILES IDX 78 79 80 80 73 81 74 82 75 83 76 84 77 85 53 86 54 87 63 88
REMARK SMILES IDX 55 89 56 90 62 91 64 92 57 93 58 94 59 95 60 96 61 97
REMARK H PARENT 18 6 5 12 5 13 23 28 85 47 51 58
REMARK Flexibility Score: inf
ROOT
ATOM      1  C   UNL     1       0.885   1.170   4.808  1.00  0.00     0.023 C 
ENDROOT
BRANCH   1   2
ATOM      2  C   UNL     1      -0.325   0.507   4.156  1.00  0.00     0.116 C 
BRANCH   2   3
ATOM      3  N   UNL     1      -1.286   1.472   3.648  1.00  0.00    -0.351 N 
ATOM      4  C   UNL     1      -1.653   1.732   2.358  1.00  0.00     0.278 C 
ATOM      5  O   UNL     1      -2.458   2.647   2.155  1.00  0.00    -0.268 OA
ATOM      6  H   UNL     1      -1.737   2.017   4.332  1.00  0.00     0.163 HD
BRANCH   4   7
ATOM      7  C   UNL     1      -1.098   0.898   1.177  1.00  0.00     0.275 C 
BRANCH   7   8
ATOM      8  C   UNL     1      -1.674  -0.551   1.248  1.00  0.00     0.051 C 
ATOM      9  C   UNL     1      -3.182  -0.565   0.966  1.00  0.00     0.014 C 
ATOM     10  C   UNL     1      -0.977  -1.537   0.304  1.00  0.00     0.014 C 
ENDBRANCH   7   8
BRANCH   7  11
ATOM     11  N   UNL     1       0.382   0.896   1.155  1.00  0.00    -0.332 N 
ATOM     12  H   UNL     1       0.682   0.505   0.262  1.00  0.00     0.347 HD
ATOM     13  H   UNL     1       0.673   0.348   1.964  1.00  0.00     0.347 HD
BRANCH  11  14
ATOM     14  C   UNL     1       1.019   2.207   1.310  1.00  0.00     0.297 C 
BRANCH  14  15
ATOM     15  C   UNL     1       2.516   2.072   1.520  1.00  0.00     0.006 A 
ATOM     16  C   UNL     1       3.110   0.896   1.995  1.00  0.00     0.012 A 
ATOM     17  C   UNL     1       3.344   3.179   1.341  1.00  0.00     0.012 A 
ATOM     18  C   UNL     1       4.491   0.818   2.233  1.00  0.00     0.026 A 
ATOM     19  C   UNL     1       4.724   3.090   1.587  1.00  0.00     0.026 A 
ATOM     20  C   UNL     1       5.348   1.905   2.020  1.00  0.00     0.036 A 
BRANCH  20  21
ATOM     21  N   UNL     1       6.719   1.835   2.240  1.00  0.00    -0.378 N 
ATOM     22  C   UNL     1       7.393   0.613   2.663  1.00  0.00     0.143 C 
ATOM     23  C   UNL     1       7.585   2.920   1.792  1.00  0.00     0.143 C 
ENDBRANCH  20  21
ENDBRANCH  14  15
ENDBRANCH  11  14
ENDBRANCH   7  11
ENDBRANCH   4   7
ENDBRANCH   2   3
ENDBRANCH   1   2
BRANCH   1  24
ATOM     24  C   UNL     1       0.571   2.020   6.032  1.00  0.00     0.023 C 
BRANCH  24  25
ATOM     25  C   UNL     1      -0.224   1.300   7.107  1.00  0.00     0.116 C 
BRANCH  25  26
ATOM     26  N   UNL     1       0.416   0.066   7.540  1.00  0.00    -0.352 N 
ATOM     27  C   UNL     1       0.736  -0.349   8.807  1.00  0.00     0.251 C 
ATOM     28  H   UNL     1       0.653  -0.561   6.819  1.00  0.00     0.163 HD
ATOM     29  O   UNL     1       1.444  -1.343   8.963  1.00  0.00    -0.269 OA
BRANCH  27  30
ATOM     30  C   UNL     1       0.248   0.412   9.973  1.00  0.00     0.039 A 
ATOM     31  C   UNL     1       1.110   0.626  11.049  1.00  0.00     0.014 A 
ATOM     32  C   UNL     1      -1.052   0.926  10.001  1.00  0.00     0.014 A 
ATOM     33  C   UNL     1       0.681   1.396  12.129  1.00  0.00     0.010 A 
ATOM     34  C   UNL     1      -1.437   1.785  11.023  1.00  0.00     0.010 A 
ATOM     35  C   UNL     1      -0.584   2.011  12.110  1.00  0.00    -0.014 A 
BRANCH  35  36
ATOM     36  C   UNL     1      -1.019   2.878  13.232  1.00  0.00     0.031 A 
ATOM     37  C   UNL     1      -2.226   2.511  14.054  1.00  0.00     0.074 A 
ATOM     38  C   UNL     1      -0.335   4.010  13.492  1.00  0.00     0.049 A 
ATOM     39  N   UNL     1      -2.725   3.117  15.100  1.00  0.00    -0.248 NA
ATOM     40  C   UNL     1      -2.991   1.326  13.633  1.00  0.00     0.031 C 
ATOM     41  C   UNL     1       0.801   4.509  12.711  1.00  0.00     0.029 A 
ATOM     42  N   UNL     1      -0.483   4.939  14.489  1.00  0.00    -0.354 N 
ATOM     43  C   UNL     1      -3.858   2.393  15.455  1.00  0.00     0.074 A 
ATOM     44  C   UNL     1      -4.016   1.347  14.471  1.00  0.00     0.031 C 
ATOM     45  C   UNL     1       1.277   5.623  13.289  1.00  0.00     0.029 A 
ATOM     46  C   UNL     1       0.463   5.936  14.458  1.00  0.00     0.049 A 
ATOM     47  H   UNL     1      -1.199   4.896  15.164  1.00  0.00     0.167 HD
ATOM     48  C   UNL     1      -4.673   2.565  16.522  1.00  0.00     0.037 A 
ATOM     49  C   UNL     1       0.658   6.980  15.286  1.00  0.00     0.037 A 
ATOM     50  C   UNL     1      -4.493   3.601  17.506  1.00  0.00     0.049 A 
ATOM     51  C   UNL     1      -0.242   7.132  16.482  1.00  0.00     0.074 A 
ATOM     52  C   UNL     1      -5.224   3.832  18.658  1.00  0.00     0.029 A 
ATOM     53  N   UNL     1      -3.513   4.582  17.453  1.00  0.00    -0.354 N 
ATOM     54  N   UNL     1      -1.260   6.389  16.849  1.00  0.00    -0.248 NA
ATOM     55  C   UNL     1       0.044   8.253  17.386  1.00  0.00     0.031 C 
ATOM     56  C   UNL     1      -4.719   4.982  19.273  1.00  0.00     0.029 A 
ATOM     57  C   UNL     1      -3.633   5.433  18.539  1.00  0.00     0.049 A 
ATOM     58  H   UNL     1      -2.832   4.662  16.746  1.00  0.00     0.167 HD
ATOM     59  C   UNL     1      -1.720   6.937  18.041  1.00  0.00     0.074 A 
ATOM     60  C   UNL     1      -0.853   8.059  18.342  1.00  0.00     0.031 C 
ATOM     61  C   UNL     1      -2.763   6.549  18.818  1.00  0.00     0.037 A 
BRANCH  48  62
ATOM     62  C   UNL     1      -5.827   1.610  16.683  1.00  0.00     0.058 A 
ATOM     63  C   UNL     1      -5.627   0.253  16.990  1.00  0.00     0.135 A 
ATOM     64  C   UNL     1      -7.151   2.061  16.558  1.00  0.00     0.135 A 
ATOM     65  F   UNL     1      -4.383  -0.240  17.104  1.00  0.00    -0.206 F 
ATOM     66  C   UNL     1      -6.695  -0.626  17.139  1.00  0.00     0.059 A 
ATOM     67  C   UNL     1      -8.236   1.206  16.735  1.00  0.00     0.059 A 
ATOM     68  F   UNL     1      -7.403   3.345  16.262  1.00  0.00    -0.206 F 
ATOM     69  C   UNL     1      -7.997  -0.140  17.012  1.00  0.00     0.060 A 
BRANCH  69  70
ATOM     70  S   UNL     1      -9.371  -1.292  17.221  1.00  0.00     0.124 S 
ATOM     71  O   UNL     1      -9.271  -2.089  16.003  1.00  0.00    -0.237 OA
ATOM     72  O   UNL     1      -9.015  -1.979  18.459  1.00  0.00    -0.237 OA
ATOM     73  O   UNL     1     -10.538  -0.419  17.305  1.00  0.00    -0.744 OA
ENDBRANCH  69  70
ENDBRANCH  48  62
BRANCH  49  74
ATOM     74  C   UNL     1       1.775   7.930  15.035  1.00  0.00     0.058 A 
ATOM     75  C   UNL     1       2.890   7.983  15.885  1.00  0.00     0.135 A 
ATOM     76  C   UNL     1       1.759   8.793  13.928  1.00  0.00     0.135 A 
ATOM     77  F   UNL     1       2.954   7.181  16.959  1.00  0.00    -0.206 F 
ATOM     78  C   UNL     1       3.937   8.872  15.662  1.00  0.00     0.059 A 
ATOM     79  C   UNL     1       2.808   9.669  13.666  1.00  0.00     0.059 A 
ATOM     80  F   UNL     1       0.726   8.768  13.071  1.00  0.00    -0.206 F 
ATOM     81  C   UNL     1       3.888   9.709  14.547  1.00  0.00     0.060 A 
BRANCH  81  82
ATOM     82  S   UNL     1       5.273  10.827  14.240  1.00  0.00     0.124 S 
ATOM     83  O   UNL     1       5.088  11.820  15.291  1.00  0.00    -0.237 OA
ATOM     84  O   UNL     1       6.422   9.940  14.394  1.00  0.00    -0.237 OA
ATOM     85  O   UNL     1       5.031  11.296  12.879  1.00  0.00    -0.744 OA
ENDBRANCH  81  82
ENDBRANCH  49  74
BRANCH  61  86
ATOM     86  C   UNL     1      -2.997   7.328  20.085  1.00  0.00     0.058 A 
ATOM     87  C   UNL     1      -3.454   8.655  20.067  1.00  0.00     0.135 A 
ATOM     88  C   UNL     1      -2.765   6.732  21.335  1.00  0.00     0.135 A 
ATOM     89  F   UNL     1      -3.692   9.273  18.899  1.00  0.00    -0.206 F 
ATOM     90  C   UNL     1      -3.618   9.383  21.241  1.00  0.00     0.059 A 
ATOM     91  C   UNL     1      -2.957   7.429  22.523  1.00  0.00     0.059 A 
ATOM     92  F   UNL     1      -2.345   5.459  21.412  1.00  0.00    -0.206 F 
ATOM     93  C   UNL     1      -3.360   8.762  22.465  1.00  0.00     0.060 A 
BRANCH  93  94
ATOM     94  S   UNL     1      -3.558   9.721  23.980  1.00  0.00     0.124 S 
ATOM     95  O   UNL     1      -2.383  10.585  23.934  1.00  0.00    -0.237 OA
ATOM     96  O   UNL     1      -4.841  10.383  23.767  1.00  0.00    -0.237 OA
ATOM     97  O   UNL     1      -3.549   8.705  25.029  1.00  0.00    -0.744 OA
ENDBRANCH  93  94
ENDBRANCH  61  86
ENDBRANCH  35  36
ENDBRANCH  27  30
ENDBRANCH  25  26
ENDBRANCH  24  25
ENDBRANCH   1  24
TORSDOF 19
