REMARK SMILES CC(C)(C)OC(=O)[C@H](C(=O)NCCCCNC(=O)c1ccc(-c2c3nc(c(-c4c(F)cc(S(=O)(=O)[O-])cc4F)c4ccc([nH]4)c(-c4c(F)cc(S(=O)(=O)[O-])cc4F)c4nc(c(-c5c(F)cc(S(=O)(=O)[O-])cc5F)c5ccc2[nH]5)C=C4)C=C3)cc1)[C@@H]([NH3+])c1ccc(Br)cc1
REMARK SMILES IDX 13 1 12 2 11 3 9 4 10 5 8 7 6 8 7 9 5 10 2 11 1 12 3 13 4 14
REMARK SMILES IDX 85 15 86 16 87 20 88 21 93 22 89 23 92 24 90 25 91 26 14 27
REMARK SMILES IDX 15 28 16 29 17 30 18 32 19 33 20 34 84 35 21 36 83 37 22 38
REMARK SMILES IDX 23 39 24 40 77 41 25 42 82 43 76 44 78 45 26 46 81 47 75 48
REMARK SMILES IDX 74 49 27 51 61 52 40 53 60 54 41 55 44 56 59 57 79 58 42 59
REMARK SMILES IDX 43 60 58 62 80 63 45 64 28 65 29 66 38 67 30 68 31 69 37 70
REMARK SMILES IDX 39 71 32 72 33 73 34 74 35 75 36 76 62 77 63 78 72 79 64 80
REMARK SMILES IDX 65 81 71 82 73 83 66 84 67 85 68 86 69 87 70 88 46 89 47 90
REMARK SMILES IDX 56 91 48 92 49 93 55 94 57 95 50 96 51 97 52 98 53 99 54 100
REMARK H PARENT 11 6 86 17 86 18 86 19 16 31 78 50 44 61
REMARK Flexibility Score: inf
ROOT
ATOM      1  C   UNL     1       3.597  -0.228   1.468  1.00  0.00     0.023 C 
ENDROOT
BRANCH   1   2
ATOM      2  C   UNL     1       3.055  -0.831   2.760  1.00  0.00     0.116 C 
BRANCH   2   3
ATOM      3  N   UNL     1       1.615  -1.032   2.771  1.00  0.00    -0.355 N 
ATOM      4  C   UNL     1       0.768  -1.922   3.358  1.00  0.00     0.240 C 
ATOM      5  O   UNL     1      -0.433  -1.629   3.245  1.00  0.00    -0.274 OA
ATOM      6  H   UNL     1       1.139  -0.366   2.225  1.00  0.00     0.163 HD
BRANCH   4   7
ATOM      7  C   UNL     1       1.126  -3.236   4.076  1.00  0.00     0.250 C 
BRANCH   7   8
ATOM      8  C   UNL     1       0.522  -4.401   3.306  1.00  0.00     0.325 C 
ATOM      9  O   UNL     1       0.052  -5.395   3.844  1.00  0.00    -0.251 OA
BRANCH   8  10
ATOM     10  O   UNL     1       0.616  -4.224   1.959  1.00  0.00    -0.459 OA
BRANCH  10  11
ATOM     11  C   UNL     1       0.051  -5.190   1.028  1.00  0.00     0.104 C 
ATOM     12  C   UNL     1       0.101  -4.494  -0.342  1.00  0.00     0.056 C 
ATOM     13  C   UNL     1      -1.413  -5.539   1.331  1.00  0.00     0.056 C 
ATOM     14  C   UNL     1       0.928  -6.444   0.980  1.00  0.00     0.056 C 
ENDBRANCH  10  11
ENDBRANCH   8  10
ENDBRANCH   7   8
BRANCH   7  15
ATOM     15  C   UNL     1       2.589  -3.496   4.480  1.00  0.00     0.236 C 
BRANCH  15  16
ATOM     16  N   UNL     1       3.048  -2.469   5.441  1.00  0.00    -0.350 N 
ATOM     17  H   UNL     1       2.531  -2.566   6.314  1.00  0.00     0.345 HD
ATOM     18  H   UNL     1       2.885  -1.541   5.050  1.00  0.00     0.345 HD
ATOM     19  H   UNL     1       4.044  -2.593   5.620  1.00  0.00     0.345 HD
ENDBRANCH  15  16
BRANCH  15  20
ATOM     20  C   UNL     1       2.953  -4.882   5.024  1.00  0.00     0.011 A 
ATOM     21  C   UNL     1       3.114  -5.958   4.130  1.00  0.00     0.011 A 
ATOM     22  C   UNL     1       3.228  -5.114   6.383  1.00  0.00     0.011 A 
ATOM     23  C   UNL     1       3.509  -7.221   4.578  1.00  0.00     0.016 A 
ATOM     24  C   UNL     1       3.664  -6.366   6.829  1.00  0.00     0.016 A 
ATOM     25  C   UNL     1       3.794  -7.415   5.925  1.00  0.00     0.018 A 
ATOM     26  Br  UNL     1       4.378  -9.109   6.525  1.00  0.00    -0.051 Br
ENDBRANCH  15  20
ENDBRANCH   7  15
ENDBRANCH   4   7
ENDBRANCH   2   3
ENDBRANCH   1   2
BRANCH   1  27
ATOM     27  C   UNL     1       3.192   1.214   1.182  1.00  0.00     0.023 C 
BRANCH  27  28
ATOM     28  C   UNL     1       3.433   2.210   2.312  1.00  0.00     0.116 C 
BRANCH  28  29
ATOM     29  N   UNL     1       4.820   2.269   2.759  1.00  0.00    -0.352 N 
ATOM     30  C   UNL     1       5.651   3.366   2.874  1.00  0.00     0.251 C 
ATOM     31  H   UNL     1       5.220   1.407   3.014  1.00  0.00     0.163 HD
ATOM     32  O   UNL     1       6.818   3.231   3.196  1.00  0.00    -0.269 OA
BRANCH  30  33
ATOM     33  C   UNL     1       5.106   4.703   2.553  1.00  0.00     0.039 A 
ATOM     34  C   UNL     1       5.734   5.473   1.571  1.00  0.00     0.014 A 
ATOM     35  C   UNL     1       3.921   5.137   3.150  1.00  0.00     0.014 A 
ATOM     36  C   UNL     1       5.109   6.631   1.104  1.00  0.00     0.010 A 
ATOM     37  C   UNL     1       3.266   6.246   2.631  1.00  0.00     0.010 A 
ATOM     38  C   UNL     1       3.842   6.992   1.588  1.00  0.00    -0.014 A 
BRANCH  38  39
ATOM     39  C   UNL     1       3.066   8.120   1.014  1.00  0.00     0.031 A 
ATOM     40  C   UNL     1       2.670   9.271   1.893  1.00  0.00     0.074 A 
ATOM     41  C   UNL     1       2.599   8.041  -0.248  1.00  0.00     0.049 A 
ATOM     42  N   UNL     1       1.820  10.236   1.661  1.00  0.00    -0.248 NA
ATOM     43  C   UNL     1       3.281   9.310   3.231  1.00  0.00     0.031 C 
ATOM     44  C   UNL     1       2.867   6.949  -1.186  1.00  0.00     0.029 A 
ATOM     45  N   UNL     1       1.768   8.881  -0.948  1.00  0.00    -0.354 N 
ATOM     46  C   UNL     1       1.753  10.968   2.840  1.00  0.00     0.074 A 
ATOM     47  C   UNL     1       2.629  10.318   3.792  1.00  0.00     0.031 C 
ATOM     48  C   UNL     1       2.215   7.186  -2.336  1.00  0.00     0.029 A 
ATOM     49  C   UNL     1       1.449   8.422  -2.204  1.00  0.00     0.049 A 
ATOM     50  H   UNL     1       1.432   9.732  -0.584  1.00  0.00     0.167 HD
ATOM     51  C   UNL     1       1.035  12.086   3.102  1.00  0.00     0.037 A 
ATOM     52  C   UNL     1       0.618   8.926  -3.137  1.00  0.00     0.037 A 
ATOM     53  C   UNL     1       0.206  12.755   2.135  1.00  0.00     0.049 A 
ATOM     54  C   UNL     1      -0.120  10.203  -2.852  1.00  0.00     0.074 A 
ATOM     55  C   UNL     1      -0.502  13.934   2.277  1.00  0.00     0.029 A 
ATOM     56  N   UNL     1      -0.019  12.304   0.843  1.00  0.00    -0.354 N 
ATOM     57  N   UNL     1      -0.136  10.913  -1.749  1.00  0.00    -0.248 NA
ATOM     58  C   UNL     1      -0.949  10.752  -3.934  1.00  0.00     0.031 C 
ATOM     59  C   UNL     1      -1.174  14.186   1.075  1.00  0.00     0.029 A 
ATOM     60  C   UNL     1      -0.859  13.179   0.175  1.00  0.00     0.049 A 
ATOM     61  H   UNL     1       0.362  11.482   0.457  1.00  0.00     0.167 HD
ATOM     62  C   UNL     1      -0.956  12.004  -2.010  1.00  0.00     0.074 A 
ATOM     63  C   UNL     1      -1.417  11.862  -3.377  1.00  0.00     0.031 C 
ATOM     64  C   UNL     1      -1.293  13.030  -1.192  1.00  0.00     0.037 A 
BRANCH  51  65
ATOM     65  C   UNL     1       1.116  12.637   4.497  1.00  0.00     0.058 A 
ATOM     66  C   UNL     1       2.281  13.254   4.981  1.00  0.00     0.135 A 
ATOM     67  C   UNL     1       0.025  12.519   5.372  1.00  0.00     0.135 A 
ATOM     68  F   UNL     1       3.359  13.377   4.189  1.00  0.00    -0.206 F 
ATOM     69  C   UNL     1       2.382  13.682   6.300  1.00  0.00     0.059 A 
ATOM     70  C   UNL     1       0.094  12.966   6.688  1.00  0.00     0.059 A 
ATOM     71  F   UNL     1      -1.114  11.941   4.960  1.00  0.00    -0.206 F 
ATOM     72  C   UNL     1       1.288  13.521   7.150  1.00  0.00     0.060 A 
BRANCH  72  73
ATOM     73  S   UNL     1       1.444  14.030   8.874  1.00  0.00     0.124 S 
ATOM     74  O   UNL     1       2.169  12.898   9.444  1.00  0.00    -0.237 OA
ATOM     75  O   UNL     1       2.198  15.276   8.771  1.00  0.00    -0.237 OA
ATOM     76  O   UNL     1       0.059  14.175   9.310  1.00  0.00    -0.744 OA
ENDBRANCH  72  73
ENDBRANCH  51  65
BRANCH  52  77
ATOM     77  C   UNL     1       0.470   8.222  -4.437  1.00  0.00     0.058 A 
ATOM     78  C   UNL     1       1.107   8.705  -5.589  1.00  0.00     0.135 A 
ATOM     79  C   UNL     1      -0.247   7.020  -4.538  1.00  0.00     0.135 A 
ATOM     80  F   UNL     1       1.799   9.853  -5.540  1.00  0.00    -0.206 F 
ATOM     81  C   UNL     1       1.046   8.017  -6.796  1.00  0.00     0.059 A 
ATOM     82  C   UNL     1      -0.308   6.305  -5.731  1.00  0.00     0.059 A 
ATOM     83  F   UNL     1      -0.859   6.509  -3.458  1.00  0.00    -0.206 F 
ATOM     84  C   UNL     1       0.344   6.812  -6.855  1.00  0.00     0.060 A 
BRANCH  84  85
ATOM     85  S   UNL     1       0.358   5.875  -8.399  1.00  0.00     0.124 S 
ATOM     86  O   UNL     1      -0.582   6.635  -9.214  1.00  0.00    -0.237 OA
ATOM     87  O   UNL     1       1.760   5.957  -8.796  1.00  0.00    -0.237 OA
ATOM     88  O   UNL     1      -0.089   4.547  -7.988  1.00  0.00    -0.744 OA
ENDBRANCH  84  85
ENDBRANCH  52  77
BRANCH  64  89
ATOM     89  C   UNL     1      -2.173  14.109  -1.754  1.00  0.00     0.058 A 
ATOM     90  C   UNL     1      -3.557  13.931  -1.893  1.00  0.00     0.135 A 
ATOM     91  C   UNL     1      -1.633  15.365  -2.074  1.00  0.00     0.135 A 
ATOM     92  F   UNL     1      -4.118  12.745  -1.607  1.00  0.00    -0.206 F 
ATOM     93  C   UNL     1      -4.379  14.964  -2.331  1.00  0.00     0.059 A 
ATOM     94  C   UNL     1      -2.439  16.417  -2.497  1.00  0.00     0.059 A 
ATOM     95  F   UNL     1      -0.315  15.585  -1.951  1.00  0.00    -0.206 F 
ATOM     96  C   UNL     1      -3.811  16.206  -2.625  1.00  0.00     0.060 A 
BRANCH  96  97
ATOM     97  S   UNL     1      -4.894  17.560  -3.127  1.00  0.00     0.124 S 
ATOM     98  O   UNL     1      -5.172  17.215  -4.517  1.00  0.00    -0.237 OA
ATOM     99  O   UNL     1      -6.017  17.425  -2.204  1.00  0.00    -0.237 OA
ATOM    100  O   UNL     1      -4.067  18.747  -2.927  1.00  0.00    -0.744 OA
ENDBRANCH  96  97
ENDBRANCH  64  89
ENDBRANCH  38  39
ENDBRANCH  30  33
ENDBRANCH  28  29
ENDBRANCH  27  28
ENDBRANCH   1  27
TORSDOF 20
