REMARK SMILES O=C(NCCCCNC(=O)[C@@H]1[C@H](C(=O)Nc2ccc(Cn3cncn3)cc2)[C@@H]2C=C[C@H]1CC2)c1ccc(-c2c3nc(c(-c4c(F)cc(S(=O)(=O)[O-])cc4F)c4ccc([nH]4)c(-c4c(F)cc(S(=O)(=O)[O-])cc4F)c4nc(c(-c5c(F)cc(S(=O)(=O)[O-])cc5F)c5ccc2[nH]5)C=C4)C=C3)cc1
REMARK SMILES IDX 6 1 5 2 4 3 3 4 1 5 2 6 34 8 35 9 99 10 36 11 98 12 37 13
REMARK SMILES IDX 38 14 39 15 92 16 40 17 97 18 91 19 93 20 41 21 96 22 90 23
REMARK SMILES IDX 89 24 42 26 76 27 55 28 75 29 56 30 59 31 74 32 94 33 57 34
REMARK SMILES IDX 58 35 73 37 95 38 60 39 43 40 44 41 53 42 45 43 46 44 52 45
REMARK SMILES IDX 54 46 47 47 48 48 49 49 50 50 51 51 77 52 78 53 87 54 79 55
REMARK SMILES IDX 80 56 86 57 88 58 81 59 82 60 83 61 84 62 85 63 61 64 62 65
REMARK SMILES IDX 71 66 63 67 64 68 70 69 72 70 65 71 66 72 67 73 68 74 69 75
REMARK SMILES IDX 7 76 8 77 9 78 10 80 11 81 12 82 31 83 28 84 30 85 32 86
REMARK SMILES IDX 29 87 33 88 13 89 14 90 15 91 16 93 17 94 27 95 18 96 26 97
REMARK SMILES IDX 19 98 20 99 21 100 22 101 25 102 23 103 24 104
REMARK H PARENT 3 7 93 25 59 36 8 79 15 92
REMARK Flexibility Score: inf
ROOT
ATOM      1  C   UNL     1       4.364   1.513  -3.325  1.00  0.00     0.023 C 
ENDROOT
BRANCH   1   2
ATOM      2  C   UNL     1       4.992   0.560  -2.303  1.00  0.00     0.023 C 
BRANCH   2   3
ATOM      3  C   UNL     1       4.732   0.850  -0.824  1.00  0.00     0.116 C 
BRANCH   3   4
ATOM      4  N   UNL     1       3.350   1.035  -0.427  1.00  0.00    -0.352 N 
ATOM      5  O   UNL     1       1.319   0.708   0.388  1.00  0.00    -0.269 OA
ATOM      6  C   UNL     1       2.318   0.189  -0.117  1.00  0.00     0.251 C 
ATOM      7  H   UNL     1       3.096   1.984  -0.365  1.00  0.00     0.163 HD
BRANCH   6   8
ATOM      8  C   UNL     1       2.288  -1.266  -0.419  1.00  0.00     0.039 A 
ATOM      9  C   UNL     1       3.387  -2.031  -0.804  1.00  0.00     0.014 A 
ATOM     10  C   UNL     1       1.026  -1.888  -0.351  1.00  0.00     0.014 A 
ATOM     11  C   UNL     1       3.212  -3.331  -1.263  1.00  0.00     0.010 A 
ATOM     12  C   UNL     1       0.851  -3.202  -0.768  1.00  0.00     0.010 A 
ATOM     13  C   UNL     1       1.938  -3.901  -1.281  1.00  0.00    -0.014 A 
BRANCH  13  14
ATOM     14  C   UNL     1       1.821  -5.285  -1.733  1.00  0.00     0.031 A 
ATOM     15  C   UNL     1       2.547  -6.282  -0.891  1.00  0.00     0.074 A 
ATOM     16  C   UNL     1       1.015  -5.662  -2.745  1.00  0.00     0.049 A 
ATOM     17  N   UNL     1       3.485  -7.107  -1.231  1.00  0.00    -0.248 NA
ATOM     18  C   UNL     1       2.260  -6.273   0.554  1.00  0.00     0.031 C 
ATOM     19  C   UNL     1       0.025  -4.851  -3.459  1.00  0.00     0.029 A 
ATOM     20  N   UNL     1       0.834  -6.902  -3.278  1.00  0.00    -0.354 N 
ATOM     21  C   UNL     1       3.768  -7.860  -0.090  1.00  0.00     0.074 A 
ATOM     22  C   UNL     1       3.101  -7.203   1.002  1.00  0.00     0.031 C 
ATOM     23  C   UNL     1      -0.802  -5.667  -4.151  1.00  0.00     0.029 A 
ATOM     24  C   UNL     1      -0.323  -7.035  -4.034  1.00  0.00     0.049 A 
ATOM     25  H   UNL     1       1.469  -7.642  -3.139  1.00  0.00     0.167 HD
ATOM     26  C   UNL     1       4.363  -9.084  -0.157  1.00  0.00     0.037 A 
ATOM     27  C   UNL     1      -0.889  -8.194  -4.455  1.00  0.00     0.037 A 
ATOM     28  C   UNL     1       5.054  -9.265  -1.407  1.00  0.00     0.049 A 
ATOM     29  C   UNL     1       0.162  -9.245  -4.405  1.00  0.00     0.074 A 
ATOM     30  C   UNL     1       6.094  -8.617  -2.045  1.00  0.00     0.029 A 
ATOM     31  N   UNL     1       4.466 -10.051  -2.367  1.00  0.00    -0.354 N 
ATOM     32  N   UNL     1       1.220  -9.260  -5.169  1.00  0.00    -0.248 NA
ATOM     33  C   UNL     1       0.256 -10.048  -3.195  1.00  0.00     0.031 C 
ATOM     34  C   UNL     1       5.762  -8.661  -3.430  1.00  0.00     0.029 A 
ATOM     35  C   UNL     1       4.567  -9.372  -3.554  1.00  0.00     0.049 A 
ATOM     36  H   UNL     1       4.051 -10.934  -2.230  1.00  0.00     0.167 HD
ATOM     37  C   UNL     1       2.243  -9.723  -4.353  1.00  0.00     0.074 A 
ATOM     38  C   UNL     1       1.572 -10.272  -3.178  1.00  0.00     0.031 C 
ATOM     39  C   UNL     1       3.545  -9.377  -4.576  1.00  0.00     0.037 A 
BRANCH  26  40
ATOM     40  C   UNL     1       4.025 -10.247   0.753  1.00  0.00     0.058 A 
ATOM     41  C   UNL     1       4.761 -11.447   0.645  1.00  0.00     0.135 A 
ATOM     42  C   UNL     1       2.830 -10.339   1.502  1.00  0.00     0.135 A 
ATOM     43  F   UNL     1       5.921 -11.482  -0.030  1.00  0.00    -0.206 F 
ATOM     44  C   UNL     1       4.291 -12.663   1.145  1.00  0.00     0.059 A 
ATOM     45  C   UNL     1       2.369 -11.529   2.054  1.00  0.00     0.059 A 
ATOM     46  F   UNL     1       1.995  -9.305   1.653  1.00  0.00    -0.206 F 
ATOM     47  C   UNL     1       3.078 -12.696   1.824  1.00  0.00     0.060 A 
BRANCH  47  48
ATOM     48  S   UNL     1       2.388 -14.280   2.333  1.00  0.00     0.124 S 
ATOM     49  O   UNL     1       2.045 -14.872   1.045  1.00  0.00    -0.237 OA
ATOM     50  O   UNL     1       3.511 -14.887   3.039  1.00  0.00    -0.237 OA
ATOM     51  O   UNL     1       1.258 -13.899   3.175  1.00  0.00    -0.744 OA
ENDBRANCH  47  48
ENDBRANCH  26  40
BRANCH  27  52
ATOM     52  C   UNL     1      -2.341  -8.514  -4.526  1.00  0.00     0.058 A 
ATOM     53  C   UNL     1      -2.814  -9.644  -5.218  1.00  0.00     0.135 A 
ATOM     54  C   UNL     1      -3.274  -7.868  -3.688  1.00  0.00     0.135 A 
ATOM     55  F   UNL     1      -1.989 -10.340  -6.014  1.00  0.00    -0.206 F 
ATOM     56  C   UNL     1      -4.121 -10.123  -5.061  1.00  0.00     0.059 A 
ATOM     57  C   UNL     1      -4.582  -8.318  -3.526  1.00  0.00     0.059 A 
ATOM     58  F   UNL     1      -2.914  -6.826  -2.924  1.00  0.00    -0.206 F 
ATOM     59  C   UNL     1      -4.995  -9.461  -4.198  1.00  0.00     0.060 A 
BRANCH  59  60
ATOM     60  S   UNL     1      -6.630 -10.159  -3.869  1.00  0.00     0.124 S 
ATOM     61  O   UNL     1      -7.310  -9.949  -5.143  1.00  0.00    -0.237 OA
ATOM     62  O   UNL     1      -6.314 -11.544  -3.535  1.00  0.00    -0.237 OA
ATOM     63  O   UNL     1      -7.127  -9.351  -2.758  1.00  0.00    -0.744 OA
ENDBRANCH  59  60
ENDBRANCH  27  52
BRANCH  39  64
ATOM     64  C   UNL     1       3.903  -8.717  -5.882  1.00  0.00     0.058 A 
ATOM     65  C   UNL     1       3.449  -7.445  -6.272  1.00  0.00     0.135 A 
ATOM     66  C   UNL     1       4.889  -9.318  -6.679  1.00  0.00     0.135 A 
ATOM     67  F   UNL     1       2.586  -6.757  -5.513  1.00  0.00    -0.206 F 
ATOM     68  C   UNL     1       3.935  -6.812  -7.418  1.00  0.00     0.059 A 
ATOM     69  C   UNL     1       5.410  -8.692  -7.808  1.00  0.00     0.059 A 
ATOM     70  F   UNL     1       5.408 -10.506  -6.324  1.00  0.00    -0.206 F 
ATOM     71  C   UNL     1       4.922  -7.440  -8.176  1.00  0.00     0.060 A 
BRANCH  71  72
ATOM     72  S   UNL     1       5.632  -6.573  -9.593  1.00  0.00     0.124 S 
ATOM     73  O   UNL     1       4.540  -6.629 -10.564  1.00  0.00    -0.237 OA
ATOM     74  O   UNL     1       5.916  -5.247  -9.042  1.00  0.00    -0.237 OA
ATOM     75  O   UNL     1       6.806  -7.363  -9.927  1.00  0.00    -0.744 OA
ENDBRANCH  71  72
ENDBRANCH  39  64
ENDBRANCH  13  14
ENDBRANCH   6   8
ENDBRANCH   3   4
ENDBRANCH   2   3
ENDBRANCH   1   2
BRANCH   1  76
ATOM     76  C   UNL     1       4.750   2.988  -3.239  1.00  0.00     0.116 C 
BRANCH  76  77
ATOM     77  N   UNL     1       6.158   3.231  -3.474  1.00  0.00    -0.356 N 
ATOM     78  C   UNL     1       6.877   4.373  -3.589  1.00  0.00     0.224 C 
ATOM     79  H   UNL     1       6.694   2.410  -3.566  1.00  0.00     0.163 HD
ATOM     80  O   UNL     1       8.098   4.215  -3.704  1.00  0.00    -0.275 OA
BRANCH  78  81
ATOM     81  C   UNL     1       6.292   5.779  -3.706  1.00  0.00     0.098 C 
ATOM     82  C   UNL     1       7.288   6.908  -3.271  1.00  0.00     0.098 C 
ATOM     83  C   UNL     1       4.847   6.211  -3.308  1.00  0.00     0.025 C 
ATOM     84  C   UNL     1       6.489   8.180  -2.848  1.00  0.00     0.025 C 
ATOM     85  C   UNL     1       4.771   6.796  -1.914  1.00  0.00    -0.027 C 
ATOM     86  C   UNL     1       4.486   7.423  -4.220  1.00  0.00     0.009 C 
ATOM     87  C   UNL     1       5.595   7.831  -1.685  1.00  0.00    -0.027 C 
ATOM     88  C   UNL     1       5.522   8.559  -4.003  1.00  0.00     0.009 C 
BRANCH  82  89
ATOM     89  C   UNL     1       8.533   6.679  -2.371  1.00  0.00     0.228 C 
ATOM     90  O   UNL     1       9.640   7.009  -2.831  1.00  0.00    -0.274 OA
ATOM     91  N   UNL     1       8.544   6.376  -1.038  1.00  0.00    -0.326 N 
ATOM     92  H   UNL     1       9.424   6.501  -0.616  1.00  0.00     0.169 HD
BRANCH  91  93
ATOM     93  C   UNL     1       7.564   5.925  -0.153  1.00  0.00     0.041 A 
ATOM     94  C   UNL     1       7.421   6.565   1.079  1.00  0.00     0.026 A 
ATOM     95  C   UNL     1       6.751   4.842  -0.435  1.00  0.00     0.026 A 
ATOM     96  C   UNL     1       6.314   6.285   1.891  1.00  0.00     0.008 A 
ATOM     97  C   UNL     1       5.644   4.560   0.362  1.00  0.00     0.008 A 
ATOM     98  C   UNL     1       5.370   5.332   1.491  1.00  0.00    -0.026 A 
BRANCH  98  99
ATOM     99  C   UNL     1       4.066   5.139   2.216  1.00  0.00     0.181 C 
BRANCH  99 100
ATOM    100  N   UNL     1       4.095   3.985   3.085  1.00  0.00    -0.249 N 
ATOM    101  C   UNL     1       4.750   3.854   4.268  1.00  0.00     0.220 A 
ATOM    102  N   UNL     1       3.349   2.899   2.819  1.00  0.00    -0.160 NA
ATOM    103  N   UNL     1       4.447   2.698   4.810  1.00  0.00    -0.224 NA
ATOM    104  C   UNL     1       3.592   2.145   3.896  1.00  0.00     0.246 A 
ENDBRANCH  99 100
ENDBRANCH  98  99
ENDBRANCH  91  93
ENDBRANCH  82  89
ENDBRANCH  78  81
ENDBRANCH  76  77
ENDBRANCH   1  76
TORSDOF 18
