REMARK SMILES CC(C)[C@](C)(CC(=O)NC#N)C(=O)NCCCCNC(=O)c1ccc(-c2c3nc(c(-c4c(F)cc(S(=O)(=O)[O-])cc4F)c4ccc([nH]4)c(-c4c(F)cc(S(=O)(=O)[O-])cc4F)c4nc(c(-c5c(F)cc(S(=O)(=O)[O-])cc5F)c5ccc2[nH]5)C=C4)C=C3)cc1
REMARK SMILES IDX 16 1 15 2 14 3 12 4 13 5 4 7 5 8 2 9 1 10 3 11 6 12 7 13
REMARK SMILES IDX 8 14 9 15 10 17 11 18 17 19 18 20 19 21 20 22 21 24 22 25
REMARK SMILES IDX 23 26 87 27 24 28 86 29 25 30 26 31 27 32 80 33 28 34 85 35
REMARK SMILES IDX 79 36 81 37 29 38 84 39 78 40 77 41 30 43 64 44 43 45 63 46
REMARK SMILES IDX 44 47 47 48 62 49 82 50 45 51 46 52 61 54 83 55 48 56 31 57
REMARK SMILES IDX 32 58 41 59 33 60 34 61 40 62 42 63 35 64 36 65 37 66 38 67
REMARK SMILES IDX 39 68 65 69 66 70 75 71 67 72 68 73 74 74 76 75 69 76 70 77
REMARK SMILES IDX 71 78 72 79 73 80 49 81 50 82 59 83 51 84 52 85 58 86 60 87
REMARK SMILES IDX 53 88 54 89 55 90 56 91 57 92
REMARK H PARENT 14 6 9 16 19 23 81 42 47 53
REMARK Flexibility Score: inf
ROOT
ATOM      1  C   UNL     1      -4.762   0.660   2.492  1.00  0.00     0.023 C 
ENDROOT
BRANCH   1   2
ATOM      2  C   UNL     1      -3.943   0.235   1.279  1.00  0.00     0.116 C 
BRANCH   2   3
ATOM      3  N   UNL     1      -2.855   1.146   0.999  1.00  0.00    -0.356 N 
ATOM      4  C   UNL     1      -1.508   0.976   0.981  1.00  0.00     0.226 C 
ATOM      5  O   UNL     1      -0.842   1.976   0.696  1.00  0.00    -0.274 OA
ATOM      6  H   UNL     1      -3.146   2.060   0.779  1.00  0.00     0.163 HD
BRANCH   4   7
ATOM      7  C   UNL     1      -0.822  -0.382   1.307  1.00  0.00     0.057 C 
ATOM      8  C   UNL     1       0.703  -0.139   1.119  1.00  0.00     0.022 C 
BRANCH   7   9
ATOM      9  C   UNL     1      -1.333  -1.512   0.297  1.00  0.00    -0.002 C 
ATOM     10  C   UNL     1      -0.306  -1.964  -0.758  1.00  0.00     0.008 C 
ATOM     11  C   UNL     1      -1.881  -2.794   0.952  1.00  0.00     0.008 C 
ENDBRANCH   7   9
BRANCH   7  12
ATOM     12  C   UNL     1      -1.058  -0.739   2.804  1.00  0.00     0.118 C 
BRANCH  12  13
ATOM     13  C   UNL     1      -0.731   0.363   3.804  1.00  0.00     0.234 C 
ATOM     14  O   UNL     1      -1.563   1.205   4.135  1.00  0.00    -0.274 OA
ATOM     15  N   UNL     1       0.508   0.383   4.371  1.00  0.00    -0.263 N 
ATOM     16  H   UNL     1       0.637   1.128   5.001  1.00  0.00     0.182 HD
BRANCH  15  17
ATOM     17  C   UNL     1       1.586  -0.401   4.248  1.00  0.00     0.183 C 
ATOM     18  N   UNL     1       2.519  -1.078   4.132  1.00  0.00    -0.172 NA
ENDBRANCH  15  17
ENDBRANCH  12  13
ENDBRANCH   7  12
ENDBRANCH   4   7
ENDBRANCH   2   3
ENDBRANCH   1   2
BRANCH   1  19
ATOM     19  C   UNL     1      -5.568   1.941   2.291  1.00  0.00     0.023 C 
BRANCH  19  20
ATOM     20  C   UNL     1      -6.496   1.931   1.081  1.00  0.00     0.116 C 
BRANCH  20  21
ATOM     21  N   UNL     1      -7.459   0.839   1.117  1.00  0.00    -0.352 N 
ATOM     22  C   UNL     1      -8.824   0.885   0.962  1.00  0.00     0.251 C 
ATOM     23  H   UNL     1      -7.080  -0.056   1.274  1.00  0.00     0.163 HD
ATOM     24  O   UNL     1      -9.502  -0.114   1.183  1.00  0.00    -0.269 OA
BRANCH  22  25
ATOM     25  C   UNL     1      -9.466   2.154   0.563  1.00  0.00     0.039 A 
ATOM     26  C   UNL     1     -10.580   2.601   1.276  1.00  0.00     0.014 A 
ATOM     27  C   UNL     1      -8.941   2.922  -0.481  1.00  0.00     0.014 A 
ATOM     28  C   UNL     1     -11.117   3.858   0.993  1.00  0.00     0.010 A 
ATOM     29  C   UNL     1      -9.423   4.208  -0.702  1.00  0.00     0.010 A 
ATOM     30  C   UNL     1     -10.512   4.694   0.037  1.00  0.00    -0.014 A 
BRANCH  30  31
ATOM     31  C   UNL     1     -10.987   6.087  -0.171  1.00  0.00     0.031 A 
ATOM     32  C   UNL     1     -11.527   6.516  -1.509  1.00  0.00     0.074 A 
ATOM     33  C   UNL     1     -10.879   6.980   0.834  1.00  0.00     0.049 A 
ATOM     34  N   UNL     1     -11.944   7.696  -1.888  1.00  0.00    -0.248 NA
ATOM     35  C   UNL     1     -11.587   5.493  -2.566  1.00  0.00     0.031 C 
ATOM     36  C   UNL     1     -10.326   6.696   2.162  1.00  0.00     0.029 A 
ATOM     37  N   UNL     1     -11.220   8.308   0.899  1.00  0.00    -0.354 N 
ATOM     38  C   UNL     1     -12.309   7.561  -3.222  1.00  0.00     0.074 A 
ATOM     39  C   UNL     1     -12.015   6.198  -3.604  1.00  0.00     0.031 C 
ATOM     40  C   UNL     1     -10.392   7.805   2.915  1.00  0.00     0.029 A 
ATOM     41  C   UNL     1     -10.941   8.893   2.114  1.00  0.00     0.049 A 
ATOM     42  H   UNL     1     -11.627   8.797   0.148  1.00  0.00     0.167 HD
ATOM     43  C   UNL     1     -12.859   8.485  -4.045  1.00  0.00     0.037 A 
ATOM     44  C   UNL     1     -11.092  10.166   2.531  1.00  0.00     0.037 A 
ATOM     45  C   UNL     1     -13.160   9.838  -3.651  1.00  0.00     0.049 A 
ATOM     46  C   UNL     1     -11.679  11.179   1.583  1.00  0.00     0.074 A 
ATOM     47  C   UNL     1     -13.770  10.832  -4.396  1.00  0.00     0.029 A 
ATOM     48  N   UNL     1     -12.865  10.392  -2.414  1.00  0.00    -0.354 N 
ATOM     49  N   UNL     1     -12.093  11.011   0.349  1.00  0.00    -0.248 NA
ATOM     50  C   UNL     1     -11.826  12.552   2.084  1.00  0.00     0.031 C 
ATOM     51  C   UNL     1     -13.781  12.005  -3.636  1.00  0.00     0.029 A 
ATOM     52  C   UNL     1     -13.248  11.723  -2.389  1.00  0.00     0.049 A 
ATOM     53  H   UNL     1     -12.446   9.910  -1.665  1.00  0.00     0.167 HD
ATOM     54  C   UNL     1     -12.577  12.249  -0.061  1.00  0.00     0.074 A 
ATOM     55  C   UNL     1     -12.424  13.149   1.063  1.00  0.00     0.031 C 
ATOM     56  C   UNL     1     -13.100  12.609  -1.260  1.00  0.00     0.037 A 
BRANCH  43  57
ATOM     57  C   UNL     1     -13.175   8.077  -5.459  1.00  0.00     0.058 A 
ATOM     58  C   UNL     1     -14.210   7.176  -5.756  1.00  0.00     0.135 A 
ATOM     59  C   UNL     1     -12.487   8.658  -6.538  1.00  0.00     0.135 A 
ATOM     60  F   UNL     1     -14.892   6.577  -4.767  1.00  0.00    -0.206 F 
ATOM     61  C   UNL     1     -14.543   6.856  -7.069  1.00  0.00     0.059 A 
ATOM     62  C   UNL     1     -12.824   8.378  -7.859  1.00  0.00     0.059 A 
ATOM     63  F   UNL     1     -11.485   9.523  -6.312  1.00  0.00    -0.206 F 
ATOM     64  C   UNL     1     -13.850   7.470  -8.114  1.00  0.00     0.060 A 
BRANCH  64  65
ATOM     65  S   UNL     1     -14.326   7.075  -9.809  1.00  0.00     0.124 S 
ATOM     66  O   UNL     1     -13.889   5.687  -9.920  1.00  0.00    -0.237 OA
ATOM     67  O   UNL     1     -15.770   7.285  -9.782  1.00  0.00    -0.237 OA
ATOM     68  O   UNL     1     -13.570   8.034 -10.609  1.00  0.00    -0.744 OA
ENDBRANCH  64  65
ENDBRANCH  43  57
BRANCH  44  69
ATOM     69  C   UNL     1     -10.677  10.563   3.906  1.00  0.00     0.058 A 
ATOM     70  C   UNL     1     -11.618  10.988   4.856  1.00  0.00     0.135 A 
ATOM     71  C   UNL     1      -9.327  10.547   4.291  1.00  0.00     0.135 A 
ATOM     72  F   UNL     1     -12.921  11.028   4.538  1.00  0.00    -0.206 F 
ATOM     73  C   UNL     1     -11.235  11.416   6.123  1.00  0.00     0.059 A 
ATOM     74  C   UNL     1      -8.922  10.934   5.564  1.00  0.00     0.059 A 
ATOM     75  F   UNL     1      -8.385  10.133   3.429  1.00  0.00    -0.206 F 
ATOM     76  C   UNL     1      -9.883  11.385   6.468  1.00  0.00     0.060 A 
BRANCH  76  77
ATOM     77  S   UNL     1      -9.399  11.924   8.122  1.00  0.00     0.124 S 
ATOM     78  O   UNL     1      -9.633  13.361   8.042  1.00  0.00    -0.237 OA
ATOM     79  O   UNL     1     -10.318  11.172   8.969  1.00  0.00    -0.237 OA
ATOM     80  O   UNL     1      -7.999  11.517   8.211  1.00  0.00    -0.744 OA
ENDBRANCH  76  77
ENDBRANCH  44  69
BRANCH  56  81
ATOM     81  C   UNL     1     -13.587  14.026  -1.410  1.00  0.00     0.058 A 
ATOM     82  C   UNL     1     -12.704  15.116  -1.446  1.00  0.00     0.135 A 
ATOM     83  C   UNL     1     -14.958  14.290  -1.571  1.00  0.00     0.135 A 
ATOM     84  F   UNL     1     -11.384  14.924  -1.290  1.00  0.00    -0.206 F 
ATOM     85  C   UNL     1     -13.164  16.420  -1.604  1.00  0.00     0.059 A 
ATOM     86  C   UNL     1     -15.436  15.581  -1.770  1.00  0.00     0.059 A 
ATOM     87  F   UNL     1     -15.847  13.284  -1.557  1.00  0.00    -0.206 F 
ATOM     88  C   UNL     1     -14.532  16.641  -1.771  1.00  0.00     0.060 A 
BRANCH  88  89
ATOM     89  S   UNL     1     -15.110  18.334  -2.010  1.00  0.00     0.124 S 
ATOM     90  O   UNL     1     -14.894  18.910  -0.687  1.00  0.00    -0.237 OA
ATOM     91  O   UNL     1     -14.223  18.818  -3.064  1.00  0.00    -0.237 OA
ATOM     92  O   UNL     1     -16.506  18.167  -2.401  1.00  0.00    -0.744 OA
ENDBRANCH  88  89
ENDBRANCH  56  81
ENDBRANCH  30  31
ENDBRANCH  22  25
ENDBRANCH  20  21
ENDBRANCH  19  20
ENDBRANCH   1  19
TORSDOF 18
