REMARK SMILES CC(C)(C)N(CC(=O)NCCCCNC(=O)c1ccc(-c2c3nc(c(-c4c(F)cc(S(=O)(=O)[O-])cc4F)c4ccc([nH]4)c(-c4c(F)cc(S(=O)(=O)[O-])cc4F)c4nc(c(-c5c(F)cc(S(=O)(=O)[O-])cc5F)c5ccc2[nH]5)C=C4)C=C3)cc1)C(=O)N1CC[C@H](C[NH3+])C1
REMARK SMILES IDX 10 1 9 2 7 3 8 4 6 6 5 7 2 8 1 9 3 10 4 11 83 12 84 13 85 14
REMARK SMILES IDX 86 15 91 16 87 17 88 18 89 19 90 20 11 24 12 25 13 26 14 27
REMARK SMILES IDX 15 28 16 30 17 31 18 32 82 33 19 34 81 35 20 36 21 37 22 38
REMARK SMILES IDX 75 39 23 40 80 41 74 42 76 43 24 44 79 45 73 46 72 47 25 49
REMARK SMILES IDX 59 50 38 51 58 52 39 53 42 54 57 55 77 56 40 57 41 58 56 60
REMARK SMILES IDX 78 61 43 62 26 63 27 64 36 65 28 66 29 67 35 68 37 69 30 70
REMARK SMILES IDX 31 71 32 72 33 73 34 74 60 75 61 76 70 77 62 78 63 79 69 80
REMARK SMILES IDX 71 81 64 82 65 83 66 84 67 85 68 86 44 87 45 88 54 89 46 90
REMARK SMILES IDX 47 91 53 92 55 93 48 94 49 95 50 96 51 97 52 98
REMARK H PARENT 9 5 90 21 90 22 90 23 14 29 76 48 42 59
REMARK Flexibility Score: inf
ROOT
ATOM      1  C   UNL     1       3.816  -0.018  -1.667  1.00  0.00     0.116 C 
ENDROOT
BRANCH   1   2
ATOM      2  N   UNL     1       4.121   1.391  -1.648  1.00  0.00    -0.355 N 
ATOM      3  C   UNL     1       3.310   2.451  -1.377  1.00  0.00     0.239 C 
ATOM      4  O   UNL     1       3.871   3.526  -1.126  1.00  0.00    -0.273 OA
ATOM      5  H   UNL     1       5.054   1.620  -1.862  1.00  0.00     0.163 HD
BRANCH   3   6
ATOM      6  C   UNL     1       1.777   2.345  -1.236  1.00  0.00     0.221 C 
BRANCH   6   7
ATOM      7  N   UNL     1       0.991   1.413  -2.073  1.00  0.00    -0.311 N 
BRANCH   7   8
ATOM      8  C   UNL     1       0.145   0.333  -1.409  1.00  0.00     0.037 C 
ATOM      9  C   UNL     1       0.435   0.115   0.103  1.00  0.00     0.034 C 
ATOM     10  C   UNL     1       0.330  -1.046  -2.085  1.00  0.00     0.034 C 
ATOM     11  C   UNL     1      -1.355   0.722  -1.469  1.00  0.00     0.034 C 
ENDBRANCH   7   8
BRANCH   7  12
ATOM     12  C   UNL     1       0.670   1.756  -3.406  1.00  0.00     0.320 C 
ATOM     13  O   UNL     1      -0.093   1.086  -4.102  1.00  0.00    -0.248 OA
BRANCH  12  14
ATOM     14  N   UNL     1       1.060   3.002  -3.845  1.00  0.00    -0.324 N 
ATOM     15  C   UNL     1       2.393   3.363  -4.282  1.00  0.00     0.122 C 
ATOM     16  C   UNL     1       0.116   3.813  -4.601  1.00  0.00     0.130 C 
ATOM     17  C   UNL     1       2.284   4.874  -4.385  1.00  0.00     0.033 C 
ATOM     18  C   UNL     1       0.904   5.063  -5.037  1.00  0.00     0.065 C 
BRANCH  18  19
ATOM     19  C   UNL     1       0.182   6.352  -4.644  1.00  0.00     0.264 C 
BRANCH  19  20
ATOM     20  N   UNL     1       0.946   7.543  -4.998  1.00  0.00    -0.357 N 
ATOM     21  H   UNL     1       1.836   7.536  -4.501  1.00  0.00     0.344 HD
ATOM     22  H   UNL     1       0.417   8.376  -4.739  1.00  0.00     0.344 HD
ATOM     23  H   UNL     1       1.118   7.549  -6.004  1.00  0.00     0.344 HD
ENDBRANCH  19  20
ENDBRANCH  18  19
ENDBRANCH  12  14
ENDBRANCH   7  12
ENDBRANCH   6   7
ENDBRANCH   3   6
ENDBRANCH   1   2
BRANCH   1  24
ATOM     24  C   UNL     1       3.679  -0.609  -3.066  1.00  0.00     0.023 C 
BRANCH  24  25
ATOM     25  C   UNL     1       4.984  -0.802  -3.833  1.00  0.00     0.023 C 
BRANCH  25  26
ATOM     26  C   UNL     1       6.093  -1.536  -3.085  1.00  0.00     0.116 C 
BRANCH  26  27
ATOM     27  N   UNL     1       5.687  -2.804  -2.494  1.00  0.00    -0.352 N 
ATOM     28  C   UNL     1       6.424  -3.959  -2.345  1.00  0.00     0.251 C 
ATOM     29  H   UNL     1       4.763  -2.840  -2.155  1.00  0.00     0.163 HD
ATOM     30  O   UNL     1       5.915  -4.958  -1.854  1.00  0.00    -0.269 OA
BRANCH  28  31
ATOM     31  C   UNL     1       7.818  -3.992  -2.837  1.00  0.00     0.039 A 
ATOM     32  C   UNL     1       8.204  -5.027  -3.692  1.00  0.00     0.014 A 
ATOM     33  C   UNL     1       8.713  -2.968  -2.517  1.00  0.00     0.014 A 
ATOM     34  C   UNL     1       9.459  -4.982  -4.305  1.00  0.00     0.010 A 
ATOM     35  C   UNL     1       9.929  -2.885  -3.187  1.00  0.00     0.010 A 
ATOM     36  C   UNL     1      10.309  -3.884  -4.097  1.00  0.00    -0.014 A 
BRANCH  36  37
ATOM     37  C   UNL     1      11.591  -3.744  -4.834  1.00  0.00     0.031 A 
ATOM     38  C   UNL     1      12.892  -3.716  -4.081  1.00  0.00     0.074 A 
ATOM     39  C   UNL     1      11.576  -3.549  -6.168  1.00  0.00     0.049 A 
ATOM     40  N   UNL     1      14.101  -3.491  -4.528  1.00  0.00    -0.248 NA
ATOM     41  C   UNL     1      12.821  -3.936  -2.627  1.00  0.00     0.031 C 
ATOM     42  C   UNL     1      10.374  -3.494  -7.004  1.00  0.00     0.029 A 
ATOM     43  N   UNL     1      12.603  -3.344  -7.055  1.00  0.00    -0.354 N 
ATOM     44  C   UNL     1      14.928  -3.517  -3.412  1.00  0.00     0.074 A 
ATOM     45  C   UNL     1      14.077  -3.732  -2.261  1.00  0.00     0.031 C 
ATOM     46  C   UNL     1      10.734  -3.291  -8.282  1.00  0.00     0.029 A 
ATOM     47  C   UNL     1      12.186  -3.166  -8.354  1.00  0.00     0.049 A 
ATOM     48  H   UNL     1      13.550  -3.326  -6.787  1.00  0.00     0.167 HD
ATOM     49  C   UNL     1      16.275  -3.396  -3.353  1.00  0.00     0.037 A 
ATOM     50  C   UNL     1      12.894  -2.924  -9.474  1.00  0.00     0.037 A 
ATOM     51  C   UNL     1      17.120  -3.224  -4.505  1.00  0.00     0.049 A 
ATOM     52  C   UNL     1      14.392  -2.827  -9.389  1.00  0.00     0.074 A 
ATOM     53  C   UNL     1      18.501  -3.159  -4.558  1.00  0.00     0.029 A 
ATOM     54  N   UNL     1      16.663  -3.096  -5.809  1.00  0.00    -0.354 N 
ATOM     55  N   UNL     1      15.163  -2.913  -8.331  1.00  0.00    -0.248 NA
ATOM     56  C   UNL     1      15.118  -2.606 -10.647  1.00  0.00     0.031 C 
ATOM     57  C   UNL     1      18.878  -2.963  -5.891  1.00  0.00     0.029 A 
ATOM     58  C   UNL     1      17.734  -2.943  -6.673  1.00  0.00     0.049 A 
ATOM     59  H   UNL     1      15.717  -3.112  -6.080  1.00  0.00     0.167 HD
ATOM     60  C   UNL     1      16.465  -2.781  -8.799  1.00  0.00     0.074 A 
ATOM     61  C   UNL     1      16.379  -2.619 -10.236  1.00  0.00     0.031 C 
ATOM     62  C   UNL     1      17.628  -2.793  -8.102  1.00  0.00     0.037 A 
BRANCH  49  63
ATOM     63  C   UNL     1      16.917  -3.459  -1.995  1.00  0.00     0.058 A 
ATOM     64  C   UNL     1      16.986  -4.660  -1.271  1.00  0.00     0.135 A 
ATOM     65  C   UNL     1      17.484  -2.312  -1.418  1.00  0.00     0.135 A 
ATOM     66  F   UNL     1      16.444  -5.782  -1.769  1.00  0.00    -0.206 F 
ATOM     67  C   UNL     1      17.563  -4.714  -0.007  1.00  0.00     0.059 A 
ATOM     68  C   UNL     1      18.090  -2.349  -0.165  1.00  0.00     0.059 A 
ATOM     69  F   UNL     1      17.445  -1.138  -2.067  1.00  0.00    -0.206 F 
ATOM     70  C   UNL     1      18.108  -3.552   0.540  1.00  0.00     0.060 A 
BRANCH  70  71
ATOM     71  S   UNL     1      18.848  -3.635   2.184  1.00  0.00     0.124 S 
ATOM     72  O   UNL     1      17.661  -3.679   3.033  1.00  0.00    -0.237 OA
ATOM     73  O   UNL     1      19.624  -4.869   2.118  1.00  0.00    -0.237 OA
ATOM     74  O   UNL     1      19.633  -2.408   2.266  1.00  0.00    -0.744 OA
ENDBRANCH  70  71
ENDBRANCH  49  63
BRANCH  50  75
ATOM     75  C   UNL     1      12.194  -2.789 -10.779  1.00  0.00     0.058 A 
ATOM     76  C   UNL     1      12.274  -3.804 -11.744  1.00  0.00     0.135 A 
ATOM     77  C   UNL     1      11.422  -1.657 -11.082  1.00  0.00     0.135 A 
ATOM     78  F   UNL     1      13.006  -4.902 -11.502  1.00  0.00    -0.206 F 
ATOM     79  C   UNL     1      11.626  -3.697 -12.970  1.00  0.00     0.059 A 
ATOM     80  C   UNL     1      10.747  -1.536 -12.292  1.00  0.00     0.059 A 
ATOM     81  F   UNL     1      11.300  -0.667 -10.184  1.00  0.00    -0.206 F 
ATOM     82  C   UNL     1      10.863  -2.558 -13.235  1.00  0.00     0.060 A 
BRANCH  82  83
ATOM     83  S   UNL     1       9.983  -2.451 -14.808  1.00  0.00     0.124 S 
ATOM     84  O   UNL     1      11.068  -2.136 -15.730  1.00  0.00    -0.237 OA
ATOM     85  O   UNL     1       9.407  -3.787 -14.931  1.00  0.00    -0.237 OA
ATOM     86  O   UNL     1       9.017  -1.380 -14.578  1.00  0.00    -0.744 OA
ENDBRANCH  82  83
ENDBRANCH  50  75
BRANCH  62  87
ATOM     87  C   UNL     1      18.903  -2.659  -8.885  1.00  0.00     0.058 A 
ATOM     88  C   UNL     1      19.315  -1.428  -9.415  1.00  0.00     0.135 A 
ATOM     89  C   UNL     1      19.749  -3.767  -9.057  1.00  0.00     0.135 A 
ATOM     90  F   UNL     1      18.538  -0.341  -9.282  1.00  0.00    -0.206 F 
ATOM     91  C   UNL     1      20.516  -1.301 -10.105  1.00  0.00     0.059 A 
ATOM     92  C   UNL     1      20.965  -3.658  -9.724  1.00  0.00     0.059 A 
ATOM     93  F   UNL     1      19.404  -4.965  -8.561  1.00  0.00    -0.206 F 
ATOM     94  C   UNL     1      21.335  -2.422 -10.254  1.00  0.00     0.060 A 
BRANCH  94  95
ATOM     95  S   UNL     1      22.910  -2.238 -11.116  1.00  0.00     0.124 S 
ATOM     96  O   UNL     1      22.479  -2.189 -12.509  1.00  0.00    -0.237 OA
ATOM     97  O   UNL     1      23.425  -0.987 -10.567  1.00  0.00    -0.237 OA
ATOM     98  O   UNL     1      23.650  -3.435 -10.728  1.00  0.00    -0.744 OA
ENDBRANCH  94  95
ENDBRANCH  62  87
ENDBRANCH  36  37
ENDBRANCH  28  31
ENDBRANCH  26  27
ENDBRANCH  25  26
ENDBRANCH  24  25
ENDBRANCH   1  24
TORSDOF 20
