REMARK SMILES CCCC#C[C@](C)(O)C[NH2+][C@H](C)C(=O)NCCCCNC(=O)c1ccc(-c2c3nc(c(-c4c(F)cc(S(=O)(=O)[O-])cc4F)c4ccc([nH]4)c(-c4c(F)cc(S(=O)(=O)[O-])cc4F)c4nc(c(-c5c(F)cc(S(=O)(=O)[O-])cc5F)c5ccc2[nH]5)C=C4)C=C3)cc1
REMARK SMILES IDX 16 1 15 2 13 3 14 4 11 6 12 7 10 8 9 11 6 12 7 13 5 14 4 15
REMARK SMILES IDX 3 16 2 17 1 18 8 19 17 21 18 22 19 23 20 24 21 25 22 27
REMARK SMILES IDX 23 28 24 29 88 30 25 31 87 32 26 33 27 34 28 35 81 36 29 37
REMARK SMILES IDX 86 38 80 39 82 40 30 41 85 42 79 43 78 44 31 46 65 47 44 48
REMARK SMILES IDX 64 49 45 50 48 51 63 52 83 53 46 54 47 55 62 57 84 58 49 59
REMARK SMILES IDX 32 60 33 61 42 62 34 63 35 64 41 65 43 66 36 67 37 68 38 69
REMARK SMILES IDX 39 70 40 71 66 72 67 73 76 74 68 75 69 76 75 77 77 78 70 79
REMARK SMILES IDX 71 80 72 81 73 82 74 83 50 84 51 85 60 86 52 87 53 88 59 89
REMARK SMILES IDX 61 90 54 91 55 92 56 93 57 94 58 95
REMARK H PARENT 15 5 10 9 10 10 8 20 20 26 82 45 48 56
REMARK Flexibility Score: inf
ROOT
ATOM      1  C   UNL     1      -1.938  -3.779   3.339  1.00  0.00     0.116 C 
ENDROOT
BRANCH   1   2
ATOM      2  N   UNL     1      -2.788  -2.665   2.971  1.00  0.00    -0.351 N 
ATOM      3  C   UNL     1      -3.493  -2.443   1.826  1.00  0.00     0.277 C 
ATOM      4  O   UNL     1      -4.147  -1.399   1.746  1.00  0.00    -0.268 OA
ATOM      5  H   UNL     1      -2.869  -1.960   3.653  1.00  0.00     0.163 HD
BRANCH   3   6
ATOM      6  C   UNL     1      -3.507  -3.471   0.678  1.00  0.00     0.269 C 
ATOM      7  C   UNL     1      -2.118  -3.615   0.049  1.00  0.00     0.086 C 
BRANCH   6   8
ATOM      8  N   UNL     1      -4.061  -4.789   1.069  1.00  0.00    -0.333 N 
ATOM      9  H   UNL     1      -4.248  -5.325   0.221  1.00  0.00     0.347 HD
ATOM     10  H   UNL     1      -3.369  -5.242   1.666  1.00  0.00     0.347 HD
BRANCH   8  11
ATOM     11  C   UNL     1      -5.313  -4.689   1.846  1.00  0.00     0.310 C 
BRANCH  11  12
ATOM     12  C   UNL     1      -5.730  -6.057   2.457  1.00  0.00     0.171 C 
ATOM     13  C   UNL     1      -6.003  -7.096   1.365  1.00  0.00     0.063 C 
BRANCH  12  14
ATOM     14  C   UNL     1      -6.918  -5.877   3.311  1.00  0.00    -0.063 C 
ATOM     15  C   UNL     1      -8.026  -5.749   3.987  1.00  0.00    -0.100 C 
BRANCH  15  16
ATOM     16  C   UNL     1      -9.317  -5.600   4.775  1.00  0.00     0.089 C 
BRANCH  16  17
ATOM     17  C   UNL     1     -10.284  -6.741   4.459  1.00  0.00     0.010 C 
ATOM     18  C   UNL     1      -9.748  -8.112   4.854  1.00  0.00     0.005 C 
ENDBRANCH  16  17
ENDBRANCH  15  16
ENDBRANCH  12  14
BRANCH  12  19
ATOM     19  O   UNL     1      -4.652  -6.536   3.276  1.00  0.00    -0.372 OA
ATOM     20  H   UNL     1      -3.861  -6.660   2.729  1.00  0.00     0.212 HD
ENDBRANCH  12  19
ENDBRANCH  11  12
ENDBRANCH   8  11
ENDBRANCH   6   8
ENDBRANCH   3   6
ENDBRANCH   1   2
BRANCH   1  21
ATOM     21  C   UNL     1      -0.530  -3.310   3.683  1.00  0.00     0.023 C 
BRANCH  21  22
ATOM     22  C   UNL     1      -0.445  -2.420   4.922  1.00  0.00     0.023 C 
BRANCH  22  23
ATOM     23  C   UNL     1      -1.038  -3.026   6.188  1.00  0.00     0.116 C 
BRANCH  23  24
ATOM     24  N   UNL     1      -0.409  -4.285   6.555  1.00  0.00    -0.352 N 
ATOM     25  C   UNL     1       0.085  -4.684   7.772  1.00  0.00     0.251 C 
ATOM     26  H   UNL     1      -0.326  -4.944   5.828  1.00  0.00     0.163 HD
ATOM     27  O   UNL     1       0.734  -5.724   7.857  1.00  0.00    -0.269 OA
BRANCH  25  28
ATOM     28  C   UNL     1      -0.143  -3.846   8.969  1.00  0.00     0.039 A 
ATOM     29  C   UNL     1       0.918  -3.623   9.848  1.00  0.00     0.014 A 
ATOM     30  C   UNL     1      -1.395  -3.274   9.219  1.00  0.00     0.014 A 
ATOM     31  C   UNL     1       0.737  -2.781  10.947  1.00  0.00     0.010 A 
ATOM     32  C   UNL     1      -1.546  -2.364  10.261  1.00  0.00     0.010 A 
ATOM     33  C   UNL     1      -0.487  -2.117  11.145  1.00  0.00    -0.014 A 
BRANCH  33  34
ATOM     34  C   UNL     1      -0.659  -1.166  12.274  1.00  0.00     0.031 A 
ATOM     35  C   UNL     1      -1.678  -1.431  13.350  1.00  0.00     0.074 A 
ATOM     36  C   UNL     1       0.083  -0.040  12.310  1.00  0.00     0.049 A 
ATOM     37  N   UNL     1      -1.949  -0.729  14.420  1.00  0.00    -0.248 NA
ATOM     38  C   UNL     1      -2.525  -2.624  13.190  1.00  0.00     0.031 C 
ATOM     39  C   UNL     1       1.049   0.368  11.287  1.00  0.00     0.029 A 
ATOM     40  N   UNL     1       0.144   0.967  13.241  1.00  0.00    -0.354 N 
ATOM     41  C   UNL     1      -2.998  -1.387  15.052  1.00  0.00     0.074 A 
ATOM     42  C   UNL     1      -3.358  -2.508  14.213  1.00  0.00     0.031 C 
ATOM     43  C   UNL     1       1.632   1.517  11.664  1.00  0.00     0.029 A 
ATOM     44  C   UNL     1       1.059   1.947  12.936  1.00  0.00     0.049 A 
ATOM     45  H   UNL     1      -0.415   0.986  14.051  1.00  0.00     0.167 HD
ATOM     46  C   UNL     1      -3.589  -1.099  16.237  1.00  0.00     0.037 A 
ATOM     47  C   UNL     1       1.403   3.064  13.605  1.00  0.00     0.037 A 
ATOM     48  C   UNL     1      -3.209   0.008  17.075  1.00  0.00     0.049 A 
ATOM     49  C   UNL     1       0.754   3.349  14.932  1.00  0.00     0.074 A 
ATOM     50  C   UNL     1      -3.694   0.345  18.326  1.00  0.00     0.029 A 
ATOM     51  N   UNL     1      -2.257   0.963  16.746  1.00  0.00    -0.354 N 
ATOM     52  N   UNL     1      -0.173   2.665  15.560  1.00  0.00    -0.248 NA
ATOM     53  C   UNL     1       1.208   4.547  15.651  1.00  0.00     0.031 C 
ATOM     54  C   UNL     1      -3.079   1.536  18.728  1.00  0.00     0.029 A 
ATOM     55  C   UNL     1      -2.160   1.904  17.758  1.00  0.00     0.049 A 
ATOM     56  H   UNL     1      -1.729   0.971  15.915  1.00  0.00     0.167 HD
ATOM     57  C   UNL     1      -0.391   3.332  16.761  1.00  0.00     0.074 A 
ATOM     58  C   UNL     1       0.509   4.466  16.775  1.00  0.00     0.031 C 
ATOM     59  C   UNL     1      -1.256   3.028  17.762  1.00  0.00     0.037 A 
BRANCH  46  60
ATOM     60  C   UNL     1      -4.710  -1.995  16.696  1.00  0.00     0.058 A 
ATOM     61  C   UNL     1      -4.487  -3.329  17.076  1.00  0.00     0.135 A 
ATOM     62  C   UNL     1      -6.023  -1.503  16.788  1.00  0.00     0.135 A 
ATOM     63  F   UNL     1      -3.256  -3.859  16.996  1.00  0.00    -0.206 F 
ATOM     64  C   UNL     1      -5.528  -4.151  17.495  1.00  0.00     0.059 A 
ATOM     65  C   UNL     1      -7.074  -2.298  17.237  1.00  0.00     0.059 A 
ATOM     66  F   UNL     1      -6.296  -0.235  16.440  1.00  0.00    -0.206 F 
ATOM     67  C   UNL     1      -6.819  -3.627  17.572  1.00  0.00     0.060 A 
BRANCH  67  68
ATOM     68  S   UNL     1      -8.158  -4.708  18.117  1.00  0.00     0.124 S 
ATOM     69  O   UNL     1      -8.306  -5.591  16.964  1.00  0.00    -0.237 OA
ATOM     70  O   UNL     1      -7.594  -5.321  19.316  1.00  0.00    -0.237 OA
ATOM     71  O   UNL     1      -9.266  -3.788  18.349  1.00  0.00    -0.744 OA
ENDBRANCH  67  68
ENDBRANCH  46  60
BRANCH  47  72
ATOM     72  C   UNL     1       2.437   3.974  13.042  1.00  0.00     0.058 A 
ATOM     73  C   UNL     1       3.706   4.087  13.630  1.00  0.00     0.135 A 
ATOM     74  C   UNL     1       2.187   4.726  11.883  1.00  0.00     0.135 A 
ATOM     75  F   UNL     1       3.994   3.393  14.742  1.00  0.00    -0.206 F 
ATOM     76  C   UNL     1       4.684   4.922  13.100  1.00  0.00     0.059 A 
ATOM     77  C   UNL     1       3.158   5.546  11.318  1.00  0.00     0.059 A 
ATOM     78  F   UNL     1       0.996   4.640  11.270  1.00  0.00    -0.206 F 
ATOM     79  C   UNL     1       4.402   5.644  11.939  1.00  0.00     0.060 A 
BRANCH  79  80
ATOM     80  S   UNL     1       5.700   6.678  11.226  1.00  0.00     0.124 S 
ATOM     81  O   UNL     1       5.764   7.774  12.185  1.00  0.00    -0.237 OA
ATOM     82  O   UNL     1       6.842   5.770  11.214  1.00  0.00    -0.237 OA
ATOM     83  O   UNL     1       5.169   7.022   9.909  1.00  0.00    -0.744 OA
ENDBRANCH  79  80
ENDBRANCH  47  72
BRANCH  59  84
ATOM     84  C   UNL     1      -1.241   3.910  18.982  1.00  0.00     0.058 A 
ATOM     85  C   UNL     1      -1.728   5.226  18.956  1.00  0.00     0.135 A 
ATOM     86  C   UNL     1      -0.770   3.411  20.208  1.00  0.00     0.135 A 
ATOM     87  F   UNL     1      -2.187   5.755  17.811  1.00  0.00    -0.206 F 
ATOM     88  C   UNL     1      -1.718   6.027  20.094  1.00  0.00     0.059 A 
ATOM     89  C   UNL     1      -0.781   4.182  21.365  1.00  0.00     0.059 A 
ATOM     90  F   UNL     1      -0.305   2.154  20.293  1.00  0.00    -0.206 F 
ATOM     91  C   UNL     1      -1.243   5.495  21.294  1.00  0.00     0.060 A 
BRANCH  91  92
ATOM     92  S   UNL     1      -1.253   6.538  22.767  1.00  0.00     0.124 S 
ATOM     93  O   UNL     1      -0.162   7.463  22.480  1.00  0.00    -0.237 OA
ATOM     94  O   UNL     1      -2.595   7.111  22.735  1.00  0.00    -0.237 OA
ATOM     95  O   UNL     1      -1.006   5.595  23.854  1.00  0.00    -0.744 OA
ENDBRANCH  91  92
ENDBRANCH  59  84
ENDBRANCH  33  34
ENDBRANCH  25  28
ENDBRANCH  23  24
ENDBRANCH  22  23
ENDBRANCH  21  22
ENDBRANCH   1  21
TORSDOF 21
