REMARK SMILES CC(C)Oc1ccc([C@@H]2CC(=O)Nc3c(C(=O)NCCCCNC(=O)c4ccc(-c5c6nc(c(-c7c(F)cc(S(=O)(=O)[O-])cc7F)c7ccc([nH]7)c(-c7c(F)cc(S(=O)(=O)[O-])cc7F)c7nc(c(-c8c(F)cc(S(=O)(=O)[O-])cc8F)c8ccc5[nH]8)C=C7)C=C6)cc4)nsc32)cc1
REMARK SMILES IDX 20 1 19 2 18 3 16 4 17 5 15 7 9 8 10 9 94 10 11 11 14 12
REMARK SMILES IDX 93 13 12 14 13 15 92 16 8 18 5 19 6 20 96 21 7 22 95 23 4 24
REMARK SMILES IDX 2 25 1 26 3 27 21 28 22 29 23 30 24 31 25 33 26 34 27 35
REMARK SMILES IDX 91 36 28 37 90 38 29 39 30 40 31 41 84 42 32 43 89 44 83 45
REMARK SMILES IDX 85 46 33 47 88 48 82 49 81 50 34 52 68 53 47 54 67 55 48 56
REMARK SMILES IDX 51 57 66 58 86 59 49 60 50 61 65 63 87 64 52 65 35 66 36 67
REMARK SMILES IDX 45 68 37 69 38 70 44 71 46 72 39 73 40 74 41 75 42 76 43 77
REMARK SMILES IDX 69 78 70 79 79 80 71 81 72 82 78 83 80 84 73 85 74 86 75 87
REMARK SMILES IDX 76 88 77 89 53 90 54 91 63 92 55 93 56 94 62 95 64 96 57 97
REMARK SMILES IDX 58 98 59 99 60 100 61 101
REMARK H PARENT 18 6 13 17 23 32 85 51 51 62
REMARK Flexibility Score: inf
ROOT
ATOM      1  C   UNL     1      -6.708  -9.197  -0.168  1.00  0.00     0.023 C 
ENDROOT
BRANCH   1   2
ATOM      2  C   UNL     1      -5.309  -8.594  -0.221  1.00  0.00     0.116 C 
BRANCH   2   3
ATOM      3  N   UNL     1      -4.255  -9.353  -0.867  1.00  0.00    -0.351 N 
ATOM      4  C   UNL     1      -3.146  -8.906  -1.585  1.00  0.00     0.273 C 
ATOM      5  O   UNL     1      -2.377  -9.773  -2.003  1.00  0.00    -0.267 OA
ATOM      6  H   UNL     1      -4.335 -10.331  -0.787  1.00  0.00     0.163 HD
BRANCH   4   7
ATOM      7  C   UNL     1      -2.957  -7.465  -1.902  1.00  0.00     0.165 A 
ATOM      8  C   UNL     1      -3.903  -3.866  -1.429  1.00  0.00     0.073 C 
ATOM      9  C   UNL     1      -4.554  -3.958  -0.030  1.00  0.00     0.114 C 
ATOM     10  C   UNL     1      -3.314  -5.167  -1.851  1.00  0.00     0.058 A 
ATOM     11  C   UNL     1      -4.443  -5.271   0.718  1.00  0.00     0.225 C 
ATOM     12  C   UNL     1      -3.260  -6.308  -1.091  1.00  0.00     0.089 A 
ATOM     13  S   UNL     1      -2.689  -5.514  -3.388  1.00  0.00    -0.038 S 
ATOM     14  O   UNL     1      -5.085  -5.473   1.748  1.00  0.00    -0.275 OA
ATOM     15  N   UNL     1      -3.639  -6.258   0.231  1.00  0.00    -0.323 N 
ATOM     16  N   UNL     1      -2.531  -7.143  -3.137  1.00  0.00    -0.185 NA
ATOM     17  H   UNL     1      -3.318  -6.958   0.845  1.00  0.00     0.170 HD
BRANCH   8  18
ATOM     18  C   UNL     1      -2.942  -2.691  -1.442  1.00  0.00    -0.039 A 
ATOM     19  C   UNL     1      -1.382  -0.378  -1.153  1.00  0.00     0.119 A 
ATOM     20  C   UNL     1      -2.470  -0.383  -2.025  1.00  0.00     0.047 A 
ATOM     21  C   UNL     1      -1.079  -1.522  -0.423  1.00  0.00     0.047 A 
ATOM     22  C   UNL     1      -3.247  -1.534  -2.175  1.00  0.00     0.008 A 
ATOM     23  C   UNL     1      -1.829  -2.683  -0.592  1.00  0.00     0.008 A 
BRANCH  19  24
ATOM     24  O   UNL     1      -0.734   0.811  -0.985  1.00  0.00    -0.491 OA
BRANCH  24  25
ATOM     25  C   UNL     1       0.692   0.831  -1.176  1.00  0.00     0.167 C 
ATOM     26  C   UNL     1       1.479   0.318   0.028  1.00  0.00     0.052 C 
ATOM     27  C   UNL     1       1.141   0.202  -2.493  1.00  0.00     0.052 C 
ENDBRANCH  24  25
ENDBRANCH  19  24
ENDBRANCH   8  18
ENDBRANCH   4   7
ENDBRANCH   2   3
ENDBRANCH   1   2
BRANCH   1  28
ATOM     28  C   UNL     1      -6.938 -10.414   0.730  1.00  0.00     0.023 C 
BRANCH  28  29
ATOM     29  C   UNL     1      -6.389 -10.328   2.151  1.00  0.00     0.116 C 
BRANCH  29  30
ATOM     30  N   UNL     1      -7.008  -9.305   2.987  1.00  0.00    -0.352 N 
ATOM     31  C   UNL     1      -6.842  -9.136   4.357  1.00  0.00     0.251 C 
ATOM     32  H   UNL     1      -7.606  -8.668   2.534  1.00  0.00     0.163 HD
ATOM     33  O   UNL     1      -7.648  -8.501   5.012  1.00  0.00    -0.269 OA
BRANCH  31  34
ATOM     34  C   UNL     1      -5.668  -9.764   5.007  1.00  0.00     0.039 A 
ATOM     35  C   UNL     1      -5.796 -10.451   6.218  1.00  0.00     0.014 A 
ATOM     36  C   UNL     1      -4.434  -9.690   4.364  1.00  0.00     0.014 A 
ATOM     37  C   UNL     1      -4.698 -11.153   6.716  1.00  0.00     0.010 A 
ATOM     38  C   UNL     1      -3.383 -10.470   4.798  1.00  0.00     0.010 A 
ATOM     39  C   UNL     1      -3.499 -11.190   5.984  1.00  0.00    -0.014 A 
BRANCH  39  40
ATOM     40  C   UNL     1      -2.427 -12.113   6.370  1.00  0.00     0.031 A 
ATOM     41  C   UNL     1      -2.850 -13.541   6.475  1.00  0.00     0.074 A 
ATOM     42  C   UNL     1      -1.116 -11.782   6.390  1.00  0.00     0.049 A 
ATOM     43  N   UNL     1      -2.896 -14.284   7.531  1.00  0.00    -0.248 NA
ATOM     44  C   UNL     1      -3.425 -14.183   5.280  1.00  0.00     0.031 C 
ATOM     45  C   UNL     1      -0.505 -10.512   5.986  1.00  0.00     0.029 A 
ATOM     46  N   UNL     1      -0.030 -12.559   6.667  1.00  0.00    -0.354 N 
ATOM     47  C   UNL     1      -3.280 -15.553   7.097  1.00  0.00     0.074 A 
ATOM     48  C   UNL     1      -3.781 -15.376   5.760  1.00  0.00     0.031 C 
ATOM     49  C   UNL     1       0.825 -10.682   5.819  1.00  0.00     0.029 A 
ATOM     50  C   UNL     1       1.187 -12.017   6.259  1.00  0.00     0.049 A 
ATOM     51  H   UNL     1      -0.100 -13.432   7.117  1.00  0.00     0.167 HD
ATOM     52  C   UNL     1      -2.926 -16.676   7.786  1.00  0.00     0.037 A 
ATOM     53  C   UNL     1       2.400 -12.626   6.257  1.00  0.00     0.037 A 
ATOM     54  C   UNL     1      -2.467 -16.336   9.111  1.00  0.00     0.049 A 
ATOM     55  C   UNL     1       2.313 -13.771   7.197  1.00  0.00     0.074 A 
ATOM     56  C   UNL     1      -3.015 -15.693  10.204  1.00  0.00     0.029 A 
ATOM     57  N   UNL     1      -1.111 -16.356   9.328  1.00  0.00    -0.354 N 
ATOM     58  N   UNL     1       2.177 -13.648   8.487  1.00  0.00    -0.248 NA
ATOM     59  C   UNL     1       1.965 -15.075   6.657  1.00  0.00     0.031 C 
ATOM     60  C   UNL     1      -1.939 -14.954  10.777  1.00  0.00     0.029 A 
ATOM     61  C   UNL     1      -0.783 -15.239  10.049  1.00  0.00     0.049 A 
ATOM     62  H   UNL     1      -0.485 -17.051   9.019  1.00  0.00     0.167 HD
ATOM     63  C   UNL     1       1.319 -14.675   8.849  1.00  0.00     0.074 A 
ATOM     64  C   UNL     1       1.323 -15.588   7.710  1.00  0.00     0.031 C 
ATOM     65  C   UNL     1       0.475 -14.538   9.914  1.00  0.00     0.037 A 
BRANCH  52  66
ATOM     66  C   UNL     1      -2.612 -18.026   7.163  1.00  0.00     0.058 A 
ATOM     67  C   UNL     1      -2.298 -19.114   8.011  1.00  0.00     0.135 A 
ATOM     68  C   UNL     1      -2.319 -18.231   5.797  1.00  0.00     0.135 A 
ATOM     69  F   UNL     1      -2.544 -19.048   9.330  1.00  0.00    -0.206 F 
ATOM     70  C   UNL     1      -1.646 -20.261   7.556  1.00  0.00     0.059 A 
ATOM     71  C   UNL     1      -1.718 -19.390   5.314  1.00  0.00     0.059 A 
ATOM     72  F   UNL     1      -2.509 -17.288   4.869  1.00  0.00    -0.206 F 
ATOM     73  C   UNL     1      -1.341 -20.379   6.206  1.00  0.00     0.060 A 
BRANCH  73  74
ATOM     74  S   UNL     1      -0.405 -21.805   5.630  1.00  0.00     0.124 S 
ATOM     75  O   UNL     1       0.909 -21.540   6.205  1.00  0.00    -0.237 OA
ATOM     76  O   UNL     1      -1.150 -22.914   6.216  1.00  0.00    -0.237 OA
ATOM     77  O   UNL     1      -0.493 -21.698   4.176  1.00  0.00    -0.744 OA
ENDBRANCH  73  74
ENDBRANCH  52  66
BRANCH  53  78
ATOM     78  C   UNL     1       3.548 -12.460   5.324  1.00  0.00     0.058 A 
ATOM     79  C   UNL     1       4.803 -13.027   5.616  1.00  0.00     0.135 A 
ATOM     80  C   UNL     1       3.365 -12.012   4.001  1.00  0.00     0.135 A 
ATOM     81  F   UNL     1       5.068 -13.486   6.849  1.00  0.00    -0.206 F 
ATOM     82  C   UNL     1       5.787 -13.212   4.639  1.00  0.00     0.059 A 
ATOM     83  C   UNL     1       4.336 -12.174   3.012  1.00  0.00     0.059 A 
ATOM     84  F   UNL     1       2.195 -11.491   3.603  1.00  0.00    -0.206 F 
ATOM     85  C   UNL     1       5.532 -12.807   3.330  1.00  0.00     0.060 A 
BRANCH  85  86
ATOM     86  S   UNL     1       6.707 -13.239   2.024  1.00  0.00     0.124 S 
ATOM     87  O   UNL     1       7.832 -12.362   2.327  1.00  0.00    -0.237 OA
ATOM     88  O   UNL     1       6.924 -14.662   2.263  1.00  0.00    -0.237 OA
ATOM     89  O   UNL     1       5.979 -12.922   0.797  1.00  0.00    -0.744 OA
ENDBRANCH  85  86
ENDBRANCH  53  78
BRANCH  65  90
ATOM     90  C   UNL     1       0.756 -13.444  10.911  1.00  0.00     0.058 A 
ATOM     91  C   UNL     1       0.771 -12.067  10.623  1.00  0.00     0.135 A 
ATOM     92  C   UNL     1       0.906 -13.816  12.257  1.00  0.00     0.135 A 
ATOM     93  F   UNL     1       0.528 -11.615   9.385  1.00  0.00    -0.206 F 
ATOM     94  C   UNL     1       0.982 -11.111  11.620  1.00  0.00     0.059 A 
ATOM     95  C   UNL     1       1.079 -12.880  13.270  1.00  0.00     0.059 A 
ATOM     96  F   UNL     1       0.841 -15.111  12.608  1.00  0.00    -0.206 F 
ATOM     97  C   UNL     1       1.137 -11.528  12.942  1.00  0.00     0.060 A 
BRANCH  97  98
ATOM     98  S   UNL     1       1.359 -10.292  14.238  1.00  0.00     0.124 S 
ATOM     99  O   UNL     1       2.714  -9.818  13.981  1.00  0.00    -0.237 OA
ATOM    100  O   UNL     1       0.289  -9.339  13.956  1.00  0.00    -0.237 OA
ATOM    101  O   UNL     1       1.189 -11.056  15.472  1.00  0.00    -0.744 OA
ENDBRANCH  97  98
ENDBRANCH  65  90
ENDBRANCH  39  40
ENDBRANCH  31  34
ENDBRANCH  29  30
ENDBRANCH  28  29
ENDBRANCH   1  28
TORSDOF 17
