REMARK SMILES CCN(CCC(=O)NCCCCNC(=O)c1ccc(-c2c3nc(c(-c4c(F)cc(S(=O)(=O)[O-])cc4F)c4ccc([nH]4)c(-c4c(F)cc(S(=O)(=O)[O-])cc4F)c4nc(c(-c5c(F)cc(S(=O)(=O)[O-])cc5F)c5ccc2[nH]5)C=C4)C=C3)cc1)C(=O)c1cc(Cl)ccc1F
REMARK SMILES IDX 10 1 9 2 8 3 6 4 7 5 5 7 4 8 3 9 2 10 1 11 82 12 83 13 84 14
REMARK SMILES IDX 85 15 90 16 86 17 89 18 91 19 87 20 88 21 11 22 12 23 13 24
REMARK SMILES IDX 14 25 15 27 16 28 17 29 81 30 18 31 80 32 19 33 20 34 21 35
REMARK SMILES IDX 74 36 22 37 79 38 73 39 75 40 23 41 78 42 72 43 71 44 24 46
REMARK SMILES IDX 58 47 37 48 57 49 38 50 41 51 56 52 76 53 39 54 40 55 55 57
REMARK SMILES IDX 77 58 42 59 25 60 26 61 35 62 27 63 28 64 34 65 36 66 29 67
REMARK SMILES IDX 30 68 31 69 32 70 33 71 59 72 60 73 69 74 61 75 62 76 68 77
REMARK SMILES IDX 70 78 63 79 64 80 65 81 66 82 67 83 43 84 44 85 53 86 45 87
REMARK SMILES IDX 46 88 52 89 54 90 47 91 48 92 49 93 50 94 51 95
REMARK H PARENT 8 6 13 26 75 45 41 56
REMARK Flexibility Score: inf
ROOT
ATOM      1  C   UNL     1       3.110  -2.799   0.539  1.00  0.00     0.023 C 
ENDROOT
BRANCH   1   2
ATOM      2  C   UNL     1       2.568  -4.220   0.506  1.00  0.00     0.116 C 
BRANCH   2   3
ATOM      3  N   UNL     1       2.267  -4.722   1.835  1.00  0.00    -0.356 N 
ATOM      4  C   UNL     1       1.098  -4.671   2.533  1.00  0.00     0.221 C 
ATOM      5  O   UNL     1       1.041  -5.234   3.627  1.00  0.00    -0.275 OA
ATOM      6  H   UNL     1       3.016  -5.162   2.298  1.00  0.00     0.163 HD
BRANCH   4   7
ATOM      7  C   UNL     1      -0.106  -3.960   1.962  1.00  0.00     0.121 C 
BRANCH   7   8
ATOM      8  C   UNL     1      -0.406  -2.618   2.622  1.00  0.00     0.129 C 
BRANCH   8   9
ATOM      9  N   UNL     1       0.426  -1.479   2.214  1.00  0.00    -0.338 N 
BRANCH   9  10
ATOM     10  C   UNL     1       0.116  -0.974   0.857  1.00  0.00     0.116 C 
ATOM     11  C   UNL     1       0.763   0.301   0.338  1.00  0.00     0.027 C 
ENDBRANCH   9  10
BRANCH   9  12
ATOM     12  C   UNL     1       1.317  -0.797   3.071  1.00  0.00     0.256 C 
ATOM     13  O   UNL     1       1.533   0.411   2.954  1.00  0.00    -0.269 OA
BRANCH  12  14
ATOM     14  C   UNL     1       2.264  -1.522   3.982  1.00  0.00     0.077 A 
ATOM     15  C   UNL     1       3.619  -1.137   3.881  1.00  0.00     0.037 A 
ATOM     16  C   UNL     1       1.954  -2.510   4.912  1.00  0.00     0.136 A 
ATOM     17  C   UNL     1       4.618  -1.804   4.597  1.00  0.00     0.042 A 
ATOM     18  C   UNL     1       2.957  -3.213   5.591  1.00  0.00     0.041 A 
ATOM     19  F   UNL     1       0.696  -2.792   5.260  1.00  0.00    -0.206 F 
ATOM     20  Cl  UNL     1       6.261  -1.327   4.428  1.00  0.00    -0.084 Cl
ATOM     21  C   UNL     1       4.295  -2.871   5.425  1.00  0.00     0.023 A 
ENDBRANCH  12  14
ENDBRANCH   9  12
ENDBRANCH   8   9
ENDBRANCH   7   8
ENDBRANCH   4   7
ENDBRANCH   2   3
ENDBRANCH   1   2
BRANCH   1  22
ATOM     22  C   UNL     1       4.569  -2.675   0.952  1.00  0.00     0.023 C 
BRANCH  22  23
ATOM     23  C   UNL     1       5.556  -3.210  -0.066  1.00  0.00     0.116 C 
BRANCH  23  24
ATOM     24  N   UNL     1       5.416  -2.605  -1.383  1.00  0.00    -0.352 N 
ATOM     25  C   UNL     1       6.389  -2.172  -2.250  1.00  0.00     0.251 C 
ATOM     26  H   UNL     1       4.490  -2.488  -1.697  1.00  0.00     0.163 HD
ATOM     27  O   UNL     1       6.071  -1.594  -3.286  1.00  0.00    -0.269 OA
BRANCH  25  28
ATOM     28  C   UNL     1       7.812  -2.369  -1.904  1.00  0.00     0.039 A 
ATOM     29  C   UNL     1       8.714  -1.326  -2.124  1.00  0.00     0.014 A 
ATOM     30  C   UNL     1       8.243  -3.557  -1.313  1.00  0.00     0.014 A 
ATOM     31  C   UNL     1      10.030  -1.451  -1.676  1.00  0.00     0.010 A 
ATOM     32  C   UNL     1       9.511  -3.629  -0.759  1.00  0.00     0.010 A 
ATOM     33  C   UNL     1      10.427  -2.585  -0.948  1.00  0.00    -0.014 A 
BRANCH  33  34
ATOM     34  C   UNL     1      11.799  -2.725  -0.401  1.00  0.00     0.031 A 
ATOM     35  C   UNL     1      12.647  -3.899  -0.818  1.00  0.00     0.074 A 
ATOM     36  C   UNL     1      12.248  -1.853   0.524  1.00  0.00     0.049 A 
ATOM     37  N   UNL     1      13.812  -4.280  -0.364  1.00  0.00    -0.248 NA
ATOM     38  C   UNL     1      12.087  -4.791  -1.849  1.00  0.00     0.031 C 
ATOM     39  C   UNL     1      11.492  -0.719   1.063  1.00  0.00     0.029 A 
ATOM     40  N   UNL     1      13.448  -1.792   1.186  1.00  0.00    -0.354 N 
ATOM     41  C   UNL     1      14.110  -5.460  -1.037  1.00  0.00     0.074 A 
ATOM     42  C   UNL     1      12.972  -5.775  -1.869  1.00  0.00     0.031 C 
ATOM     43  C   UNL     1      12.255  -0.062   1.952  1.00  0.00     0.029 A 
ATOM     44  C   UNL     1      13.536  -0.747   2.077  1.00  0.00     0.049 A 
ATOM     45  H   UNL     1      14.178  -2.436   1.038  1.00  0.00     0.167 HD
ATOM     46  C   UNL     1      15.246  -6.194  -0.997  1.00  0.00     0.037 A 
ATOM     47  C   UNL     1      14.537  -0.389   2.905  1.00  0.00     0.037 A 
ATOM     48  C   UNL     1      16.394  -5.846  -0.205  1.00  0.00     0.049 A 
ATOM     49  C   UNL     1      15.806  -1.198   2.903  1.00  0.00     0.074 A 
ATOM     50  C   UNL     1      17.615  -6.492  -0.126  1.00  0.00     0.029 A 
ATOM     51  N   UNL     1      16.469  -4.743   0.633  1.00  0.00    -0.354 N 
ATOM     52  N   UNL     1      16.089  -2.285   2.223  1.00  0.00    -0.248 NA
ATOM     53  C   UNL     1      16.896  -0.729   3.768  1.00  0.00     0.031 C 
ATOM     54  C   UNL     1      18.419  -5.793   0.780  1.00  0.00     0.029 A 
ATOM     55  C   UNL     1      17.714  -4.689   1.234  1.00  0.00     0.049 A 
ATOM     56  H   UNL     1      15.742  -4.095   0.780  1.00  0.00     0.167 HD
ATOM     57  C   UNL     1      17.396  -2.615   2.562  1.00  0.00     0.074 A 
ATOM     58  C   UNL     1      17.854  -1.603   3.493  1.00  0.00     0.031 C 
ATOM     59  C   UNL     1      18.151  -3.662   2.145  1.00  0.00     0.037 A 
BRANCH  46  60
ATOM     60  C   UNL     1      15.310  -7.423  -1.862  1.00  0.00     0.058 A 
ATOM     61  C   UNL     1      15.370  -7.328  -3.263  1.00  0.00     0.135 A 
ATOM     62  C   UNL     1      15.333  -8.706  -1.292  1.00  0.00     0.135 A 
ATOM     63  F   UNL     1      15.331  -6.127  -3.862  1.00  0.00    -0.206 F 
ATOM     64  C   UNL     1      15.419  -8.460  -4.068  1.00  0.00     0.059 A 
ATOM     65  C   UNL     1      15.413  -9.852  -2.079  1.00  0.00     0.059 A 
ATOM     66  F   UNL     1      15.274  -8.855   0.040  1.00  0.00    -0.206 F 
ATOM     67  C   UNL     1      15.440  -9.719  -3.466  1.00  0.00     0.060 A 
BRANCH  67  68
ATOM     68  S   UNL     1      15.513 -11.177  -4.527  1.00  0.00     0.124 S 
ATOM     69  O   UNL     1      14.155 -11.214  -5.064  1.00  0.00    -0.237 OA
ATOM     70  O   UNL     1      16.560 -10.819  -5.479  1.00  0.00    -0.237 OA
ATOM     71  O   UNL     1      15.852 -12.254  -3.603  1.00  0.00    -0.744 OA
ENDBRANCH  67  68
ENDBRANCH  46  60
BRANCH  47  72
ATOM     72  C   UNL     1      14.388   0.800   3.787  1.00  0.00     0.058 A 
ATOM     73  C   UNL     1      15.121   1.972   3.550  1.00  0.00     0.135 A 
ATOM     74  C   UNL     1      13.511   0.789   4.882  1.00  0.00     0.135 A 
ATOM     75  F   UNL     1      15.975   2.032   2.516  1.00  0.00    -0.206 F 
ATOM     76  C   UNL     1      15.013   3.082   4.383  1.00  0.00     0.059 A 
ATOM     77  C   UNL     1      13.365   1.896   5.714  1.00  0.00     0.059 A 
ATOM     78  F   UNL     1      12.771  -0.300   5.141  1.00  0.00    -0.206 F 
ATOM     79  C   UNL     1      14.133   3.033   5.465  1.00  0.00     0.060 A 
BRANCH  79  80
ATOM     80  S   UNL     1      13.981   4.486   6.526  1.00  0.00     0.124 S 
ATOM     81  O   UNL     1      15.223   4.423   7.288  1.00  0.00    -0.237 OA
ATOM     82  O   UNL     1      13.884   5.569   5.553  1.00  0.00    -0.237 OA
ATOM     83  O   UNL     1      12.761   4.222   7.283  1.00  0.00    -0.744 OA
ENDBRANCH  79  80
ENDBRANCH  47  72
BRANCH  59  84
ATOM     84  C   UNL     1      19.559  -3.747   2.661  1.00  0.00     0.058 A 
ATOM     85  C   UNL     1      19.837  -4.132   3.981  1.00  0.00     0.135 A 
ATOM     86  C   UNL     1      20.643  -3.497   1.804  1.00  0.00     0.135 A 
ATOM     87  F   UNL     1      18.834  -4.377   4.839  1.00  0.00    -0.206 F 
ATOM     88  C   UNL     1      21.143  -4.246   4.441  1.00  0.00     0.059 A 
ATOM     89  C   UNL     1      21.958  -3.631   2.237  1.00  0.00     0.059 A 
ATOM     90  F   UNL     1      20.429  -3.137   0.529  1.00  0.00    -0.206 F 
ATOM     91  C   UNL     1      22.198  -3.995   3.561  1.00  0.00     0.060 A 
BRANCH  91  92
ATOM     92  S   UNL     1      23.889  -4.185   4.161  1.00  0.00     0.124 S 
ATOM     93  O   UNL     1      24.046  -2.989   4.981  1.00  0.00    -0.237 OA
ATOM     94  O   UNL     1      23.824  -5.449   4.888  1.00  0.00    -0.237 OA
ATOM     95  O   UNL     1      24.683  -4.215   2.936  1.00  0.00    -0.744 OA
ENDBRANCH  91  92
ENDBRANCH  59  84
ENDBRANCH  33  34
ENDBRANCH  25  28
ENDBRANCH  23  24
ENDBRANCH  22  23
ENDBRANCH   1  22
TORSDOF 19
