REMARK SMILES O=C(NCCCCNC(=O)[C@@H]1CCN(c2ncnc3c2CCCCC3)C1)c1ccc(-c2c3nc(c(-c4c(F)cc(S(=O)(=O)[O-])cc4F)c4ccc([nH]4)c(-c4c(F)cc(S(=O)(=O)[O-])cc4F)c4nc(c(-c5c(F)cc(S(=O)(=O)[O-])cc5F)c5ccc2[nH]5)C=C4)C=C3)cc1
REMARK SMILES IDX 6 1 5 2 4 3 3 4 1 5 2 6 27 8 28 9 92 10 29 11 91 12 30 13
REMARK SMILES IDX 31 14 32 15 85 16 33 17 90 18 84 19 86 20 34 21 89 22 83 23
REMARK SMILES IDX 82 24 35 26 69 27 48 28 68 29 49 30 52 31 67 32 87 33 50 34
REMARK SMILES IDX 51 35 66 37 88 38 53 39 36 40 37 41 46 42 38 43 39 44 45 45
REMARK SMILES IDX 47 46 40 47 41 48 42 49 43 50 44 51 70 52 71 53 80 54 72 55
REMARK SMILES IDX 73 56 79 57 81 58 74 59 75 60 76 61 77 62 78 63 54 64 55 65
REMARK SMILES IDX 64 66 56 67 57 68 63 69 65 70 58 71 59 72 60 73 61 74 62 75
REMARK SMILES IDX 7 76 8 77 9 78 10 80 11 81 12 82 26 83 13 84 14 85 15 86
REMARK SMILES IDX 16 87 20 88 17 89 19 90 18 91 21 92 22 93 23 94 25 96 24 97
REMARK H PARENT 3 7 86 25 52 36 8 79
REMARK Flexibility Score: 90.00
ROOT
ATOM      1  C   UNL     1       4.403   2.957  -2.446  1.00  0.00     0.023 C 
ENDROOT
BRANCH   1   2
ATOM      2  C   UNL     1       4.869   1.514  -2.222  1.00  0.00     0.023 C 
BRANCH   2   3
ATOM      3  C   UNL     1       4.500   0.912  -0.869  1.00  0.00     0.116 C 
BRANCH   3   4
ATOM      4  N   UNL     1       3.066   0.896  -0.628  1.00  0.00    -0.352 N 
ATOM      5  O   UNL     1       1.073   0.000  -0.083  1.00  0.00    -0.269 OA
ATOM      6  C   UNL     1       2.296  -0.103  -0.083  1.00  0.00     0.251 C 
ATOM      7  H   UNL     1       2.581   1.711  -0.892  1.00  0.00     0.163 HD
BRANCH   6   8
ATOM      8  C   UNL     1       2.944  -1.308   0.477  1.00  0.00     0.039 A 
ATOM      9  C   UNL     1       4.053  -1.195   1.319  1.00  0.00     0.014 A 
ATOM     10  C   UNL     1       2.425  -2.569   0.165  1.00  0.00     0.014 A 
ATOM     11  C   UNL     1       4.711  -2.341   1.753  1.00  0.00     0.010 A 
ATOM     12  C   UNL     1       3.045  -3.719   0.660  1.00  0.00     0.010 A 
ATOM     13  C   UNL     1       4.207  -3.614   1.439  1.00  0.00    -0.014 A 
BRANCH  13  14
ATOM     14  C   UNL     1       4.871  -4.811   2.010  1.00  0.00     0.031 A 
ATOM     15  C   UNL     1       5.609  -5.786   1.140  1.00  0.00     0.074 A 
ATOM     16  C   UNL     1       4.837  -4.984   3.346  1.00  0.00     0.049 A 
ATOM     17  N   UNL     1       6.316  -6.829   1.494  1.00  0.00    -0.248 NA
ATOM     18  C   UNL     1       5.545  -5.570  -0.313  1.00  0.00     0.031 C 
ATOM     19  C   UNL     1       4.132  -4.106   4.284  1.00  0.00     0.029 A 
ATOM     20  N   UNL     1       5.423  -5.927   4.149  1.00  0.00    -0.354 N 
ATOM     21  C   UNL     1       6.779  -7.396   0.313  1.00  0.00     0.074 A 
ATOM     22  C   UNL     1       6.243  -6.601  -0.772  1.00  0.00     0.031 C 
ATOM     23  C   UNL     1       4.375  -4.516   5.536  1.00  0.00     0.029 A 
ATOM     24  C   UNL     1       5.208  -5.714   5.490  1.00  0.00     0.049 A 
ATOM     25  H   UNL     1       5.946  -6.684   3.800  1.00  0.00     0.167 HD
ATOM     26  C   UNL     1       7.585  -8.474   0.154  1.00  0.00     0.037 A 
ATOM     27  C   UNL     1       5.635  -6.401   6.566  1.00  0.00     0.037 A 
ATOM     28  C   UNL     1       8.111  -9.256   1.244  1.00  0.00     0.049 A 
ATOM     29  C   UNL     1       6.509  -7.603   6.365  1.00  0.00     0.074 A 
ATOM     30  C   UNL     1       8.959 -10.349   1.186  1.00  0.00     0.029 A 
ATOM     31  N   UNL     1       7.835  -9.037   2.586  1.00  0.00    -0.354 N 
ATOM     32  N   UNL     1       6.968  -8.103   5.242  1.00  0.00    -0.248 NA
ATOM     33  C   UNL     1       6.919  -8.339   7.567  1.00  0.00     0.031 C 
ATOM     34  C   UNL     1       9.159 -10.816   2.490  1.00  0.00     0.029 A 
ATOM     35  C   UNL     1       8.474  -9.988   3.365  1.00  0.00     0.049 A 
ATOM     36  H   UNL     1       7.267  -8.312   2.934  1.00  0.00     0.167 HD
ATOM     37  C   UNL     1       7.731  -9.206   5.602  1.00  0.00     0.074 A 
ATOM     38  C   UNL     1       7.680  -9.294   7.048  1.00  0.00     0.031 C 
ATOM     39  C   UNL     1       8.410 -10.066   4.804  1.00  0.00     0.037 A 
BRANCH  26  40
ATOM     40  C   UNL     1       7.937  -8.880  -1.251  1.00  0.00     0.058 A 
ATOM     41  C   UNL     1       8.823  -8.125  -2.036  1.00  0.00     0.135 A 
ATOM     42  C   UNL     1       7.414 -10.059  -1.807  1.00  0.00     0.135 A 
ATOM     43  F   UNL     1       9.344  -6.984  -1.559  1.00  0.00    -0.206 F 
ATOM     44  C   UNL     1       9.153  -8.507  -3.333  1.00  0.00     0.059 A 
ATOM     45  C   UNL     1       7.749 -10.473  -3.094  1.00  0.00     0.059 A 
ATOM     46  F   UNL     1       6.565 -10.822  -1.100  1.00  0.00    -0.206 F 
ATOM     47  C   UNL     1       8.608  -9.681  -3.855  1.00  0.00     0.060 A 
BRANCH  47  48
ATOM     48  S   UNL     1       9.034 -10.153  -5.545  1.00  0.00     0.124 S 
ATOM     49  O   UNL     1       8.290  -9.164  -6.318  1.00  0.00    -0.237 OA
ATOM     50  O   UNL     1      10.486 -10.002  -5.554  1.00  0.00    -0.237 OA
ATOM     51  O   UNL     1       8.549 -11.525  -5.649  1.00  0.00    -0.744 OA
ENDBRANCH  47  48
ENDBRANCH  26  40
BRANCH  27  52
ATOM     52  C   UNL     1       5.254  -5.926   7.920  1.00  0.00     0.058 A 
ATOM     53  C   UNL     1       6.187  -5.283   8.745  1.00  0.00     0.135 A 
ATOM     54  C   UNL     1       3.927  -6.011   8.372  1.00  0.00     0.135 A 
ATOM     55  F   UNL     1       7.467  -5.181   8.357  1.00  0.00    -0.206 F 
ATOM     56  C   UNL     1       5.816  -4.724   9.963  1.00  0.00     0.059 A 
ATOM     57  C   UNL     1       3.527  -5.441   9.575  1.00  0.00     0.059 A 
ATOM     58  F   UNL     1       2.995  -6.602   7.608  1.00  0.00    -0.206 F 
ATOM     59  C   UNL     1       4.479  -4.796  10.363  1.00  0.00     0.060 A 
BRANCH  59  60
ATOM     60  S   UNL     1       3.989  -3.969  11.892  1.00  0.00     0.124 S 
ATOM     61  O   UNL     1       4.583  -4.838  12.900  1.00  0.00    -0.237 OA
ATOM     62  O   UNL     1       4.606  -2.654  11.738  1.00  0.00    -0.237 OA
ATOM     63  O   UNL     1       2.531  -3.979  11.827  1.00  0.00    -0.744 OA
ENDBRANCH  59  60
ENDBRANCH  27  52
BRANCH  39  64
ATOM     64  C   UNL     1       9.164 -11.182   5.468  1.00  0.00     0.058 A 
ATOM     65  C   UNL     1       8.503 -12.312   5.974  1.00  0.00     0.135 A 
ATOM     66  C   UNL     1      10.568 -11.165   5.513  1.00  0.00     0.135 A 
ATOM     67  F   UNL     1       7.162 -12.371   5.964  1.00  0.00    -0.206 F 
ATOM     68  C   UNL     1       9.208 -13.388   6.502  1.00  0.00     0.059 A 
ATOM     69  C   UNL     1      11.293 -12.240   6.016  1.00  0.00     0.059 A 
ATOM     70  F   UNL     1      11.246 -10.110   5.036  1.00  0.00    -0.206 F 
ATOM     71  C   UNL     1      10.604 -13.347   6.509  1.00  0.00     0.060 A 
BRANCH  71  72
ATOM     72  S   UNL     1      11.506 -14.784   7.129  1.00  0.00     0.124 S 
ATOM     73  O   UNL     1      11.259 -14.689   8.564  1.00  0.00    -0.237 OA
ATOM     74  O   UNL     1      10.842 -15.888   6.443  1.00  0.00    -0.237 OA
ATOM     75  O   UNL     1      12.881 -14.529   6.710  1.00  0.00    -0.744 OA
ENDBRANCH  71  72
ENDBRANCH  39  64
ENDBRANCH  13  14
ENDBRANCH   6   8
ENDBRANCH   3   4
ENDBRANCH   2   3
ENDBRANCH   1   2
BRANCH   1  76
ATOM     76  C   UNL     1       4.887   3.950  -1.388  1.00  0.00     0.116 C 
BRANCH  76  77
ATOM     77  N   UNL     1       6.327   4.125  -1.435  1.00  0.00    -0.356 N 
ATOM     78  C   UNL     1       7.055   5.086  -2.076  1.00  0.00     0.224 C 
ATOM     79  H   UNL     1       6.852   3.458  -0.936  1.00  0.00     0.163 HD
ATOM     80  O   UNL     1       8.283   5.014  -2.056  1.00  0.00    -0.275 OA
BRANCH  78  81
ATOM     81  C   UNL     1       6.324   6.224  -2.746  1.00  0.00     0.099 C 
ATOM     82  C   UNL     1       7.085   6.804  -3.956  1.00  0.00     0.037 C 
ATOM     83  C   UNL     1       6.167   7.394  -1.761  1.00  0.00     0.131 C 
ATOM     84  C   UNL     1       7.425   8.238  -3.562  1.00  0.00     0.119 C 
ATOM     85  N   UNL     1       6.351   8.537  -2.634  1.00  0.00    -0.355 N 
BRANCH  85  86
ATOM     86  C   UNL     1       6.162   9.826  -2.204  1.00  0.00     0.135 A 
ATOM     87  N   UNL     1       6.674  10.193  -1.019  1.00  0.00    -0.219 NA
ATOM     88  C   UNL     1       5.407  10.699  -2.988  1.00  0.00     0.016 A 
ATOM     89  C   UNL     1       6.453  11.458  -0.640  1.00  0.00     0.224 A 
ATOM     90  C   UNL     1       5.223  11.981  -2.486  1.00  0.00     0.049 A 
ATOM     91  N   UNL     1       5.754  12.381  -1.313  1.00  0.00    -0.241 NA
BRANCH  88  92
ATOM     92  C   UNL     1       4.727  10.252  -4.256  1.00  0.00     0.041 C 
BRANCH  92  93
ATOM     93  C   UNL     1       3.210  10.178  -4.089  1.00  0.00     0.005 C 
BRANCH  93  94
ATOM     94  C   UNL     1       2.519  11.528  -4.263  1.00  0.00     0.001 CG0
ATOM     95  G   UNL     1       2.879  12.583  -3.216  1.00  0.00     0.000 G0
ENDBRANCH  93  94
ENDBRANCH  92  93
ENDBRANCH  88  92
BRANCH  90  96
ATOM     96  C   UNL     1       4.356  12.985  -3.204  1.00  0.00     0.057 C 
BRANCH  96  97
ATOM     97  C   UNL     1       2.879  12.583  -3.216  1.00  0.00     0.006 CG0
ATOM     98  G   UNL     1       2.519  11.528  -4.263  1.00  0.00     0.000 G0
ENDBRANCH  96  97
ENDBRANCH  90  96
ENDBRANCH  85  86
ENDBRANCH  78  81
ENDBRANCH  76  77
ENDBRANCH   1  76
TORSDOF 15
