REMARK SMILES COc1ccc(C(=O)c2ccccc2)cc1[C@@H](C)C(=O)NCCCCNC(=O)c1ccc(-c2c3nc(c(-c4c(F)cc(S(=O)(=O)[O-])cc4F)c4ccc([nH]4)c(-c4c(F)cc(S(=O)(=O)[O-])cc4F)c4nc(c(-c5c(F)cc(S(=O)(=O)[O-])cc5F)c5ccc2[nH]5)C=C4)C=C3)cc1
REMARK SMILES IDX 23 1 22 2 21 3 19 4 20 5 17 7 18 8 16 9 3 10 4 11 5 12 15 13
REMARK SMILES IDX 6 14 2 15 1 16 7 17 8 18 9 19 10 20 14 21 11 22 13 23 12 24
REMARK SMILES IDX 24 25 25 26 26 27 27 28 28 30 29 31 30 32 94 33 31 34 93 35
REMARK SMILES IDX 32 36 33 37 34 38 87 39 35 40 92 41 86 42 88 43 36 44 91 45
REMARK SMILES IDX 85 46 84 47 37 49 71 50 50 51 70 52 51 53 54 54 69 55 89 56
REMARK SMILES IDX 52 57 53 58 68 60 90 61 55 62 38 63 39 64 48 65 40 66 41 67
REMARK SMILES IDX 47 68 49 69 42 70 43 71 44 72 45 73 46 74 72 75 73 76 82 77
REMARK SMILES IDX 74 78 75 79 81 80 83 81 76 82 77 83 78 84 79 85 80 86 56 87
REMARK SMILES IDX 57 88 66 89 58 90 59 91 65 92 67 93 60 94 61 95 62 96 63 97
REMARK SMILES IDX 64 98
REMARK H PARENT 21 6 26 29 88 48 54 59
REMARK Flexibility Score: inf
ROOT
ATOM      1  C   UNL     1       4.398   5.108   0.286  1.00  0.00     0.023 C 
ENDROOT
BRANCH   1   2
ATOM      2  C   UNL     1       5.214   3.821   0.197  1.00  0.00     0.116 C 
BRANCH   2   3
ATOM      3  N   UNL     1       4.591   2.753   0.945  1.00  0.00    -0.356 N 
ATOM      4  C   UNL     1       3.746   1.757   0.569  1.00  0.00     0.227 C 
ATOM      5  O   UNL     1       3.281   1.071   1.489  1.00  0.00    -0.274 OA
ATOM      6  H   UNL     1       4.821   2.745   1.902  1.00  0.00     0.163 HD
BRANCH   4   7
ATOM      7  C   UNL     1       3.343   1.462  -0.889  1.00  0.00     0.109 C 
ATOM      8  C   UNL     1       4.493   1.304  -1.881  1.00  0.00     0.023 C 
BRANCH   7   9
ATOM      9  C   UNL     1       2.176   2.316  -1.373  1.00  0.00     0.007 A 
ATOM     10  C   UNL     1       0.858   1.831  -1.355  1.00  0.00     0.122 A 
ATOM     11  C   UNL     1      -0.216   2.647  -1.714  1.00  0.00     0.047 A 
ATOM     12  C   UNL     1       0.001   3.978  -2.071  1.00  0.00     0.016 A 
ATOM     13  C   UNL     1       2.372   3.643  -1.812  1.00  0.00     0.020 A 
ATOM     14  C   UNL     1       1.300   4.491  -2.133  1.00  0.00     0.023 A 
BRANCH  10  15
ATOM     15  O   UNL     1       0.581   0.509  -1.127  1.00  0.00    -0.496 OA
ATOM     16  C   UNL     1       0.438   0.215   0.263  1.00  0.00     0.278 C 
ENDBRANCH  10  15
BRANCH  14  17
ATOM     17  C   UNL     1       1.457   5.944  -2.458  1.00  0.00     0.193 C 
ATOM     18  O   UNL     1       0.458   6.660  -2.509  1.00  0.00    -0.289 OA
BRANCH  17  19
ATOM     19  C   UNL     1       2.769   6.597  -2.674  1.00  0.00     0.022 A 
ATOM     20  C   UNL     1       3.020   7.805  -2.007  1.00  0.00     0.012 A 
ATOM     21  C   UNL     1       3.722   6.075  -3.555  1.00  0.00     0.012 A 
ATOM     22  C   UNL     1       4.229   8.473  -2.201  1.00  0.00     0.001 A 
ATOM     23  C   UNL     1       4.933   6.744  -3.742  1.00  0.00     0.001 A 
ATOM     24  C   UNL     1       5.179   7.944  -3.074  1.00  0.00     0.000 A 
ENDBRANCH  17  19
ENDBRANCH  14  17
ENDBRANCH   7   9
ENDBRANCH   4   7
ENDBRANCH   2   3
ENDBRANCH   1   2
BRANCH   1  25
ATOM     25  C   UNL     1       4.813   6.084   1.374  1.00  0.00     0.023 C 
BRANCH  25  26
ATOM     26  C   UNL     1       6.264   6.532   1.306  1.00  0.00     0.116 C 
BRANCH  26  27
ATOM     27  N   UNL     1       6.697   6.973  -0.015  1.00  0.00    -0.352 N 
ATOM     28  C   UNL     1       7.599   7.963  -0.318  1.00  0.00     0.251 C 
ATOM     29  H   UNL     1       6.294   6.505  -0.782  1.00  0.00     0.163 HD
ATOM     30  O   UNL     1       7.876   8.250  -1.478  1.00  0.00    -0.269 OA
BRANCH  28  31
ATOM     31  C   UNL     1       8.216   8.702   0.788  1.00  0.00     0.039 A 
ATOM     32  C   UNL     1       8.122  10.095   0.816  1.00  0.00     0.014 A 
ATOM     33  C   UNL     1       8.830   7.991   1.821  1.00  0.00     0.014 A 
ATOM     34  C   UNL     1       8.634  10.783   1.910  1.00  0.00     0.010 A 
ATOM     35  C   UNL     1       9.245   8.668   2.950  1.00  0.00     0.010 A 
ATOM     36  C   UNL     1       9.186  10.069   2.985  1.00  0.00    -0.014 A 
BRANCH  36  37
ATOM     37  C   UNL     1       9.819  10.755   4.127  1.00  0.00     0.031 A 
ATOM     38  C   UNL     1      11.296  10.562   4.337  1.00  0.00     0.074 A 
ATOM     39  C   UNL     1       9.062  11.449   4.994  1.00  0.00     0.049 A 
ATOM     40  N   UNL     1      12.041  10.908   5.350  1.00  0.00    -0.248 NA
ATOM     41  C   UNL     1      12.021   9.830   3.281  1.00  0.00     0.031 C 
ATOM     42  C   UNL     1       7.614  11.648   4.886  1.00  0.00     0.029 A 
ATOM     43  N   UNL     1       9.401  12.101   6.147  1.00  0.00    -0.354 N 
ATOM     44  C   UNL     1      13.307  10.405   5.071  1.00  0.00     0.074 A 
ATOM     45  C   UNL     1      13.216   9.675   3.828  1.00  0.00     0.031 C 
ATOM     46  C   UNL     1       7.194  12.390   5.923  1.00  0.00     0.029 A 
ATOM     47  C   UNL     1       8.332  12.683   6.786  1.00  0.00     0.049 A 
ATOM     48  H   UNL     1      10.324  12.149   6.488  1.00  0.00     0.167 HD
ATOM     49  C   UNL     1      14.448  10.567   5.779  1.00  0.00     0.037 A 
ATOM     50  C   UNL     1       8.290  13.368   7.943  1.00  0.00     0.037 A 
ATOM     51  C   UNL     1      14.511  11.342   6.989  1.00  0.00     0.049 A 
ATOM     52  C   UNL     1       9.581  13.575   8.690  1.00  0.00     0.074 A 
ATOM     53  C   UNL     1      15.609  11.626   7.779  1.00  0.00     0.029 A 
ATOM     54  N   UNL     1      13.420  11.974   7.573  1.00  0.00    -0.354 N 
ATOM     55  N   UNL     1      10.780  13.118   8.405  1.00  0.00    -0.248 NA
ATOM     56  C   UNL     1       9.521  14.398   9.902  1.00  0.00     0.031 C 
ATOM     57  C   UNL     1      15.175  12.404   8.858  1.00  0.00     0.029 A 
ATOM     58  C   UNL     1      13.817  12.648   8.713  1.00  0.00     0.049 A 
ATOM     59  H   UNL     1      12.499  11.946   7.225  1.00  0.00     0.167 HD
ATOM     60  C   UNL     1      11.624  13.627   9.384  1.00  0.00     0.074 A 
ATOM     61  C   UNL     1      10.796  14.435  10.260  1.00  0.00     0.031 C 
ATOM     62  C   UNL     1      12.959  13.450   9.549  1.00  0.00     0.037 A 
BRANCH  49  63
ATOM     63  C   UNL     1      15.696   9.907   5.257  1.00  0.00     0.058 A 
ATOM     64  C   UNL     1      16.305  10.316   4.058  1.00  0.00     0.135 A 
ATOM     65  C   UNL     1      16.296   8.852   5.963  1.00  0.00     0.135 A 
ATOM     66  F   UNL     1      15.764  11.303   3.327  1.00  0.00    -0.206 F 
ATOM     67  C   UNL     1      17.441   9.682   3.562  1.00  0.00     0.059 A 
ATOM     68  C   UNL     1      17.452   8.225   5.502  1.00  0.00     0.059 A 
ATOM     69  F   UNL     1      15.756   8.411   7.110  1.00  0.00    -0.206 F 
ATOM     70  C   UNL     1      18.008   8.638   4.292  1.00  0.00     0.060 A 
BRANCH  70  71
ATOM     71  S   UNL     1      19.486   7.833   3.639  1.00  0.00     0.124 S 
ATOM     72  O   UNL     1      18.933   7.068   2.526  1.00  0.00    -0.237 OA
ATOM     73  O   UNL     1      20.323   8.971   3.271  1.00  0.00    -0.237 OA
ATOM     74  O   UNL     1      19.969   7.042   4.766  1.00  0.00    -0.744 OA
ENDBRANCH  70  71
ENDBRANCH  49  63
BRANCH  50  75
ATOM     75  C   UNL     1       7.005  13.938   8.429  1.00  0.00     0.058 A 
ATOM     76  C   UNL     1       6.783  15.323   8.416  1.00  0.00     0.135 A 
ATOM     77  C   UNL     1       5.963  13.116   8.885  1.00  0.00     0.135 A 
ATOM     78  F   UNL     1       7.746  16.153   7.986  1.00  0.00    -0.206 F 
ATOM     79  C   UNL     1       5.585  15.876   8.857  1.00  0.00     0.059 A 
ATOM     80  C   UNL     1       4.745  13.643   9.306  1.00  0.00     0.059 A 
ATOM     81  F   UNL     1       6.114  11.782   8.895  1.00  0.00    -0.206 F 
ATOM     82  C   UNL     1       4.570  15.026   9.299  1.00  0.00     0.060 A 
BRANCH  82  83
ATOM     83  S   UNL     1       3.002  15.752   9.827  1.00  0.00     0.124 S 
ATOM     84  O   UNL     1       3.373  16.354  11.103  1.00  0.00    -0.237 OA
ATOM     85  O   UNL     1       2.715  16.683   8.741  1.00  0.00    -0.237 OA
ATOM     86  O   UNL     1       2.109  14.600   9.908  1.00  0.00    -0.744 OA
ENDBRANCH  82  83
ENDBRANCH  50  75
BRANCH  62  87
ATOM     87  C   UNL     1      13.604  14.187  10.688  1.00  0.00     0.058 A 
ATOM     88  C   UNL     1      13.402  13.808  12.023  1.00  0.00     0.135 A 
ATOM     89  C   UNL     1      14.460  15.269  10.429  1.00  0.00     0.135 A 
ATOM     90  F   UNL     1      12.589  12.781  12.320  1.00  0.00    -0.206 F 
ATOM     91  C   UNL     1      13.995  14.504  13.069  1.00  0.00     0.059 A 
ATOM     92  C   UNL     1      15.090  15.959  11.458  1.00  0.00     0.059 A 
ATOM     93  F   UNL     1      14.698  15.658   9.167  1.00  0.00    -0.206 F 
ATOM     94  C   UNL     1      14.835  15.581  12.775  1.00  0.00     0.060 A 
BRANCH  94  95
ATOM     95  S   UNL     1      15.604  16.474  14.141  1.00  0.00     0.124 S 
ATOM     96  O   UNL     1      14.480  17.249  14.652  1.00  0.00    -0.237 OA
ATOM     97  O   UNL     1      16.072  15.390  15.000  1.00  0.00    -0.237 OA
ATOM     98  O   UNL     1      16.657  17.247  13.489  1.00  0.00    -0.744 OA
ENDBRANCH  94  95
ENDBRANCH  62  87
ENDBRANCH  36  37
ENDBRANCH  28  31
ENDBRANCH  26  27
ENDBRANCH  25  26
ENDBRANCH   1  25
TORSDOF 18
