REMARK SMILES O=C(NCCCCNC(=O)c1cccn2c(=O)c3ccc(Cl)cc3nc12)c1ccc(-c2c3nc(c(-c4c(F)cc(S(=O)(=O)[O-])cc4F)c4ccc([nH]4)c(-c4c(F)cc(S(=O)(=O)[O-])cc4F)c4nc(c(-c5c(F)cc(S(=O)(=O)[O-])cc5F)c5ccc2[nH]5)C=C4)C=C3)cc1
REMARK SMILES IDX 4 1 3 2 1 3 2 4 27 6 28 7 92 8 29 9 91 10 30 11 31 12 32 13
REMARK SMILES IDX 85 14 33 15 90 16 84 17 86 18 34 19 89 20 83 21 82 22 35 24
REMARK SMILES IDX 69 25 48 26 68 27 49 28 52 29 67 30 87 31 50 32 51 33 66 35
REMARK SMILES IDX 88 36 53 37 36 38 37 39 46 40 38 41 39 42 45 43 47 44 40 45
REMARK SMILES IDX 41 46 42 47 43 48 44 49 70 50 71 51 80 52 72 53 73 54 79 55
REMARK SMILES IDX 81 56 74 57 75 58 76 59 77 60 78 61 54 62 55 63 64 64 56 65
REMARK SMILES IDX 57 66 63 67 65 68 58 69 59 70 60 71 61 72 62 73 5 74 6 75
REMARK SMILES IDX 7 76 8 77 9 78 10 80 11 81 12 82 26 83 13 84 15 85 25 86
REMARK SMILES IDX 14 87 16 88 24 89 17 90 18 91 23 92 19 93 21 94 20 95 22 96
REMARK H PARENT 3 5 86 23 52 34 8 79
REMARK Flexibility Score: inf
ROOT
ATOM      1  C   UNL     1       4.757  -1.195  -0.591  1.00  0.00     0.116 C 
ENDROOT
BRANCH   1   2
ATOM      2  N   UNL     1       3.328  -0.957  -0.712  1.00  0.00    -0.352 N 
ATOM      3  O   UNL     1       1.303  -0.133  -0.209  1.00  0.00    -0.269 OA
ATOM      4  C   UNL     1       2.523  -0.054  -0.064  1.00  0.00     0.251 C 
ATOM      5  H   UNL     1       2.865  -1.534  -1.361  1.00  0.00     0.163 HD
BRANCH   4   6
ATOM      6  C   UNL     1       3.097   0.996   0.809  1.00  0.00     0.039 A 
ATOM      7  C   UNL     1       2.407   1.355   1.972  1.00  0.00     0.014 A 
ATOM      8  C   UNL     1       4.273   1.669   0.469  1.00  0.00     0.014 A 
ATOM      9  C   UNL     1       2.905   2.370   2.793  1.00  0.00     0.010 A 
ATOM     10  C   UNL     1       4.823   2.605   1.341  1.00  0.00     0.010 A 
ATOM     11  C   UNL     1       4.120   3.002   2.486  1.00  0.00    -0.014 A 
BRANCH  11  12
ATOM     12  C   UNL     1       4.606   4.157   3.286  1.00  0.00     0.031 A 
ATOM     13  C   UNL     1       4.711   5.514   2.638  1.00  0.00     0.074 A 
ATOM     14  C   UNL     1       4.955   3.996   4.577  1.00  0.00     0.049 A 
ATOM     15  N   UNL     1       5.111   6.648   3.153  1.00  0.00    -0.248 NA
ATOM     16  C   UNL     1       4.346   5.604   1.213  1.00  0.00     0.031 C 
ATOM     17  C   UNL     1       4.934   2.728   5.307  1.00  0.00     0.029 A 
ATOM     18  N   UNL     1       5.386   4.909   5.507  1.00  0.00    -0.354 N 
ATOM     19  C   UNL     1       5.057   7.573   2.116  1.00  0.00     0.074 A 
ATOM     20  C   UNL     1       4.664   6.856   0.926  1.00  0.00     0.031 C 
ATOM     21  C   UNL     1       5.289   2.951   6.583  1.00  0.00     0.029 A 
ATOM     22  C   UNL     1       5.593   4.370   6.755  1.00  0.00     0.049 A 
ATOM     23  H   UNL     1       5.532   5.860   5.300  1.00  0.00     0.167 HD
ATOM     24  C   UNL     1       5.270   8.909   2.157  1.00  0.00     0.037 A 
ATOM     25  C   UNL     1       5.975   4.955   7.908  1.00  0.00     0.037 A 
ATOM     26  C   UNL     1       5.611   9.628   3.353  1.00  0.00     0.049 A 
ATOM     27  C   UNL     1       6.228   6.439   7.931  1.00  0.00     0.074 A 
ATOM     28  C   UNL     1       5.777  10.991   3.518  1.00  0.00     0.029 A 
ATOM     29  N   UNL     1       5.838   9.040   4.589  1.00  0.00    -0.354 N 
ATOM     30  N   UNL     1       6.102   7.310   6.958  1.00  0.00    -0.248 NA
ATOM     31  C   UNL     1       6.677   7.020   9.204  1.00  0.00     0.031 C 
ATOM     32  C   UNL     1       6.148  11.223   4.846  1.00  0.00     0.029 A 
ATOM     33  C   UNL     1       6.174  10.010   5.517  1.00  0.00     0.049 A 
ATOM     34  H   UNL     1       5.769   8.077   4.777  1.00  0.00     0.167 HD
ATOM     35  C   UNL     1       6.449   8.542   7.501  1.00  0.00     0.074 A 
ATOM     36  C   UNL     1       6.773   8.307   8.894  1.00  0.00     0.031 C 
ATOM     37  C   UNL     1       6.499   9.755   6.899  1.00  0.00     0.037 A 
BRANCH  24  38
ATOM     38  C   UNL     1       5.116   9.674   0.871  1.00  0.00     0.058 A 
ATOM     39  C   UNL     1       3.859   9.855   0.271  1.00  0.00     0.135 A 
ATOM     40  C   UNL     1       6.234  10.234   0.232  1.00  0.00     0.135 A 
ATOM     41  F   UNL     1       2.760   9.327   0.831  1.00  0.00    -0.206 F 
ATOM     42  C   UNL     1       3.721  10.524  -0.941  1.00  0.00     0.059 A 
ATOM     43  C   UNL     1       6.115  10.934  -0.966  1.00  0.00     0.059 A 
ATOM     44  F   UNL     1       7.458  10.092   0.763  1.00  0.00    -0.206 F 
ATOM     45  C   UNL     1       4.856  11.055  -1.554  1.00  0.00     0.060 A 
BRANCH  45  46
ATOM     46  S   UNL     1       4.660  11.897  -3.138  1.00  0.00     0.124 S 
ATOM     47  O   UNL     1       4.386  10.775  -4.031  1.00  0.00    -0.237 OA
ATOM     48  O   UNL     1       3.535  12.790  -2.879  1.00  0.00    -0.237 OA
ATOM     49  O   UNL     1       5.947  12.556  -3.337  1.00  0.00    -0.744 OA
ENDBRANCH  45  46
ENDBRANCH  24  38
BRANCH  25  50
ATOM     50  C   UNL     1       6.095   4.134   9.141  1.00  0.00     0.058 A 
ATOM     51  C   UNL     1       5.141   4.235  10.164  1.00  0.00     0.135 A 
ATOM     52  C   UNL     1       7.123   3.192   9.297  1.00  0.00     0.135 A 
ATOM     53  F   UNL     1       4.144   5.128  10.066  1.00  0.00    -0.206 F 
ATOM     54  C   UNL     1       5.196   3.426  11.295  1.00  0.00     0.059 A 
ATOM     55  C   UNL     1       7.189   2.357  10.410  1.00  0.00     0.059 A 
ATOM     56  F   UNL     1       8.055   3.049   8.341  1.00  0.00    -0.206 F 
ATOM     57  C   UNL     1       6.218   2.481  11.403  1.00  0.00     0.060 A 
BRANCH  57  58
ATOM     58  S   UNL     1       6.223   1.377  12.833  1.00  0.00     0.124 S 
ATOM     59  O   UNL     1       6.566   2.295  13.913  1.00  0.00    -0.237 OA
ATOM     60  O   UNL     1       4.853   0.874  12.832  1.00  0.00    -0.237 OA
ATOM     61  O   UNL     1       7.245   0.392  12.493  1.00  0.00    -0.744 OA
ENDBRANCH  57  58
ENDBRANCH  25  50
BRANCH  37  62
ATOM     62  C   UNL     1       6.937  10.933   7.722  1.00  0.00     0.058 A 
ATOM     63  C   UNL     1       8.289  11.133   8.036  1.00  0.00     0.135 A 
ATOM     64  C   UNL     1       6.021  11.935   8.084  1.00  0.00     0.135 A 
ATOM     65  F   UNL     1       9.201  10.200   7.719  1.00  0.00    -0.206 F 
ATOM     66  C   UNL     1       8.722  12.291   8.671  1.00  0.00     0.059 A 
ATOM     67  C   UNL     1       6.435  13.112   8.699  1.00  0.00     0.059 A 
ATOM     68  F   UNL     1       4.717  11.794   7.797  1.00  0.00    -0.206 F 
ATOM     69  C   UNL     1       7.790  13.282   8.985  1.00  0.00     0.060 A 
BRANCH  69  70
ATOM     70  S   UNL     1       8.384  14.819   9.722  1.00  0.00     0.124 S 
ATOM     71  O   UNL     1       8.774  14.376  11.056  1.00  0.00    -0.237 OA
ATOM     72  O   UNL     1       9.480  15.187   8.830  1.00  0.00    -0.237 OA
ATOM     73  O   UNL     1       7.219  15.697   9.668  1.00  0.00    -0.744 OA
ENDBRANCH  69  70
ENDBRANCH  37  62
ENDBRANCH  11  12
ENDBRANCH   4   6
ENDBRANCH   1   2
BRANCH   1  74
ATOM     74  C   UNL     1       5.086  -2.622  -0.171  1.00  0.00     0.023 C 
BRANCH  74  75
ATOM     75  C   UNL     1       4.583  -3.715  -1.111  1.00  0.00     0.023 C 
BRANCH  75  76
ATOM     76  C   UNL     1       4.954  -3.535  -2.578  1.00  0.00     0.116 C 
BRANCH  76  77
ATOM     77  N   UNL     1       6.390  -3.516  -2.809  1.00  0.00    -0.352 N 
ATOM     78  C   UNL     1       7.137  -4.276  -3.669  1.00  0.00     0.255 C 
ATOM     79  H   UNL     1       6.896  -2.865  -2.271  1.00  0.00     0.163 HD
ATOM     80  O   UNL     1       8.351  -4.104  -3.751  1.00  0.00    -0.269 OA
BRANCH  78  81
ATOM     81  C   UNL     1       6.435  -5.270  -4.510  1.00  0.00     0.083 A 
ATOM     82  C   UNL     1       5.560  -4.818  -5.424  1.00  0.00     0.019 A 
ATOM     83  C   UNL     1       6.695  -6.740  -4.392  1.00  0.00     0.153 A 
ATOM     84  C   UNL     1       4.763  -5.734  -6.190  1.00  0.00     0.019 A 
ATOM     85  N   UNL     1       5.880  -7.578  -5.164  1.00  0.00    -0.267 N 
ATOM     86  N   UNL     1       7.620  -7.186  -3.600  1.00  0.00    -0.229 NA
ATOM     87  C   UNL     1       4.924  -7.051  -6.027  1.00  0.00     0.096 A 
ATOM     88  C   UNL     1       6.000  -8.968  -5.083  1.00  0.00     0.265 A 
ATOM     89  C   UNL     1       7.867  -8.559  -3.543  1.00  0.00     0.080 A 
ATOM     90  O   UNL     1       5.275  -9.772  -5.670  1.00  0.00    -0.268 OA
ATOM     91  C   UNL     1       7.092  -9.482  -4.239  1.00  0.00     0.066 A 
ATOM     92  C   UNL     1       8.942  -9.020  -2.776  1.00  0.00     0.049 A 
ATOM     93  C   UNL     1       7.363 -10.855  -4.169  1.00  0.00     0.017 A 
ATOM     94  C   UNL     1       9.225 -10.384  -2.712  1.00  0.00     0.043 A 
ATOM     95  C   UNL     1       8.437 -11.306  -3.401  1.00  0.00     0.021 A 
ATOM     96  Cl  UNL     1      10.562 -10.941  -1.783  1.00  0.00    -0.084 Cl
ENDBRANCH  78  81
ENDBRANCH  76  77
ENDBRANCH  75  76
ENDBRANCH  74  75
ENDBRANCH   1  74
TORSDOF 14
