REMARK SMILES CC[C@@](C)([NH2+]Cc1ccc(C(N)=O)cc1F)C(=O)NCCCCNC(=O)c1ccc(-c2c3nc(c(-c4c(F)cc(S(=O)(=O)[O-])cc4F)c4ccc([nH]4)c(-c4c(F)cc(S(=O)(=O)[O-])cc4F)c4nc(c(-c5c(F)cc(S(=O)(=O)[O-])cc5F)c5ccc2[nH]5)C=C4)C=C3)cc1
REMARK SMILES IDX 21 1 20 2 19 3 17 4 18 5 3 7 4 8 2 9 1 10 5 11 6 14 7 15
REMARK SMILES IDX 8 16 15 17 9 18 14 19 16 20 10 21 11 22 12 23 13 24 22 27
REMARK SMILES IDX 23 28 24 29 25 30 26 32 27 33 28 34 92 35 29 36 91 37 30 38
REMARK SMILES IDX 31 39 32 40 85 41 33 42 90 43 84 44 86 45 34 46 89 47 83 48
REMARK SMILES IDX 82 49 35 51 69 52 48 53 68 54 49 55 52 56 67 57 87 58 50 59
REMARK SMILES IDX 51 60 66 62 88 63 53 64 36 65 37 66 46 67 38 68 39 69 45 70
REMARK SMILES IDX 47 71 40 72 41 73 42 74 43 75 44 76 70 77 71 78 80 79 72 80
REMARK SMILES IDX 73 81 79 82 81 83 74 84 75 85 76 86 77 87 78 88 54 89 55 90
REMARK SMILES IDX 64 91 56 92 57 93 63 94 65 95 58 96 59 97 60 98 61 99 62 100
REMARK H PARENT 19 6 5 12 5 13 12 25 12 26 24 31 86 50 52 61
REMARK Flexibility Score: inf
ROOT
ATOM      1  C   UNL     1       3.372   5.721   0.923  1.00  0.00     0.023 C 
ENDROOT
BRANCH   1   2
ATOM      2  C   UNL     1       3.132   4.576  -0.060  1.00  0.00     0.116 C 
BRANCH   2   3
ATOM      3  N   UNL     1       3.387   3.311   0.582  1.00  0.00    -0.351 N 
ATOM      4  C   UNL     1       2.542   2.353   1.054  1.00  0.00     0.281 C 
ATOM      5  O   UNL     1       3.072   1.525   1.806  1.00  0.00    -0.268 OA
ATOM      6  H   UNL     1       4.342   3.102   0.700  1.00  0.00     0.163 HD
BRANCH   4   7
ATOM      7  C   UNL     1       1.037   2.225   0.612  1.00  0.00     0.172 C 
ATOM      8  C   UNL     1       0.925   2.227  -0.922  1.00  0.00     0.090 C 
BRANCH   7   9
ATOM      9  C   UNL     1       0.551   0.801   1.110  1.00  0.00     0.075 C 
ATOM     10  C   UNL     1       1.081  -0.409   0.342  1.00  0.00     0.011 C 
ENDBRANCH   7   9
BRANCH   7  11
ATOM     11  N   UNL     1       0.114   3.122   1.372  1.00  0.00    -0.330 N 
ATOM     12  H   UNL     1       0.350   2.980   2.354  1.00  0.00     0.347 HD
ATOM     13  H   UNL     1      -0.779   2.832   0.974  1.00  0.00     0.347 HD
BRANCH  11  14
ATOM     14  C   UNL     1       0.002   4.568   1.211  1.00  0.00     0.301 C 
BRANCH  14  15
ATOM     15  C   UNL     1      -0.476   5.087  -0.125  1.00  0.00     0.042 A 
ATOM     16  C   UNL     1      -1.325   4.357  -0.963  1.00  0.00     0.013 A 
ATOM     17  C   UNL     1      -0.038   6.340  -0.577  1.00  0.00     0.132 A 
ATOM     18  C   UNL     1      -1.516   4.751  -2.291  1.00  0.00     0.014 A 
ATOM     19  C   UNL     1      -0.231   6.754  -1.889  1.00  0.00     0.053 A 
ATOM     20  F   UNL     1       0.637   7.147   0.251  1.00  0.00    -0.206 F 
ATOM     21  C   UNL     1      -0.915   5.920  -2.773  1.00  0.00     0.042 A 
BRANCH  21  22
ATOM     22  C   UNL     1      -0.965   6.299  -4.207  1.00  0.00     0.248 C 
ATOM     23  N   UNL     1      -1.133   5.295  -5.119  1.00  0.00    -0.366 N 
ATOM     24  O   UNL     1      -0.809   7.458  -4.571  1.00  0.00    -0.270 OA
ATOM     25  H   UNL     1      -1.257   4.367  -4.812  1.00  0.00     0.159 HD
ATOM     26  H   UNL     1      -1.131   5.498  -6.082  1.00  0.00     0.159 HD
ENDBRANCH  21  22
ENDBRANCH  14  15
ENDBRANCH  11  14
ENDBRANCH   7  11
ENDBRANCH   4   7
ENDBRANCH   2   3
ENDBRANCH   1   2
BRANCH   1  27
ATOM     27  C   UNL     1       4.804   6.224   0.962  1.00  0.00     0.023 C 
BRANCH  27  28
ATOM     28  C   UNL     1       5.293   6.803  -0.356  1.00  0.00     0.116 C 
BRANCH  28  29
ATOM     29  N   UNL     1       4.478   7.903  -0.861  1.00  0.00    -0.352 N 
ATOM     30  C   UNL     1       4.912   9.065  -1.460  1.00  0.00     0.251 C 
ATOM     31  H   UNL     1       3.503   7.803  -0.762  1.00  0.00     0.163 HD
ATOM     32  O   UNL     1       4.127   9.958  -1.754  1.00  0.00    -0.269 OA
BRANCH  30  33
ATOM     33  C   UNL     1       6.361   9.223  -1.689  1.00  0.00     0.039 A 
ATOM     34  C   UNL     1       7.013  10.336  -1.162  1.00  0.00     0.014 A 
ATOM     35  C   UNL     1       7.081   8.191  -2.298  1.00  0.00     0.014 A 
ATOM     36  C   UNL     1       8.408  10.373  -1.169  1.00  0.00     0.010 A 
ATOM     37  C   UNL     1       8.465   8.182  -2.204  1.00  0.00     0.010 A 
ATOM     38  C   UNL     1       9.144   9.274  -1.643  1.00  0.00    -0.014 A 
BRANCH  38  39
ATOM     39  C   UNL     1      10.627   9.245  -1.569  1.00  0.00     0.031 A 
ATOM     40  C   UNL     1      11.432   9.127  -2.834  1.00  0.00     0.074 A 
ATOM     41  C   UNL     1      11.242   9.265  -0.369  1.00  0.00     0.049 A 
ATOM     42  N   UNL     1      12.726   9.016  -2.980  1.00  0.00    -0.248 NA
ATOM     43  C   UNL     1      10.683   9.096  -4.103  1.00  0.00     0.031 C 
ATOM     44  C   UNL     1      10.567   9.327   0.930  1.00  0.00     0.029 A 
ATOM     45  N   UNL     1      12.576   9.236  -0.043  1.00  0.00    -0.354 N 
ATOM     46  C   UNL     1      12.942   8.896  -4.347  1.00  0.00     0.074 A 
ATOM     47  C   UNL     1      11.646   8.873  -4.984  1.00  0.00     0.031 C 
ATOM     48  C   UNL     1      11.488   9.373   1.906  1.00  0.00     0.029 A 
ATOM     49  C   UNL     1      12.819   9.298   1.310  1.00  0.00     0.049 A 
ATOM     50  H   UNL     1      13.292   9.177  -0.716  1.00  0.00     0.167 HD
ATOM     51  C   UNL     1      14.117   8.849  -5.016  1.00  0.00     0.037 A 
ATOM     52  C   UNL     1      13.981   9.293   1.993  1.00  0.00     0.037 A 
ATOM     53  C   UNL     1      15.404   8.909  -4.377  1.00  0.00     0.049 A 
ATOM     54  C   UNL     1      15.275   9.223   1.227  1.00  0.00     0.074 A 
ATOM     55  C   UNL     1      16.654   8.920  -4.968  1.00  0.00     0.029 A 
ATOM     56  N   UNL     1      15.607   8.973  -3.006  1.00  0.00    -0.354 N 
ATOM     57  N   UNL     1      15.462   9.165  -0.070  1.00  0.00    -0.248 NA
ATOM     58  C   UNL     1      16.517   9.219   2.014  1.00  0.00     0.031 C 
ATOM     59  C   UNL     1      17.615   8.938  -3.954  1.00  0.00     0.029 A 
ATOM     60  C   UNL     1      16.964   9.000  -2.732  1.00  0.00     0.049 A 
ATOM     61  H   UNL     1      14.893   8.996  -2.329  1.00  0.00     0.167 HD
ATOM     62  C   UNL     1      16.840   9.143  -0.257  1.00  0.00     0.074 A 
ATOM     63  C   UNL     1      17.440   9.207   1.060  1.00  0.00     0.031 C 
ATOM     64  C   UNL     1      17.544   9.074  -1.413  1.00  0.00     0.037 A 
BRANCH  51  65
ATOM     65  C   UNL     1      14.071   8.753  -6.516  1.00  0.00     0.058 A 
ATOM     66  C   UNL     1      14.525   7.599  -7.173  1.00  0.00     0.135 A 
ATOM     67  C   UNL     1      13.640   9.831  -7.308  1.00  0.00     0.135 A 
ATOM     68  F   UNL     1      14.939   6.535  -6.466  1.00  0.00    -0.206 F 
ATOM     69  C   UNL     1      14.575   7.525  -8.561  1.00  0.00     0.059 A 
ATOM     70  C   UNL     1      13.652   9.767  -8.697  1.00  0.00     0.059 A 
ATOM     71  F   UNL     1      13.171  10.949  -6.730  1.00  0.00    -0.206 F 
ATOM     72  C   UNL     1      14.138   8.615  -9.315  1.00  0.00     0.060 A 
BRANCH  72  73
ATOM     73  S   UNL     1      14.197   8.496 -11.114  1.00  0.00     0.124 S 
ATOM     74  O   UNL     1      15.633   8.488 -11.368  1.00  0.00    -0.237 OA
ATOM     75  O   UNL     1      13.498   7.238 -11.359  1.00  0.00    -0.237 OA
ATOM     76  O   UNL     1      13.487   9.693 -11.556  1.00  0.00    -0.744 OA
ENDBRANCH  72  73
ENDBRANCH  51  65
BRANCH  52  77
ATOM     77  C   UNL     1      13.971   9.393   3.479  1.00  0.00     0.058 A 
ATOM     78  C   UNL     1      13.478   8.350   4.279  1.00  0.00     0.135 A 
ATOM     79  C   UNL     1      14.429  10.550   4.127  1.00  0.00     0.135 A 
ATOM     80  F   UNL     1      13.018   7.224   3.712  1.00  0.00    -0.206 F 
ATOM     81  C   UNL     1      13.416   8.461   5.664  1.00  0.00     0.059 A 
ATOM     82  C   UNL     1      14.404  10.673   5.514  1.00  0.00     0.059 A 
ATOM     83  F   UNL     1      14.921  11.570   3.407  1.00  0.00    -0.206 F 
ATOM     84  C   UNL     1      13.880   9.628   6.273  1.00  0.00     0.060 A 
BRANCH  84  85
ATOM     85  S   UNL     1      13.782   9.753   8.072  1.00  0.00     0.124 S 
ATOM     86  O   UNL     1      12.339   9.813   8.282  1.00  0.00    -0.237 OA
ATOM     87  O   UNL     1      14.435   8.521   8.499  1.00  0.00    -0.237 OA
ATOM     88  O   UNL     1      14.511  10.983   8.366  1.00  0.00    -0.744 OA
ENDBRANCH  84  85
ENDBRANCH  52  77
BRANCH  64  89
ATOM     89  C   UNL     1      19.045   9.088  -1.325  1.00  0.00     0.058 A 
ATOM     90  C   UNL     1      19.774  10.190  -1.802  1.00  0.00     0.135 A 
ATOM     91  C   UNL     1      19.765   7.976  -0.863  1.00  0.00     0.135 A 
ATOM     92  F   UNL     1      19.134  11.277  -2.262  1.00  0.00    -0.206 F 
ATOM     93  C   UNL     1      21.163  10.179  -1.847  1.00  0.00     0.059 A 
ATOM     94  C   UNL     1      21.157   7.955  -0.870  1.00  0.00     0.059 A 
ATOM     95  F   UNL     1      19.116   6.901  -0.389  1.00  0.00    -0.206 F 
ATOM     96  C   UNL     1      21.846   9.054  -1.382  1.00  0.00     0.060 A 
BRANCH  96  97
ATOM     97  S   UNL     1      23.650   9.058  -1.450  1.00  0.00     0.124 S 
ATOM     98  O   UNL     1      23.896   8.996  -2.886  1.00  0.00    -0.237 OA
ATOM     99  O   UNL     1      23.978  10.325  -0.803  1.00  0.00    -0.237 OA
ATOM    100  O   UNL     1      24.020   7.863  -0.697  1.00  0.00    -0.744 OA
ENDBRANCH  96  97
ENDBRANCH  64  89
ENDBRANCH  38  39
ENDBRANCH  30  33
ENDBRANCH  28  29
ENDBRANCH  27  28
ENDBRANCH   1  27
TORSDOF 19
