REMARK SMILES O=C(Cc1ccn[nH]1)Nc1sc2c(c1C(=O)NCCCCNC(=O)c1ccc(-c3c4nc(c(-c5c(F)cc(S(=O)(=O)[O-])cc5F)c5ccc([nH]5)c(-c5c(F)cc(S(=O)(=O)[O-])cc5F)c5nc(c(-c6c(F)cc(S(=O)(=O)[O-])cc6F)c6ccc3[nH]6)C=C5)C=C4)cc1)CCC2
REMARK SMILES IDX 19 1 18 2 17 3 15 4 16 5 14 7 10 8 11 9 12 10 13 11 93 12
REMARK SMILES IDX 91 13 92 14 9 15 1 16 2 17 3 19 4 20 5 21 8 22 6 23 7 24
REMARK SMILES IDX 20 26 21 27 22 28 23 29 24 31 25 32 26 33 90 34 27 35 89 36
REMARK SMILES IDX 28 37 29 38 30 39 83 40 31 41 88 42 82 43 84 44 32 45 87 46
REMARK SMILES IDX 81 47 80 48 33 50 67 51 46 52 66 53 47 54 50 55 65 56 85 57
REMARK SMILES IDX 48 58 49 59 64 61 86 62 51 63 34 64 35 65 44 66 36 67 37 68
REMARK SMILES IDX 43 69 45 70 38 71 39 72 40 73 41 74 42 75 68 76 69 77 78 78
REMARK SMILES IDX 70 79 71 80 77 81 79 82 72 83 73 84 74 85 75 86 76 87 52 88
REMARK SMILES IDX 53 89 62 90 54 91 55 92 61 93 63 94 56 95 57 96 58 97 59 98
REMARK SMILES IDX 60 99
REMARK H PARENT 17 6 9 18 8 25 22 30 84 49 50 60
REMARK Flexibility Score: inf
ROOT
ATOM      1  C   UNL     1      -2.480   3.080   2.885  1.00  0.00     0.023 C 
ENDROOT
BRANCH   1   2
ATOM      2  C   UNL     1      -1.191   2.748   3.635  1.00  0.00     0.116 C 
BRANCH   2   3
ATOM      3  N   UNL     1      -0.477   1.647   3.052  1.00  0.00    -0.352 N 
ATOM      4  C   UNL     1       0.643   1.540   2.276  1.00  0.00     0.254 C 
ATOM      5  O   UNL     1       1.114   0.395   2.287  1.00  0.00    -0.269 OA
ATOM      6  H   UNL     1      -0.886   0.775   3.257  1.00  0.00     0.163 HD
BRANCH   4   7
ATOM      7  C   UNL     1       1.306   2.643   1.539  1.00  0.00     0.078 A 
ATOM      8  C   UNL     1       2.448   2.362   0.772  1.00  0.00     0.108 A 
ATOM      9  S   UNL     1       3.329   3.723   0.239  1.00  0.00    -0.122 S 
ATOM     10  C   UNL     1       2.098   4.711   0.758  1.00  0.00     0.011 A 
ATOM     11  C   UNL     1       1.089   4.069   1.440  1.00  0.00    -0.019 A 
ATOM     12  C   UNL     1       1.960   6.182   0.643  1.00  0.00     0.047 C 
ATOM     13  C   UNL     1       0.119   5.103   1.906  1.00  0.00     0.038 C 
ATOM     14  C   UNL     1       0.491   6.371   1.083  1.00  0.00     0.010 C 
BRANCH   8  15
ATOM     15  N   UNL     1       3.046   1.190   0.366  1.00  0.00    -0.317 N 
ATOM     16  O   UNL     1       1.140   0.252  -0.577  1.00  0.00    -0.274 OA
ATOM     17  C   UNL     1       2.305   0.160  -0.195  1.00  0.00     0.230 C 
ATOM     18  H   UNL     1       4.018   1.081   0.476  1.00  0.00     0.170 HD
BRANCH  17  19
ATOM     19  C   UNL     1       3.145  -1.075  -0.469  1.00  0.00     0.155 C 
BRANCH  19  20
ATOM     20  C   UNL     1       3.965  -0.934  -1.715  1.00  0.00     0.044 A 
ATOM     21  C   UNL     1       4.704  -1.869  -2.411  1.00  0.00     0.045 A 
ATOM     22  N   UNL     1       4.124   0.240  -2.409  1.00  0.00    -0.282 N 
ATOM     23  C   UNL     1       5.299  -1.152  -3.463  1.00  0.00     0.135 A 
ATOM     24  N   UNL     1       4.961   0.138  -3.454  1.00  0.00    -0.184 NA
ATOM     25  H   UNL     1       3.667   1.077  -2.164  1.00  0.00     0.190 HD
ENDBRANCH  19  20
ENDBRANCH  17  19
ENDBRANCH   8  15
ENDBRANCH   4   7
ENDBRANCH   2   3
ENDBRANCH   1   2
BRANCH   1  26
ATOM     26  C   UNL     1      -3.693   2.214   3.256  1.00  0.00     0.023 C 
BRANCH  26  27
ATOM     27  C   UNL     1      -4.199   2.383   4.689  1.00  0.00     0.116 C 
BRANCH  27  28
ATOM     28  N   UNL     1      -4.622   3.751   4.988  1.00  0.00    -0.352 N 
ATOM     29  C   UNL     1      -4.838   4.330   6.228  1.00  0.00     0.251 C 
ATOM     30  H   UNL     1      -4.774   4.334   4.209  1.00  0.00     0.163 HD
ATOM     31  O   UNL     1      -5.583   5.289   6.346  1.00  0.00    -0.269 OA
BRANCH  29  32
ATOM     32  C   UNL     1      -4.115   3.791   7.396  1.00  0.00     0.039 A 
ATOM     33  C   UNL     1      -4.719   3.667   8.651  1.00  0.00     0.014 A 
ATOM     34  C   UNL     1      -2.790   3.408   7.204  1.00  0.00     0.014 A 
ATOM     35  C   UNL     1      -3.995   3.083   9.691  1.00  0.00     0.010 A 
ATOM     36  C   UNL     1      -2.128   2.711   8.181  1.00  0.00     0.010 A 
ATOM     37  C   UNL     1      -2.702   2.598   9.441  1.00  0.00    -0.014 A 
BRANCH  37  38
ATOM     38  C   UNL     1      -1.972   1.815  10.433  1.00  0.00     0.031 A 
ATOM     39  C   UNL     1      -2.639   0.525  10.764  1.00  0.00     0.074 A 
ATOM     40  C   UNL     1      -0.690   2.090  10.765  1.00  0.00     0.049 A 
ATOM     41  N   UNL     1      -3.251   0.202  11.855  1.00  0.00    -0.248 NA
ATOM     42  C   UNL     1      -2.838  -0.448   9.673  1.00  0.00     0.031 C 
ATOM     43  C   UNL     1       0.182   3.130  10.206  1.00  0.00     0.029 A 
ATOM     44  N   UNL     1       0.158   1.420  11.594  1.00  0.00    -0.354 N 
ATOM     45  C   UNL     1      -3.650  -1.122  11.679  1.00  0.00     0.074 A 
ATOM     46  C   UNL     1      -3.628  -1.348  10.262  1.00  0.00     0.031 C 
ATOM     47  C   UNL     1       1.469   2.873  10.531  1.00  0.00     0.029 A 
ATOM     48  C   UNL     1       1.508   1.746  11.445  1.00  0.00     0.049 A 
ATOM     49  H   UNL     1      -0.158   0.756  12.248  1.00  0.00     0.167 HD
ATOM     50  C   UNL     1      -3.650  -2.000  12.725  1.00  0.00     0.037 A 
ATOM     51  C   UNL     1       2.566   1.100  12.009  1.00  0.00     0.037 A 
ATOM     52  C   UNL     1      -3.545  -1.283  13.976  1.00  0.00     0.049 A 
ATOM     53  C   UNL     1       2.018   0.289  13.130  1.00  0.00     0.074 A 
ATOM     54  C   UNL     1      -4.277  -0.285  14.592  1.00  0.00     0.029 A 
ATOM     55  N   UNL     1      -2.319  -1.288  14.600  1.00  0.00    -0.354 N 
ATOM     56  N   UNL     1       1.494   0.803  14.209  1.00  0.00    -0.248 NA
ATOM     57  C   UNL     1       1.615  -1.076  12.828  1.00  0.00     0.031 C 
ATOM     58  C   UNL     1      -3.303   0.565  15.194  1.00  0.00     0.029 A 
ATOM     59  C   UNL     1      -2.046  -0.009  15.003  1.00  0.00     0.049 A 
ATOM     60  H   UNL     1      -1.741  -2.074  14.732  1.00  0.00     0.167 HD
ATOM     61  C   UNL     1       0.383   0.014  14.472  1.00  0.00     0.074 A 
ATOM     62  C   UNL     1       0.549  -1.169  13.628  1.00  0.00     0.031 C 
ATOM     63  C   UNL     1      -0.708   0.528  15.112  1.00  0.00     0.037 A 
BRANCH  50  64
ATOM     64  C   UNL     1      -3.315  -3.481  12.627  1.00  0.00     0.058 A 
ATOM     65  C   UNL     1      -3.355  -4.260  13.806  1.00  0.00     0.135 A 
ATOM     66  C   UNL     1      -2.700  -4.111  11.521  1.00  0.00     0.135 A 
ATOM     67  F   UNL     1      -3.932  -3.787  14.922  1.00  0.00    -0.206 F 
ATOM     68  C   UNL     1      -2.737  -5.507  13.909  1.00  0.00     0.059 A 
ATOM     69  C   UNL     1      -2.123  -5.375  11.588  1.00  0.00     0.059 A 
ATOM     70  F   UNL     1      -2.544  -3.515  10.336  1.00  0.00    -0.206 F 
ATOM     71  C   UNL     1      -2.107  -6.048  12.796  1.00  0.00     0.060 A 
BRANCH  71  72
ATOM     72  S   UNL     1      -1.240  -7.618  12.942  1.00  0.00     0.124 S 
ATOM     73  O   UNL     1      -0.119  -7.251  13.798  1.00  0.00    -0.237 OA
ATOM     74  O   UNL     1      -2.260  -8.467  13.548  1.00  0.00    -0.237 OA
ATOM     75  O   UNL     1      -0.902  -7.943  11.559  1.00  0.00    -0.744 OA
ENDBRANCH  71  72
ENDBRANCH  50  64
BRANCH  51  76
ATOM     76  C   UNL     1       3.941   0.863  11.478  1.00  0.00     0.058 A 
ATOM     77  C   UNL     1       4.949   0.312  12.296  1.00  0.00     0.135 A 
ATOM     78  C   UNL     1       4.214   0.874  10.096  1.00  0.00     0.135 A 
ATOM     79  F   UNL     1       4.781   0.254  13.626  1.00  0.00    -0.206 F 
ATOM     80  C   UNL     1       6.115  -0.263  11.773  1.00  0.00     0.059 A 
ATOM     81  C   UNL     1       5.373   0.315   9.552  1.00  0.00     0.059 A 
ATOM     82  F   UNL     1       3.315   1.343   9.219  1.00  0.00    -0.206 F 
ATOM     83  C   UNL     1       6.304  -0.283  10.393  1.00  0.00     0.060 A 
BRANCH  83  84
ATOM     84  S   UNL     1       7.696  -1.209   9.696  1.00  0.00     0.124 S 
ATOM     85  O   UNL     1       8.836  -0.388  10.090  1.00  0.00    -0.237 OA
ATOM     86  O   UNL     1       7.578  -2.499  10.367  1.00  0.00    -0.237 OA
ATOM     87  O   UNL     1       7.407  -1.228   8.264  1.00  0.00    -0.744 OA
ENDBRANCH  83  84
ENDBRANCH  51  76
BRANCH  63  88
ATOM     88  C   UNL     1      -0.575   1.847  15.828  1.00  0.00     0.058 A 
ATOM     89  C   UNL     1      -0.299   3.081  15.213  1.00  0.00     0.135 A 
ATOM     90  C   UNL     1      -0.916   1.871  17.189  1.00  0.00     0.135 A 
ATOM     91  F   UNL     1      -0.060   3.160  13.896  1.00  0.00    -0.206 F 
ATOM     92  C   UNL     1      -0.330   4.280  15.931  1.00  0.00     0.059 A 
ATOM     93  C   UNL     1      -0.987   3.054  17.914  1.00  0.00     0.059 A 
ATOM     94  F   UNL     1      -1.245   0.731  17.819  1.00  0.00    -0.206 F 
ATOM     95  C   UNL     1      -0.680   4.255  17.282  1.00  0.00     0.060 A 
BRANCH  95  96
ATOM     96  S   UNL     1      -0.795   5.807  18.199  1.00  0.00     0.124 S 
ATOM     97  O   UNL     1       0.605   6.206  18.302  1.00  0.00    -0.237 OA
ATOM     98  O   UNL     1      -1.628   6.630  17.327  1.00  0.00    -0.237 OA
ATOM     99  O   UNL     1      -1.425   5.415  19.457  1.00  0.00    -0.744 OA
ENDBRANCH  95  96
ENDBRANCH  63  88
ENDBRANCH  37  38
ENDBRANCH  29  32
ENDBRANCH  27  28
ENDBRANCH  26  27
ENDBRANCH   1  26
TORSDOF 17
