REMARK SMILES CSc1nc(N)cc(Nc2cccc(C(=O)NCCCCNC(=O)c3ccc(-c4c5nc(c(-c6c(F)cc(S(=O)(=O)[O-])cc6F)c6ccc([nH]6)c(-c6c(F)cc(S(=O)(=O)[O-])cc6F)c6nc(c(-c7c(F)cc(S(=O)(=O)[O-])cc7F)c7ccc4[nH]7)C=C6)C=C5)cc3)c2)n1
REMARK SMILES IDX 19 1 18 2 17 3 15 4 16 5 14 7 10 8 11 9 91 10 12 11 13 12
REMARK SMILES IDX 9 13 8 15 3 16 4 17 92 18 5 19 7 20 2 21 1 22 6 23 20 26
REMARK SMILES IDX 21 27 22 28 23 29 24 31 25 32 26 33 90 34 27 35 89 36 28 37
REMARK SMILES IDX 29 38 30 39 83 40 31 41 88 42 82 43 84 44 32 45 87 46 81 47
REMARK SMILES IDX 80 48 33 50 67 51 46 52 66 53 47 54 50 55 65 56 85 57 48 58
REMARK SMILES IDX 49 59 64 61 86 62 51 63 34 64 35 65 44 66 36 67 37 68 43 69
REMARK SMILES IDX 45 70 38 71 39 72 40 73 41 74 42 75 68 76 69 77 78 78 70 79
REMARK SMILES IDX 71 80 77 81 79 82 72 83 73 84 74 85 75 86 76 87 52 88 53 89
REMARK SMILES IDX 62 90 54 91 55 92 61 93 63 94 56 95 57 96 58 97 59 98 60 99
REMARK H PARENT 17 6 9 14 6 24 6 25 22 30 84 49 50 60
REMARK Flexibility Score: inf
ROOT
ATOM      1  C   UNL     1      -3.938   5.828   2.730  1.00  0.00     0.023 C 
ENDROOT
BRANCH   1   2
ATOM      2  C   UNL     1      -2.723   5.529   1.859  1.00  0.00     0.116 C 
BRANCH   2   3
ATOM      3  N   UNL     1      -2.670   6.298   0.624  1.00  0.00    -0.352 N 
ATOM      4  C   UNL     1      -1.648   7.031   0.061  1.00  0.00     0.251 C 
ATOM      5  O   UNL     1      -1.855   7.636  -0.989  1.00  0.00    -0.269 OA
ATOM      6  H   UNL     1      -3.506   6.293   0.103  1.00  0.00     0.163 HD
BRANCH   4   7
ATOM      7  C   UNL     1      -0.322   7.163   0.719  1.00  0.00     0.041 A 
ATOM      8  C   UNL     1       1.429   6.292   2.181  1.00  0.00     0.040 A 
ATOM      9  C   UNL     1       2.060   7.542   2.124  1.00  0.00     0.026 A 
ATOM     10  C   UNL     1       0.276   6.107   1.409  1.00  0.00     0.040 A 
ATOM     11  C   UNL     1       1.544   8.572   1.330  1.00  0.00     0.003 A 
ATOM     12  C   UNL     1       0.346   8.388   0.640  1.00  0.00     0.014 A 
BRANCH   8  13
ATOM     13  N   UNL     1       1.951   5.281   3.011  1.00  0.00    -0.340 N 
ATOM     14  H   UNL     1       2.541   5.593   3.734  1.00  0.00     0.168 HD
BRANCH  13  15
ATOM     15  C   UNL     1       1.749   3.889   2.955  1.00  0.00     0.137 A 
ATOM     16  C   UNL     1       1.048   2.013   1.836  1.00  0.00     0.191 A 
ATOM     17  N   UNL     1       1.345   1.188   2.846  1.00  0.00    -0.206 NA
ATOM     18  N   UNL     1       1.232   3.336   1.851  1.00  0.00    -0.205 NA
ATOM     19  C   UNL     1       1.821   1.760   3.954  1.00  0.00     0.130 A 
ATOM     20  C   UNL     1       2.044   3.116   4.059  1.00  0.00     0.093 A 
BRANCH  16  21
ATOM     21  S   UNL     1       0.291   1.360   0.371  1.00  0.00    -0.090 SA
ATOM     22  C   UNL     1       1.148  -0.224   0.276  1.00  0.00     0.094 C 
ENDBRANCH  16  21
BRANCH  19  23
ATOM     23  N   UNL     1       2.145   0.907   4.995  1.00  0.00    -0.383 N 
ATOM     24  H   UNL     1       1.981  -0.060   4.908  1.00  0.00     0.158 HD
ATOM     25  H   UNL     1       2.540   1.267   5.822  1.00  0.00     0.158 HD
ENDBRANCH  19  23
ENDBRANCH  13  15
ENDBRANCH   8  13
ENDBRANCH   4   7
ENDBRANCH   2   3
ENDBRANCH   1   2
BRANCH   1  26
ATOM     26  C   UNL     1      -5.298   5.481   2.138  1.00  0.00     0.023 C 
BRANCH  26  27
ATOM     27  C   UNL     1      -5.455   4.064   1.599  1.00  0.00     0.116 C 
BRANCH  27  28
ATOM     28  N   UNL     1      -5.173   3.025   2.580  1.00  0.00    -0.352 N 
ATOM     29  C   UNL     1      -5.935   1.943   2.962  1.00  0.00     0.251 C 
ATOM     30  H   UNL     1      -4.306   3.109   3.039  1.00  0.00     0.163 HD
ATOM     31  O   UNL     1      -5.555   1.220   3.874  1.00  0.00    -0.269 OA
BRANCH  29  32
ATOM     32  C   UNL     1      -7.235   1.683   2.301  1.00  0.00     0.039 A 
ATOM     33  C   UNL     1      -8.353   1.417   3.097  1.00  0.00     0.014 A 
ATOM     34  C   UNL     1      -7.362   1.732   0.911  1.00  0.00     0.014 A 
ATOM     35  C   UNL     1      -9.614   1.301   2.504  1.00  0.00     0.010 A 
ATOM     36  C   UNL     1      -8.627   1.693   0.330  1.00  0.00     0.010 A 
ATOM     37  C   UNL     1      -9.769   1.490   1.121  1.00  0.00    -0.014 A 
BRANCH  37  38
ATOM     38  C   UNL     1     -11.112   1.495   0.484  1.00  0.00     0.031 A 
ATOM     39  C   UNL     1     -11.461   0.456  -0.548  1.00  0.00     0.074 A 
ATOM     40  C   UNL     1     -11.991   2.474   0.781  1.00  0.00     0.049 A 
ATOM     41  N   UNL     1     -12.533   0.359  -1.292  1.00  0.00    -0.248 NA
ATOM     42  C   UNL     1     -10.463  -0.597  -0.793  1.00  0.00     0.031 C 
ATOM     43  C   UNL     1     -11.756   3.568   1.728  1.00  0.00     0.029 A 
ATOM     44  N   UNL     1     -13.256   2.720   0.305  1.00  0.00    -0.354 N 
ATOM     45  C   UNL     1     -12.336  -0.758  -2.095  1.00  0.00     0.074 A 
ATOM     46  C   UNL     1     -11.019  -1.272  -1.789  1.00  0.00     0.031 C 
ATOM     47  C   UNL     1     -12.844   4.355   1.774  1.00  0.00     0.029 A 
ATOM     48  C   UNL     1     -13.839   3.847   0.836  1.00  0.00     0.049 A 
ATOM     49  H   UNL     1     -13.703   2.142  -0.354  1.00  0.00     0.167 HD
ATOM     50  C   UNL     1     -13.186  -1.323  -2.986  1.00  0.00     0.037 A 
ATOM     51  C   UNL     1     -15.036   4.414   0.586  1.00  0.00     0.037 A 
ATOM     52  C   UNL     1     -14.505  -0.824  -3.274  1.00  0.00     0.049 A 
ATOM     53  C   UNL     1     -15.960   3.768  -0.413  1.00  0.00     0.074 A 
ATOM     54  C   UNL     1     -15.448  -1.337  -4.147  1.00  0.00     0.029 A 
ATOM     55  N   UNL     1     -15.072   0.296  -2.686  1.00  0.00    -0.354 N 
ATOM     56  N   UNL     1     -15.768   2.691  -1.137  1.00  0.00    -0.248 NA
ATOM     57  C   UNL     1     -17.265   4.411  -0.626  1.00  0.00     0.031 C 
ATOM     58  C   UNL     1     -16.579  -0.515  -4.104  1.00  0.00     0.029 A 
ATOM     59  C   UNL     1     -16.353   0.489  -3.176  1.00  0.00     0.049 A 
ATOM     60  H   UNL     1     -14.630   0.869  -2.019  1.00  0.00     0.167 HD
ATOM     61  C   UNL     1     -16.938   2.511  -1.866  1.00  0.00     0.074 A 
ATOM     62  C   UNL     1     -17.837   3.582  -1.488  1.00  0.00     0.031 C 
ATOM     63  C   UNL     1     -17.242   1.547  -2.769  1.00  0.00     0.037 A 
BRANCH  50  64
ATOM     64  C   UNL     1     -12.726  -2.568  -3.692  1.00  0.00     0.058 A 
ATOM     65  C   UNL     1     -12.625  -3.793  -3.014  1.00  0.00     0.135 A 
ATOM     66  C   UNL     1     -12.428  -2.552  -5.064  1.00  0.00     0.135 A 
ATOM     67  F   UNL     1     -12.882  -3.860  -1.697  1.00  0.00    -0.206 F 
ATOM     68  C   UNL     1     -12.227  -4.955  -3.664  1.00  0.00     0.059 A 
ATOM     69  C   UNL     1     -12.051  -3.709  -5.742  1.00  0.00     0.059 A 
ATOM     70  F   UNL     1     -12.506  -1.407  -5.760  1.00  0.00    -0.206 F 
ATOM     71  C   UNL     1     -11.943  -4.903  -5.030  1.00  0.00     0.060 A 
BRANCH  71  72
ATOM     72  S   UNL     1     -11.447  -6.426  -5.863  1.00  0.00     0.124 S 
ATOM     73  O   UNL     1     -10.085  -6.598  -5.368  1.00  0.00    -0.237 OA
ATOM     74  O   UNL     1     -12.427  -7.387  -5.367  1.00  0.00    -0.237 OA
ATOM     75  O   UNL     1     -11.563  -6.092  -7.279  1.00  0.00    -0.744 OA
ENDBRANCH  71  72
ENDBRANCH  50  64
BRANCH  51  76
ATOM     76  C   UNL     1     -15.445   5.657   1.294  1.00  0.00     0.058 A 
ATOM     77  C   UNL     1     -16.477   5.638   2.245  1.00  0.00     0.135 A 
ATOM     78  C   UNL     1     -14.841   6.891   1.010  1.00  0.00     0.135 A 
ATOM     79  F   UNL     1     -17.088   4.483   2.548  1.00  0.00    -0.206 F 
ATOM     80  C   UNL     1     -16.921   6.803   2.863  1.00  0.00     0.059 A 
ATOM     81  C   UNL     1     -15.250   8.066   1.634  1.00  0.00     0.059 A 
ATOM     82  F   UNL     1     -13.836   6.960   0.123  1.00  0.00    -0.206 F 
ATOM     83  C   UNL     1     -16.305   8.014   2.545  1.00  0.00     0.060 A 
BRANCH  83  84
ATOM     84  S   UNL     1     -16.883   9.523   3.352  1.00  0.00     0.124 S 
ATOM     85  O   UNL     1     -18.113   9.794   2.618  1.00  0.00    -0.237 OA
ATOM     86  O   UNL     1     -17.048   9.090   4.737  1.00  0.00    -0.237 OA
ATOM     87  O   UNL     1     -15.789  10.463   3.124  1.00  0.00    -0.744 OA
ENDBRANCH  83  84
ENDBRANCH  51  76
BRANCH  63  88
ATOM     88  C   UNL     1     -18.616   1.576  -3.375  1.00  0.00     0.058 A 
ATOM     89  C   UNL     1     -18.973   2.521  -4.350  1.00  0.00     0.135 A 
ATOM     90  C   UNL     1     -19.572   0.615  -3.010  1.00  0.00     0.135 A 
ATOM     91  F   UNL     1     -18.097   3.465  -4.728  1.00  0.00    -0.206 F 
ATOM     92  C   UNL     1     -20.238   2.524  -4.927  1.00  0.00     0.059 A 
ATOM     93  C   UNL     1     -20.835   0.585  -3.592  1.00  0.00     0.059 A 
ATOM     94  F   UNL     1     -19.277  -0.316  -2.089  1.00  0.00    -0.206 F 
ATOM     95  C   UNL     1     -21.163   1.551  -4.542  1.00  0.00     0.060 A 
BRANCH  95  96
ATOM     96  S   UNL     1     -22.790   1.543  -5.324  1.00  0.00     0.124 S 
ATOM     97  O   UNL     1     -23.446   2.658  -4.650  1.00  0.00    -0.237 OA
ATOM     98  O   UNL     1     -22.463   1.756  -6.731  1.00  0.00    -0.237 OA
ATOM     99  O   UNL     1     -23.314   0.219  -5.003  1.00  0.00    -0.744 OA
ENDBRANCH  95  96
ENDBRANCH  63  88
ENDBRANCH  37  38
ENDBRANCH  29  32
ENDBRANCH  27  28
ENDBRANCH  26  27
ENDBRANCH   1  26
TORSDOF 18
