REMARK SMILES O=C(NCCCCNC(=O)[C@@H]1CC[C@H](CNC(=O)c2cccn2C2CC2)O1)c1ccc(-c2c3nc(c(-c4c(F)cc(S(=O)(=O)[O-])cc4F)c4ccc([nH]4)c(-c4c(F)cc(S(=O)(=O)[O-])cc4F)c4nc(c(-c5c(F)cc(S(=O)(=O)[O-])cc5F)c5ccc2[nH]5)C=C4)C=C3)cc1
REMARK SMILES IDX 6 1 5 2 4 3 3 4 1 5 2 6 28 8 29 9 93 10 30 11 92 12 31 13
REMARK SMILES IDX 32 14 33 15 86 16 34 17 91 18 85 19 87 20 35 21 90 22 84 23
REMARK SMILES IDX 83 24 36 26 70 27 49 28 69 29 50 30 53 31 68 32 88 33 51 34
REMARK SMILES IDX 52 35 67 37 89 38 54 39 37 40 38 41 47 42 39 43 40 44 46 45
REMARK SMILES IDX 48 46 41 47 42 48 43 49 44 50 45 51 71 52 72 53 81 54 73 55
REMARK SMILES IDX 74 56 80 57 82 58 75 59 76 60 77 61 78 62 79 63 55 64 56 65
REMARK SMILES IDX 65 66 57 67 58 68 64 69 66 70 59 71 60 72 61 73 62 74 63 75
REMARK SMILES IDX 7 76 8 77 9 78 10 80 11 81 12 82 27 83 13 84 14 85 15 86
REMARK SMILES IDX 16 87 17 88 18 90 19 91 20 92 23 93 21 94 22 95 24 96 25 97
REMARK SMILES IDX 26 98
REMARK H PARENT 3 7 87 25 53 36 8 79 16 89
REMARK Flexibility Score: inf
ROOT
ATOM      1  C   UNL     1       4.286  -2.477  -2.672  1.00  0.00     0.023 C 
ENDROOT
BRANCH   1   2
ATOM      2  C   UNL     1       4.875  -1.831  -1.419  1.00  0.00     0.023 C 
BRANCH   2   3
ATOM      3  C   UNL     1       4.667  -0.319  -1.310  1.00  0.00     0.116 C 
BRANCH   3   4
ATOM      4  N   UNL     1       3.288   0.122  -1.194  1.00  0.00    -0.352 N 
ATOM      5  O   UNL     1       1.258   0.523  -0.350  1.00  0.00    -0.269 OA
ATOM      6  C   UNL     1       2.341  -0.042  -0.211  1.00  0.00     0.251 C 
ATOM      7  H   UNL     1       2.969   0.638  -1.969  1.00  0.00     0.163 HD
BRANCH   6   8
ATOM      8  C   UNL     1       2.560  -0.933   0.953  1.00  0.00     0.039 A 
ATOM      9  C   UNL     1       3.802  -1.070   1.575  1.00  0.00     0.014 A 
ATOM     10  C   UNL     1       1.461  -1.661   1.436  1.00  0.00     0.014 A 
ATOM     11  C   UNL     1       3.987  -2.022   2.565  1.00  0.00     0.010 A 
ATOM     12  C   UNL     1       1.625  -2.575   2.477  1.00  0.00     0.010 A 
ATOM     13  C   UNL     1       2.898  -2.767   3.027  1.00  0.00    -0.014 A 
BRANCH  13  14
ATOM     14  C   UNL     1       3.115  -3.564   4.254  1.00  0.00     0.031 A 
ATOM     15  C   UNL     1       3.205  -2.670   5.500  1.00  0.00     0.074 A 
ATOM     16  C   UNL     1       3.286  -4.911   4.113  1.00  0.00     0.049 A 
ATOM     17  N   UNL     1       3.862  -2.846   6.606  1.00  0.00    -0.248 NA
ATOM     18  C   UNL     1       2.560  -1.326   5.466  1.00  0.00     0.031 C 
ATOM     19  C   UNL     1       3.215  -5.628   2.824  1.00  0.00     0.029 A 
ATOM     20  N   UNL     1       3.560  -5.944   4.990  1.00  0.00    -0.354 N 
ATOM     21  C   UNL     1       3.530  -1.773   7.461  1.00  0.00     0.074 A 
ATOM     22  C   UNL     1       2.859  -0.800   6.655  1.00  0.00     0.031 C 
ATOM     23  C   UNL     1       3.497  -6.938   2.989  1.00  0.00     0.029 A 
ATOM     24  C   UNL     1       3.755  -7.216   4.389  1.00  0.00     0.049 A 
ATOM     25  H   UNL     1       3.615  -5.807   5.963  1.00  0.00     0.167 HD
ATOM     26  C   UNL     1       3.685  -1.811   8.816  1.00  0.00     0.037 A 
ATOM     27  C   UNL     1       4.120  -8.404   4.968  1.00  0.00     0.037 A 
ATOM     28  C   UNL     1       4.204  -3.074   9.219  1.00  0.00     0.049 A 
ATOM     29  C   UNL     1       4.075  -8.175   6.424  1.00  0.00     0.074 A 
ATOM     30  C   UNL     1       5.446  -3.642   9.141  1.00  0.00     0.029 A 
ATOM     31  N   UNL     1       3.283  -4.048   9.528  1.00  0.00    -0.354 N 
ATOM     32  N   UNL     1       2.989  -7.990   7.114  1.00  0.00    -0.248 NA
ATOM     33  C   UNL     1       5.337  -8.101   7.171  1.00  0.00     0.031 C 
ATOM     34  C   UNL     1       5.186  -5.020   9.006  1.00  0.00     0.029 A 
ATOM     35  C   UNL     1       3.810  -5.253   9.133  1.00  0.00     0.049 A 
ATOM     36  H   UNL     1       2.406  -3.907   9.954  1.00  0.00     0.167 HD
ATOM     37  C   UNL     1       3.462  -7.451   8.286  1.00  0.00     0.074 A 
ATOM     38  C   UNL     1       4.855  -7.829   8.381  1.00  0.00     0.031 C 
ATOM     39  C   UNL     1       2.894  -6.315   8.765  1.00  0.00     0.037 A 
BRANCH  26  40
ATOM     40  C   UNL     1       3.183  -0.911   9.911  1.00  0.00     0.058 A 
ATOM     41  C   UNL     1       3.859  -0.948  11.156  1.00  0.00     0.135 A 
ATOM     42  C   UNL     1       1.913  -0.318   9.912  1.00  0.00     0.135 A 
ATOM     43  F   UNL     1       5.107  -1.440  11.244  1.00  0.00    -0.206 F 
ATOM     44  C   UNL     1       3.254  -0.566  12.347  1.00  0.00     0.059 A 
ATOM     45  C   UNL     1       1.302   0.115  11.093  1.00  0.00     0.059 A 
ATOM     46  F   UNL     1       1.193  -0.224   8.786  1.00  0.00    -0.206 F 
ATOM     47  C   UNL     1       1.956  -0.074  12.310  1.00  0.00     0.060 A 
BRANCH  47  48
ATOM     48  S   UNL     1       1.119   0.254  13.876  1.00  0.00     0.124 S 
ATOM     49  O   UNL     1       0.803  -1.095  14.330  1.00  0.00    -0.237 OA
ATOM     50  O   UNL     1       2.149   0.953  14.639  1.00  0.00    -0.237 OA
ATOM     51  O   UNL     1      -0.021   1.076  13.481  1.00  0.00    -0.744 OA
ENDBRANCH  47  48
ENDBRANCH  26  40
BRANCH  27  52
ATOM     52  C   UNL     1       4.614  -9.773   4.526  1.00  0.00     0.058 A 
ATOM     53  C   UNL     1       4.904 -10.165   3.212  1.00  0.00     0.135 A 
ATOM     54  C   UNL     1       5.006 -10.730   5.511  1.00  0.00     0.135 A 
ATOM     55  F   UNL     1       4.503  -9.441   2.162  1.00  0.00    -0.206 F 
ATOM     56  C   UNL     1       5.656 -11.316   2.912  1.00  0.00     0.059 A 
ATOM     57  C   UNL     1       5.803 -11.841   5.246  1.00  0.00     0.059 A 
ATOM     58  F   UNL     1       4.666 -10.592   6.801  1.00  0.00    -0.206 F 
ATOM     59  C   UNL     1       6.155 -12.112   3.939  1.00  0.00     0.060 A 
BRANCH  59  60
ATOM     60  S   UNL     1       7.370 -13.405   3.601  1.00  0.00     0.124 S 
ATOM     61  O   UNL     1       6.521 -14.571   3.387  1.00  0.00    -0.237 OA
ATOM     62  O   UNL     1       8.059 -12.895   2.420  1.00  0.00    -0.237 OA
ATOM     63  O   UNL     1       8.175 -13.423   4.820  1.00  0.00    -0.744 OA
ENDBRANCH  59  60
ENDBRANCH  27  52
BRANCH  39  64
ATOM     64  C   UNL     1       1.422  -6.159   8.418  1.00  0.00     0.058 A 
ATOM     65  C   UNL     1       0.478  -7.092   8.880  1.00  0.00     0.135 A 
ATOM     66  C   UNL     1       0.921  -5.163   7.563  1.00  0.00     0.135 A 
ATOM     67  F   UNL     1       0.863  -8.081   9.703  1.00  0.00    -0.206 F 
ATOM     68  C   UNL     1      -0.873  -7.033   8.517  1.00  0.00     0.059 A 
ATOM     69  C   UNL     1      -0.421  -5.070   7.192  1.00  0.00     0.059 A 
ATOM     70  F   UNL     1       1.737  -4.243   7.055  1.00  0.00    -0.206 F 
ATOM     71  C   UNL     1      -1.316  -6.015   7.673  1.00  0.00     0.060 A 
BRANCH  71  72
ATOM     72  S   UNL     1      -3.066  -5.934   7.228  1.00  0.00     0.124 S 
ATOM     73  O   UNL     1      -3.278  -7.211   6.555  1.00  0.00    -0.237 OA
ATOM     74  O   UNL     1      -3.706  -5.792   8.531  1.00  0.00    -0.237 OA
ATOM     75  O   UNL     1      -3.150  -4.759   6.363  1.00  0.00    -0.744 OA
ENDBRANCH  71  72
ENDBRANCH  39  64
ENDBRANCH  13  14
ENDBRANCH   6   8
ENDBRANCH   3   4
ENDBRANCH   2   3
ENDBRANCH   1   2
BRANCH   1  76
ATOM     76  C   UNL     1       4.711  -1.830  -3.984  1.00  0.00     0.116 C 
BRANCH  76  77
ATOM     77  N   UNL     1       6.153  -1.839  -4.160  1.00  0.00    -0.354 N 
ATOM     78  C   UNL     1       6.902  -2.243  -5.226  1.00  0.00     0.249 C 
ATOM     79  H   UNL     1       6.669  -1.501  -3.392  1.00  0.00     0.163 HD
ATOM     80  O   UNL     1       8.123  -2.069  -5.179  1.00  0.00    -0.272 OA
BRANCH  78  81
ATOM     81  C   UNL     1       6.226  -2.898  -6.435  1.00  0.00     0.207 C 
ATOM     82  C   UNL     1       6.663  -4.349  -6.571  1.00  0.00     0.045 C 
ATOM     83  O   UNL     1       6.585  -2.226  -7.656  1.00  0.00    -0.363 OA
ATOM     84  C   UNL     1       6.653  -4.544  -8.066  1.00  0.00     0.037 C 
ATOM     85  C   UNL     1       7.116  -3.190  -8.581  1.00  0.00     0.138 C 
BRANCH  85  86
ATOM     86  C   UNL     1       8.642  -3.026  -8.637  1.00  0.00     0.148 C 
BRANCH  86  87
ATOM     87  N   UNL     1       9.255  -3.852  -9.666  1.00  0.00    -0.348 N 
ATOM     88  C   UNL     1       9.904  -3.494 -10.820  1.00  0.00     0.268 C 
ATOM     89  H   UNL     1       9.195  -4.822  -9.508  1.00  0.00     0.163 HD
ATOM     90  O   UNL     1      10.327  -4.403 -11.531  1.00  0.00    -0.268 OA
BRANCH  88  91
ATOM     91  C   UNL     1      10.129  -2.098 -11.097  1.00  0.00     0.107 A 
ATOM     92  C   UNL     1      10.804  -1.199 -10.273  1.00  0.00     0.033 A 
ATOM     93  N   UNL     1       9.855  -1.410 -12.263  1.00  0.00    -0.340 N 
ATOM     94  C   UNL     1      10.911   0.040 -10.937  1.00  0.00     0.020 A 
ATOM     95  C   UNL     1      10.336  -0.125 -12.172  1.00  0.00     0.086 A 
BRANCH  93  96
ATOM     96  C   UNL     1       9.096  -1.801 -13.441  1.00  0.00     0.087 C 
ATOM     97  C   UNL     1       8.770  -3.198 -13.914  1.00  0.00     0.027 C 
ATOM     98  C   UNL     1       7.692  -2.364 -13.312  1.00  0.00     0.027 C 
ENDBRANCH  93  96
ENDBRANCH  88  91
ENDBRANCH  86  87
ENDBRANCH  85  86
ENDBRANCH  78  81
ENDBRANCH  76  77
ENDBRANCH   1  76
TORSDOF 18
