REMARK SMILES O=C(NCCCCNC(=O)[C@H]1[C@@H]2C[C@H]3C[C@@H](C2)C[C@]1(n1ncc(N2CCN(c4ccc(F)cc4)CC2)c(Cl)c1=O)C3)c1ccc(-c2c3nc(c(-c4c(F)cc(S(=O)(=O)[O-])cc4F)c4ccc([nH]4)c(-c4c(F)cc(S(=O)(=O)[O-])cc4F)c4nc(c(-c5c(F)cc(S(=O)(=O)[O-])cc5F)c5ccc2[nH]5)C=C4)C=C3)cc1
REMARK SMILES IDX 5 1 4 2 3 3 1 4 2 5 42 7 43 8 107 9 44 10 106 11 45 12 46 13
REMARK SMILES IDX 47 14 100 15 48 16 105 17 99 18 101 19 49 20 104 21 98 22
REMARK SMILES IDX 97 23 50 25 84 26 63 27 83 28 64 29 67 30 82 31 102 32 65 33
REMARK SMILES IDX 66 34 81 36 103 37 68 38 51 39 52 40 61 41 53 42 54 43 60 44
REMARK SMILES IDX 62 45 55 46 56 47 57 48 58 49 59 50 85 51 86 52 95 53 87 54
REMARK SMILES IDX 88 55 94 56 96 57 89 58 90 59 91 60 92 61 93 62 69 63 70 64
REMARK SMILES IDX 79 65 71 66 72 67 78 68 80 69 73 70 74 71 75 72 76 73 77 74
REMARK SMILES IDX 6 75 7 76 8 77 9 78 10 80 11 81 12 82 19 83 17 84 13 85
REMARK SMILES IDX 41 86 18 87 16 88 14 89 15 90 20 91 21 92 39 93 22 94 37 95
REMARK SMILES IDX 40 96 23 97 38 98 24 99 25 100 36 101 26 102 35 103 27 104
REMARK SMILES IDX 28 105 29 106 34 107 30 108 33 109 31 110 32 111
REMARK H PARENT 3 6 101 24 67 35 8 79
REMARK Flexibility Score: inf
ROOT
ATOM      1  C   UNL     1      11.731   5.269   4.818  1.00  0.00     0.023 C 
ENDROOT
BRANCH   1   2
ATOM      2  C   UNL     1      11.450   5.078   6.314  1.00  0.00     0.116 C 
BRANCH   2   3
ATOM      3  N   UNL     1      11.567   3.709   6.793  1.00  0.00    -0.352 N 
ATOM      4  O   UNL     1      12.329   1.954   7.971  1.00  0.00    -0.269 OA
ATOM      5  C   UNL     1      12.357   3.168   7.784  1.00  0.00     0.251 C 
ATOM      6  H   UNL     1      10.984   3.062   6.333  1.00  0.00     0.163 HD
BRANCH   5   7
ATOM      7  C   UNL     1      13.255   4.010   8.613  1.00  0.00     0.039 A 
ATOM      8  C   UNL     1      14.568   3.574   8.833  1.00  0.00     0.014 A 
ATOM      9  C   UNL     1      12.808   5.180   9.231  1.00  0.00     0.014 A 
ATOM     10  C   UNL     1      15.443   4.337   9.617  1.00  0.00     0.010 A 
ATOM     11  C   UNL     1      13.698   5.968   9.970  1.00  0.00     0.010 A 
ATOM     12  C   UNL     1      15.026   5.555  10.175  1.00  0.00    -0.014 A 
BRANCH  12  13
ATOM     13  C   UNL     1      15.951   6.383  11.003  1.00  0.00     0.031 A 
ATOM     14  C   UNL     1      15.672   6.587  12.472  1.00  0.00     0.074 A 
ATOM     15  C   UNL     1      17.032   6.965  10.443  1.00  0.00     0.049 A 
ATOM     16  N   UNL     1      16.313   7.328  13.341  1.00  0.00    -0.248 NA
ATOM     17  C   UNL     1      14.515   5.872  13.036  1.00  0.00     0.031 C 
ATOM     18  C   UNL     1      17.421   6.850   9.036  1.00  0.00     0.029 A 
ATOM     19  N   UNL     1      18.004   7.771  10.986  1.00  0.00    -0.354 N 
ATOM     20  C   UNL     1      15.641   7.168  14.548  1.00  0.00     0.074 A 
ATOM     21  C   UNL     1      14.511   6.303  14.290  1.00  0.00     0.031 C 
ATOM     22  C   UNL     1      18.559   7.535   8.835  1.00  0.00     0.029 A 
ATOM     23  C   UNL     1      18.962   8.176  10.084  1.00  0.00     0.049 A 
ATOM     24  H   UNL     1      18.015   8.035  11.935  1.00  0.00     0.167 HD
ATOM     25  C   UNL     1      15.953   7.670  15.767  1.00  0.00     0.037 A 
ATOM     26  C   UNL     1      20.035   8.978  10.240  1.00  0.00     0.037 A 
ATOM     27  C   UNL     1      17.092   8.512  16.032  1.00  0.00     0.049 A 
ATOM     28  C   UNL     1      20.324   9.570  11.597  1.00  0.00     0.074 A 
ATOM     29  C   UNL     1      17.489   9.062  17.239  1.00  0.00     0.029 A 
ATOM     30  N   UNL     1      18.023   8.912  15.086  1.00  0.00    -0.354 N 
ATOM     31  N   UNL     1      19.677   9.402  12.726  1.00  0.00    -0.248 NA
ATOM     32  C   UNL     1      21.489  10.461  11.702  1.00  0.00     0.031 C 
ATOM     33  C   UNL     1      18.638   9.826  17.016  1.00  0.00     0.029 A 
ATOM     34  C   UNL     1      18.987   9.707  15.681  1.00  0.00     0.049 A 
ATOM     35  H   UNL     1      18.001   8.666  14.133  1.00  0.00     0.167 HD
ATOM     36  C   UNL     1      20.382  10.129  13.680  1.00  0.00     0.074 A 
ATOM     37  C   UNL     1      21.507  10.734  13.000  1.00  0.00     0.031 C 
ATOM     38  C   UNL     1      20.121  10.281  15.002  1.00  0.00     0.037 A 
BRANCH  25  39
ATOM     39  C   UNL     1      15.072   7.306  16.931  1.00  0.00     0.058 A 
ATOM     40  C   UNL     1      15.102   6.019  17.491  1.00  0.00     0.135 A 
ATOM     41  C   UNL     1      14.278   8.277  17.562  1.00  0.00     0.135 A 
ATOM     42  F   UNL     1      15.829   5.049  16.917  1.00  0.00    -0.206 F 
ATOM     43  C   UNL     1      14.376   5.708  18.636  1.00  0.00     0.059 A 
ATOM     44  C   UNL     1      13.564   7.995  18.724  1.00  0.00     0.059 A 
ATOM     45  F   UNL     1      14.211   9.523  17.066  1.00  0.00    -0.206 F 
ATOM     46  C   UNL     1      13.621   6.707  19.253  1.00  0.00     0.060 A 
BRANCH  46  47
ATOM     47  S   UNL     1      12.738   6.296  20.774  1.00  0.00     0.124 S 
ATOM     48  O   UNL     1      11.721   5.372  20.281  1.00  0.00    -0.237 OA
ATOM     49  O   UNL     1      13.791   5.702  21.591  1.00  0.00    -0.237 OA
ATOM     50  O   UNL     1      12.239   7.587  21.238  1.00  0.00    -0.744 OA
ENDBRANCH  46  47
ENDBRANCH  25  39
BRANCH  26  51
ATOM     51  C   UNL     1      20.939   9.267   9.091  1.00  0.00     0.058 A 
ATOM     52  C   UNL     1      22.264   8.802   9.081  1.00  0.00     0.135 A 
ATOM     53  C   UNL     1      20.515  10.041   7.999  1.00  0.00     0.135 A 
ATOM     54  F   UNL     1      22.724   8.066  10.105  1.00  0.00    -0.206 F 
ATOM     55  C   UNL     1      23.143   9.119   8.050  1.00  0.00     0.059 A 
ATOM     56  C   UNL     1      21.366  10.345   6.941  1.00  0.00     0.059 A 
ATOM     57  F   UNL     1      19.255  10.501   7.950  1.00  0.00    -0.206 F 
ATOM     58  C   UNL     1      22.684   9.894   6.984  1.00  0.00     0.060 A 
BRANCH  58  59
ATOM     59  S   UNL     1      23.832  10.290   5.647  1.00  0.00     0.124 S 
ATOM     60  O   UNL     1      24.733  11.232   6.301  1.00  0.00    -0.237 OA
ATOM     61  O   UNL     1      24.395   8.981   5.330  1.00  0.00    -0.237 OA
ATOM     62  O   UNL     1      22.965  10.857   4.618  1.00  0.00    -0.744 OA
ENDBRANCH  58  59
ENDBRANCH  26  51
BRANCH  38  63
ATOM     63  C   UNL     1      21.093  11.083  15.824  1.00  0.00     0.058 A 
ATOM     64  C   UNL     1      21.182  12.479  15.715  1.00  0.00     0.135 A 
ATOM     65  C   UNL     1      21.898  10.448  16.786  1.00  0.00     0.135 A 
ATOM     66  F   UNL     1      20.438  13.135  14.811  1.00  0.00    -0.206 F 
ATOM     67  C   UNL     1      22.050  13.216  16.515  1.00  0.00     0.059 A 
ATOM     68  C   UNL     1      22.750  11.168  17.616  1.00  0.00     0.059 A 
ATOM     69  F   UNL     1      21.843   9.116  16.941  1.00  0.00    -0.206 F 
ATOM     70  C   UNL     1      22.827  12.552  17.466  1.00  0.00     0.060 A 
BRANCH  70  71
ATOM     71  S   UNL     1      23.921  13.528  18.520  1.00  0.00     0.124 S 
ATOM     72  O   UNL     1      24.947  13.947  17.571  1.00  0.00    -0.237 OA
ATOM     73  O   UNL     1      23.031  14.581  18.999  1.00  0.00    -0.237 OA
ATOM     74  O   UNL     1      24.358  12.574  19.535  1.00  0.00    -0.744 OA
ENDBRANCH  70  71
ENDBRANCH  38  63
ENDBRANCH  12  13
ENDBRANCH   5   7
ENDBRANCH   2   3
ENDBRANCH   1   2
BRANCH   1  75
ATOM     75  C   UNL     1      10.958   4.415   3.804  1.00  0.00     0.023 C 
BRANCH  75  76
ATOM     76  C   UNL     1       9.435   4.517   3.820  1.00  0.00     0.116 C 
BRANCH  76  77
ATOM     77  N   UNL     1       8.813   5.743   3.306  1.00  0.00    -0.356 N 
ATOM     78  C   UNL     1       7.491   6.165   3.544  1.00  0.00     0.225 C 
ATOM     79  H   UNL     1       9.373   6.324   2.742  1.00  0.00     0.163 HD
ATOM     80  O   UNL     1       6.989   7.034   2.845  1.00  0.00    -0.275 OA
BRANCH  78  81
ATOM     81  C   UNL     1       6.870   5.615   4.826  1.00  0.00     0.109 C 
ATOM     82  C   UNL     1       7.512   6.453   5.985  1.00  0.00     0.004 C 
ATOM     83  C   UNL     1       5.395   5.261   5.187  1.00  0.00     0.079 C 
ATOM     84  C   UNL     1       6.623   7.637   6.422  1.00  0.00     0.008 C 
ATOM     85  C   UNL     1       7.701   5.513   7.176  1.00  0.00     0.008 C 
ATOM     86  C   UNL     1       5.613   4.289   6.445  1.00  0.00     0.035 C 
ATOM     87  C   UNL     1       4.575   6.456   5.744  1.00  0.00     0.035 C 
ATOM     88  C   UNL     1       5.270   7.131   6.928  1.00  0.00    -0.008 C 
ATOM     89  C   UNL     1       6.339   4.972   7.613  1.00  0.00    -0.008 C 
ATOM     90  C   UNL     1       5.470   6.135   8.082  1.00  0.00     0.007 C 
BRANCH  83  91
ATOM     91  N   UNL     1       4.567   4.508   4.173  1.00  0.00    -0.222 N 
ATOM     92  N   UNL     1       4.447   3.149   4.400  1.00  0.00    -0.175 NA
ATOM     93  C   UNL     1       3.758   5.157   3.228  1.00  0.00     0.288 A 
ATOM     94  C   UNL     1       3.360   2.572   4.016  1.00  0.00     0.161 A 
ATOM     95  C   UNL     1       2.495   4.422   2.855  1.00  0.00     0.132 A 
ATOM     96  O   UNL     1       3.949   6.299   2.823  1.00  0.00    -0.266 OA
ATOM     97  C   UNL     1       2.207   3.202   3.335  1.00  0.00     0.082 A 
ATOM     98  Cl  UNL     1       1.306   5.330   1.971  1.00  0.00    -0.076 Cl
BRANCH  97  99
ATOM     99  N   UNL     1       1.020   2.467   3.244  1.00  0.00    -0.365 N 
ATOM    100  C   UNL     1       0.368   1.865   4.438  1.00  0.00     0.138 C 
ATOM    101  C   UNL     1       0.523   1.920   1.962  1.00  0.00     0.138 C 
ATOM    102  C   UNL     1      -1.181   1.933   4.345  1.00  0.00     0.138 C 
ATOM    103  C   UNL     1      -1.016   1.985   1.873  1.00  0.00     0.138 C 
ATOM    104  N   UNL     1      -1.622   1.364   3.064  1.00  0.00    -0.368 N 
BRANCH 104 105
ATOM    105  C   UNL     1      -2.766   0.609   2.938  1.00  0.00     0.037 A 
ATOM    106  C   UNL     1      -2.755  -0.532   2.117  1.00  0.00     0.029 A 
ATOM    107  C   UNL     1      -3.955   0.914   3.613  1.00  0.00     0.029 A 
ATOM    108  C   UNL     1      -3.882  -1.344   1.976  1.00  0.00     0.041 A 
ATOM    109  C   UNL     1      -5.097   0.116   3.463  1.00  0.00     0.041 A 
ATOM    110  C   UNL     1      -5.047  -1.008   2.649  1.00  0.00     0.123 A 
ATOM    111  F   UNL     1      -6.134  -1.778   2.512  1.00  0.00    -0.207 F 
ENDBRANCH 104 105
ENDBRANCH  97  99
ENDBRANCH  83  91
ENDBRANCH  78  81
ENDBRANCH  76  77
ENDBRANCH  75  76
ENDBRANCH   1  75
TORSDOF 17
