REMARK SMILES COc1cccc(NC(=O)COc2csc(C(=O)NCCCCNC(=O)c3ccc(-c4c5nc(c(-c6c(F)cc(S(=O)(=O)[O-])cc6F)c6ccc([nH]6)c(-c6c(F)cc(S(=O)(=O)[O-])cc6F)c6nc(c(-c7c(F)cc(S(=O)(=O)[O-])cc7F)c7ccc4[nH]7)C=C6)C=C5)cc3)c2)c1
REMARK SMILES IDX 20 1 19 2 17 3 18 4 16 6 13 7 14 8 93 9 15 10 12 11 11 12
REMARK SMILES IDX 9 13 8 14 10 16 7 17 3 18 4 19 94 20 5 21 6 22 2 23 1 24
REMARK SMILES IDX 21 25 22 26 23 27 24 28 25 29 26 31 27 32 28 33 92 34 29 35
REMARK SMILES IDX 91 36 30 37 31 38 32 39 85 40 33 41 90 42 84 43 86 44 34 45
REMARK SMILES IDX 89 46 83 47 82 48 35 50 69 51 48 52 68 53 49 54 52 55 67 56
REMARK SMILES IDX 87 57 50 58 51 59 66 61 88 62 53 63 36 64 37 65 46 66 38 67
REMARK SMILES IDX 39 68 45 69 47 70 40 71 41 72 42 73 43 74 44 75 70 76 71 77
REMARK SMILES IDX 80 78 72 79 73 80 79 81 81 82 74 83 75 84 76 85 77 86 78 87
REMARK SMILES IDX 54 88 55 89 64 90 56 91 57 92 63 93 65 94 58 95 59 96 60 97
REMARK SMILES IDX 61 98 62 99
REMARK H PARENT 19 5 8 15 24 30 86 49 52 60
REMARK Flexibility Score: inf
ROOT
ATOM      1  C   UNL     1       1.711  10.112   1.689  1.00  0.00     0.116 C 
ENDROOT
BRANCH   1   2
ATOM      2  N   UNL     1       2.966  10.348   1.006  1.00  0.00    -0.351 N 
ATOM      3  C   UNL     1       4.116   9.595   0.917  1.00  0.00     0.261 C 
ATOM      4  O   UNL     1       4.988  10.058   0.177  1.00  0.00    -0.268 OA
ATOM      5  H   UNL     1       3.005  11.201   0.516  1.00  0.00     0.163 HD
BRANCH   3   6
ATOM      6  C   UNL     1       4.264   8.332   1.633  1.00  0.00     0.096 A 
ATOM      7  C   UNL     1       4.023   6.469   3.045  1.00  0.00     0.131 A 
ATOM      8  C   UNL     1       5.068   6.057   2.256  1.00  0.00     0.112 A 
ATOM      9  C   UNL     1       3.603   7.789   2.719  1.00  0.00     0.072 A 
ATOM     10  S   UNL     1       5.502   7.249   1.106  1.00  0.00    -0.135 S 
BRANCH   7  11
ATOM     11  O   UNL     1       3.359   5.753   3.982  1.00  0.00    -0.483 OA
BRANCH  11  12
ATOM     12  C   UNL     1       4.088   4.770   4.681  1.00  0.00     0.329 C 
BRANCH  12  13
ATOM     13  C   UNL     1       4.521   3.469   4.004  1.00  0.00     0.262 C 
ATOM     14  N   UNL     1       3.728   2.728   3.185  1.00  0.00    -0.323 N 
ATOM     15  H   UNL     1       4.206   1.960   2.795  1.00  0.00     0.170 HD
ATOM     16  O   UNL     1       5.668   3.040   4.195  1.00  0.00    -0.271 OA
BRANCH  14  17
ATOM     17  C   UNL     1       2.390   2.796   2.762  1.00  0.00     0.044 A 
ATOM     18  C   UNL     1       0.749   1.944   1.167  1.00  0.00     0.120 A 
ATOM     19  C   UNL     1      -0.207   2.807   1.694  1.00  0.00     0.046 A 
ATOM     20  C   UNL     1       2.043   1.950   1.693  1.00  0.00     0.072 A 
ATOM     21  C   UNL     1       0.114   3.621   2.778  1.00  0.00     0.006 A 
ATOM     22  C   UNL     1       1.403   3.602   3.321  1.00  0.00     0.026 A 
BRANCH  18  23
ATOM     23  O   UNL     1       0.333   1.176   0.114  1.00  0.00    -0.497 OA
ATOM     24  C   UNL     1       0.973  -0.090  -0.009  1.00  0.00     0.278 C 
ENDBRANCH  18  23
ENDBRANCH  14  17
ENDBRANCH  12  13
ENDBRANCH  11  12
ENDBRANCH   7  11
ENDBRANCH   3   6
ENDBRANCH   1   2
BRANCH   1  25
ATOM     25  C   UNL     1       1.695  10.772   3.068  1.00  0.00     0.023 C 
BRANCH  25  26
ATOM     26  C   UNL     1       1.415  12.278   3.043  1.00  0.00     0.023 C 
BRANCH  26  27
ATOM     27  C   UNL     1       0.054  12.679   2.477  1.00  0.00     0.116 C 
BRANCH  27  28
ATOM     28  N   UNL     1      -1.066  12.058   3.167  1.00  0.00    -0.352 N 
ATOM     29  C   UNL     1      -2.320  12.576   3.401  1.00  0.00     0.251 C 
ATOM     30  H   UNL     1      -0.907  11.150   3.512  1.00  0.00     0.163 HD
ATOM     31  O   UNL     1      -3.125  11.959   4.087  1.00  0.00    -0.269 OA
BRANCH  29  32
ATOM     32  C   UNL     1      -2.663  13.904   2.852  1.00  0.00     0.039 A 
ATOM     33  C   UNL     1      -3.164  14.880   3.716  1.00  0.00     0.014 A 
ATOM     34  C   UNL     1      -2.437  14.198   1.504  1.00  0.00     0.014 A 
ATOM     35  C   UNL     1      -3.362  16.180   3.245  1.00  0.00     0.010 A 
ATOM     36  C   UNL     1      -2.579  15.507   1.053  1.00  0.00     0.010 A 
ATOM     37  C   UNL     1      -3.027  16.513   1.922  1.00  0.00    -0.014 A 
BRANCH  37  38
ATOM     38  C   UNL     1      -3.097  17.915   1.438  1.00  0.00     0.031 A 
ATOM     39  C   UNL     1      -4.061  18.292   0.349  1.00  0.00     0.074 A 
ATOM     40  C   UNL     1      -2.228  18.825   1.922  1.00  0.00     0.049 A 
ATOM     41  N   UNL     1      -4.196  19.435  -0.273  1.00  0.00    -0.248 NA
ATOM     42  C   UNL     1      -4.975  17.239  -0.122  1.00  0.00     0.031 C 
ATOM     43  C   UNL     1      -1.211  18.565   2.944  1.00  0.00     0.029 A 
ATOM     44  N   UNL     1      -2.047  20.148   1.605  1.00  0.00    -0.354 N 
ATOM     45  C   UNL     1      -5.197  19.237  -1.216  1.00  0.00     0.074 A 
ATOM     46  C   UNL     1      -5.605  17.852  -1.114  1.00  0.00     0.031 C 
ATOM     47  C   UNL     1      -0.521  19.693   3.176  1.00  0.00     0.029 A 
ATOM     48  C   UNL     1      -1.019  20.746   2.297  1.00  0.00     0.049 A 
ATOM     49  H   UNL     1      -2.600  20.624   0.945  1.00  0.00     0.167 HD
ATOM     50  C   UNL     1      -5.737  20.133  -2.075  1.00  0.00     0.037 A 
ATOM     51  C   UNL     1      -0.524  21.996   2.221  1.00  0.00     0.037 A 
ATOM     52  C   UNL     1      -5.344  21.516  -2.153  1.00  0.00     0.049 A 
ATOM     53  C   UNL     1      -1.144  22.974   1.260  1.00  0.00     0.074 A 
ATOM     54  C   UNL     1      -5.878  22.519  -2.944  1.00  0.00     0.029 A 
ATOM     55  N   UNL     1      -4.319  22.092  -1.417  1.00  0.00    -0.354 N 
ATOM     56  N   UNL     1      -2.135  22.787   0.421  1.00  0.00    -0.248 NA
ATOM     57  C   UNL     1      -0.583  24.331   1.237  1.00  0.00     0.031 C 
ATOM     58  C   UNL     1      -5.150  23.692  -2.714  1.00  0.00     0.029 A 
ATOM     59  C   UNL     1      -4.190  23.430  -1.750  1.00  0.00     0.049 A 
ATOM     60  H   UNL     1      -3.764  21.619  -0.756  1.00  0.00     0.167 HD
ATOM     61  C   UNL     1      -2.329  24.008  -0.215  1.00  0.00     0.074 A 
ATOM     62  C   UNL     1      -1.363  24.930   0.347  1.00  0.00     0.031 C 
ATOM     63  C   UNL     1      -3.225  24.335  -1.179  1.00  0.00     0.037 A 
BRANCH  50  64
ATOM     64  C   UNL     1      -6.820  19.648  -2.998  1.00  0.00     0.058 A 
ATOM     65  C   UNL     1      -8.105  19.340  -2.524  1.00  0.00     0.135 A 
ATOM     66  C   UNL     1      -6.585  19.529  -4.377  1.00  0.00     0.135 A 
ATOM     67  F   UNL     1      -8.380  19.422  -1.212  1.00  0.00    -0.206 F 
ATOM     68  C   UNL     1      -9.112  18.907  -3.380  1.00  0.00     0.059 A 
ATOM     69  C   UNL     1      -7.584  19.122  -5.256  1.00  0.00     0.059 A 
ATOM     70  F   UNL     1      -5.373  19.809  -4.882  1.00  0.00    -0.206 F 
ATOM     71  C   UNL     1      -8.841  18.800  -4.746  1.00  0.00     0.060 A 
BRANCH  71  72
ATOM     72  S   UNL     1     -10.161  18.246  -5.845  1.00  0.00     0.124 S 
ATOM     73  O   UNL     1     -10.218  16.821  -5.536  1.00  0.00    -0.237 OA
ATOM     74  O   UNL     1     -11.300  19.038  -5.391  1.00  0.00    -0.237 OA
ATOM     75  O   UNL     1      -9.659  18.581  -7.174  1.00  0.00    -0.744 OA
ENDBRANCH  71  72
ENDBRANCH  50  64
BRANCH  51  76
ATOM     76  C   UNL     1       0.615  22.399   3.087  1.00  0.00     0.058 A 
ATOM     77  C   UNL     1       0.427  23.286   4.157  1.00  0.00     0.135 A 
ATOM     78  C   UNL     1       1.909  21.901   2.869  1.00  0.00     0.135 A 
ATOM     79  F   UNL     1      -0.791  23.793   4.401  1.00  0.00    -0.206 F 
ATOM     80  C   UNL     1       1.483  23.680   4.972  1.00  0.00     0.059 A 
ATOM     81  C   UNL     1       2.977  22.262   3.684  1.00  0.00     0.059 A 
ATOM     82  F   UNL     1       2.137  21.037   1.869  1.00  0.00    -0.206 F 
ATOM     83  C   UNL     1       2.756  23.162   4.727  1.00  0.00     0.060 A 
BRANCH  83  84
ATOM     84  S   UNL     1       4.113  23.643   5.818  1.00  0.00     0.124 S 
ATOM     85  O   UNL     1       4.390  24.999   5.360  1.00  0.00    -0.237 OA
ATOM     86  O   UNL     1       3.503  23.526   7.138  1.00  0.00    -0.237 OA
ATOM     87  O   UNL     1       5.144  22.652   5.524  1.00  0.00    -0.744 OA
ENDBRANCH  83  84
ENDBRANCH  51  76
BRANCH  63  88
ATOM     88  C   UNL     1      -3.220  25.756  -1.670  1.00  0.00     0.058 A 
ATOM     89  C   UNL     1      -2.208  26.237  -2.514  1.00  0.00     0.135 A 
ATOM     90  C   UNL     1      -4.265  26.630  -1.331  1.00  0.00     0.135 A 
ATOM     91  F   UNL     1      -1.182  25.443  -2.861  1.00  0.00    -0.206 F 
ATOM     92  C   UNL     1      -2.220  27.544  -2.989  1.00  0.00     0.059 A 
ATOM     93  C   UNL     1      -4.311  27.933  -1.815  1.00  0.00     0.059 A 
ATOM     94  F   UNL     1      -5.262  26.215  -0.533  1.00  0.00    -0.206 F 
ATOM     95  C   UNL     1      -3.277  28.385  -2.635  1.00  0.00     0.060 A 
BRANCH  95  96
ATOM     96  S   UNL     1      -3.301  30.069  -3.285  1.00  0.00     0.124 S 
ATOM     97  O   UNL     1      -2.289  30.718  -2.458  1.00  0.00    -0.237 OA
ATOM     98  O   UNL     1      -2.944  29.870  -4.686  1.00  0.00    -0.237 OA
ATOM     99  O   UNL     1      -4.676  30.503  -3.051  1.00  0.00    -0.744 OA
ENDBRANCH  95  96
ENDBRANCH  63  88
ENDBRANCH  37  38
ENDBRANCH  29  32
ENDBRANCH  27  28
ENDBRANCH  26  27
ENDBRANCH  25  26
ENDBRANCH   1  25
TORSDOF 19
