REMARK SMILES CC(C)N(CC(=O)NCCCCNC(=O)c1ccc(-c2c3nc(c(-c4c(F)cc(S(=O)(=O)[O-])cc4F)c4ccc([nH]4)c(-c4c(F)cc(S(=O)(=O)[O-])cc4F)c4nc(c(-c5c(F)cc(S(=O)(=O)[O-])cc5F)c5ccc2[nH]5)C=C4)C=C3)cc1)C(=O)NC1C(C)(C)C1(C)C
REMARK SMILES IDX 10 1 9 2 8 3 6 4 7 5 5 7 4 8 2 9 1 10 3 11 82 12 83 13 84 14
REMARK SMILES IDX 85 16 86 17 89 18 87 19 88 20 90 21 91 22 11 23 12 24 13 25
REMARK SMILES IDX 14 26 15 28 16 29 17 30 81 31 18 32 80 33 19 34 20 35 21 36
REMARK SMILES IDX 74 37 22 38 79 39 73 40 75 41 23 42 78 43 72 44 71 45 24 47
REMARK SMILES IDX 58 48 37 49 57 50 38 51 41 52 56 53 76 54 39 55 40 56 55 58
REMARK SMILES IDX 77 59 42 60 25 61 26 62 35 63 27 64 28 65 34 66 36 67 29 68
REMARK SMILES IDX 30 69 31 70 32 71 33 72 59 73 60 74 69 75 61 76 62 77 68 78
REMARK SMILES IDX 70 79 63 80 64 81 65 82 66 83 67 84 43 85 44 86 53 87 45 88
REMARK SMILES IDX 46 89 52 90 54 91 47 92 48 93 49 94 50 95 51 96
REMARK H PARENT 8 6 84 15 13 27 75 46 41 57
REMARK Flexibility Score: inf
ROOT
ATOM      1  C   UNL     1      -0.246   4.392   1.883  1.00  0.00     0.023 C 
ENDROOT
BRANCH   1   2
ATOM      2  C   UNL     1      -0.182   3.388   3.029  1.00  0.00     0.116 C 
BRANCH   2   3
ATOM      3  N   UNL     1      -1.471   2.880   3.422  1.00  0.00    -0.355 N 
ATOM      4  C   UNL     1      -1.956   1.618   3.287  1.00  0.00     0.239 C 
ATOM      5  O   UNL     1      -2.831   1.274   4.091  1.00  0.00    -0.273 OA
ATOM      6  H   UNL     1      -2.078   3.531   3.844  1.00  0.00     0.163 HD
BRANCH   4   7
ATOM      7  C   UNL     1      -1.361   0.586   2.306  1.00  0.00     0.221 C 
BRANCH   7   8
ATOM      8  N   UNL     1      -0.886   0.998   0.973  1.00  0.00    -0.313 N 
BRANCH   8   9
ATOM      9  C   UNL     1       0.558   0.741   0.699  1.00  0.00     0.081 C 
ATOM     10  C   UNL     1       0.762  -0.526  -0.139  1.00  0.00     0.031 C 
ATOM     11  C   UNL     1       1.345   1.915   0.098  1.00  0.00     0.031 C 
ENDBRANCH   8   9
BRANCH   8  12
ATOM     12  C   UNL     1      -1.702   1.277  -0.105  1.00  0.00     0.318 C 
ATOM     13  O   UNL     1      -1.242   1.502  -1.230  1.00  0.00    -0.249 OA
ATOM     14  N   UNL     1      -3.057   1.306  -0.044  1.00  0.00    -0.334 N 
ATOM     15  H   UNL     1      -3.464   1.578  -0.898  1.00  0.00     0.165 HD
BRANCH  14  16
ATOM     16  C   UNL     1      -4.030   1.040   0.958  1.00  0.00     0.096 C 
ATOM     17  C   UNL     1      -5.534   1.050   0.716  1.00  0.00    -0.007 C 
ATOM     18  C   UNL     1      -4.803  -0.273   0.990  1.00  0.00    -0.007 C 
ATOM     19  C   UNL     1      -6.392   1.660   1.811  1.00  0.00     0.014 C 
ATOM     20  C   UNL     1      -6.098   1.342  -0.655  1.00  0.00     0.014 C 
ATOM     21  C   UNL     1      -4.659  -1.272  -0.138  1.00  0.00     0.014 C 
ATOM     22  C   UNL     1      -4.962  -0.958   2.331  1.00  0.00     0.014 C 
ENDBRANCH  14  16
ENDBRANCH   8  12
ENDBRANCH   7   8
ENDBRANCH   4   7
ENDBRANCH   2   3
ENDBRANCH   1   2
BRANCH   1  23
ATOM     23  C   UNL     1      -0.899   5.734   2.208  1.00  0.00     0.023 C 
BRANCH  23  24
ATOM     24  C   UNL     1      -0.401   6.428   3.471  1.00  0.00     0.116 C 
BRANCH  24  25
ATOM     25  N   UNL     1       1.050   6.535   3.558  1.00  0.00    -0.352 N 
ATOM     26  C   UNL     1       1.816   7.561   4.058  1.00  0.00     0.251 C 
ATOM     27  H   UNL     1       1.552   5.764   3.209  1.00  0.00     0.163 HD
ATOM     28  O   UNL     1       3.041   7.492   4.005  1.00  0.00    -0.269 OA
BRANCH  26  29
ATOM     29  C   UNL     1       1.159   8.764   4.609  1.00  0.00     0.039 A 
ATOM     30  C   UNL     1       1.593  10.020   4.176  1.00  0.00     0.014 A 
ATOM     31  C   UNL     1       0.090   8.657   5.502  1.00  0.00     0.014 A 
ATOM     32  C   UNL     1       0.896  11.163   4.570  1.00  0.00     0.010 A 
ATOM     33  C   UNL     1      -0.648   9.789   5.832  1.00  0.00     0.010 A 
ATOM     34  C   UNL     1      -0.259  11.052   5.361  1.00  0.00    -0.014 A 
BRANCH  34  35
ATOM     35  C   UNL     1      -1.088  12.243   5.677  1.00  0.00     0.031 A 
ATOM     36  C   UNL     1      -1.256  12.695   7.101  1.00  0.00     0.074 A 
ATOM     37  C   UNL     1      -1.747  12.872   4.683  1.00  0.00     0.049 A 
ATOM     38  N   UNL     1      -1.977  13.679   7.574  1.00  0.00    -0.248 NA
ATOM     39  C   UNL     1      -0.545  11.923   8.132  1.00  0.00     0.031 C 
ATOM     40  C   UNL     1      -1.717  12.485   3.270  1.00  0.00     0.029 A 
ATOM     41  N   UNL     1      -2.576  13.965   4.708  1.00  0.00    -0.354 N 
ATOM     42  C   UNL     1      -1.819  13.635   8.953  1.00  0.00     0.074 A 
ATOM     43  C   UNL     1      -0.978  12.495   9.246  1.00  0.00     0.031 C 
ATOM     44  C   UNL     1      -2.468  13.344   2.562  1.00  0.00     0.029 A 
ATOM     45  C   UNL     1      -3.059  14.321   3.471  1.00  0.00     0.049 A 
ATOM     46  H   UNL     1      -2.804  14.448   5.535  1.00  0.00     0.167 HD
ATOM     47  C   UNL     1      -2.310  14.483   9.889  1.00  0.00     0.037 A 
ATOM     48  C   UNL     1      -3.884  15.322   3.108  1.00  0.00     0.037 A 
ATOM     49  C   UNL     1      -3.123  15.632   9.588  1.00  0.00     0.049 A 
ATOM     50  C   UNL     1      -4.397  16.264   4.162  1.00  0.00     0.074 A 
ATOM     51  C   UNL     1      -3.613  16.592  10.456  1.00  0.00     0.029 A 
ATOM     52  N   UNL     1      -3.569  15.976   8.320  1.00  0.00    -0.354 N 
ATOM     53  N   UNL     1      -4.178  16.251   5.455  1.00  0.00    -0.248 NA
ATOM     54  C   UNL     1      -5.263  17.360   3.708  1.00  0.00     0.031 C 
ATOM     55  C   UNL     1      -4.385  17.496   9.718  1.00  0.00     0.029 A 
ATOM     56  C   UNL     1      -4.342  17.123   8.384  1.00  0.00     0.049 A 
ATOM     57  H   UNL     1      -3.365  15.478   7.496  1.00  0.00     0.167 HD
ATOM     58  C   UNL     1      -4.862  17.347   5.967  1.00  0.00     0.074 A 
ATOM     59  C   UNL     1      -5.490  18.009   4.841  1.00  0.00     0.031 C 
ATOM     60  C   UNL     1      -4.962  17.767   7.253  1.00  0.00     0.037 A 
BRANCH  47  61
ATOM     61  C   UNL     1      -1.969  14.199  11.326  1.00  0.00     0.058 A 
ATOM     62  C   UNL     1      -0.666  14.374  11.821  1.00  0.00     0.135 A 
ATOM     63  C   UNL     1      -2.956  13.765  12.225  1.00  0.00     0.135 A 
ATOM     64  F   UNL     1       0.320  14.773  11.002  1.00  0.00    -0.206 F 
ATOM     65  C   UNL     1      -0.346  14.093  13.145  1.00  0.00     0.059 A 
ATOM     66  C   UNL     1      -2.665  13.504  13.561  1.00  0.00     0.059 A 
ATOM     67  F   UNL     1      -4.218  13.581  11.806  1.00  0.00    -0.206 F 
ATOM     68  C   UNL     1      -1.352  13.654  14.007  1.00  0.00     0.060 A 
BRANCH  68  69
ATOM     69  S   UNL     1      -0.920  13.284  15.720  1.00  0.00     0.124 S 
ATOM     70  O   UNL     1      -0.224  12.010  15.575  1.00  0.00    -0.237 OA
ATOM     71  O   UNL     1      -0.085  14.424  16.086  1.00  0.00    -0.237 OA
ATOM     72  O   UNL     1      -2.215  13.219  16.390  1.00  0.00    -0.744 OA
ENDBRANCH  68  69
ENDBRANCH  47  61
BRANCH  48  73
ATOM     73  C   UNL     1      -4.242  15.504   1.677  1.00  0.00     0.058 A 
ATOM     74  C   UNL     1      -3.711  16.568   0.933  1.00  0.00     0.135 A 
ATOM     75  C   UNL     1      -5.096  14.607   1.018  1.00  0.00     0.135 A 
ATOM     76  F   UNL     1      -2.894  17.455   1.522  1.00  0.00    -0.206 F 
ATOM     77  C   UNL     1      -4.021  16.744  -0.411  1.00  0.00     0.059 A 
ATOM     78  C   UNL     1      -5.404  14.748  -0.332  1.00  0.00     0.059 A 
ATOM     79  F   UNL     1      -5.616  13.562   1.682  1.00  0.00    -0.206 F 
ATOM     80  C   UNL     1      -4.867  15.825  -1.036  1.00  0.00     0.060 A 
BRANCH  80  81
ATOM     81  S   UNL     1      -5.215  16.027  -2.797  1.00  0.00     0.124 S 
ATOM     82  O   UNL     1      -6.142  17.152  -2.786  1.00  0.00    -0.237 OA
ATOM     83  O   UNL     1      -3.888  16.298  -3.343  1.00  0.00    -0.237 OA
ATOM     84  O   UNL     1      -5.788  14.739  -3.174  1.00  0.00    -0.744 OA
ENDBRANCH  80  81
ENDBRANCH  48  73
BRANCH  60  85
ATOM     85  C   UNL     1      -5.766  19.012   7.508  1.00  0.00     0.058 A 
ATOM     86  C   UNL     1      -7.167  19.009   7.439  1.00  0.00     0.135 A 
ATOM     87  C   UNL     1      -5.128  20.210   7.864  1.00  0.00     0.135 A 
ATOM     88  F   UNL     1      -7.824  17.889   7.095  1.00  0.00    -0.206 F 
ATOM     89  C   UNL     1      -7.909  20.158   7.689  1.00  0.00     0.059 A 
ATOM     90  C   UNL     1      -5.850  21.366   8.144  1.00  0.00     0.059 A 
ATOM     91  F   UNL     1      -3.789  20.264   7.955  1.00  0.00    -0.206 F 
ATOM     92  C   UNL     1      -7.240  21.333   8.040  1.00  0.00     0.060 A 
BRANCH  92  93
ATOM     93  S   UNL     1      -8.214  22.813   8.389  1.00  0.00     0.124 S 
ATOM     94  O   UNL     1      -8.592  23.238   7.045  1.00  0.00    -0.237 OA
ATOM     95  O   UNL     1      -9.296  22.290   9.216  1.00  0.00    -0.237 OA
ATOM     96  O   UNL     1      -7.270  23.684   9.081  1.00  0.00    -0.744 OA
ENDBRANCH  92  93
ENDBRANCH  60  85
ENDBRANCH  34  35
ENDBRANCH  26  29
ENDBRANCH  24  25
ENDBRANCH  23  24
ENDBRANCH   1  23
TORSDOF 18
