REMARK SMILES O=C(NCCCCNC(=O)c1ccc(-n2cc(CSc3nc4ccccc4c(=O)n3-c3ccc(Br)cc3)nn2)cc1)c1ccc(-c2c3nc(c(-c4c(F)cc(S(=O)(=O)[O-])cc4F)c4ccc([nH]4)c(-c4c(F)cc(S(=O)(=O)[O-])cc4F)c4nc(c(-c5c(F)cc(S(=O)(=O)[O-])cc5F)c5ccc2[nH]5)C=C4)C=C3)cc1
REMARK SMILES IDX 6 1 5 2 4 3 3 4 1 5 2 6 42 8 43 9 107 10 44 11 106 12 45 13
REMARK SMILES IDX 46 14 47 15 100 16 48 17 105 18 99 19 101 20 49 21 104 22
REMARK SMILES IDX 98 23 97 24 50 26 84 27 63 28 83 29 64 30 67 31 82 32 102 33
REMARK SMILES IDX 65 34 66 35 81 37 103 38 68 39 51 40 52 41 61 42 53 43 54 44
REMARK SMILES IDX 60 45 62 46 55 47 56 48 57 49 58 50 59 51 85 52 86 53 95 54
REMARK SMILES IDX 87 55 88 56 94 57 96 58 89 59 90 60 91 61 92 62 93 63 69 64
REMARK SMILES IDX 70 65 79 66 71 67 72 68 78 69 80 70 73 71 74 72 75 73 76 74
REMARK SMILES IDX 77 75 7 76 8 77 9 78 10 80 11 81 12 82 41 83 13 84 40 85
REMARK SMILES IDX 14 86 15 87 16 88 39 89 17 90 38 91 18 92 19 93 20 94 21 95
REMARK SMILES IDX 30 96 22 97 28 98 23 99 27 100 29 101 24 102 26 103 25 104
REMARK SMILES IDX 31 105 32 106 37 107 33 108 36 109 34 110 35 111
REMARK H PARENT 3 7 101 25 67 36 8 79
REMARK Flexibility Score: inf
ROOT
ATOM      1  C   UNL     1       4.522  -1.462  -3.355  1.00  0.00     0.023 C 
ENDROOT
BRANCH   1   2
ATOM      2  C   UNL     1       5.018  -1.217  -1.929  1.00  0.00     0.023 C 
BRANCH   2   3
ATOM      3  C   UNL     1       4.811   0.204  -1.403  1.00  0.00     0.116 C 
BRANCH   3   4
ATOM      4  N   UNL     1       3.436   0.655  -1.372  1.00  0.00    -0.352 N 
ATOM      5  O   UNL     1       1.388   1.152  -0.696  1.00  0.00    -0.269 OA
ATOM      6  C   UNL     1       2.398   0.473  -0.498  1.00  0.00     0.251 C 
ATOM      7  H   UNL     1       3.195   1.213  -2.146  1.00  0.00     0.163 HD
BRANCH   6   8
ATOM      8  C   UNL     1       2.392  -0.540   0.588  1.00  0.00     0.039 A 
ATOM      9  C   UNL     1       3.525  -1.156   1.125  1.00  0.00     0.014 A 
ATOM     10  C   UNL     1       1.124  -0.926   1.053  1.00  0.00     0.014 A 
ATOM     11  C   UNL     1       3.399  -2.238   1.984  1.00  0.00     0.010 A 
ATOM     12  C   UNL     1       0.992  -1.978   1.945  1.00  0.00     0.010 A 
ATOM     13  C   UNL     1       2.131  -2.672   2.355  1.00  0.00    -0.014 A 
BRANCH  13  14
ATOM     14  C   UNL     1       2.027  -3.822   3.246  1.00  0.00     0.031 A 
ATOM     15  C   UNL     1       2.513  -3.603   4.646  1.00  0.00     0.074 A 
ATOM     16  C   UNL     1       1.347  -4.919   2.854  1.00  0.00     0.049 A 
ATOM     17  N   UNL     1       3.306  -4.330   5.369  1.00  0.00    -0.248 NA
ATOM     18  C   UNL     1       2.114  -2.340   5.298  1.00  0.00     0.031 C 
ATOM     19  C   UNL     1       0.590  -5.104   1.609  1.00  0.00     0.029 A 
ATOM     20  N   UNL     1       1.057  -6.048   3.551  1.00  0.00    -0.354 N 
ATOM     21  C   UNL     1       3.347  -3.721   6.627  1.00  0.00     0.074 A 
ATOM     22  C   UNL     1       2.712  -2.438   6.484  1.00  0.00     0.031 C 
ATOM     23  C   UNL     1      -0.269  -6.134   1.763  1.00  0.00     0.029 A 
ATOM     24  C   UNL     1      -0.038  -6.746   3.059  1.00  0.00     0.049 A 
ATOM     25  H   UNL     1       1.576  -6.345   4.333  1.00  0.00     0.167 HD
ATOM     26  C   UNL     1       3.713  -4.382   7.760  1.00  0.00     0.037 A 
ATOM     27  C   UNL     1      -0.775  -7.666   3.731  1.00  0.00     0.037 A 
ATOM     28  C   UNL     1       4.487  -5.557   7.477  1.00  0.00     0.049 A 
ATOM     29  C   UNL     1       0.045  -8.132   4.881  1.00  0.00     0.074 A 
ATOM     30  C   UNL     1       5.706  -5.792   6.871  1.00  0.00     0.029 A 
ATOM     31  N   UNL     1       3.868  -6.781   7.540  1.00  0.00    -0.354 N 
ATOM     32  N   UNL     1       1.166  -8.793   4.760  1.00  0.00    -0.248 NA
ATOM     33  C   UNL     1      -0.145  -7.463   6.159  1.00  0.00     0.031 C 
ATOM     34  C   UNL     1       5.532  -7.013   6.156  1.00  0.00     0.029 A 
ATOM     35  C   UNL     1       4.235  -7.463   6.407  1.00  0.00     0.049 A 
ATOM     36  H   UNL     1       3.276  -7.106   8.257  1.00  0.00     0.167 HD
ATOM     37  C   UNL     1       1.986  -8.304   5.769  1.00  0.00     0.074 A 
ATOM     38  C   UNL     1       1.097  -7.543   6.643  1.00  0.00     0.031 C 
ATOM     39  C   UNL     1       3.348  -8.326   5.659  1.00  0.00     0.037 A 
BRANCH  26  40
ATOM     40  C   UNL     1       3.090  -4.124   9.111  1.00  0.00     0.058 A 
ATOM     41  C   UNL     1       3.678  -4.651  10.277  1.00  0.00     0.135 A 
ATOM     42  C   UNL     1       1.780  -3.614   9.264  1.00  0.00     0.135 A 
ATOM     43  F   UNL     1       4.913  -5.175  10.242  1.00  0.00    -0.206 F 
ATOM     44  C   UNL     1       2.990  -4.724  11.491  1.00  0.00     0.059 A 
ATOM     45  C   UNL     1       1.097  -3.627  10.474  1.00  0.00     0.059 A 
ATOM     46  F   UNL     1       1.065  -3.170   8.221  1.00  0.00    -0.206 F 
ATOM     47  C   UNL     1       1.692  -4.226  11.572  1.00  0.00     0.060 A 
BRANCH  47  48
ATOM     48  S   UNL     1       0.750  -4.442  13.094  1.00  0.00     0.124 S 
ATOM     49  O   UNL     1       0.525  -5.883  13.092  1.00  0.00    -0.237 OA
ATOM     50  O   UNL     1       1.678  -3.941  14.101  1.00  0.00    -0.237 OA
ATOM     51  O   UNL     1      -0.435  -3.617  12.875  1.00  0.00    -0.744 OA
ENDBRANCH  47  48
ENDBRANCH  26  40
BRANCH  27  52
ATOM     52  C   UNL     1      -2.257  -7.803   3.675  1.00  0.00     0.058 A 
ATOM     53  C   UNL     1      -2.912  -8.949   4.154  1.00  0.00     0.135 A 
ATOM     54  C   UNL     1      -3.085  -6.700   3.368  1.00  0.00     0.135 A 
ATOM     55  F   UNL     1      -2.202 -10.030   4.509  1.00  0.00    -0.206 F 
ATOM     56  C   UNL     1      -4.301  -8.995   4.333  1.00  0.00     0.059 A 
ATOM     57  C   UNL     1      -4.469  -6.727   3.522  1.00  0.00     0.059 A 
ATOM     58  F   UNL     1      -2.565  -5.524   2.990  1.00  0.00    -0.206 F 
ATOM     59  C   UNL     1      -5.071  -7.872   4.023  1.00  0.00     0.060 A 
BRANCH  59  60
ATOM     60  S   UNL     1      -6.844  -7.872   4.379  1.00  0.00     0.124 S 
ATOM     61  O   UNL     1      -7.346  -8.840   3.409  1.00  0.00    -0.237 OA
ATOM     62  O   UNL     1      -6.878  -8.292   5.775  1.00  0.00    -0.237 OA
ATOM     63  O   UNL     1      -7.240  -6.487   4.137  1.00  0.00    -0.744 OA
ENDBRANCH  59  60
ENDBRANCH  27  52
BRANCH  39  64
ATOM     64  C   UNL     1       3.961  -9.084   4.508  1.00  0.00     0.058 A 
ATOM     65  C   UNL     1       3.816  -8.699   3.162  1.00  0.00     0.135 A 
ATOM     66  C   UNL     1       4.873 -10.112   4.780  1.00  0.00     0.135 A 
ATOM     67  F   UNL     1       3.058  -7.650   2.825  1.00  0.00    -0.206 F 
ATOM     68  C   UNL     1       4.514  -9.330   2.132  1.00  0.00     0.059 A 
ATOM     69  C   UNL     1       5.605 -10.737   3.771  1.00  0.00     0.059 A 
ATOM     70  F   UNL     1       5.113 -10.478   6.050  1.00  0.00    -0.206 F 
ATOM     71  C   UNL     1       5.413 -10.346   2.447  1.00  0.00     0.060 A 
BRANCH  71  72
ATOM     72  S   UNL     1       6.393 -11.085   1.121  1.00  0.00     0.124 S 
ATOM     73  O   UNL     1       5.398 -11.880   0.410  1.00  0.00    -0.237 OA
ATOM     74  O   UNL     1       6.896  -9.914   0.408  1.00  0.00    -0.237 OA
ATOM     75  O   UNL     1       7.410 -11.851   1.837  1.00  0.00    -0.744 OA
ENDBRANCH  71  72
ENDBRANCH  39  64
ENDBRANCH  13  14
ENDBRANCH   6   8
ENDBRANCH   3   4
ENDBRANCH   2   3
ENDBRANCH   1   2
BRANCH   1  76
ATOM     76  C   UNL     1       4.889  -0.387  -4.370  1.00  0.00     0.116 C 
BRANCH  76  77
ATOM     77  N   UNL     1       6.324  -0.192  -4.503  1.00  0.00    -0.352 N 
ATOM     78  C   UNL     1       7.100  -0.220  -5.642  1.00  0.00     0.251 C 
ATOM     79  H   UNL     1       6.808  -0.015  -3.664  1.00  0.00     0.163 HD
ATOM     80  O   UNL     1       8.300  -0.070  -5.596  1.00  0.00    -0.269 OA
BRANCH  78  81
ATOM     81  C   UNL     1       6.430  -0.462  -6.935  1.00  0.00     0.039 A 
ATOM     82  C   UNL     1       6.778  -1.605  -7.663  1.00  0.00     0.016 A 
ATOM     83  C   UNL     1       5.450   0.419  -7.398  1.00  0.00     0.016 A 
ATOM     84  C   UNL     1       6.087  -1.919  -8.835  1.00  0.00     0.029 A 
ATOM     85  C   UNL     1       4.785   0.130  -8.583  1.00  0.00     0.029 A 
ATOM     86  C   UNL     1       5.103  -1.043  -9.296  1.00  0.00     0.066 A 
BRANCH  86  87
ATOM     87  N   UNL     1       4.489  -1.274 -10.540  1.00  0.00    -0.220 N 
ATOM     88  C   UNL     1       4.152  -0.301 -11.438  1.00  0.00     0.141 A 
ATOM     89  N   UNL     1       4.154  -2.481 -11.039  1.00  0.00    -0.062 NA
ATOM     90  C   UNL     1       3.570  -0.943 -12.499  1.00  0.00     0.093 A 
ATOM     91  N   UNL     1       3.527  -2.284 -12.201  1.00  0.00    -0.134 NA
BRANCH  90  92
ATOM     92  C   UNL     1       2.839  -0.355 -13.643  1.00  0.00     0.138 C 
BRANCH  92  93
ATOM     93  S   UNL     1       3.635   0.227 -15.143  1.00  0.00    -0.081 SA
BRANCH  93  94
ATOM     94  C   UNL     1       5.349   0.488 -14.963  1.00  0.00     0.176 A 
ATOM     95  N   UNL     1       6.010   0.068 -16.004  1.00  0.00    -0.223 NA
ATOM     96  N   UNL     1       5.989   1.095 -13.890  1.00  0.00    -0.255 N 
ATOM     97  C   UNL     1       7.407   0.131 -15.984  1.00  0.00     0.079 A 
ATOM     98  C   UNL     1       7.254   0.555 -13.610  1.00  0.00     0.266 A 
ATOM     99  C   UNL     1       8.153   0.010 -17.157  1.00  0.00     0.029 A 
ATOM    100  C   UNL     1       8.078   0.216 -14.776  1.00  0.00     0.066 A 
ATOM    101  O   UNL     1       7.717   0.331 -12.493  1.00  0.00    -0.268 OA
ATOM    102  C   UNL     1       9.549  -0.083 -17.099  1.00  0.00     0.002 A 
ATOM    103  C   UNL     1       9.466   0.070 -14.693  1.00  0.00     0.016 A 
ATOM    104  C   UNL     1      10.203  -0.088 -15.865  1.00  0.00     0.001 A 
BRANCH  96 105
ATOM    105  C   UNL     1       5.480   2.139 -13.017  1.00  0.00     0.051 A 
ATOM    106  C   UNL     1       6.312   2.695 -12.020  1.00  0.00     0.028 A 
ATOM    107  C   UNL     1       4.176   2.649 -13.064  1.00  0.00     0.028 A 
ATOM    108  C   UNL     1       5.811   3.485 -10.980  1.00  0.00     0.018 A 
ATOM    109  C   UNL     1       3.647   3.398 -11.999  1.00  0.00     0.018 A 
ATOM    110  C   UNL     1       4.459   3.772 -10.937  1.00  0.00     0.018 A 
ATOM    111  Br  UNL     1       3.724   4.632  -9.428  1.00  0.00    -0.051 Br
ENDBRANCH  96 105
ENDBRANCH  93  94
ENDBRANCH  92  93
ENDBRANCH  90  92
ENDBRANCH  86  87
ENDBRANCH  78  81
ENDBRANCH  76  77
ENDBRANCH   1  76
TORSDOF 19
