REMARK SMILES C[C@@](NC(=O)COc1ccccc1C#N)(C(=O)NCCCCNC(=O)c1ccc(-c2c3nc(c(-c4c(F)cc(S(=O)(=O)[O-])cc4F)c4ccc([nH]4)c(-c4c(F)cc(S(=O)(=O)[O-])cc4F)c4nc(c(-c5c(F)cc(S(=O)(=O)[O-])cc5F)c5ccc2[nH]5)C=C4)C=C3)cc1)C1CC1
REMARK SMILES IDX 19 1 18 2 16 3 17 4 2 6 1 7 3 8 4 9 5 11 6 12 7 13 8 14 9 15
REMARK SMILES IDX 13 16 10 17 12 18 11 19 14 20 15 21 92 22 93 23 94 24 20 25
REMARK SMILES IDX 21 26 22 27 23 28 24 29 25 31 26 32 27 33 91 34 28 35 90 36
REMARK SMILES IDX 29 37 30 38 31 39 84 40 32 41 89 42 83 43 85 44 33 45 88 46
REMARK SMILES IDX 82 47 81 48 34 50 68 51 47 52 67 53 48 54 51 55 66 56 86 57
REMARK SMILES IDX 49 58 50 59 65 61 87 62 52 63 35 64 36 65 45 66 37 67 38 68
REMARK SMILES IDX 44 69 46 70 39 71 40 72 41 73 42 74 43 75 69 76 70 77 79 78
REMARK SMILES IDX 71 79 72 80 78 81 80 82 73 83 74 84 75 85 76 86 77 87 53 88
REMARK SMILES IDX 54 89 63 90 55 91 56 92 62 93 64 94 57 95 58 96 59 97 60 98
REMARK SMILES IDX 61 99
REMARK H PARENT 18 5 3 10 23 30 85 49 51 60
REMARK Flexibility Score: inf
ROOT
ATOM      1  C   UNL     1      -1.675   1.312   0.535  1.00  0.00     0.116 C 
ENDROOT
BRANCH   1   2
ATOM      2  N   UNL     1      -1.788  -0.031  -0.005  1.00  0.00    -0.354 N 
ATOM      3  C   UNL     1      -1.125  -1.149   0.464  1.00  0.00     0.245 C 
ATOM      4  O   UNL     1      -1.851  -2.120   0.700  1.00  0.00    -0.272 OA
ATOM      5  H   UNL     1      -2.390  -0.156  -0.774  1.00  0.00     0.163 HD
BRANCH   3   6
ATOM      6  C   UNL     1       0.437  -1.169   0.763  1.00  0.00     0.119 C 
ATOM      7  C   UNL     1       1.156  -0.376  -0.362  1.00  0.00     0.046 C 
BRANCH   6   8
ATOM      8  N   UNL     1       0.836  -0.558   2.053  1.00  0.00    -0.339 N 
ATOM      9  C   UNL     1       0.348  -0.956   3.273  1.00  0.00     0.258 C 
ATOM     10  H   UNL     1       1.490   0.177   2.033  1.00  0.00     0.164 HD
ATOM     11  O   UNL     1       1.041  -1.655   4.009  1.00  0.00    -0.271 OA
BRANCH   9  12
ATOM     12  C   UNL     1      -0.924  -0.275   3.758  1.00  0.00     0.329 C 
BRANCH  12  13
ATOM     13  O   UNL     1      -0.617   0.820   4.639  1.00  0.00    -0.482 OA
BRANCH  13  14
ATOM     14  C   UNL     1      -0.085   1.931   4.035  1.00  0.00     0.137 A 
ATOM     15  C   UNL     1      -0.894   2.765   3.273  1.00  0.00     0.048 A 
ATOM     16  C   UNL     1       1.236   2.323   4.279  1.00  0.00     0.094 A 
ATOM     17  C   UNL     1      -0.357   3.920   2.678  1.00  0.00     0.004 A 
ATOM     18  C   UNL     1       1.717   3.548   3.776  1.00  0.00     0.023 A 
ATOM     19  C   UNL     1       0.925   4.339   2.966  1.00  0.00     0.002 A 
BRANCH  16  20
ATOM     20  C   UNL     1       2.156   1.493   4.973  1.00  0.00     0.103 C 
ATOM     21  N   UNL     1       3.006   0.853   5.467  1.00  0.00    -0.192 NA
ENDBRANCH  16  20
ENDBRANCH  13  14
ENDBRANCH  12  13
ENDBRANCH   9  12
ENDBRANCH   6   8
BRANCH   6  22
ATOM     22  C   UNL     1       1.108  -2.571   0.739  1.00  0.00     0.024 C 
ATOM     23  C   UNL     1       0.678  -3.728   1.614  1.00  0.00     0.007 C 
ATOM     24  C   UNL     1       0.522  -3.822   0.120  1.00  0.00     0.007 C 
ENDBRANCH   6  22
ENDBRANCH   3   6
ENDBRANCH   1   2
BRANCH   1  25
ATOM     25  C   UNL     1      -2.225   2.454  -0.326  1.00  0.00     0.023 C 
BRANCH  25  26
ATOM     26  C   UNL     1      -3.712   2.842  -0.145  1.00  0.00     0.023 C 
BRANCH  26  27
ATOM     27  C   UNL     1      -4.239   3.352   1.213  1.00  0.00     0.116 C 
BRANCH  27  28
ATOM     28  N   UNL     1      -3.458   4.429   1.799  1.00  0.00    -0.352 N 
ATOM     29  C   UNL     1      -3.772   5.651   2.338  1.00  0.00     0.251 C 
ATOM     30  H   UNL     1      -2.492   4.240   1.813  1.00  0.00     0.163 HD
ATOM     31  O   UNL     1      -2.904   6.469   2.616  1.00  0.00    -0.269 OA
BRANCH  29  32
ATOM     32  C   UNL     1      -5.167   5.899   2.680  1.00  0.00     0.039 A 
ATOM     33  C   UNL     1      -5.804   7.073   2.284  1.00  0.00     0.014 A 
ATOM     34  C   UNL     1      -5.835   4.884   3.366  1.00  0.00     0.014 A 
ATOM     35  C   UNL     1      -7.179   7.158   2.450  1.00  0.00     0.010 A 
ATOM     36  C   UNL     1      -7.207   4.927   3.439  1.00  0.00     0.010 A 
ATOM     37  C   UNL     1      -7.884   6.052   2.954  1.00  0.00    -0.014 A 
BRANCH  37  38
ATOM     38  C   UNL     1      -9.352   6.003   2.912  1.00  0.00     0.031 A 
ATOM     39  C   UNL     1     -10.118   5.905   4.192  1.00  0.00     0.074 A 
ATOM     40  C   UNL     1      -9.943   5.927   1.705  1.00  0.00     0.049 A 
ATOM     41  N   UNL     1     -11.404   5.782   4.367  1.00  0.00    -0.248 NA
ATOM     42  C   UNL     1      -9.334   5.895   5.440  1.00  0.00     0.031 C 
ATOM     43  C   UNL     1      -9.237   5.912   0.416  1.00  0.00     0.029 A 
ATOM     44  N   UNL     1     -11.261   5.843   1.356  1.00  0.00    -0.354 N 
ATOM     45  C   UNL     1     -11.582   5.676   5.739  1.00  0.00     0.074 A 
ATOM     46  C   UNL     1     -10.271   5.665   6.346  1.00  0.00     0.031 C 
ATOM     47  C   UNL     1     -10.134   5.873  -0.580  1.00  0.00     0.029 A 
ATOM     48  C   UNL     1     -11.470   5.819  -0.003  1.00  0.00     0.049 A 
ATOM     49  H   UNL     1     -11.992   5.804   2.014  1.00  0.00     0.167 HD
ATOM     50  C   UNL     1     -12.746   5.630   6.424  1.00  0.00     0.037 A 
ATOM     51  C   UNL     1     -12.622   5.764  -0.695  1.00  0.00     0.037 A 
ATOM     52  C   UNL     1     -14.030   5.663   5.776  1.00  0.00     0.049 A 
ATOM     53  C   UNL     1     -13.903   5.745   0.090  1.00  0.00     0.074 A 
ATOM     54  C   UNL     1     -15.286   5.681   6.349  1.00  0.00     0.029 A 
ATOM     55  N   UNL     1     -14.213   5.681   4.398  1.00  0.00    -0.354 N 
ATOM     56  N   UNL     1     -14.067   5.734   1.394  1.00  0.00    -0.248 NA
ATOM     57  C   UNL     1     -15.152   5.743  -0.677  1.00  0.00     0.031 C 
ATOM     58  C   UNL     1     -16.230   5.659   5.317  1.00  0.00     0.029 A 
ATOM     59  C   UNL     1     -15.563   5.690   4.100  1.00  0.00     0.049 A 
ATOM     60  H   UNL     1     -13.488   5.686   3.732  1.00  0.00     0.167 HD
ATOM     61  C   UNL     1     -15.438   5.749   1.606  1.00  0.00     0.074 A 
ATOM     62  C   UNL     1     -16.055   5.788   0.293  1.00  0.00     0.031 C 
ATOM     63  C   UNL     1     -16.130   5.731   2.773  1.00  0.00     0.037 A 
BRANCH  50  64
ATOM     64  C   UNL     1     -12.670   5.552   7.923  1.00  0.00     0.058 A 
ATOM     65  C   UNL     1     -12.166   6.614   8.694  1.00  0.00     0.135 A 
ATOM     66  C   UNL     1     -13.107   4.404   8.603  1.00  0.00     0.135 A 
ATOM     67  F   UNL     1     -11.711   7.727   8.097  1.00  0.00    -0.206 F 
ATOM     68  C   UNL     1     -12.068   6.529  10.079  1.00  0.00     0.059 A 
ATOM     69  C   UNL     1     -13.050   4.310   9.991  1.00  0.00     0.059 A 
ATOM     70  F   UNL     1     -13.588   3.354   7.919  1.00  0.00    -0.206 F 
ATOM     71  C   UNL     1     -12.516   5.372  10.719  1.00  0.00     0.060 A 
BRANCH  71  72
ATOM     72  S   UNL     1     -12.393   5.285  12.517  1.00  0.00     0.124 S 
ATOM     73  O   UNL     1     -10.952   5.154  12.705  1.00  0.00    -0.237 OA
ATOM     74  O   UNL     1     -12.972   6.560  12.929  1.00  0.00    -0.237 OA
ATOM     75  O   UNL     1     -13.180   4.104  12.855  1.00  0.00    -0.744 OA
ENDBRANCH  71  72
ENDBRANCH  50  64
BRANCH  51  76
ATOM     76  C   UNL     1     -12.603   5.773  -2.182  1.00  0.00     0.058 A 
ATOM     77  C   UNL     1     -13.062   6.884  -2.905  1.00  0.00     0.135 A 
ATOM     78  C   UNL     1     -12.087   4.690  -2.913  1.00  0.00     0.135 A 
ATOM     79  F   UNL     1     -13.557   7.948  -2.255  1.00  0.00    -0.206 F 
ATOM     80  C   UNL     1     -13.031   6.915  -4.296  1.00  0.00     0.059 A 
ATOM     81  C   UNL     1     -12.021   4.708  -4.303  1.00  0.00     0.059 A 
ATOM     82  F   UNL     1     -11.607   3.613  -2.271  1.00  0.00    -0.206 F 
ATOM     83  C   UNL     1     -12.506   5.821  -4.987  1.00  0.00     0.060 A 
BRANCH  83  84
ATOM     84  S   UNL     1     -12.432   5.890  -6.790  1.00  0.00     0.124 S 
ATOM     85  O   UNL     1     -13.841   5.776  -7.147  1.00  0.00    -0.237 OA
ATOM     86  O   UNL     1     -11.817   7.193  -7.020  1.00  0.00    -0.237 OA
ATOM     87  O   UNL     1     -11.598   4.742  -7.136  1.00  0.00    -0.744 OA
ENDBRANCH  83  84
ENDBRANCH  51  76
BRANCH  63  88
ATOM     88  C   UNL     1     -17.627   5.782   2.674  1.00  0.00     0.058 A 
ATOM     89  C   UNL     1     -18.372   4.682   2.224  1.00  0.00     0.135 A 
ATOM     90  C   UNL     1     -18.322   6.926   3.094  1.00  0.00     0.135 A 
ATOM     91  F   UNL     1     -17.750   3.568   1.805  1.00  0.00    -0.206 F 
ATOM     92  C   UNL     1     -19.759   4.724   2.169  1.00  0.00     0.059 A 
ATOM     93  C   UNL     1     -19.710   6.978   3.081  1.00  0.00     0.059 A 
ATOM     94  F   UNL     1     -17.652   7.999   3.545  1.00  0.00    -0.206 F 
ATOM     95  C   UNL     1     -20.419   5.875   2.605  1.00  0.00     0.060 A 
BRANCH  95  96
ATOM     96  S   UNL     1     -22.221   5.901   2.565  1.00  0.00     0.124 S 
ATOM     97  O   UNL     1     -22.480   6.008   1.133  1.00  0.00    -0.237 OA
ATOM     98  O   UNL     1     -22.563   4.621   3.178  1.00  0.00    -0.237 OA
ATOM     99  O   UNL     1     -22.562   7.080   3.355  1.00  0.00    -0.744 OA
ENDBRANCH  95  96
ENDBRANCH  63  88
ENDBRANCH  37  38
ENDBRANCH  29  32
ENDBRANCH  27  28
ENDBRANCH  26  27
ENDBRANCH  25  26
ENDBRANCH   1  25
TORSDOF 20
