REMARK SMILES O=C(NCCCCNC(=O)[C@]12COc3ccccc3[C@H]1C[N@H+](CCO)C2)c1ccc(-c2c3nc(c(-c4c(F)cc(S(=O)(=O)[O-])cc4F)c4ccc([nH]4)c(-c4c(F)cc(S(=O)(=O)[O-])cc4F)c4nc(c(-c5c(F)cc(S(=O)(=O)[O-])cc5F)c5ccc2[nH]5)C=C4)C=C3)cc1
REMARK SMILES IDX 5 1 4 2 3 3 1 4 2 5 27 7 28 8 92 9 29 10 91 11 30 12 31 13
REMARK SMILES IDX 32 14 85 15 33 16 90 17 84 18 86 19 34 20 89 21 83 22 82 23
REMARK SMILES IDX 35 25 69 26 48 27 68 28 49 29 52 30 67 31 87 32 50 33 51 34
REMARK SMILES IDX 66 36 88 37 53 38 36 39 37 40 46 41 38 42 39 43 45 44 47 45
REMARK SMILES IDX 40 46 41 47 42 48 43 49 44 50 70 51 71 52 80 53 72 54 73 55
REMARK SMILES IDX 79 56 81 57 74 58 75 59 76 60 77 61 78 62 54 63 55 64 64 65
REMARK SMILES IDX 56 66 57 67 63 68 65 69 58 70 59 71 60 72 61 73 62 74 6 75
REMARK SMILES IDX 7 76 8 77 9 78 10 80 11 81 12 82 20 83 26 84 13 85 19 86
REMARK SMILES IDX 21 87 22 88 14 89 18 90 15 92 17 93 16 94 23 95 24 96 25 97
REMARK H PARENT 3 6 86 24 52 35 8 79 22 91 25 98
REMARK Flexibility Score: inf
ROOT
ATOM      1  C   UNL     1       4.490   2.601   0.502  1.00  0.00     0.023 C 
ENDROOT
BRANCH   1   2
ATOM      2  C   UNL     1       4.314   1.091   0.645  1.00  0.00     0.116 C 
BRANCH   2   3
ATOM      3  N   UNL     1       2.910   0.730   0.719  1.00  0.00    -0.352 N 
ATOM      4  O   UNL     1       0.958  -0.085  -0.026  1.00  0.00    -0.269 OA
ATOM      5  C   UNL     1       2.184  -0.115  -0.082  1.00  0.00     0.251 C 
ATOM      6  H   UNL     1       2.406   1.152   1.451  1.00  0.00     0.163 HD
BRANCH   5   7
ATOM      7  C   UNL     1       2.858  -1.061  -1.001  1.00  0.00     0.039 A 
ATOM      8  C   UNL     1       2.317  -1.262  -2.276  1.00  0.00     0.014 A 
ATOM      9  C   UNL     1       3.955  -1.822  -0.582  1.00  0.00     0.014 A 
ATOM     10  C   UNL     1       2.881  -2.211  -3.134  1.00  0.00     0.010 A 
ATOM     11  C   UNL     1       4.542  -2.739  -1.455  1.00  0.00     0.010 A 
ATOM     12  C   UNL     1       3.999  -2.957  -2.732  1.00  0.00    -0.014 A 
BRANCH  12  13
ATOM     13  C   UNL     1       4.571  -4.021  -3.598  1.00  0.00     0.031 A 
ATOM     14  C   UNL     1       4.433  -5.465  -3.188  1.00  0.00     0.074 A 
ATOM     15  C   UNL     1       5.226  -3.699  -4.730  1.00  0.00     0.049 A 
ATOM     16  N   UNL     1       4.968  -6.532  -3.724  1.00  0.00    -0.248 NA
ATOM     17  C   UNL     1       3.590  -5.742  -2.013  1.00  0.00     0.031 C 
ATOM     18  C   UNL     1       5.408  -2.342  -5.249  1.00  0.00     0.029 A 
ATOM     19  N   UNL     1       5.866  -4.493  -5.650  1.00  0.00    -0.354 N 
ATOM     20  C   UNL     1       4.531  -7.603  -2.953  1.00  0.00     0.074 A 
ATOM     21  C   UNL     1       3.721  -7.055  -1.887  1.00  0.00     0.031 C 
ATOM     22  C   UNL     1       6.096  -2.401  -6.402  1.00  0.00     0.029 A 
ATOM     23  C   UNL     1       6.443  -3.791  -6.682  1.00  0.00     0.049 A 
ATOM     24  H   UNL     1       5.907  -5.474  -5.577  1.00  0.00     0.167 HD
ATOM     25  C   UNL     1       4.766  -8.925  -3.130  1.00  0.00     0.037 A 
ATOM     26  C   UNL     1       7.178  -4.221  -7.726  1.00  0.00     0.037 A 
ATOM     27  C   UNL     1       5.555  -9.470  -4.204  1.00  0.00     0.049 A 
ATOM     28  C   UNL     1       7.467  -5.692  -7.869  1.00  0.00     0.074 A 
ATOM     29  C   UNL     1       5.877 -10.794  -4.451  1.00  0.00     0.029 A 
ATOM     30  N   UNL     1       6.125  -8.724  -5.224  1.00  0.00    -0.354 N 
ATOM     31  N   UNL     1       7.083  -6.687  -7.104  1.00  0.00    -0.248 NA
ATOM     32  C   UNL     1       8.290  -6.101  -9.016  1.00  0.00     0.031 C 
ATOM     33  C   UNL     1       6.655 -10.847  -5.612  1.00  0.00     0.029 A 
ATOM     34  C   UNL     1       6.786  -9.560  -6.107  1.00  0.00     0.049 A 
ATOM     35  H   UNL     1       6.069  -7.745  -5.307  1.00  0.00     0.167 HD
ATOM     36  C   UNL     1       7.582  -7.839  -7.702  1.00  0.00     0.074 A 
ATOM     37  C   UNL     1       8.294  -7.420  -8.891  1.00  0.00     0.031 C 
ATOM     38  C   UNL     1       7.460  -9.129  -7.304  1.00  0.00     0.037 A 
BRANCH  25  39
ATOM     39  C   UNL     1       4.145  -9.888  -2.158  1.00  0.00     0.058 A 
ATOM     40  C   UNL     1       2.774 -10.184  -2.204  1.00  0.00     0.135 A 
ATOM     41  C   UNL     1       4.937 -10.588  -1.233  1.00  0.00     0.135 A 
ATOM     42  F   UNL     1       1.970  -9.527  -3.055  1.00  0.00    -0.206 F 
ATOM     43  C   UNL     1       2.209 -11.142  -1.370  1.00  0.00     0.059 A 
ATOM     44  C   UNL     1       4.396 -11.567  -0.404  1.00  0.00     0.059 A 
ATOM     45  F   UNL     1       6.253 -10.339  -1.144  1.00  0.00    -0.206 F 
ATOM     46  C   UNL     1       3.030 -11.836  -0.479  1.00  0.00     0.060 A 
BRANCH  46  47
ATOM     47  S   UNL     1       2.287 -13.116   0.554  1.00  0.00     0.124 S 
ATOM     48  O   UNL     1       1.490 -12.318   1.480  1.00  0.00    -0.237 OA
ATOM     49  O   UNL     1       1.533 -13.901  -0.417  1.00  0.00    -0.237 OA
ATOM     50  O   UNL     1       3.441 -13.792   1.142  1.00  0.00    -0.744 OA
ENDBRANCH  46  47
ENDBRANCH  25  39
BRANCH  26  51
ATOM     51  C   UNL     1       7.690  -3.257  -8.738  1.00  0.00     0.058 A 
ATOM     52  C   UNL     1       7.184  -3.257 -10.047  1.00  0.00     0.135 A 
ATOM     53  C   UNL     1       8.714  -2.348  -8.433  1.00  0.00     0.135 A 
ATOM     54  F   UNL     1       6.210  -4.114 -10.388  1.00  0.00    -0.206 F 
ATOM     55  C   UNL     1       7.695  -2.413 -11.027  1.00  0.00     0.059 A 
ATOM     56  C   UNL     1       9.225  -1.476  -9.390  1.00  0.00     0.059 A 
ATOM     57  F   UNL     1       9.223  -2.298  -7.192  1.00  0.00    -0.206 F 
ATOM     58  C   UNL     1       8.720  -1.528 -10.689  1.00  0.00     0.060 A 
BRANCH  58  59
ATOM     59  S   UNL     1       9.372  -0.430 -11.965  1.00  0.00     0.124 S 
ATOM     60  O   UNL     1      10.168  -1.352 -12.767  1.00  0.00    -0.237 OA
ATOM     61  O   UNL     1       8.153   0.073 -12.591  1.00  0.00    -0.237 OA
ATOM     62  O   UNL     1      10.128   0.558 -11.201  1.00  0.00    -0.744 OA
ENDBRANCH  58  59
ENDBRANCH  26  51
BRANCH  38  63
ATOM     63  C   UNL     1       8.047 -10.188  -8.194  1.00  0.00     0.058 A 
ATOM     64  C   UNL     1       9.430 -10.409  -8.270  1.00  0.00     0.135 A 
ATOM     65  C   UNL     1       7.204 -11.021  -8.948  1.00  0.00     0.135 A 
ATOM     66  F   UNL     1      10.277  -9.637  -7.572  1.00  0.00    -0.206 F 
ATOM     67  C   UNL     1       9.960 -11.405  -9.084  1.00  0.00     0.059 A 
ATOM     68  C   UNL     1       7.711 -12.039  -9.749  1.00  0.00     0.059 A 
ATOM     69  F   UNL     1       5.872 -10.857  -8.900  1.00  0.00    -0.206 F 
ATOM     70  C   UNL     1       9.092 -12.214  -9.821  1.00  0.00     0.060 A 
BRANCH  70  71
ATOM     71  S   UNL     1       9.793 -13.516 -10.857  1.00  0.00     0.124 S 
ATOM     72  O   UNL     1      10.335 -12.745 -11.971  1.00  0.00    -0.237 OA
ATOM     73  O   UNL     1      10.777 -14.126  -9.970  1.00  0.00    -0.237 OA
ATOM     74  O   UNL     1       8.640 -14.354 -11.175  1.00  0.00    -0.744 OA
ENDBRANCH  70  71
ENDBRANCH  38  63
ENDBRANCH  12  13
ENDBRANCH   5   7
ENDBRANCH   2   3
ENDBRANCH   1   2
BRANCH   1  75
ATOM     75  C   UNL     1       3.995   3.444   1.694  1.00  0.00     0.023 C 
BRANCH  75  76
ATOM     76  C   UNL     1       4.569   3.070   3.073  1.00  0.00     0.116 C 
BRANCH  76  77
ATOM     77  N   UNL     1       6.013   3.092   3.028  1.00  0.00    -0.355 N 
ATOM     78  C   UNL     1       6.959   3.814   3.651  1.00  0.00     0.236 C 
ATOM     79  H   UNL     1       6.387   2.430   2.401  1.00  0.00     0.163 HD
ATOM     80  O   UNL     1       8.010   3.922   2.997  1.00  0.00    -0.274 OA
BRANCH  78  81
ATOM     81  C   UNL     1       6.934   4.328   5.091  1.00  0.00     0.144 C 
ATOM     82  C   UNL     1       7.698   3.257   5.893  1.00  0.00     0.253 C 
ATOM     83  C   UNL     1       5.681   4.722   5.877  1.00  0.00     0.103 C 
ATOM     84  C   UNL     1       7.714   5.670   5.024  1.00  0.00     0.283 C 
ATOM     85  O   UNL     1       6.880   2.109   6.179  1.00  0.00    -0.492 OA
ATOM     86  C   UNL     1       5.107   3.646   6.765  1.00  0.00     0.004 A 
ATOM     87  C   UNL     1       6.204   5.830   6.819  1.00  0.00     0.272 C 
ATOM     88  N   UNL     1       7.228   6.554   6.090  1.00  0.00    -0.331 N 
ATOM     89  C   UNL     1       5.761   2.421   6.898  1.00  0.00     0.123 A 
ATOM     90  C   UNL     1       3.995   3.912   7.585  1.00  0.00     0.008 A 
ATOM     91  H   UNL     1       7.996   6.777   6.723  1.00  0.00     0.348 HD
ATOM     92  C   UNL     1       5.303   1.464   7.803  1.00  0.00     0.047 A 
ATOM     93  C   UNL     1       3.571   2.978   8.531  1.00  0.00     0.001 A 
ATOM     94  C   UNL     1       4.223   1.752   8.638  1.00  0.00     0.004 A 
BRANCH  88  95
ATOM     95  C   UNL     1       6.837   7.901   5.645  1.00  0.00     0.290 C 
BRANCH  95  96
ATOM     96  C   UNL     1       5.574   8.056   4.774  1.00  0.00     0.217 C 
BRANCH  96  97
ATOM     97  O   UNL     1       4.379   8.038   5.550  1.00  0.00    -0.391 OA
ATOM     98  H   UNL     1       4.305   7.187   6.010  1.00  0.00     0.210 HD
ENDBRANCH  96  97
ENDBRANCH  95  96
ENDBRANCH  88  95
ENDBRANCH  78  81
ENDBRANCH  76  77
ENDBRANCH  75  76
ENDBRANCH   1  75
TORSDOF 17
