REMARK SMILES CC(C)[C@H](NC(=O)CCC1=c2ccccc2=NC1)C(=O)NCCCCNC(=O)c1ccc(-c2c3nc(c(-c4c(F)cc(S(=O)(=O)[O-])cc4F)c4ccc([nH]4)c(-c4c(F)cc(S(=O)(=O)[O-])cc4F)c4nc(c(-c5c(F)cc(S(=O)(=O)[O-])cc5F)c5ccc2[nH]5)C=C4)C=C3)cc1
REMARK SMILES IDX 23 1 22 2 21 3 19 4 20 5 4 7 2 8 1 9 3 10 5 11 6 12 7 14
REMARK SMILES IDX 8 15 9 16 10 17 11 18 18 19 12 20 16 21 17 22 13 23 15 24
REMARK SMILES IDX 14 25 24 26 25 27 26 28 27 29 28 31 29 32 30 33 94 34 31 35
REMARK SMILES IDX 93 36 32 37 33 38 34 39 87 40 35 41 92 42 86 43 88 44 36 45
REMARK SMILES IDX 91 46 85 47 84 48 37 50 71 51 50 52 70 53 51 54 54 55 69 56
REMARK SMILES IDX 89 57 52 58 53 59 68 61 90 62 55 63 38 64 39 65 48 66 40 67
REMARK SMILES IDX 41 68 47 69 49 70 42 71 43 72 44 73 45 74 46 75 72 76 73 77
REMARK SMILES IDX 82 78 74 79 75 80 81 81 83 82 76 83 77 84 78 85 79 86 80 87
REMARK SMILES IDX 56 88 57 89 66 90 58 91 59 92 65 93 67 94 60 95 61 96 62 97
REMARK SMILES IDX 63 98 64 99
REMARK H PARENT 21 6 5 13 26 30 88 49 54 60
REMARK Flexibility Score: inf
ROOT
ATOM      1  C   UNL     1       1.874   4.179  -2.836  1.00  0.00     0.023 C 
ENDROOT
BRANCH   1   2
ATOM      2  C   UNL     1       0.713   3.997  -1.868  1.00  0.00     0.116 C 
BRANCH   2   3
ATOM      3  N   UNL     1      -0.494   3.546  -2.509  1.00  0.00    -0.354 N 
ATOM      4  C   UNL     1      -1.245   2.441  -2.333  1.00  0.00     0.242 C 
ATOM      5  O   UNL     1      -2.304   2.405  -2.971  1.00  0.00    -0.273 OA
ATOM      6  H   UNL     1      -0.834   4.157  -3.203  1.00  0.00     0.163 HD
BRANCH   4   7
ATOM      7  C   UNL     1      -0.885   1.311  -1.345  1.00  0.00     0.173 C 
BRANCH   7   8
ATOM      8  C   UNL     1      -1.239   1.601   0.144  1.00  0.00     0.015 C 
ATOM      9  C   UNL     1      -0.107   2.061   1.065  1.00  0.00     0.010 C 
ATOM     10  C   UNL     1      -2.423   2.566   0.278  1.00  0.00     0.010 C 
ENDBRANCH   7   8
BRANCH   7  11
ATOM     11  N   UNL     1       0.424   0.697  -1.568  1.00  0.00    -0.344 N 
ATOM     12  C   UNL     1       0.761  -0.175  -2.568  1.00  0.00     0.220 C 
ATOM     13  H   UNL     1       1.136   0.935  -0.932  1.00  0.00     0.164 HD
ATOM     14  O   UNL     1       1.756  -0.885  -2.411  1.00  0.00    -0.275 OA
BRANCH  12  15
ATOM     15  C   UNL     1      -0.039  -0.212  -3.860  1.00  0.00     0.104 C 
BRANCH  15  16
ATOM     16  C   UNL     1      -0.857  -1.485  -4.082  1.00  0.00     0.043 C 
BRANCH  16  17
ATOM     17  C   UNL     1      -1.986  -1.726  -3.128  1.00  0.00    -0.039 C 
ATOM     18  C   UNL     1      -2.078  -2.689  -2.213  1.00  0.00     0.001 A 
ATOM     19  C   UNL     1      -3.264  -0.933  -3.171  1.00  0.00     0.174 C 
ATOM     20  C   UNL     1      -1.254  -3.782  -1.812  1.00  0.00     0.010 A 
ATOM     21  C   UNL     1      -3.387  -2.437  -1.592  1.00  0.00     0.065 A 
ATOM     22  N   UNL     1      -4.098  -1.458  -2.057  1.00  0.00    -0.280 NA
ATOM     23  C   UNL     1      -1.691  -4.592  -0.834  1.00  0.00     0.001 A 
ATOM     24  C   UNL     1      -3.771  -3.333  -0.479  1.00  0.00     0.028 A 
ATOM     25  C   UNL     1      -2.951  -4.347  -0.152  1.00  0.00     0.002 A 
ENDBRANCH  16  17
ENDBRANCH  15  16
ENDBRANCH  12  15
ENDBRANCH   7  11
ENDBRANCH   4   7
ENDBRANCH   2   3
ENDBRANCH   1   2
BRANCH   1  26
ATOM     26  C   UNL     1       1.573   4.920  -4.137  1.00  0.00     0.023 C 
BRANCH  26  27
ATOM     27  C   UNL     1       0.741   6.190  -4.044  1.00  0.00     0.116 C 
BRANCH  27  28
ATOM     28  N   UNL     1       1.220   7.177  -3.091  1.00  0.00    -0.352 N 
ATOM     29  C   UNL     1       1.119   8.547  -3.203  1.00  0.00     0.251 C 
ATOM     30  H   UNL     1       1.663   6.831  -2.283  1.00  0.00     0.163 HD
ATOM     31  O   UNL     1       1.527   9.291  -2.318  1.00  0.00    -0.269 OA
BRANCH  29  32
ATOM     32  C   UNL     1       0.567   9.088  -4.460  1.00  0.00     0.039 A 
ATOM     33  C   UNL     1      -0.726   8.741  -4.860  1.00  0.00     0.014 A 
ATOM     34  C   UNL     1       1.429   9.769  -5.321  1.00  0.00     0.014 A 
ATOM     35  C   UNL     1      -1.096   8.931  -6.187  1.00  0.00     0.010 A 
ATOM     36  C   UNL     1       1.026  10.021  -6.633  1.00  0.00     0.010 A 
ATOM     37  C   UNL     1      -0.215   9.551  -7.092  1.00  0.00    -0.014 A 
BRANCH  37  38
ATOM     38  C   UNL     1      -0.590   9.676  -8.523  1.00  0.00     0.031 A 
ATOM     39  C   UNL     1       0.178   8.936  -9.588  1.00  0.00     0.074 A 
ATOM     40  C   UNL     1      -1.649  10.436  -8.857  1.00  0.00     0.049 A 
ATOM     41  N   UNL     1       0.027   8.970 -10.887  1.00  0.00    -0.248 NA
ATOM     42  C   UNL     1       1.260   8.045  -9.137  1.00  0.00     0.031 C 
ATOM     43  C   UNL     1      -2.480  11.182  -7.911  1.00  0.00     0.029 A 
ATOM     44  N   UNL     1      -2.219  10.693 -10.077  1.00  0.00    -0.354 N 
ATOM     45  C   UNL     1       1.007   8.134 -11.411  1.00  0.00     0.074 A 
ATOM     46  C   UNL     1       1.759   7.614 -10.289  1.00  0.00     0.031 C 
ATOM     47  C   UNL     1      -3.479  11.777  -8.579  1.00  0.00     0.029 A 
ATOM     48  C   UNL     1      -3.322  11.508 -10.005  1.00  0.00     0.049 A 
ATOM     49  H   UNL     1      -1.871  10.329 -10.923  1.00  0.00     0.167 HD
ATOM     50  C   UNL     1       1.252   7.827 -12.707  1.00  0.00     0.037 A 
ATOM     51  C   UNL     1      -4.109  12.002 -10.978  1.00  0.00     0.037 A 
ATOM     52  C   UNL     1       0.478   8.324 -13.816  1.00  0.00     0.049 A 
ATOM     53  C   UNL     1      -3.805  11.664 -12.407  1.00  0.00     0.074 A 
ATOM     54  C   UNL     1       0.636   8.059 -15.166  1.00  0.00     0.029 A 
ATOM     55  N   UNL     1      -0.607   9.182 -13.704  1.00  0.00    -0.354 N 
ATOM     56  N   UNL     1      -2.854  10.897 -12.884  1.00  0.00    -0.248 NA
ATOM     57  C   UNL     1      -4.668  12.269 -13.429  1.00  0.00     0.031 C 
ATOM     58  C   UNL     1      -0.335   8.779 -15.871  1.00  0.00     0.029 A 
ATOM     59  C   UNL     1      -1.119   9.466 -14.959  1.00  0.00     0.049 A 
ATOM     60  H   UNL     1      -0.960   9.537 -12.856  1.00  0.00     0.167 HD
ATOM     61  C   UNL     1      -3.002  10.929 -14.265  1.00  0.00     0.074 A 
ATOM     62  C   UNL     1      -4.147  11.772 -14.544  1.00  0.00     0.031 C 
ATOM     63  C   UNL     1      -2.251  10.320 -15.216  1.00  0.00     0.037 A 
BRANCH  50  64
ATOM     64  C   UNL     1       2.415   6.921 -13.008  1.00  0.00     0.058 A 
ATOM     65  C   UNL     1       2.353   5.539 -12.775  1.00  0.00     0.135 A 
ATOM     66  C   UNL     1       3.586   7.435 -13.589  1.00  0.00     0.135 A 
ATOM     67  F   UNL     1       1.264   4.997 -12.207  1.00  0.00    -0.206 F 
ATOM     68  C   UNL     1       3.417   4.700 -13.091  1.00  0.00     0.059 A 
ATOM     69  C   UNL     1       4.656   6.612 -13.931  1.00  0.00     0.059 A 
ATOM     70  F   UNL     1       3.698   8.751 -13.832  1.00  0.00    -0.206 F 
ATOM     71  C   UNL     1       4.566   5.246 -13.669  1.00  0.00     0.060 A 
BRANCH  71  72
ATOM     72  S   UNL     1       5.935   4.143 -14.080  1.00  0.00     0.124 S 
ATOM     73  O   UNL     1       6.478   3.849 -12.758  1.00  0.00    -0.237 OA
ATOM     74  O   UNL     1       5.257   3.036 -14.746  1.00  0.00    -0.237 OA
ATOM     75  O   UNL     1       6.785   4.961 -14.940  1.00  0.00    -0.744 OA
ENDBRANCH  71  72
ENDBRANCH  50  64
BRANCH  51  76
ATOM     76  C   UNL     1      -5.252  12.875 -10.612  1.00  0.00     0.058 A 
ATOM     77  C   UNL     1      -6.568  12.400 -10.680  1.00  0.00     0.135 A 
ATOM     78  C   UNL     1      -5.044  14.173 -10.119  1.00  0.00     0.135 A 
ATOM     79  F   UNL     1      -6.814  11.168 -11.150  1.00  0.00    -0.206 F 
ATOM     80  C   UNL     1      -7.642  13.178 -10.261  1.00  0.00     0.059 A 
ATOM     81  C   UNL     1      -6.099  14.961  -9.674  1.00  0.00     0.059 A 
ATOM     82  F   UNL     1      -3.798  14.663 -10.021  1.00  0.00    -0.206 F 
ATOM     83  C   UNL     1      -7.396  14.454  -9.750  1.00  0.00     0.060 A 
BRANCH  83  84
ATOM     84  S   UNL     1      -8.786  15.420  -9.120  1.00  0.00     0.124 S 
ATOM     85  O   UNL     1      -9.416  15.867 -10.357  1.00  0.00    -0.237 OA
ATOM     86  O   UNL     1      -9.526  14.427  -8.349  1.00  0.00    -0.237 OA
ATOM     87  O   UNL     1      -8.137  16.460  -8.328  1.00  0.00    -0.744 OA
ENDBRANCH  83  84
ENDBRANCH  51  76
BRANCH  63  88
ATOM     88  C   UNL     1      -2.645  10.549 -16.645  1.00  0.00     0.058 A 
ATOM     89  C   UNL     1      -2.345  11.754 -17.298  1.00  0.00     0.135 A 
ATOM     90  C   UNL     1      -3.288   9.542 -17.381  1.00  0.00     0.135 A 
ATOM     91  F   UNL     1      -1.738  12.750 -16.633  1.00  0.00    -0.206 F 
ATOM     92  C   UNL     1      -2.684  11.960 -18.631  1.00  0.00     0.059 A 
ATOM     93  C   UNL     1      -3.619   9.719 -18.720  1.00  0.00     0.059 A 
ATOM     94  F   UNL     1      -3.589   8.369 -16.802  1.00  0.00    -0.206 F 
ATOM     95  C   UNL     1      -3.322  10.936 -19.334  1.00  0.00     0.060 A 
BRANCH  95  96
ATOM     96  S   UNL     1      -3.731  11.204 -21.071  1.00  0.00     0.124 S 
ATOM     97  O   UNL     1      -4.889  12.087 -20.967  1.00  0.00    -0.237 OA
ATOM     98  O   UNL     1      -2.512  11.816 -21.590  1.00  0.00    -0.237 OA
ATOM     99  O   UNL     1      -4.009   9.859 -21.566  1.00  0.00    -0.744 OA
ENDBRANCH  95  96
ENDBRANCH  63  88
ENDBRANCH  37  38
ENDBRANCH  29  32
ENDBRANCH  27  28
ENDBRANCH  26  27
ENDBRANCH   1  26
TORSDOF 19
