REMARK SMILES Cc1c(F)cc(C(=O)NCCCCNC(=O)c2ccc(-c3c4nc(c(-c5c(F)cc(S(=O)(=O)[O-])cc5F)c5ccc([nH]5)c(-c5c(F)cc(S(=O)(=O)[O-])cc5F)c5nc(c(-c6c(F)cc(S(=O)(=O)[O-])cc6F)c6ccc3[nH]6)C=C5)C=C4)cc2)cc1S(=O)(=O)NC#N
REMARK SMILES IDX 11 1 10 2 9 3 7 4 8 5 6 7 1 8 2 9 3 10 84 11 4 12 5 13 83 14
REMARK SMILES IDX 85 15 86 16 87 17 88 18 89 20 90 21 12 22 13 23 14 24 15 25
REMARK SMILES IDX 16 27 17 28 18 29 82 30 19 31 81 32 20 33 21 34 22 35 75 36
REMARK SMILES IDX 23 37 80 38 74 39 76 40 24 41 79 42 73 43 72 44 25 46 59 47
REMARK SMILES IDX 38 48 58 49 39 50 42 51 57 52 77 53 40 54 41 55 56 57 78 58
REMARK SMILES IDX 43 59 26 60 27 61 36 62 28 63 29 64 35 65 37 66 30 67 31 68
REMARK SMILES IDX 32 69 33 70 34 71 60 72 61 73 70 74 62 75 63 76 69 77 71 78
REMARK SMILES IDX 64 79 65 80 66 81 67 82 68 83 44 84 45 85 54 86 46 87 47 88
REMARK SMILES IDX 53 89 55 90 48 91 49 92 50 93 51 94 52 95
REMARK H PARENT 9 6 88 19 14 26 76 45 42 56
REMARK Flexibility Score: inf
ROOT
ATOM      1  C   UNL     1      -5.032   0.446  -1.259  1.00  0.00     0.023 C 
ENDROOT
BRANCH   1   2
ATOM      2  C   UNL     1      -4.704   0.107   0.202  1.00  0.00     0.116 C 
BRANCH   2   3
ATOM      3  N   UNL     1      -4.108  -1.214   0.278  1.00  0.00    -0.352 N 
ATOM      4  C   UNL     1      -2.845  -1.684   0.045  1.00  0.00     0.251 C 
ATOM      5  O   UNL     1      -2.704  -2.907  -0.020  1.00  0.00    -0.269 OA
ATOM      6  H   UNL     1      -4.743  -1.914   0.554  1.00  0.00     0.163 HD
BRANCH   4   7
ATOM      7  C   UNL     1      -1.629  -0.825  -0.074  1.00  0.00     0.044 A 
ATOM      8  C   UNL     1       2.163   1.284  -0.221  1.00  0.00     0.049 C 
ATOM      9  C   UNL     1       0.806   0.677  -0.137  1.00  0.00     0.005 A 
ATOM     10  C   UNL     1       0.776  -0.728  -0.005  1.00  0.00     0.128 A 
ATOM     11  C   UNL     1      -0.419   1.341  -0.175  1.00  0.00     0.095 A 
ATOM     12  F   UNL     1       1.931  -1.405   0.096  1.00  0.00    -0.207 F 
ATOM     13  C   UNL     1      -0.401  -1.465   0.044  1.00  0.00     0.053 A 
ATOM     14  C   UNL     1      -1.606   0.559  -0.234  1.00  0.00     0.036 A 
BRANCH  11  15
ATOM     15  S   UNL     1      -0.840   3.072   0.000  1.00  0.00     0.270 S 
ATOM     16  O   UNL     1      -1.573   3.367  -1.218  1.00  0.00    -0.201 OA
ATOM     17  O   UNL     1      -1.504   3.173   1.282  1.00  0.00    -0.201 OA
BRANCH  15  18
ATOM     18  N   UNL     1       0.317   4.231  -0.036  1.00  0.00    -0.215 NA
ATOM     19  H   UNL     1       0.081   5.080  -0.476  1.00  0.00     0.193 HD
BRANCH  18  20
ATOM     20  C   UNL     1       1.529   4.141   0.463  1.00  0.00     0.191 C 
ATOM     21  N   UNL     1       2.644   4.165   0.750  1.00  0.00    -0.172 NA
ENDBRANCH  18  20
ENDBRANCH  15  18
ENDBRANCH  11  15
ENDBRANCH   4   7
ENDBRANCH   2   3
ENDBRANCH   1   2
BRANCH   1  22
ATOM     22  C   UNL     1      -6.146  -0.424  -1.859  1.00  0.00     0.023 C 
BRANCH  22  23
ATOM     23  C   UNL     1      -7.472  -0.212  -1.175  1.00  0.00     0.116 C 
BRANCH  23  24
ATOM     24  N   UNL     1      -7.934   1.166  -1.298  1.00  0.00    -0.352 N 
ATOM     25  C   UNL     1      -9.303   1.372  -1.367  1.00  0.00     0.251 C 
ATOM     26  H   UNL     1      -7.300   1.918  -1.332  1.00  0.00     0.163 HD
ATOM     27  O   UNL     1      -9.922   1.419  -2.421  1.00  0.00    -0.269 OA
BRANCH  25  28
ATOM     28  C   UNL     1      -9.981   1.233  -0.053  1.00  0.00     0.039 A 
ATOM     29  C   UNL     1     -11.372   1.301   0.073  1.00  0.00     0.014 A 
ATOM     30  C   UNL     1      -9.186   0.835   1.023  1.00  0.00     0.014 A 
ATOM     31  C   UNL     1     -11.953   0.941   1.283  1.00  0.00     0.010 A 
ATOM     32  C   UNL     1      -9.752   0.265   2.100  1.00  0.00     0.010 A 
ATOM     33  C   UNL     1     -11.119   0.411   2.268  1.00  0.00    -0.014 A 
BRANCH  33  34
ATOM     34  C   UNL     1     -11.526  -0.153   3.531  1.00  0.00     0.031 A 
ATOM     35  C   UNL     1     -12.286  -1.401   3.429  1.00  0.00     0.074 A 
ATOM     36  C   UNL     1     -10.893   0.406   4.592  1.00  0.00     0.049 A 
ATOM     37  N   UNL     1     -13.136  -1.815   4.287  1.00  0.00    -0.248 NA
ATOM     38  C   UNL     1     -12.209  -2.286   2.257  1.00  0.00     0.031 C 
ATOM     39  C   UNL     1     -10.700  -0.003   5.969  1.00  0.00     0.029 A 
ATOM     40  N   UNL     1     -10.315   1.686   4.572  1.00  0.00    -0.354 N 
ATOM     41  C   UNL     1     -13.307  -3.163   4.036  1.00  0.00     0.074 A 
ATOM     42  C   UNL     1     -12.942  -3.331   2.657  1.00  0.00     0.031 C 
ATOM     43  C   UNL     1     -10.446   1.099   6.711  1.00  0.00     0.029 A 
ATOM     44  C   UNL     1     -10.526   2.258   5.827  1.00  0.00     0.049 A 
ATOM     45  H   UNL     1      -9.846   2.103   3.813  1.00  0.00     0.167 HD
ATOM     46  C   UNL     1     -13.478  -3.987   5.111  1.00  0.00     0.037 A 
ATOM     47  C   UNL     1     -11.461   3.257   5.870  1.00  0.00     0.037 A 
ATOM     48  C   UNL     1     -13.411  -3.162   6.326  1.00  0.00     0.049 A 
ATOM     49  C   UNL     1     -12.722   2.714   6.505  1.00  0.00     0.074 A 
ATOM     50  C   UNL     1     -12.384  -2.909   7.221  1.00  0.00     0.029 A 
ATOM     51  N   UNL     1     -14.338  -2.140   6.494  1.00  0.00    -0.354 N 
ATOM     52  N   UNL     1     -13.115   1.467   6.428  1.00  0.00    -0.248 NA
ATOM     53  C   UNL     1     -13.511   3.498   7.447  1.00  0.00     0.031 C 
ATOM     54  C   UNL     1     -12.672  -1.669   7.866  1.00  0.00     0.029 A 
ATOM     55  C   UNL     1     -13.849  -1.159   7.338  1.00  0.00     0.049 A 
ATOM     56  H   UNL     1     -15.226  -2.117   6.069  1.00  0.00     0.167 HD
ATOM     57  C   UNL     1     -14.105   1.246   7.349  1.00  0.00     0.074 A 
ATOM     58  C   UNL     1     -14.320   2.553   7.952  1.00  0.00     0.031 C 
ATOM     59  C   UNL     1     -14.656   0.022   7.617  1.00  0.00     0.037 A 
BRANCH  46  60
ATOM     60  C   UNL     1     -13.422  -5.504   5.155  1.00  0.00     0.058 A 
ATOM     61  C   UNL     1     -13.385  -6.157   6.411  1.00  0.00     0.135 A 
ATOM     62  C   UNL     1     -13.414  -6.382   4.050  1.00  0.00     0.135 A 
ATOM     63  F   UNL     1     -13.418  -5.468   7.560  1.00  0.00    -0.206 F 
ATOM     64  C   UNL     1     -13.323  -7.543   6.559  1.00  0.00     0.059 A 
ATOM     65  C   UNL     1     -13.346  -7.778   4.173  1.00  0.00     0.059 A 
ATOM     66  F   UNL     1     -13.499  -5.943   2.791  1.00  0.00    -0.206 F 
ATOM     67  C   UNL     1     -13.305  -8.351   5.434  1.00  0.00     0.060 A 
BRANCH  67  68
ATOM     68  S   UNL     1     -13.275 -10.137   5.660  1.00  0.00     0.124 S 
ATOM     69  O   UNL     1     -12.009 -10.334   6.359  1.00  0.00    -0.237 OA
ATOM     70  O   UNL     1     -14.479 -10.366   6.451  1.00  0.00    -0.237 OA
ATOM     71  O   UNL     1     -13.319 -10.656   4.295  1.00  0.00    -0.744 OA
ENDBRANCH  67  68
ENDBRANCH  46  60
BRANCH  47  72
ATOM     72  C   UNL     1     -11.306   4.170   4.673  1.00  0.00     0.058 A 
ATOM     73  C   UNL     1     -10.073   4.863   4.594  1.00  0.00     0.135 A 
ATOM     74  C   UNL     1     -11.970   3.942   3.456  1.00  0.00     0.135 A 
ATOM     75  F   UNL     1      -9.406   5.163   5.721  1.00  0.00    -0.206 F 
ATOM     76  C   UNL     1      -9.420   5.088   3.381  1.00  0.00     0.059 A 
ATOM     77  C   UNL     1     -11.342   4.195   2.223  1.00  0.00     0.059 A 
ATOM     78  F   UNL     1     -13.165   3.333   3.443  1.00  0.00    -0.206 F 
ATOM     79  C   UNL     1     -10.030   4.678   2.202  1.00  0.00     0.060 A 
BRANCH  79  80
ATOM     80  S   UNL     1      -9.050   4.720   0.674  1.00  0.00     0.124 S 
ATOM     81  O   UNL     1      -8.490   6.067   0.699  1.00  0.00    -0.237 OA
ATOM     82  O   UNL     1      -8.078   3.643   0.882  1.00  0.00    -0.237 OA
ATOM     83  O   UNL     1     -10.039   4.473  -0.367  1.00  0.00    -0.744 OA
ENDBRANCH  79  80
ENDBRANCH  47  72
BRANCH  59  84
ATOM     84  C   UNL     1     -16.022  -0.178   8.239  1.00  0.00     0.058 A 
ATOM     85  C   UNL     1     -17.008   0.820   8.282  1.00  0.00     0.135 A 
ATOM     86  C   UNL     1     -16.449  -1.466   8.660  1.00  0.00     0.135 A 
ATOM     87  F   UNL     1     -16.809   2.043   7.773  1.00  0.00    -0.206 F 
ATOM     88  C   UNL     1     -18.276   0.593   8.804  1.00  0.00     0.059 A 
ATOM     89  C   UNL     1     -17.745  -1.738   9.076  1.00  0.00     0.059 A 
ATOM     90  F   UNL     1     -15.631  -2.528   8.663  1.00  0.00    -0.206 F 
ATOM     91  C   UNL     1     -18.639  -0.690   9.190  1.00  0.00     0.060 A 
BRANCH  91  92
ATOM     92  S   UNL     1     -20.297  -0.969   9.809  1.00  0.00     0.124 S 
ATOM     93  O   UNL     1     -20.183  -0.449  11.169  1.00  0.00    -0.237 OA
ATOM     94  O   UNL     1     -21.110  -0.174   8.894  1.00  0.00    -0.237 OA
ATOM     95  O   UNL     1     -20.466  -2.414   9.696  1.00  0.00    -0.744 OA
ENDBRANCH  91  92
ENDBRANCH  59  84
ENDBRANCH  33  34
ENDBRANCH  25  28
ENDBRANCH  23  24
ENDBRANCH  22  23
ENDBRANCH   1  22
TORSDOF 17
