REMARK SMILES CCOC(=O)c1c(NC(=O)[C@@H]2[C@@H]3CC[C@@H](C3)[C@@H]2C(=O)NCCCCNC(=O)c2ccc(-c3c4nc(c(-c5c(F)cc(S(=O)(=O)[O-])cc5F)c5ccc([nH]5)c(-c5c(F)cc(S(=O)(=O)[O-])cc5F)c5nc(c(-c6c(F)cc(S(=O)(=O)[O-])cc6F)c6ccc3[nH]6)C=C5)C=C4)cc2)sc2c1CCCC2
REMARK SMILES IDX 21 1 20 2 18 3 19 4 17 6 11 7 12 8 13 9 16 10 15 11 14 12
REMARK SMILES IDX 9 13 8 14 10 16 7 17 6 18 96 19 94 20 95 21 97 22 100 23
REMARK SMILES IDX 98 24 99 25 4 26 5 27 3 28 2 29 1 30 22 31 23 32 24 33 25 34
REMARK SMILES IDX 26 35 27 37 28 38 29 39 93 40 30 41 92 42 31 43 32 44 33 45
REMARK SMILES IDX 86 46 34 47 91 48 85 49 87 50 35 51 90 52 84 53 83 54 36 56
REMARK SMILES IDX 70 57 49 58 69 59 50 60 53 61 68 62 88 63 51 64 52 65 67 67
REMARK SMILES IDX 89 68 54 69 37 70 38 71 47 72 39 73 40 74 46 75 48 76 41 77
REMARK SMILES IDX 42 78 43 79 44 80 45 81 71 82 72 83 81 84 73 85 74 86 80 87
REMARK SMILES IDX 82 88 75 89 76 90 77 91 78 92 79 93 55 94 56 95 65 96 57 97
REMARK SMILES IDX 58 98 64 99 66 100 59 101 60 102 61 103 62 104 63 105
REMARK H PARENT 20 5 8 15 25 36 87 55 53 66
REMARK Flexibility Score: inf
ROOT
ATOM      1  C   UNL     1       1.547   1.127   2.332  1.00  0.00     0.116 C 
ENDROOT
BRANCH   1   2
ATOM      2  N   UNL     1       1.339  -0.267   2.033  1.00  0.00    -0.356 N 
ATOM      3  C   UNL     1       1.493  -0.949   0.874  1.00  0.00     0.224 C 
ATOM      4  O   UNL     1       1.440  -2.184   0.959  1.00  0.00    -0.275 OA
ATOM      5  H   UNL     1       1.037  -0.812   2.796  1.00  0.00     0.163 HD
BRANCH   3   6
ATOM      6  C   UNL     1       1.607  -0.324  -0.523  1.00  0.00     0.094 C 
ATOM      7  C   UNL     1       2.601   0.778  -0.961  1.00  0.00     0.094 C 
ATOM      8  C   UNL     1       1.665   1.831  -1.617  1.00  0.00     0.002 C 
ATOM      9  C   UNL     1       0.601   2.460  -0.699  1.00  0.00     0.005 C 
ATOM     10  C   UNL     1       0.760   0.884  -2.424  1.00  0.00     0.009 C 
ATOM     11  C   UNL     1       0.272   0.137  -1.173  1.00  0.00     0.002 C 
ATOM     12  C   UNL     1      -0.366   1.300  -0.417  1.00  0.00     0.005 C 
BRANCH   7  13
ATOM     13  C   UNL     1       3.733   1.196  -0.053  1.00  0.00     0.229 C 
ATOM     14  N   UNL     1       4.645   2.140  -0.374  1.00  0.00    -0.317 N 
ATOM     15  H   UNL     1       5.030   2.576   0.421  1.00  0.00     0.170 HD
ATOM     16  O   UNL     1       3.932   0.633   1.027  1.00  0.00    -0.274 OA
BRANCH  14  17
ATOM     17  C   UNL     1       5.162   2.635  -1.545  1.00  0.00     0.110 A 
ATOM     18  C   UNL     1       5.061   2.481  -2.916  1.00  0.00     0.098 A 
ATOM     19  C   UNL     1       6.051   3.297  -3.595  1.00  0.00    -0.017 A 
ATOM     20  S   UNL     1       6.376   3.782  -1.117  1.00  0.00    -0.122 S 
ATOM     21  C   UNL     1       6.799   4.058  -2.726  1.00  0.00     0.011 A 
ATOM     22  C   UNL     1       6.272   3.349  -5.081  1.00  0.00     0.038 C 
ATOM     23  C   UNL     1       7.904   4.990  -3.115  1.00  0.00     0.047 C 
ATOM     24  C   UNL     1       7.622   3.988  -5.433  1.00  0.00     0.005 C 
ATOM     25  C   UNL     1       7.859   5.271  -4.625  1.00  0.00     0.006 C 
BRANCH  18  26
ATOM     26  C   UNL     1       4.153   1.657  -3.697  1.00  0.00     0.341 C 
ATOM     27  O   UNL     1       3.288   2.147  -4.408  1.00  0.00    -0.246 OA
BRANCH  26  28
ATOM     28  O   UNL     1       4.490   0.334  -3.683  1.00  0.00    -0.462 OA
BRANCH  28  29
ATOM     29  C   UNL     1       3.785  -0.485  -4.631  1.00  0.00     0.230 C 
ATOM     30  C   UNL     1       3.385  -1.793  -3.977  1.00  0.00     0.049 C 
ENDBRANCH  28  29
ENDBRANCH  26  28
ENDBRANCH  18  26
ENDBRANCH  14  17
ENDBRANCH   7  13
ENDBRANCH   3   6
ENDBRANCH   1   2
BRANCH   1  31
ATOM     31  C   UNL     1       0.374   1.769   3.057  1.00  0.00     0.023 C 
BRANCH  31  32
ATOM     32  C   UNL     1       0.446   1.617   4.566  1.00  0.00     0.023 C 
BRANCH  32  33
ATOM     33  C   UNL     1       1.735   2.138   5.186  1.00  0.00     0.116 C 
BRANCH  33  34
ATOM     34  N   UNL     1       2.036   3.523   4.822  1.00  0.00    -0.352 N 
ATOM     35  C   UNL     1       2.270   4.583   5.669  1.00  0.00     0.251 C 
ATOM     36  H   UNL     1       2.075   3.720   3.859  1.00  0.00     0.163 HD
ATOM     37  O   UNL     1       2.411   5.726   5.254  1.00  0.00    -0.269 OA
BRANCH  35  38
ATOM     38  C   UNL     1       2.308   4.278   7.108  1.00  0.00     0.039 A 
ATOM     39  C   UNL     1       1.276   4.743   7.922  1.00  0.00     0.014 A 
ATOM     40  C   UNL     1       3.213   3.310   7.552  1.00  0.00     0.014 A 
ATOM     41  C   UNL     1       1.082   4.146   9.166  1.00  0.00     0.010 A 
ATOM     42  C   UNL     1       2.951   2.653   8.744  1.00  0.00     0.010 A 
ATOM     43  C   UNL     1       1.873   3.052   9.553  1.00  0.00    -0.014 A 
BRANCH  43  44
ATOM     44  C   UNL     1       1.581   2.279  10.786  1.00  0.00     0.031 A 
ATOM     45  C   UNL     1       2.630   2.180  11.857  1.00  0.00     0.074 A 
ATOM     46  C   UNL     1       0.427   1.588  10.892  1.00  0.00     0.049 A 
ATOM     47  N   UNL     1       2.629   1.462  12.948  1.00  0.00    -0.248 NA
ATOM     48  C   UNL     1       3.862   2.961  11.652  1.00  0.00     0.031 C 
ATOM     49  C   UNL     1      -0.638   1.548   9.884  1.00  0.00     0.029 A 
ATOM     50  N   UNL     1      -0.040   0.772  11.892  1.00  0.00    -0.354 N 
ATOM     51  C   UNL     1       3.864   1.685  13.544  1.00  0.00     0.074 A 
ATOM     52  C   UNL     1       4.612   2.554  12.665  1.00  0.00     0.031 C 
ATOM     53  C   UNL     1      -1.639   0.771  10.329  1.00  0.00     0.029 A 
ATOM     54  C   UNL     1      -1.275   0.224  11.631  1.00  0.00     0.049 A 
ATOM     55  H   UNL     1       0.463   0.594  12.719  1.00  0.00     0.167 HD
ATOM     56  C   UNL     1       4.321   1.230  14.733  1.00  0.00     0.037 A 
ATOM     57  C   UNL     1      -2.023  -0.631  12.356  1.00  0.00     0.037 A 
ATOM     58  C   UNL     1       3.553   0.403  15.623  1.00  0.00     0.049 A 
ATOM     59  C   UNL     1      -1.497  -1.114  13.682  1.00  0.00     0.074 A 
ATOM     60  C   UNL     1       3.886  -0.036  16.891  1.00  0.00     0.029 A 
ATOM     61  N   UNL     1       2.296  -0.109  15.336  1.00  0.00    -0.354 N 
ATOM     62  N   UNL     1      -0.360  -0.825  14.270  1.00  0.00    -0.248 NA
ATOM     63  C   UNL     1      -2.350  -2.039  14.441  1.00  0.00     0.031 C 
ATOM     64  C   UNL     1       2.846  -0.847  17.356  1.00  0.00     0.029 A 
ATOM     65  C   UNL     1       1.849  -0.882  16.393  1.00  0.00     0.049 A 
ATOM     66  H   UNL     1       1.795   0.054  14.504  1.00  0.00     0.167 HD
ATOM     67  C   UNL     1      -0.366  -1.524  15.472  1.00  0.00     0.074 A 
ATOM     68  C   UNL     1      -1.629  -2.232  15.537  1.00  0.00     0.031 C 
ATOM     69  C   UNL     1       0.589  -1.580  16.433  1.00  0.00     0.037 A 
BRANCH  56  70
ATOM     70  C   UNL     1       5.708   1.637  15.143  1.00  0.00     0.058 A 
ATOM     71  C   UNL     1       6.006   2.959  15.512  1.00  0.00     0.135 A 
ATOM     72  C   UNL     1       6.746   0.693  15.188  1.00  0.00     0.135 A 
ATOM     73  F   UNL     1       5.055   3.905  15.465  1.00  0.00    -0.206 F 
ATOM     74  C   UNL     1       7.290   3.337  15.884  1.00  0.00     0.059 A 
ATOM     75  C   UNL     1       8.033   1.044  15.585  1.00  0.00     0.059 A 
ATOM     76  F   UNL     1       6.516  -0.582  14.840  1.00  0.00    -0.206 F 
ATOM     77  C   UNL     1       8.298   2.372  15.918  1.00  0.00     0.060 A 
BRANCH  77  78
ATOM     78  S   UNL     1       9.957   2.878  16.416  1.00  0.00     0.124 S 
ATOM     79  O   UNL     1      10.405   3.607  15.233  1.00  0.00    -0.237 OA
ATOM     80  O   UNL     1       9.694   3.691  17.599  1.00  0.00    -0.237 OA
ATOM     81  O   UNL     1      10.637   1.612  16.668  1.00  0.00    -0.744 OA
ENDBRANCH  77  78
ENDBRANCH  56  70
BRANCH  57  82
ATOM     82  C   UNL     1      -3.350  -1.078  11.855  1.00  0.00     0.058 A 
ATOM     83  C   UNL     1      -4.535  -0.633  12.460  1.00  0.00     0.135 A 
ATOM     84  C   UNL     1      -3.465  -1.949  10.760  1.00  0.00     0.135 A 
ATOM     85  F   UNL     1      -4.479   0.194  13.515  1.00  0.00    -0.206 F 
ATOM     86  C   UNL     1      -5.785  -1.046  12.010  1.00  0.00     0.059 A 
ATOM     87  C   UNL     1      -4.705  -2.358  10.277  1.00  0.00     0.059 A 
ATOM     88  F   UNL     1      -2.363  -2.393  10.136  1.00  0.00    -0.206 F 
ATOM     89  C   UNL     1      -5.860  -1.908  10.915  1.00  0.00     0.060 A 
BRANCH  89  90
ATOM     90  S   UNL     1      -7.489  -2.398  10.306  1.00  0.00     0.124 S 
ATOM     91  O   UNL     1      -7.909  -3.352  11.326  1.00  0.00    -0.237 OA
ATOM     92  O   UNL     1      -8.205  -1.127  10.288  1.00  0.00    -0.237 OA
ATOM     93  O   UNL     1      -7.199  -2.963   8.992  1.00  0.00    -0.744 OA
ENDBRANCH  89  90
ENDBRANCH  57  82
BRANCH  69  94
ATOM     94  C   UNL     1       0.306  -2.431  17.638  1.00  0.00     0.058 A 
ATOM     95  C   UNL     1       0.369  -3.831  17.572  1.00  0.00     0.135 A 
ATOM     96  C   UNL     1       0.039  -1.840  18.883  1.00  0.00     0.135 A 
ATOM     97  F   UNL     1       0.614  -4.442  16.402  1.00  0.00    -0.206 F 
ATOM     98  C   UNL     1       0.164  -4.619  18.699  1.00  0.00     0.059 A 
ATOM     99  C   UNL     1      -0.145  -2.608  20.028  1.00  0.00     0.059 A 
ATOM    100  F   UNL     1      -0.022  -0.504  18.999  1.00  0.00    -0.206 F 
ATOM    101  C   UNL     1      -0.088  -3.997  19.924  1.00  0.00     0.060 A 
BRANCH 101 102
ATOM    102  S   UNL     1      -0.302  -5.030  21.389  1.00  0.00     0.124 S 
ATOM    103  O   UNL     1      -1.640  -5.572  21.173  1.00  0.00    -0.237 OA
ATOM    104  O   UNL     1       0.796  -5.983  21.264  1.00  0.00    -0.237 OA
ATOM    105  O   UNL     1      -0.179  -4.083  22.493  1.00  0.00    -0.744 OA
ENDBRANCH 101 102
ENDBRANCH  69  94
ENDBRANCH  43  44
ENDBRANCH  35  38
ENDBRANCH  33  34
ENDBRANCH  32  33
ENDBRANCH  31  32
ENDBRANCH   1  31
TORSDOF 19
