REMARK SMILES C[C@@H]1CCC[C@H](S[C@@H]2CCC[C@]([NH2+]C3CC3)(C(=O)NCCCCNC(=O)c3ccc(-c4c5nc(c(-c6c(F)cc(S(=O)(=O)[O-])cc6F)c6ccc([nH]6)c(-c6c(F)cc(S(=O)(=O)[O-])cc6F)c6nc(c(-c7c(F)cc(S(=O)(=O)[O-])cc7F)c7ccc4[nH]7)C=C6)C=C5)cc3)C2)C1
REMARK SMILES IDX 22 1 21 2 20 3 19 4 17 5 18 6 12 8 8 9 9 10 93 11 10 12
REMARK SMILES IDX 11 13 7 14 6 15 1 16 2 17 3 18 94 19 4 20 5 21 13 22 14 25
REMARK SMILES IDX 15 26 16 27 23 28 24 29 25 30 26 32 27 33 28 34 92 35 29 36
REMARK SMILES IDX 91 37 30 38 31 39 32 40 85 41 33 42 90 43 84 44 86 45 34 46
REMARK SMILES IDX 89 47 83 48 82 49 35 51 69 52 48 53 68 54 49 55 52 56 67 57
REMARK SMILES IDX 87 58 50 59 51 60 66 62 88 63 53 64 36 65 37 66 46 67 38 68
REMARK SMILES IDX 39 69 45 70 47 71 40 72 41 73 42 74 43 75 44 76 70 77 71 78
REMARK SMILES IDX 80 79 72 80 73 81 79 82 81 83 74 84 75 85 76 86 77 87 78 88
REMARK SMILES IDX 54 89 55 90 64 91 56 92 57 93 63 94 65 95 58 96 59 97 60 98
REMARK SMILES IDX 61 99 62 100
REMARK H PARENT 19 7 13 23 13 24 24 31 86 50 52 61
REMARK Flexibility Score: inf
ROOT
ATOM      1  C   UNL     1       6.026   3.948   4.645  1.00  0.00     0.023 C 
ENDROOT
BRANCH   1   2
ATOM      2  C   UNL     1       4.550   3.865   5.024  1.00  0.00     0.023 C 
BRANCH   2   3
ATOM      3  C   UNL     1       3.573   4.043   3.866  1.00  0.00     0.116 C 
BRANCH   3   4
ATOM      4  N   UNL     1       3.676   3.009   2.854  1.00  0.00    -0.351 N 
ATOM      5  C   UNL     1       2.832   2.006   2.465  1.00  0.00     0.281 C 
ATOM      6  O   UNL     1       3.215   1.331   1.504  1.00  0.00    -0.268 OA
ATOM      7  H   UNL     1       4.521   3.034   2.348  1.00  0.00     0.163 HD
BRANCH   5   8
ATOM      8  C   UNL     1       1.456   1.745   3.161  1.00  0.00     0.176 C 
ATOM      9  C   UNL     1      -0.760   0.389   2.885  1.00  0.00     0.053 C 
ATOM     10  C   UNL     1      -1.595   1.664   2.787  1.00  0.00     0.015 C 
ATOM     11  C   UNL     1       0.713   0.542   2.517  1.00  0.00     0.093 C 
ATOM     12  C   UNL     1      -0.870   2.857   3.400  1.00  0.00     0.008 C 
ATOM     13  C   UNL     1       0.558   2.987   2.880  1.00  0.00     0.079 C 
BRANCH   9  14
ATOM     14  S   UNL     1      -1.571  -1.105   2.144  1.00  0.00    -0.155 SA
BRANCH  14  15
ATOM     15  C   UNL     1      -1.597  -1.006   0.291  1.00  0.00     0.047 C 
ATOM     16  C   UNL     1       1.895  -1.470   0.145  1.00  0.00     0.007 C 
ATOM     17  C   UNL     1       0.764  -1.118  -0.827  1.00  0.00    -0.013 C 
ATOM     18  C   UNL     1       0.623   0.382  -1.162  1.00  0.00     0.003 C 
ATOM     19  C   UNL     1      -0.530  -1.837  -0.436  1.00  0.00     0.017 C 
ATOM     20  C   UNL     1      -0.618   1.141  -0.685  1.00  0.00     0.001 C 
ATOM     21  C   UNL     1      -1.855   0.299  -0.444  1.00  0.00     0.014 C 
ENDBRANCH  14  15
ENDBRANCH   9  14
BRANCH   8  22
ATOM     22  N   UNL     1       1.653   1.513   4.610  1.00  0.00    -0.331 N 
ATOM     23  H   UNL     1       0.720   1.460   5.021  1.00  0.00     0.347 HD
ATOM     24  H   UNL     1       2.265   2.286   4.870  1.00  0.00     0.347 HD
BRANCH  22  25
ATOM     25  C   UNL     1       2.396   0.343   5.120  1.00  0.00     0.183 C 
ATOM     26  C   UNL     1       3.085  -0.733   4.327  1.00  0.00     0.071 C 
ATOM     27  C   UNL     1       3.903   0.280   5.057  1.00  0.00     0.071 C 
ENDBRANCH  22  25
ENDBRANCH   8  22
ENDBRANCH   5   8
ENDBRANCH   3   4
ENDBRANCH   2   3
ENDBRANCH   1   2
BRANCH   1  28
ATOM     28  C   UNL     1       6.411   5.176   3.829  1.00  0.00     0.116 C 
BRANCH  28  29
ATOM     29  N   UNL     1       5.928   6.422   4.410  1.00  0.00    -0.352 N 
ATOM     30  C   UNL     1       6.594   7.606   4.613  1.00  0.00     0.251 C 
ATOM     31  H   UNL     1       4.987   6.413   4.699  1.00  0.00     0.163 HD
ATOM     32  O   UNL     1       6.051   8.521   5.216  1.00  0.00    -0.269 OA
BRANCH  30  33
ATOM     33  C   UNL     1       7.981   7.739   4.128  1.00  0.00     0.039 A 
ATOM     34  C   UNL     1       8.956   8.209   5.009  1.00  0.00     0.014 A 
ATOM     35  C   UNL     1       8.320   7.351   2.830  1.00  0.00     0.014 A 
ATOM     36  C   UNL     1      10.292   8.219   4.609  1.00  0.00     0.010 A 
ATOM     37  C   UNL     1       9.659   7.287   2.462  1.00  0.00     0.010 A 
ATOM     38  C   UNL     1      10.657   7.718   3.348  1.00  0.00    -0.014 A 
BRANCH  38  39
ATOM     39  C   UNL     1      12.080   7.640   2.935  1.00  0.00     0.031 A 
ATOM     40  C   UNL     1      12.561   8.442   1.757  1.00  0.00     0.074 A 
ATOM     41  C   UNL     1      12.918   6.806   3.583  1.00  0.00     0.049 A 
ATOM     42  N   UNL     1      13.736   8.443   1.184  1.00  0.00    -0.248 NA
ATOM     43  C   UNL     1      11.582   9.340   1.119  1.00  0.00     0.031 C 
ATOM     44  C   UNL     1      12.553   5.939   4.707  1.00  0.00     0.029 A 
ATOM     45  N   UNL     1      14.249   6.538   3.381  1.00  0.00    -0.354 N 
ATOM     46  C   UNL     1      13.639   9.336   0.124  1.00  0.00     0.074 A 
ATOM     47  C   UNL     1      12.273   9.808   0.090  1.00  0.00     0.031 C 
ATOM     48  C   UNL     1      13.635   5.249   5.102  1.00  0.00     0.029 A 
ATOM     49  C   UNL     1      14.760   5.594   4.240  1.00  0.00     0.049 A 
ATOM     50  H   UNL     1      14.787   6.980   2.685  1.00  0.00     0.167 HD
ATOM     51  C   UNL     1      14.609   9.751  -0.723  1.00  0.00     0.037 A 
ATOM     52  C   UNL     1      15.994   5.058   4.315  1.00  0.00     0.037 A 
ATOM     53  C   UNL     1      15.973   9.294  -0.669  1.00  0.00     0.049 A 
ATOM     54  C   UNL     1      17.053   5.532   3.355  1.00  0.00     0.074 A 
ATOM     55  C   UNL     1      17.039   9.671  -1.466  1.00  0.00     0.029 A 
ATOM     56  N   UNL     1      16.461   8.367   0.240  1.00  0.00    -0.354 N 
ATOM     57  N   UNL     1      16.954   6.414   2.388  1.00  0.00    -0.248 NA
ATOM     58  C   UNL     1      18.394   4.949   3.500  1.00  0.00     0.031 C 
ATOM     59  C   UNL     1      18.166   8.950  -1.059  1.00  0.00     0.029 A 
ATOM     60  C   UNL     1      17.811   8.157   0.020  1.00  0.00     0.049 A 
ATOM     61  H   UNL     1      15.926   7.924   0.938  1.00  0.00     0.167 HD
ATOM     62  C   UNL     1      18.225   6.511   1.831  1.00  0.00     0.074 A 
ATOM     63  C   UNL     1      19.078   5.612   2.579  1.00  0.00     0.031 C 
ATOM     64  C   UNL     1      18.648   7.273   0.792  1.00  0.00     0.037 A 
BRANCH  51  65
ATOM     65  C   UNL     1      14.241  10.773  -1.761  1.00  0.00     0.058 A 
ATOM     66  C   UNL     1      13.968  12.104  -1.407  1.00  0.00     0.135 A 
ATOM     67  C   UNL     1      14.216  10.440  -3.125  1.00  0.00     0.135 A 
ATOM     68  F   UNL     1      13.958  12.472  -0.116  1.00  0.00    -0.206 F 
ATOM     69  C   UNL     1      13.670  13.066  -2.365  1.00  0.00     0.059 A 
ATOM     70  C   UNL     1      13.946  11.392  -4.104  1.00  0.00     0.059 A 
ATOM     71  F   UNL     1      14.463   9.181  -3.518  1.00  0.00    -0.206 F 
ATOM     72  C   UNL     1      13.667  12.701  -3.712  1.00  0.00     0.060 A 
BRANCH  72  73
ATOM     73  S   UNL     1      13.313  13.973  -4.944  1.00  0.00     0.124 S 
ATOM     74  O   UNL     1      11.883  14.187  -4.738  1.00  0.00    -0.237 OA
ATOM     75  O   UNL     1      14.184  15.065  -4.523  1.00  0.00    -0.237 OA
ATOM     76  O   UNL     1      13.675  13.335  -6.206  1.00  0.00    -0.744 OA
ENDBRANCH  72  73
ENDBRANCH  51  65
BRANCH  52  77
ATOM     77  C   UNL     1      16.305   4.016   5.332  1.00  0.00     0.058 A 
ATOM     78  C   UNL     1      17.183   4.278   6.394  1.00  0.00     0.135 A 
ATOM     79  C   UNL     1      15.754   2.728   5.243  1.00  0.00     0.135 A 
ATOM     80  F   UNL     1      17.737   5.494   6.522  1.00  0.00    -0.206 F 
ATOM     81  C   UNL     1      17.538   3.291   7.308  1.00  0.00     0.059 A 
ATOM     82  C   UNL     1      16.070   1.733   6.162  1.00  0.00     0.059 A 
ATOM     83  F   UNL     1      14.891   2.431   4.260  1.00  0.00    -0.206 F 
ATOM     84  C   UNL     1      16.980   2.018   7.179  1.00  0.00     0.060 A 
BRANCH  84  85
ATOM     85  S   UNL     1      17.445   0.742   8.369  1.00  0.00     0.124 S 
ATOM     86  O   UNL     1      18.790   0.401   7.922  1.00  0.00    -0.237 OA
ATOM     87  O   UNL     1      17.355   1.456   9.639  1.00  0.00    -0.237 OA
ATOM     88  O   UNL     1      16.430  -0.289   8.166  1.00  0.00    -0.744 OA
ENDBRANCH  84  85
ENDBRANCH  52  77
BRANCH  64  89
ATOM     89  C   UNL     1      20.106   7.205   0.433  1.00  0.00     0.058 A 
ATOM     90  C   UNL     1      20.656   6.085  -0.209  1.00  0.00     0.135 A 
ATOM     91  C   UNL     1      20.949   8.299   0.687  1.00  0.00     0.135 A 
ATOM     92  F   UNL     1      19.893   5.012  -0.469  1.00  0.00    -0.206 F 
ATOM     93  C   UNL     1      22.000   6.042  -0.565  1.00  0.00     0.059 A 
ATOM     94  C   UNL     1      22.289   8.289   0.314  1.00  0.00     0.059 A 
ATOM     95  F   UNL     1      20.468   9.398   1.289  1.00  0.00    -0.206 F 
ATOM     96  C   UNL     1      22.808   7.150  -0.302  1.00  0.00     0.060 A 
BRANCH  96  97
ATOM     97  S   UNL     1      24.541   7.095  -0.802  1.00  0.00     0.124 S 
ATOM     98  O   UNL     1      25.107   6.195   0.197  1.00  0.00    -0.237 OA
ATOM     99  O   UNL     1      24.458   6.564  -2.159  1.00  0.00    -0.237 OA
ATOM    100  O   UNL     1      24.967   8.488  -0.707  1.00  0.00    -0.744 OA
ENDBRANCH  96  97
ENDBRANCH  64  89
ENDBRANCH  38  39
ENDBRANCH  30  33
ENDBRANCH  28  29
ENDBRANCH   1  28
TORSDOF 18
