REMARK SMILES [NH2+]=C1S[C@@H](C(=O)Nc2ccc(C(=O)NCCCCNC(=O)c3ccc(-c4c5nc(c(-c6c(F)cc(S(=O)(=O)[O-])cc6F)c6ccc([nH]6)c(-c6c(F)cc(S(=O)(=O)[O-])cc6F)c6nc(c(-c7c(F)cc(S(=O)(=O)[O-])cc7F)c7ccc4[nH]7)C=C6)C=C5)cc3)cc2)CC(=O)N1/N=C/c1ccc(Cl)cc1
REMARK SMILES IDX 16 1 15 2 14 3 12 4 13 5 11 7 8 8 9 9 89 10 10 11 88 12 7 13
REMARK SMILES IDX 5 14 6 15 4 17 1 18 2 19 3 22 93 23 91 24 90 25 92 26 94 27
REMARK SMILES IDX 95 28 96 29 97 30 102 31 98 32 101 33 99 34 100 35 17 36
REMARK SMILES IDX 18 37 19 38 20 39 21 41 22 42 23 43 87 44 24 45 86 46 25 47
REMARK SMILES IDX 26 48 27 49 80 50 28 51 85 52 79 53 81 54 29 55 84 56 78 57
REMARK SMILES IDX 77 58 30 60 64 61 43 62 63 63 44 64 47 65 62 66 82 67 45 68
REMARK SMILES IDX 46 69 61 71 83 72 48 73 31 74 32 75 41 76 33 77 34 78 40 79
REMARK SMILES IDX 42 80 35 81 36 82 37 83 38 84 39 85 65 86 66 87 75 88 67 89
REMARK SMILES IDX 68 90 74 91 76 92 69 93 70 94 71 95 72 96 73 97 49 98 50 99
REMARK SMILES IDX 59 100 51 101 52 102 58 103 60 104 53 105 54 106 55 107
REMARK SMILES IDX 56 108 57 109
REMARK H PARENT 14 6 7 16 1 20 1 21 19 40 81 59 47 70
REMARK Flexibility Score: inf
ROOT
ATOM      1  C   UNL     1      -6.163   1.514  -0.712  1.00  0.00     0.023 C 
ENDROOT
BRANCH   1   2
ATOM      2  C   UNL     1      -4.901   1.146   0.063  1.00  0.00     0.116 C 
BRANCH   2   3
ATOM      3  N   UNL     1      -5.032  -0.165   0.684  1.00  0.00    -0.352 N 
ATOM      4  C   UNL     1      -4.206  -1.261   0.610  1.00  0.00     0.251 C 
ATOM      5  O   UNL     1      -4.373  -2.199   1.380  1.00  0.00    -0.269 OA
ATOM      6  H   UNL     1      -5.834  -0.284   1.242  1.00  0.00     0.163 HD
BRANCH   4   7
ATOM      7  C   UNL     1      -3.066  -1.296  -0.336  1.00  0.00     0.039 A 
ATOM      8  C   UNL     1      -0.810  -1.206  -1.972  1.00  0.00     0.041 A 
ATOM      9  C   UNL     1      -0.718  -1.764  -0.697  1.00  0.00     0.027 A 
ATOM     10  C   UNL     1      -2.050  -0.820  -2.479  1.00  0.00     0.027 A 
ATOM     11  C   UNL     1      -1.839  -1.779   0.133  1.00  0.00     0.016 A 
ATOM     12  C   UNL     1      -3.184  -0.888  -1.667  1.00  0.00     0.016 A 
BRANCH   8  13
ATOM     13  N   UNL     1       0.338  -1.155  -2.754  1.00  0.00    -0.325 N 
ATOM     14  C   UNL     1       0.868  -0.139  -3.492  1.00  0.00     0.238 C 
ATOM     15  O   UNL     1       1.634  -0.457  -4.412  1.00  0.00    -0.273 OA
ATOM     16  H   UNL     1       0.855  -1.992  -2.780  1.00  0.00     0.169 HD
BRANCH  14  17
ATOM     17  C   UNL     1       0.743   1.342  -3.096  1.00  0.00     0.160 C 
ATOM     18  N   UNL     1       1.189   0.803   0.643  1.00  0.00    -0.279 N 
ATOM     19  C   UNL     1       0.683   1.373  -0.398  1.00  0.00     0.338 C 
ATOM     20  H   UNL     1       2.145   0.566   0.659  1.00  0.00     0.302 HD
ATOM     21  H   UNL     1       0.620   0.604   1.421  1.00  0.00     0.302 HD
ATOM     22  S   UNL     1       1.790   1.724  -1.679  1.00  0.00    -0.022 SA
ATOM     23  N   UNL     1      -0.656   1.751  -0.525  1.00  0.00    -0.057 N 
ATOM     24  C   UNL     1      -1.297   2.164  -1.702  1.00  0.00     0.337 C 
ATOM     25  C   UNL     1      -0.583   2.042  -3.030  1.00  0.00     0.155 C 
ATOM     26  O   UNL     1      -2.432   2.662  -1.726  1.00  0.00    -0.244 OA
BRANCH  23  27
ATOM     27  N   UNL     1      -1.523   1.678   0.580  1.00  0.00    -0.082 NA
ATOM     28  C   UNL     1      -1.085   2.090   1.726  1.00  0.00     0.167 C 
BRANCH  28  29
ATOM     29  C   UNL     1      -1.962   2.129   2.913  1.00  0.00    -0.003 A 
ATOM     30  C   UNL     1      -1.875   3.247   3.748  1.00  0.00     0.011 A 
ATOM     31  C   UNL     1      -2.893   1.123   3.179  1.00  0.00     0.011 A 
ATOM     32  C   UNL     1      -2.748   3.374   4.831  1.00  0.00     0.021 A 
ATOM     33  C   UNL     1      -3.762   1.249   4.268  1.00  0.00     0.021 A 
ATOM     34  C   UNL     1      -3.691   2.378   5.083  1.00  0.00     0.041 A 
ATOM     35  Cl  UNL     1      -4.777   2.550   6.405  1.00  0.00    -0.084 Cl
ENDBRANCH  28  29
ENDBRANCH  23  27
ENDBRANCH  14  17
ENDBRANCH   8  13
ENDBRANCH   4   7
ENDBRANCH   2   3
ENDBRANCH   1   2
BRANCH   1  36
ATOM     36  C   UNL     1      -7.292   2.026   0.188  1.00  0.00     0.023 C 
BRANCH  36  37
ATOM     37  C   UNL     1      -7.041   3.414   0.777  1.00  0.00     0.116 C 
BRANCH  37  38
ATOM     38  N   UNL     1      -7.024   4.451  -0.244  1.00  0.00    -0.352 N 
ATOM     39  C   UNL     1      -7.837   5.548  -0.397  1.00  0.00     0.251 C 
ATOM     40  H   UNL     1      -6.324   4.352  -0.929  1.00  0.00     0.163 HD
ATOM     41  O   UNL     1      -7.796   6.198  -1.438  1.00  0.00    -0.269 OA
BRANCH  39  42
ATOM     42  C   UNL     1      -8.772   5.939   0.681  1.00  0.00     0.039 A 
ATOM     43  C   UNL     1     -10.076   6.312   0.344  1.00  0.00     0.014 A 
ATOM     44  C   UNL     1      -8.362   5.963   2.017  1.00  0.00     0.014 A 
ATOM     45  C   UNL     1     -10.986   6.644   1.351  1.00  0.00     0.010 A 
ATOM     46  C   UNL     1      -9.289   6.226   3.024  1.00  0.00     0.010 A 
ATOM     47  C   UNL     1     -10.610   6.572   2.702  1.00  0.00    -0.014 A 
BRANCH  47  48
ATOM     48  C   UNL     1     -11.588   6.843   3.788  1.00  0.00     0.031 A 
ATOM     49  C   UNL     1     -11.386   8.006   4.722  1.00  0.00     0.074 A 
ATOM     50  C   UNL     1     -12.621   5.998   3.978  1.00  0.00     0.049 A 
ATOM     51  N   UNL     1     -12.098   8.365   5.760  1.00  0.00    -0.248 NA
ATOM     52  C   UNL     1     -10.217   8.863   4.472  1.00  0.00     0.031 C 
ATOM     53  C   UNL     1     -12.890   4.800   3.180  1.00  0.00     0.029 A 
ATOM     54  N   UNL     1     -13.629   6.008   4.909  1.00  0.00    -0.354 N 
ATOM     55  C   UNL     1     -11.454   9.473   6.298  1.00  0.00     0.074 A 
ATOM     56  C   UNL     1     -10.270   9.701   5.498  1.00  0.00     0.031 C 
ATOM     57  C   UNL     1     -13.997   4.199   3.646  1.00  0.00     0.029 A 
ATOM     58  C   UNL     1     -14.498   4.949   4.795  1.00  0.00     0.049 A 
ATOM     59  H   UNL     1     -13.721   6.708   5.596  1.00  0.00     0.167 HD
ATOM     60  C   UNL     1     -11.827  10.242   7.350  1.00  0.00     0.037 A 
ATOM     61  C   UNL     1     -15.573   4.612   5.534  1.00  0.00     0.037 A 
ATOM     62  C   UNL     1     -13.022  10.028   8.123  1.00  0.00     0.049 A 
ATOM     63  C   UNL     1     -15.983   5.497   6.679  1.00  0.00     0.074 A 
ATOM     64  C   UNL     1     -13.527  10.797   9.158  1.00  0.00     0.029 A 
ATOM     65  N   UNL     1     -13.899   8.967   7.952  1.00  0.00    -0.354 N 
ATOM     66  N   UNL     1     -15.406   6.587   7.125  1.00  0.00    -0.248 NA
ATOM     67  C   UNL     1     -17.195   5.112   7.415  1.00  0.00     0.031 C 
ATOM     68  C   UNL     1     -14.686  10.178   9.639  1.00  0.00     0.029 A 
ATOM     69  C   UNL     1     -14.930   9.049   8.874  1.00  0.00     0.049 A 
ATOM     70  H   UNL     1     -13.803   8.259   7.274  1.00  0.00     0.167 HD
ATOM     71  C   UNL     1     -16.196   7.031   8.179  1.00  0.00     0.074 A 
ATOM     72  C   UNL     1     -17.299   6.099   8.295  1.00  0.00     0.031 C 
ATOM     73  C   UNL     1     -16.023   8.114   8.978  1.00  0.00     0.037 A 
BRANCH  60  74
ATOM     74  C   UNL     1     -10.929  11.390   7.725  1.00  0.00     0.058 A 
ATOM     75  C   UNL     1     -10.813  12.532   6.915  1.00  0.00     0.135 A 
ATOM     76  C   UNL     1     -10.198  11.363   8.923  1.00  0.00     0.135 A 
ATOM     77  F   UNL     1     -11.479  12.607   5.752  1.00  0.00    -0.206 F 
ATOM     78  C   UNL     1      -9.977  13.588   7.262  1.00  0.00     0.059 A 
ATOM     79  C   UNL     1      -9.377  12.421   9.304  1.00  0.00     0.059 A 
ATOM     80  F   UNL     1     -10.273  10.298   9.737  1.00  0.00    -0.206 F 
ATOM     81  C   UNL     1      -9.260  13.522   8.457  1.00  0.00     0.060 A 
BRANCH  81  82
ATOM     82  S   UNL     1      -8.175  14.899   8.891  1.00  0.00     0.124 S 
ATOM     83  O   UNL     1      -7.059  14.689   7.974  1.00  0.00    -0.237 OA
ATOM     84  O   UNL     1      -9.014  16.059   8.611  1.00  0.00    -0.237 OA
ATOM     85  O   UNL     1      -7.880  14.668  10.302  1.00  0.00    -0.744 OA
ENDBRANCH  81  82
ENDBRANCH  60  74
BRANCH  61  86
ATOM     86  C   UNL     1     -16.348   3.390   5.194  1.00  0.00     0.058 A 
ATOM     87  C   UNL     1     -17.622   3.481   4.614  1.00  0.00     0.135 A 
ATOM     88  C   UNL     1     -15.820   2.109   5.415  1.00  0.00     0.135 A 
ATOM     89  F   UNL     1     -18.171   4.684   4.388  1.00  0.00    -0.206 F 
ATOM     90  C   UNL     1     -18.351   2.346   4.275  1.00  0.00     0.059 A 
ATOM     91  C   UNL     1     -16.520   0.959   5.063  1.00  0.00     0.059 A 
ATOM     92  F   UNL     1     -14.598   1.968   5.952  1.00  0.00    -0.206 F 
ATOM     93  C   UNL     1     -17.789   1.088   4.500  1.00  0.00     0.060 A 
BRANCH  93  94
ATOM     94  S   UNL     1     -18.718  -0.378   3.999  1.00  0.00     0.124 S 
ATOM     95  O   UNL     1     -19.744  -0.443   5.032  1.00  0.00    -0.237 OA
ATOM     96  O   UNL     1     -19.177  -0.009   2.664  1.00  0.00    -0.237 OA
ATOM     97  O   UNL     1     -17.715  -1.438   4.037  1.00  0.00    -0.744 OA
ENDBRANCH  93  94
ENDBRANCH  61  86
BRANCH  73  98
ATOM     98  C   UNL     1     -17.064   8.366  10.034  1.00  0.00     0.058 A 
ATOM     99  C   UNL     1     -17.152   7.570  11.187  1.00  0.00     0.135 A 
ATOM    100  C   UNL     1     -17.955   9.444   9.910  1.00  0.00     0.135 A 
ATOM    101  F   UNL     1     -16.328   6.523  11.351  1.00  0.00    -0.206 F 
ATOM    102  C   UNL     1     -18.105   7.820  12.169  1.00  0.00     0.059 A 
ATOM    103  C   UNL     1     -18.898   9.728  10.893  1.00  0.00     0.059 A 
ATOM    104  F   UNL     1     -17.905  10.242   8.832  1.00  0.00    -0.206 F 
ATOM    105  C   UNL     1     -18.974   8.901  12.013  1.00  0.00     0.060 A 
BRANCH 105 106
ATOM    106  S   UNL     1     -20.189   9.232  13.307  1.00  0.00     0.124 S 
ATOM    107  O   UNL     1     -21.173   8.183  13.062  1.00  0.00    -0.237 OA
ATOM    108  O   UNL     1     -19.398   9.086  14.525  1.00  0.00    -0.237 OA
ATOM    109  O   UNL     1     -20.634  10.592  13.016  1.00  0.00    -0.744 OA
ENDBRANCH 105 106
ENDBRANCH  73  98
ENDBRANCH  47  48
ENDBRANCH  39  42
ENDBRANCH  37  38
ENDBRANCH  36  37
ENDBRANCH   1  36
TORSDOF 18
