REMARK SMILES O=C(NCCCCNC(=O)[C@@]12CN(CC3CC3)C(=O)[C@@H]1CN(c1nc3ccccc3o1)C2)c1ccc(-c2c3nc(c(-c4c(F)cc(S(=O)(=O)[O-])cc4F)c4ccc([nH]4)c(-c4c(F)cc(S(=O)(=O)[O-])cc4F)c4nc(c(-c5c(F)cc(S(=O)(=O)[O-])cc5F)c5ccc2[nH]5)C=C4)C=C3)cc1
REMARK SMILES IDX 5 1 4 2 3 3 1 4 2 5 33 7 34 8 98 9 35 10 97 11 36 12 37 13
REMARK SMILES IDX 38 14 91 15 39 16 96 17 90 18 92 19 40 20 95 21 89 22 88 23
REMARK SMILES IDX 41 25 75 26 54 27 74 28 55 29 58 30 73 31 93 32 56 33 57 34
REMARK SMILES IDX 72 36 94 37 59 38 42 39 43 40 52 41 44 42 45 43 51 44 53 45
REMARK SMILES IDX 46 46 47 47 48 48 49 49 50 50 76 51 77 52 86 53 78 54 79 55
REMARK SMILES IDX 85 56 87 57 80 58 81 59 82 60 83 61 84 62 60 63 61 64 70 65
REMARK SMILES IDX 62 66 63 67 69 68 71 69 64 70 65 71 66 72 67 73 68 74 6 75
REMARK SMILES IDX 7 76 8 77 9 78 10 80 11 81 12 82 20 83 32 84 13 85 18 86
REMARK SMILES IDX 21 87 22 88 19 89 14 90 15 91 16 92 17 93 23 94 24 95 31 96
REMARK SMILES IDX 25 97 30 98 26 99 29 100 27 101 28 102
REMARK H PARENT 3 6 92 24 58 35 8 79
REMARK Flexibility Score: inf
ROOT
ATOM      1  C   UNL     1       5.004  -2.443   0.282  1.00  0.00     0.023 C 
ENDROOT
BRANCH   1   2
ATOM      2  C   UNL     1       4.688  -1.106  -0.376  1.00  0.00     0.116 C 
BRANCH   2   3
ATOM      3  N   UNL     1       3.263  -0.853  -0.529  1.00  0.00    -0.352 N 
ATOM      4  O   UNL     1       1.263   0.113  -0.122  1.00  0.00    -0.269 OA
ATOM      5  C   UNL     1       2.478   0.118   0.053  1.00  0.00     0.251 C 
ATOM      6  H   UNL     1       2.790  -1.466  -1.137  1.00  0.00     0.163 HD
BRANCH   5   7
ATOM      7  C   UNL     1       3.104   1.133   0.926  1.00  0.00     0.039 A 
ATOM      8  C   UNL     1       4.254   1.806   0.514  1.00  0.00     0.014 A 
ATOM      9  C   UNL     1       2.573   1.361   2.198  1.00  0.00     0.014 A 
ATOM     10  C   UNL     1       4.989   2.532   1.443  1.00  0.00     0.010 A 
ATOM     11  C   UNL     1       3.260   2.182   3.097  1.00  0.00     0.010 A 
ATOM     12  C   UNL     1       4.507   2.724   2.749  1.00  0.00    -0.014 A 
BRANCH  12  13
ATOM     13  C   UNL     1       5.332   3.494   3.719  1.00  0.00     0.031 A 
ATOM     14  C   UNL     1       5.868   2.849   4.972  1.00  0.00     0.074 A 
ATOM     15  C   UNL     1       5.651   4.771   3.429  1.00  0.00     0.049 A 
ATOM     16  N   UNL     1       6.643   3.363   5.895  1.00  0.00    -0.248 NA
ATOM     17  C   UNL     1       5.480   1.454   5.232  1.00  0.00     0.031 C 
ATOM     18  C   UNL     1       5.183   5.509   2.253  1.00  0.00     0.029 A 
ATOM     19  N   UNL     1       6.465   5.663   4.077  1.00  0.00    -0.354 N 
ATOM     20  C   UNL     1       6.805   2.373   6.858  1.00  0.00     0.074 A 
ATOM     21  C   UNL     1       6.036   1.230   6.416  1.00  0.00     0.031 C 
ATOM     22  C   UNL     1       5.770   6.714   2.226  1.00  0.00     0.029 A 
ATOM     23  C   UNL     1       6.605   6.859   3.413  1.00  0.00     0.049 A 
ATOM     24  H   UNL     1       6.907   5.467   4.934  1.00  0.00     0.167 HD
ATOM     25  C   UNL     1       7.532   2.411   8.001  1.00  0.00     0.037 A 
ATOM     26  C   UNL     1       7.321   7.956   3.724  1.00  0.00     0.037 A 
ATOM     27  C   UNL     1       8.329   3.538   8.417  1.00  0.00     0.049 A 
ATOM     28  C   UNL     1       8.139   7.962   4.981  1.00  0.00     0.074 A 
ATOM     29  C   UNL     1       9.131   3.659   9.540  1.00  0.00     0.029 A 
ATOM     30  N   UNL     1       8.432   4.736   7.725  1.00  0.00    -0.354 N 
ATOM     31  N   UNL     1       8.289   7.009   5.870  1.00  0.00    -0.248 NA
ATOM     32  C   UNL     1       8.882   9.193   5.281  1.00  0.00     0.031 C 
ATOM     33  C   UNL     1       9.693   4.941   9.542  1.00  0.00     0.029 A 
ATOM     34  C   UNL     1       9.273   5.605   8.401  1.00  0.00     0.049 A 
ATOM     35  H   UNL     1       7.974   4.939   6.877  1.00  0.00     0.167 HD
ATOM     36  C   UNL     1       9.157   7.519   6.827  1.00  0.00     0.074 A 
ATOM     37  C   UNL     1       9.511   8.858   6.399  1.00  0.00     0.031 C 
ATOM     38  C   UNL     1       9.618   6.932   7.959  1.00  0.00     0.037 A 
BRANCH  25  39
ATOM     39  C   UNL     1       7.488   1.206   8.901  1.00  0.00     0.058 A 
ATOM     40  C   UNL     1       8.153   0.013   8.577  1.00  0.00     0.135 A 
ATOM     41  C   UNL     1       6.801   1.259  10.125  1.00  0.00     0.135 A 
ATOM     42  F   UNL     1       8.813  -0.099   7.413  1.00  0.00    -0.206 F 
ATOM     43  C   UNL     1       8.117  -1.093   9.422  1.00  0.00     0.059 A 
ATOM     44  C   UNL     1       6.770   0.173  10.996  1.00  0.00     0.059 A 
ATOM     45  F   UNL     1       6.150   2.376  10.486  1.00  0.00    -0.206 F 
ATOM     46  C   UNL     1       7.419  -1.005  10.628  1.00  0.00     0.060 A 
BRANCH  46  47
ATOM     47  S   UNL     1       7.375  -2.448  11.712  1.00  0.00     0.124 S 
ATOM     48  O   UNL     1       6.412  -3.300  11.021  1.00  0.00    -0.237 OA
ATOM     49  O   UNL     1       8.760  -2.906  11.684  1.00  0.00    -0.237 OA
ATOM     50  O   UNL     1       6.925  -1.900  12.988  1.00  0.00    -0.744 OA
ENDBRANCH  46  47
ENDBRANCH  25  39
BRANCH  26  51
ATOM     51  C   UNL     1       7.299   9.129   2.813  1.00  0.00     0.058 A 
ATOM     52  C   UNL     1       8.420   9.462   2.040  1.00  0.00     0.135 A 
ATOM     53  C   UNL     1       6.145   9.915   2.670  1.00  0.00     0.135 A 
ATOM     54  F   UNL     1       9.546   8.741   2.145  1.00  0.00    -0.206 F 
ATOM     55  C   UNL     1       8.402  10.540   1.161  1.00  0.00     0.059 A 
ATOM     56  C   UNL     1       6.094  10.981   1.780  1.00  0.00     0.059 A 
ATOM     57  F   UNL     1       5.041   9.622   3.374  1.00  0.00    -0.206 F 
ATOM     58  C   UNL     1       7.232  11.292   1.036  1.00  0.00     0.060 A 
BRANCH  58  59
ATOM     59  S   UNL     1       7.193  12.650  -0.153  1.00  0.00     0.124 S 
ATOM     60  O   UNL     1       7.927  13.686   0.564  1.00  0.00    -0.237 OA
ATOM     61  O   UNL     1       7.871  12.070  -1.308  1.00  0.00    -0.237 OA
ATOM     62  O   UNL     1       5.765  12.894  -0.333  1.00  0.00    -0.744 OA
ENDBRANCH  58  59
ENDBRANCH  26  51
BRANCH  38  63
ATOM     63  C   UNL     1      10.581   7.727   8.793  1.00  0.00     0.058 A 
ATOM     64  C   UNL     1      10.154   8.806   9.583  1.00  0.00     0.135 A 
ATOM     65  C   UNL     1      11.944   7.393   8.815  1.00  0.00     0.135 A 
ATOM     66  F   UNL     1       8.861   9.168   9.590  1.00  0.00    -0.206 F 
ATOM     67  C   UNL     1      11.052   9.548  10.342  1.00  0.00     0.059 A 
ATOM     68  C   UNL     1      12.856   8.107   9.584  1.00  0.00     0.059 A 
ATOM     69  F   UNL     1      12.400   6.364   8.084  1.00  0.00    -0.206 F 
ATOM     70  C   UNL     1      12.403   9.194  10.332  1.00  0.00     0.060 A 
BRANCH  70  71
ATOM     71  S   UNL     1      13.562  10.156  11.326  1.00  0.00     0.124 S 
ATOM     72  O   UNL     1      13.749  11.340  10.494  1.00  0.00    -0.237 OA
ATOM     73  O   UNL     1      12.819  10.364  12.566  1.00  0.00    -0.237 OA
ATOM     74  O   UNL     1      14.721   9.276  11.439  1.00  0.00    -0.744 OA
ENDBRANCH  70  71
ENDBRANCH  38  63
ENDBRANCH  12  13
ENDBRANCH   5   7
ENDBRANCH   2   3
ENDBRANCH   1   2
BRANCH   1  75
ATOM     75  C   UNL     1       4.566  -3.683  -0.491  1.00  0.00     0.023 C 
BRANCH  75  76
ATOM     76  C   UNL     1       4.886  -3.673  -1.977  1.00  0.00     0.116 C 
BRANCH  76  77
ATOM     77  N   UNL     1       6.281  -3.408  -2.279  1.00  0.00    -0.355 N 
ATOM     78  C   UNL     1       6.964  -3.881  -3.372  1.00  0.00     0.230 C 
ATOM     79  H   UNL     1       6.779  -2.841  -1.646  1.00  0.00     0.163 HD
ATOM     80  O   UNL     1       8.022  -3.346  -3.704  1.00  0.00    -0.274 OA
BRANCH  78  81
ATOM     81  C   UNL     1       6.302  -5.053  -4.102  1.00  0.00     0.097 C 
ATOM     82  C   UNL     1       5.863  -3.965  -5.185  1.00  0.00     0.139 C 
ATOM     83  C   UNL     1       5.997  -6.145  -5.193  1.00  0.00     0.117 C 
ATOM     84  C   UNL     1       7.592  -5.895  -3.676  1.00  0.00     0.141 C 
ATOM     85  N   UNL     1       4.553  -4.439  -5.604  1.00  0.00    -0.341 N 
ATOM     86  C   UNL     1       4.589  -5.825  -5.593  1.00  0.00     0.228 C 
ATOM     87  C   UNL     1       6.128  -7.524  -4.579  1.00  0.00     0.136 C 
ATOM     88  N   UNL     1       7.095  -7.257  -3.562  1.00  0.00    -0.324 N 
ATOM     89  O   UNL     1       3.682  -6.612  -5.789  1.00  0.00    -0.274 OA
BRANCH  85  90
ATOM     90  C   UNL     1       3.328  -3.697  -5.345  1.00  0.00     0.123 C 
BRANCH  90  91
ATOM     91  C   UNL     1       2.512  -3.367  -6.554  1.00  0.00     0.008 C 
ATOM     92  C   UNL     1       2.771  -3.900  -7.941  1.00  0.00     0.006 C 
ATOM     93  C   UNL     1       1.602  -4.415  -7.150  1.00  0.00     0.006 C 
ENDBRANCH  90  91
ENDBRANCH  85  90
BRANCH  88  94
ATOM     94  C   UNL     1       7.795  -8.212  -2.940  1.00  0.00     0.298 A 
ATOM     95  N   UNL     1       8.435  -9.245  -3.442  1.00  0.00    -0.193 NA
ATOM     96  O   UNL     1       7.827  -8.119  -1.575  1.00  0.00    -0.423 OA
ATOM     97  C   UNL     1       8.975  -9.854  -2.336  1.00  0.00     0.111 A 
ATOM     98  C   UNL     1       8.565  -9.196  -1.189  1.00  0.00     0.156 A 
ATOM     99  C   UNL     1       9.820 -10.964  -2.210  1.00  0.00     0.032 A 
ATOM    100  C   UNL     1       8.879  -9.584   0.107  1.00  0.00     0.049 A 
ATOM    101  C   UNL     1      10.184 -11.375  -0.917  1.00  0.00     0.003 A 
ATOM    102  C   UNL     1       9.708 -10.706   0.218  1.00  0.00     0.004 A 
ENDBRANCH  88  94
ENDBRANCH  78  81
ENDBRANCH  76  77
ENDBRANCH  75  76
ENDBRANCH   1  75
TORSDOF 17
