REMARK SMILES Cc1sc(NC(=O)[C@@H]2CC=CC[C@H]2C(=O)NCCCCNC(=O)c2ccc(-c3c4nc(c(-c5c(F)cc(S(=O)(=O)[O-])cc5F)c5ccc([nH]5)c(-c5c(F)cc(S(=O)(=O)[O-])cc5F)c5nc(c(-c6c(F)cc(S(=O)(=O)[O-])cc6F)c6ccc3[nH]6)C=C5)C=C4)cc2)nc1-c1ccc(C(C)C)cc1
REMARK SMILES IDX 18 1 17 2 16 3 14 4 15 5 13 7 8 8 9 9 10 10 12 11 11 12 6 13
REMARK SMILES IDX 5 14 7 16 4 17 1 18 2 19 3 20 91 21 90 22 92 23 93 24 100 25
REMARK SMILES IDX 94 26 99 27 95 28 96 29 97 30 98 31 19 32 20 33 21 34 22 35
REMARK SMILES IDX 23 37 24 38 25 39 89 40 26 41 88 42 27 43 28 44 29 45 82 46
REMARK SMILES IDX 30 47 87 48 81 49 83 50 31 51 86 52 80 53 79 54 32 56 66 57
REMARK SMILES IDX 45 58 65 59 46 60 49 61 64 62 84 63 47 64 48 65 63 67 85 68
REMARK SMILES IDX 50 69 33 70 34 71 43 72 35 73 36 74 42 75 44 76 37 77 38 78
REMARK SMILES IDX 39 79 40 80 41 81 67 82 68 83 77 84 69 85 70 86 76 87 78 88
REMARK SMILES IDX 71 89 72 90 73 91 74 92 75 93 51 94 52 95 61 96 53 97 54 98
REMARK SMILES IDX 60 99 62 100 55 101 56 102 57 103 58 104 59 105
REMARK H PARENT 16 6 5 15 21 36 83 55 49 66
REMARK Flexibility Score: inf
ROOT
ATOM      1  C   UNL     1      -5.141   2.288  -0.413  1.00  0.00     0.023 C 
ENDROOT
BRANCH   1   2
ATOM      2  C   UNL     1      -4.242   1.338  -1.243  1.00  0.00     0.116 C 
BRANCH   2   3
ATOM      3  N   UNL     1      -3.402   1.829  -2.326  1.00  0.00    -0.356 N 
ATOM      4  C   UNL     1      -2.102   2.216  -2.478  1.00  0.00     0.224 C 
ATOM      5  O   UNL     1      -1.731   2.361  -3.653  1.00  0.00    -0.275 OA
ATOM      6  H   UNL     1      -3.903   1.901  -3.170  1.00  0.00     0.163 HD
BRANCH   4   7
ATOM      7  C   UNL     1      -1.072   2.460  -1.362  1.00  0.00     0.095 C 
ATOM      8  C   UNL     1      -1.442   3.440  -0.198  1.00  0.00     0.095 C 
ATOM      9  C   UNL     1      -0.891   2.925   1.167  1.00  0.00     0.041 C 
ATOM     10  C   UNL     1      -0.990   1.450   1.391  1.00  0.00    -0.030 C 
ATOM     11  C   UNL     1      -0.569   1.042  -1.006  1.00  0.00     0.041 C 
ATOM     12  C   UNL     1      -0.823   0.585   0.389  1.00  0.00    -0.030 C 
BRANCH   8  13
ATOM     13  C   UNL     1      -0.907   4.931  -0.347  1.00  0.00     0.230 C 
ATOM     14  N   UNL     1      -1.490   5.982  -1.014  1.00  0.00    -0.302 N 
ATOM     15  H   UNL     1      -1.056   6.847  -0.831  1.00  0.00     0.172 HD
ATOM     16  O   UNL     1       0.150   5.236   0.233  1.00  0.00    -0.274 OA
BRANCH  14  17
ATOM     17  C   UNL     1      -2.546   6.079  -1.880  1.00  0.00     0.190 A 
ATOM     18  C   UNL     1      -4.632   4.430  -4.642  1.00  0.00     0.059 C 
ATOM     19  C   UNL     1      -4.001   5.320  -3.634  1.00  0.00     0.031 A 
ATOM     20  S   UNL     1      -3.434   4.720  -2.186  1.00  0.00    -0.101 S 
ATOM     21  C   UNL     1      -3.907   6.694  -3.504  1.00  0.00     0.086 A 
ATOM     22  N   UNL     1      -2.990   7.138  -2.532  1.00  0.00    -0.220 NA
BRANCH  21  23
ATOM     23  C   UNL     1      -4.858   7.468  -4.272  1.00  0.00     0.001 A 
ATOM     24  C   UNL     1      -4.582   7.790  -5.601  1.00  0.00     0.011 A 
ATOM     25  C   UNL     1      -6.190   7.441  -3.824  1.00  0.00     0.011 A 
ATOM     26  C   UNL     1      -5.635   8.003  -6.496  1.00  0.00     0.004 A 
ATOM     27  C   UNL     1      -7.233   7.638  -4.724  1.00  0.00     0.004 A 
ATOM     28  C   UNL     1      -6.969   7.886  -6.078  1.00  0.00    -0.045 A 
BRANCH  28  29
ATOM     29  C   UNL     1      -8.132   8.091  -7.032  1.00  0.00     0.013 C 
ATOM     30  C   UNL     1      -8.325   9.578  -7.279  1.00  0.00     0.012 C 
ATOM     31  C   UNL     1      -8.038   7.324  -8.349  1.00  0.00     0.012 C 
ENDBRANCH  28  29
ENDBRANCH  21  23
ENDBRANCH  14  17
ENDBRANCH   8  13
ENDBRANCH   4   7
ENDBRANCH   2   3
ENDBRANCH   1   2
BRANCH   1  32
ATOM     32  C   UNL     1      -6.199   3.276  -0.972  1.00  0.00     0.023 C 
BRANCH  32  33
ATOM     33  C   UNL     1      -7.018   2.950  -2.224  1.00  0.00     0.116 C 
BRANCH  33  34
ATOM     34  N   UNL     1      -8.293   2.341  -1.884  1.00  0.00    -0.352 N 
ATOM     35  C   UNL     1      -9.594   2.746  -2.089  1.00  0.00     0.251 C 
ATOM     36  H   UNL     1      -8.212   1.477  -1.420  1.00  0.00     0.163 HD
ATOM     37  O   UNL     1     -10.476   2.145  -1.473  1.00  0.00    -0.269 OA
BRANCH  35  38
ATOM     38  C   UNL     1      -9.998   3.855  -3.004  1.00  0.00     0.039 A 
ATOM     39  C   UNL     1     -11.105   4.640  -2.640  1.00  0.00     0.014 A 
ATOM     40  C   UNL     1      -9.433   4.056  -4.264  1.00  0.00     0.014 A 
ATOM     41  C   UNL     1     -11.617   5.628  -3.501  1.00  0.00     0.010 A 
ATOM     42  C   UNL     1      -9.929   5.067  -5.114  1.00  0.00     0.010 A 
ATOM     43  C   UNL     1     -11.023   5.877  -4.745  1.00  0.00    -0.014 A 
BRANCH  43  44
ATOM     44  C   UNL     1     -11.494   6.995  -5.635  1.00  0.00     0.031 A 
ATOM     45  C   UNL     1     -11.973   6.720  -7.047  1.00  0.00     0.074 A 
ATOM     46  C   UNL     1     -11.355   8.282  -5.236  1.00  0.00     0.049 A 
ATOM     47  N   UNL     1     -12.219   7.566  -8.018  1.00  0.00    -0.248 NA
ATOM     48  C   UNL     1     -12.183   5.312  -7.420  1.00  0.00     0.031 C 
ATOM     49  C   UNL     1     -10.832   8.714  -3.937  1.00  0.00     0.029 A 
ATOM     50  N   UNL     1     -11.542   9.468  -5.918  1.00  0.00    -0.354 N 
ATOM     51  C   UNL     1     -12.619   6.799  -9.111  1.00  0.00     0.074 A 
ATOM     52  C   UNL     1     -12.527   5.414  -8.699  1.00  0.00     0.031 C 
ATOM     53  C   UNL     1     -10.655  10.046  -3.947  1.00  0.00     0.029 A 
ATOM     54  C   UNL     1     -11.038  10.570  -5.254  1.00  0.00     0.049 A 
ATOM     55  H   UNL     1     -11.991   9.523  -6.792  1.00  0.00     0.167 HD
ATOM     56  C   UNL     1     -13.053   7.208 -10.330  1.00  0.00     0.037 A 
ATOM     57  C   UNL     1     -10.830  11.840  -5.663  1.00  0.00     0.037 A 
ATOM     58  C   UNL     1     -13.188   8.588 -10.729  1.00  0.00     0.049 A 
ATOM     59  C   UNL     1     -11.242  12.260  -7.052  1.00  0.00     0.074 A 
ATOM     60  C   UNL     1     -13.774   9.096 -11.877  1.00  0.00     0.029 A 
ATOM     61  N   UNL     1     -12.713   9.673 -10.013  1.00  0.00    -0.354 N 
ATOM     62  N   UNL     1     -11.755  11.533  -8.015  1.00  0.00    -0.248 NA
ATOM     63  C   UNL     1     -11.060  13.677  -7.406  1.00  0.00     0.031 C 
ATOM     64  C   UNL     1     -13.601  10.484 -11.884  1.00  0.00     0.029 A 
ATOM     65  C   UNL     1     -12.951  10.844 -10.716  1.00  0.00     0.049 A 
ATOM     66  H   UNL     1     -12.271   9.621  -9.135  1.00  0.00     0.167 HD
ATOM     67  C   UNL     1     -12.001  12.414  -9.066  1.00  0.00     0.074 A 
ATOM     68  C   UNL     1     -11.571  13.723  -8.629  1.00  0.00     0.031 C 
ATOM     69  C   UNL     1     -12.548  12.156 -10.279  1.00  0.00     0.037 A 
BRANCH  56  70
ATOM     70  C   UNL     1     -13.476   6.169 -11.338  1.00  0.00     0.058 A 
ATOM     71  C   UNL     1     -14.677   5.457 -11.193  1.00  0.00     0.135 A 
ATOM     72  C   UNL     1     -12.754   5.992 -12.532  1.00  0.00     0.135 A 
ATOM     73  F   UNL     1     -15.409   5.589 -10.075  1.00  0.00    -0.206 F 
ATOM     74  C   UNL     1     -15.143   4.603 -12.187  1.00  0.00     0.059 A 
ATOM     75  C   UNL     1     -13.214   5.160 -13.551  1.00  0.00     0.059 A 
ATOM     76  F   UNL     1     -11.604   6.656 -12.730  1.00  0.00    -0.206 F 
ATOM     77  C   UNL     1     -14.409   4.467 -13.367  1.00  0.00     0.060 A 
BRANCH  77  78
ATOM     78  S   UNL     1     -15.062   3.396 -14.667  1.00  0.00     0.124 S 
ATOM     79  O   UNL     1     -14.859   2.073 -14.083  1.00  0.00    -0.237 OA
ATOM     80  O   UNL     1     -16.450   3.837 -14.766  1.00  0.00    -0.237 OA
ATOM     81  O   UNL     1     -14.224   3.707 -15.820  1.00  0.00    -0.744 OA
ENDBRANCH  77  78
ENDBRANCH  56  70
BRANCH  57  82
ATOM     82  C   UNL     1     -10.144  12.824  -4.773  1.00  0.00     0.058 A 
ATOM     83  C   UNL     1     -10.848  13.889  -4.194  1.00  0.00     0.135 A 
ATOM     84  C   UNL     1      -8.760  12.762  -4.540  1.00  0.00     0.135 A 
ATOM     85  F   UNL     1     -12.169  14.005  -4.395  1.00  0.00    -0.206 F 
ATOM     86  C   UNL     1     -10.201  14.873  -3.451  1.00  0.00     0.059 A 
ATOM     87  C   UNL     1      -8.094  13.720  -3.783  1.00  0.00     0.059 A 
ATOM     88  F   UNL     1      -8.026  11.767  -5.052  1.00  0.00    -0.206 F 
ATOM     89  C   UNL     1      -8.821  14.784  -3.258  1.00  0.00     0.060 A 
BRANCH  89  90
ATOM     90  S   UNL     1      -7.986  16.069  -2.304  1.00  0.00     0.124 S 
ATOM     91  O   UNL     1      -8.026  17.194  -3.232  1.00  0.00    -0.237 OA
ATOM     92  O   UNL     1      -8.844  16.180  -1.128  1.00  0.00    -0.237 OA
ATOM     93  O   UNL     1      -6.665  15.501  -2.057  1.00  0.00    -0.744 OA
ENDBRANCH  89  90
ENDBRANCH  57  82
BRANCH  69  94
ATOM     94  C   UNL     1     -12.785  13.314 -11.211  1.00  0.00     0.058 A 
ATOM     95  C   UNL     1     -11.736  13.938 -11.902  1.00  0.00     0.135 A 
ATOM     96  C   UNL     1     -14.093  13.760 -11.467  1.00  0.00     0.135 A 
ATOM     97  F   UNL     1     -10.466  13.559 -11.687  1.00  0.00    -0.206 F 
ATOM     98  C   UNL     1     -11.973  14.968 -12.809  1.00  0.00     0.059 A 
ATOM     99  C   UNL     1     -14.356  14.771 -12.388  1.00  0.00     0.059 A 
ATOM    100  F   UNL     1     -15.135  13.195 -10.837  1.00  0.00    -0.206 F 
ATOM    101  C   UNL     1     -13.288  15.373 -13.050  1.00  0.00     0.060 A 
BRANCH 101 102
ATOM    102  S   UNL     1     -13.587  16.669 -14.273  1.00  0.00     0.124 S 
ATOM    103  O   UNL     1     -13.117  17.856 -13.566  1.00  0.00    -0.237 OA
ATOM    104  O   UNL     1     -12.764  16.234 -15.397  1.00  0.00    -0.237 OA
ATOM    105  O   UNL     1     -15.028  16.602 -14.495  1.00  0.00    -0.744 OA
ENDBRANCH 101 102
ENDBRANCH  69  94
ENDBRANCH  43  44
ENDBRANCH  35  38
ENDBRANCH  33  34
ENDBRANCH  32  33
ENDBRANCH   1  32
TORSDOF 18
