REMARK SMILES C[C@@H](NC(=O)/C(=C/c1ccc(Cl)cc1)NC(=O)c1ccc(C(C)(C)C)cc1)C(=O)NCCCCNC(=O)c1ccc(-c2c3nc(c(-c4c(F)cc(S(=O)(=O)[O-])cc4F)c4ccc([nH]4)c(-c4c(F)cc(S(=O)(=O)[O-])cc4F)c4nc(c(-c5c(F)cc(S(=O)(=O)[O-])cc5F)c5ccc2[nH]5)C=C4)C=C3)cc1
REMARK SMILES IDX 31 1 30 2 28 3 29 4 2 6 1 7 3 8 4 9 5 11 6 12 7 13 15 14
REMARK SMILES IDX 16 15 17 17 18 18 19 19 27 20 20 21 26 22 21 23 22 24 23 25
REMARK SMILES IDX 24 26 25 27 8 28 9 29 14 30 10 31 13 32 11 33 12 34 32 35
REMARK SMILES IDX 33 36 34 37 35 38 36 39 37 41 38 42 39 43 103 44 40 45
REMARK SMILES IDX 102 46 41 47 42 48 43 49 96 50 44 51 101 52 95 53 97 54
REMARK SMILES IDX 45 55 100 56 94 57 93 58 46 60 80 61 59 62 79 63 60 64 63 65
REMARK SMILES IDX 78 66 98 67 61 68 62 69 77 71 99 72 64 73 47 74 48 75 57 76
REMARK SMILES IDX 49 77 50 78 56 79 58 80 51 81 52 82 53 83 54 84 55 85 81 86
REMARK SMILES IDX 82 87 91 88 83 89 84 90 90 91 92 92 85 93 86 94 87 95 88 96
REMARK SMILES IDX 89 97 65 98 66 99 75 100 67 101 68 102 74 103 76 104 69 105
REMARK SMILES IDX 70 106 71 107 72 108 73 109
REMARK H PARENT 30 5 3 10 15 16 35 40 97 59 63 70
REMARK Flexibility Score: inf
ROOT
ATOM      1  C   UNL     1      -0.862   1.927  -0.216  1.00  0.00     0.116 C 
ENDROOT
BRANCH   1   2
ATOM      2  N   UNL     1      -1.264   0.544  -0.077  1.00  0.00    -0.354 N 
ATOM      3  C   UNL     1      -0.667  -0.452   0.627  1.00  0.00     0.242 C 
ATOM      4  O   UNL     1      -1.114  -1.597   0.511  1.00  0.00    -0.273 OA
ATOM      5  H   UNL     1      -2.083   0.290  -0.561  1.00  0.00     0.163 HD
BRANCH   3   6
ATOM      6  C   UNL     1       0.607  -0.197   1.450  1.00  0.00     0.168 C 
ATOM      7  C   UNL     1       1.786  -0.224   0.468  1.00  0.00     0.041 C 
BRANCH   6   8
ATOM      8  N   UNL     1       0.664   0.998   2.316  1.00  0.00    -0.339 N 
ATOM      9  C   UNL     1      -0.070   1.187   3.471  1.00  0.00     0.268 C 
ATOM     10  H   UNL     1       1.278   1.720   2.049  1.00  0.00     0.164 HD
ATOM     11  O   UNL     1       0.518   1.332   4.539  1.00  0.00    -0.268 OA
BRANCH   9  12
ATOM     12  C   UNL     1      -1.557   1.395   3.359  1.00  0.00     0.107 C 
ATOM     13  C   UNL     1      -2.285   0.321   2.995  1.00  0.00     0.040 C 
BRANCH  12  14
ATOM     14  N   UNL     1      -2.168   2.584   3.707  1.00  0.00    -0.317 N 
ATOM     15  C   UNL     1      -1.740   3.826   4.106  1.00  0.00     0.255 C 
ATOM     16  H   UNL     1      -3.149   2.527   3.657  1.00  0.00     0.170 HD
ATOM     17  O   UNL     1      -2.575   4.669   4.434  1.00  0.00    -0.269 OA
BRANCH  15  18
ATOM     18  C   UNL     1      -0.325   4.192   4.175  1.00  0.00     0.040 A 
ATOM     19  C   UNL     1       0.213   4.496   5.422  1.00  0.00     0.014 A 
ATOM     20  C   UNL     1       0.454   4.284   3.025  1.00  0.00     0.014 A 
ATOM     21  C   UNL     1       1.574   4.776   5.532  1.00  0.00     0.005 A 
ATOM     22  C   UNL     1       1.819   4.558   3.143  1.00  0.00     0.005 A 
ATOM     23  C   UNL     1       2.417   4.760   4.402  1.00  0.00    -0.043 A 
BRANCH  23  24
ATOM     24  C   UNL     1       3.933   4.941   4.581  1.00  0.00    -0.013 C 
ATOM     25  C   UNL     1       4.227   6.382   5.039  1.00  0.00     0.016 C 
ATOM     26  C   UNL     1       4.458   3.949   5.645  1.00  0.00     0.016 C 
ATOM     27  C   UNL     1       4.740   4.675   3.291  1.00  0.00     0.016 C 
ENDBRANCH  23  24
ENDBRANCH  15  18
ENDBRANCH  12  14
BRANCH  13  28
ATOM     28  C   UNL     1      -3.703   0.224   2.579  1.00  0.00    -0.023 A 
ATOM     29  C   UNL     1      -4.432   1.293   2.033  1.00  0.00     0.010 A 
ATOM     30  C   UNL     1      -4.298  -1.046   2.576  1.00  0.00     0.010 A 
ATOM     31  C   UNL     1      -5.737   1.114   1.563  1.00  0.00     0.021 A 
ATOM     32  C   UNL     1      -5.594  -1.234   2.084  1.00  0.00     0.021 A 
ATOM     33  C   UNL     1      -6.312  -0.151   1.590  1.00  0.00     0.041 A 
ATOM     34  Cl  UNL     1      -7.903  -0.382   0.984  1.00  0.00    -0.084 Cl
ENDBRANCH  13  28
ENDBRANCH   9  12
ENDBRANCH   6   8
ENDBRANCH   3   6
ENDBRANCH   1   2
BRANCH   1  35
ATOM     35  C   UNL     1      -1.247   2.458  -1.591  1.00  0.00     0.023 C 
BRANCH  35  36
ATOM     36  C   UNL     1      -2.744   2.730  -1.736  1.00  0.00     0.023 C 
BRANCH  36  37
ATOM     37  C   UNL     1      -3.264   3.838  -0.828  1.00  0.00     0.116 C 
BRANCH  37  38
ATOM     38  N   UNL     1      -2.649   5.123  -1.123  1.00  0.00    -0.352 N 
ATOM     39  C   UNL     1      -3.245   6.295  -1.524  1.00  0.00     0.251 C 
ATOM     40  H   UNL     1      -1.671   5.158  -1.021  1.00  0.00     0.163 HD
ATOM     41  O   UNL     1      -2.559   7.221  -1.933  1.00  0.00    -0.269 OA
BRANCH  39  42
ATOM     42  C   UNL     1      -4.718   6.406  -1.482  1.00  0.00     0.039 A 
ATOM     43  C   UNL     1      -5.387   6.917  -2.595  1.00  0.00     0.014 A 
ATOM     44  C   UNL     1      -5.433   5.981  -0.358  1.00  0.00     0.014 A 
ATOM     45  C   UNL     1      -6.783   6.943  -2.604  1.00  0.00     0.010 A 
ATOM     46  C   UNL     1      -6.822   5.927  -0.405  1.00  0.00     0.010 A 
ATOM     47  C   UNL     1      -7.512   6.414  -1.525  1.00  0.00    -0.014 A 
BRANCH  47  48
ATOM     48  C   UNL     1      -8.997   6.369  -1.553  1.00  0.00     0.031 A 
ATOM     49  C   UNL     1      -9.795   7.141  -0.537  1.00  0.00     0.074 A 
ATOM     50  C   UNL     1      -9.623   5.593  -2.461  1.00  0.00     0.049 A 
ATOM     51  N   UNL     1     -11.091   7.195  -0.376  1.00  0.00    -0.248 NA
ATOM     52  C   UNL     1      -9.036   7.938   0.441  1.00  0.00     0.031 C 
ATOM     53  C   UNL     1      -8.958   4.763  -3.468  1.00  0.00     0.029 A 
ATOM     54  N   UNL     1     -10.959   5.372  -2.683  1.00  0.00    -0.354 N 
ATOM     55  C   UNL     1     -11.302   8.016   0.726  1.00  0.00     0.074 A 
ATOM     56  C   UNL     1      -9.999   8.393   1.228  1.00  0.00     0.031 C 
ATOM     57  C   UNL     1      -9.887   4.149  -4.218  1.00  0.00     0.029 A 
ATOM     58  C   UNL     1     -11.213   4.505  -3.720  1.00  0.00     0.049 A 
ATOM     59  H   UNL     1     -11.671   5.795  -2.150  1.00  0.00     0.167 HD
ATOM     60  C   UNL     1     -12.475   8.436   1.257  1.00  0.00     0.037 A 
ATOM     61  C   UNL     1     -12.379   4.043  -4.211  1.00  0.00     0.037 A 
ATOM     62  C   UNL     1     -13.768   8.073   0.738  1.00  0.00     0.049 A 
ATOM     63  C   UNL     1     -13.669   4.514  -3.594  1.00  0.00     0.074 A 
ATOM     64  C   UNL     1     -15.015   8.497   1.164  1.00  0.00     0.029 A 
ATOM     65  N   UNL     1     -13.983   7.197  -0.316  1.00  0.00    -0.354 N 
ATOM     66  N   UNL     1     -13.851   5.350  -2.599  1.00  0.00    -0.248 NA
ATOM     67  C   UNL     1     -14.913   3.985  -4.170  1.00  0.00     0.031 C 
ATOM     68  C   UNL     1     -15.985   7.832   0.407  1.00  0.00     0.029 A 
ATOM     69  C   UNL     1     -15.343   7.043  -0.535  1.00  0.00     0.049 A 
ATOM     70  H   UNL     1     -13.274   6.749  -0.833  1.00  0.00     0.167 HD
ATOM     71  C   UNL     1     -15.229   5.470  -2.450  1.00  0.00     0.074 A 
ATOM     72  C   UNL     1     -15.832   4.631  -3.465  1.00  0.00     0.031 C 
ATOM     73  C   UNL     1     -15.930   6.210  -1.555  1.00  0.00     0.037 A 
BRANCH  60  74
ATOM     74  C   UNL     1     -12.416   9.333   2.465  1.00  0.00     0.058 A 
ATOM     75  C   UNL     1     -11.945  10.653   2.386  1.00  0.00     0.135 A 
ATOM     76  C   UNL     1     -12.876   8.878   3.712  1.00  0.00     0.135 A 
ATOM     77  F   UNL     1     -11.478  11.137   1.223  1.00  0.00    -0.206 F 
ATOM     78  C   UNL     1     -11.903  11.480   3.503  1.00  0.00     0.059 A 
ATOM     79  C   UNL     1     -12.874   9.699   4.837  1.00  0.00     0.059 A 
ATOM     80  F   UNL     1     -13.338   7.625   3.847  1.00  0.00    -0.206 F 
ATOM     81  C   UNL     1     -12.373  10.995   4.725  1.00  0.00     0.060 A 
BRANCH  81  82
ATOM     82  S   UNL     1     -12.325  12.087   6.161  1.00  0.00     0.124 S 
ATOM     83  O   UNL     1     -10.893  12.145   6.436  1.00  0.00    -0.237 OA
ATOM     84  O   UNL     1     -12.920  13.313   5.640  1.00  0.00    -0.237 OA
ATOM     85  O   UNL     1     -13.125  11.378   7.155  1.00  0.00    -0.744 OA
ENDBRANCH  81  82
ENDBRANCH  60  74
BRANCH  61  86
ATOM     86  C   UNL     1     -12.383   3.098  -5.361  1.00  0.00     0.058 A 
ATOM     87  C   UNL     1     -12.860   3.495  -6.619  1.00  0.00     0.135 A 
ATOM     88  C   UNL     1     -11.905   1.785  -5.230  1.00  0.00     0.135 A 
ATOM     89  F   UNL     1     -13.335   4.738  -6.795  1.00  0.00    -0.206 F 
ATOM     90  C   UNL     1     -12.880   2.621  -7.701  1.00  0.00     0.059 A 
ATOM     91  C   UNL     1     -11.888   0.901  -6.304  1.00  0.00     0.059 A 
ATOM     92  F   UNL     1     -11.422   1.359  -4.052  1.00  0.00    -0.206 F 
ATOM     93  C   UNL     1     -12.388   1.325  -7.534  1.00  0.00     0.060 A 
BRANCH  93  94
ATOM     94  S   UNL     1     -12.376   0.214  -8.958  1.00  0.00     0.124 S 
ATOM     95  O   UNL     1     -13.796  -0.076  -9.117  1.00  0.00    -0.237 OA
ATOM     96  O   UNL     1     -11.775   1.050  -9.992  1.00  0.00    -0.237 OA
ATOM     97  O   UNL     1     -11.550  -0.902  -8.506  1.00  0.00    -0.744 OA
ENDBRANCH  93  94
ENDBRANCH  61  86
BRANCH  73  98
ATOM     98  C   UNL     1     -17.432   6.182  -1.655  1.00  0.00     0.058 A 
ATOM     99  C   UNL     1     -18.179   5.051  -1.292  1.00  0.00     0.135 A 
ATOM    100  C   UNL     1     -18.135   7.326  -2.070  1.00  0.00     0.135 A 
ATOM    101  F   UNL     1     -17.558   3.929  -0.894  1.00  0.00    -0.206 F 
ATOM    102  C   UNL     1     -19.569   5.046  -1.360  1.00  0.00     0.059 A 
ATOM    103  C   UNL     1     -19.525   7.353  -2.115  1.00  0.00     0.059 A 
ATOM    104  F   UNL     1     -17.471   8.439  -2.419  1.00  0.00    -0.206 F 
ATOM    105  C   UNL     1     -20.233   6.204  -1.769  1.00  0.00     0.060 A 
BRANCH 105 106
ATOM    106  S   UNL     1     -22.037   6.194  -1.819  1.00  0.00     0.124 S 
ATOM    107  O   UNL     1     -22.295   5.350  -2.982  1.00  0.00    -0.237 OA
ATOM    108  O   UNL     1     -22.382   5.612  -0.526  1.00  0.00    -0.237 OA
ATOM    109  O   UNL     1     -22.382   7.603  -1.978  1.00  0.00    -0.744 OA
ENDBRANCH 105 106
ENDBRANCH  73  98
ENDBRANCH  47  48
ENDBRANCH  39  42
ENDBRANCH  37  38
ENDBRANCH  36  37
ENDBRANCH  35  36
ENDBRANCH   1  35
TORSDOF 20
