REMARK SMILES O=C(NCCCCNC(=O)[C@@H]1CCCC[C@H]1C(=O)Nc1ccccc1C(=O)N1CCOCC1)c1ccc(-c2c3nc(c(-c4c(F)cc(S(=O)(=O)[O-])cc4F)c4ccc([nH]4)c(-c4c(F)cc(S(=O)(=O)[O-])cc4F)c4nc(c(-c5c(F)cc(S(=O)(=O)[O-])cc5F)c5ccc2[nH]5)C=C4)C=C3)cc1
REMARK SMILES IDX 5 1 4 2 3 3 1 4 2 5 34 7 35 8 99 9 36 10 98 11 37 12 38 13
REMARK SMILES IDX 39 14 92 15 40 16 97 17 91 18 93 19 41 20 96 21 90 22 89 23
REMARK SMILES IDX 42 25 76 26 55 27 75 28 56 29 59 30 74 31 94 32 57 33 58 34
REMARK SMILES IDX 73 36 95 37 60 38 43 39 44 40 53 41 45 42 46 43 52 44 54 45
REMARK SMILES IDX 47 46 48 47 49 48 50 49 51 50 77 51 78 52 87 53 79 54 80 55
REMARK SMILES IDX 86 56 88 57 81 58 82 59 83 60 84 61 85 62 61 63 62 64 71 65
REMARK SMILES IDX 63 66 64 67 70 68 72 69 65 70 66 71 67 72 68 73 69 74 6 75
REMARK SMILES IDX 7 76 8 77 9 78 10 80 11 81 12 82 16 83 13 84 15 85 14 86
REMARK SMILES IDX 17 87 18 88 19 89 20 91 21 92 25 93 22 94 24 95 23 96 26 97
REMARK SMILES IDX 27 98 28 99 29 100 33 101 30 102 32 103 31 104
REMARK H PARENT 3 6 93 24 59 35 8 79 19 90
REMARK Flexibility Score: inf
ROOT
ATOM      1  C   UNL     1       5.666   0.775  -1.245  1.00  0.00     0.023 C 
ENDROOT
BRANCH   1   2
ATOM      2  C   UNL     1       4.695   0.654  -0.101  1.00  0.00     0.116 C 
BRANCH   2   3
ATOM      3  N   UNL     1       3.284   0.480  -0.427  1.00  0.00    -0.352 N 
ATOM      4  O   UNL     1       1.170  -0.294  -0.083  1.00  0.00    -0.269 OA
ATOM      5  C   UNL     1       2.341  -0.285   0.255  1.00  0.00     0.251 C 
ATOM      6  H   UNL     1       2.960   0.961  -1.223  1.00  0.00     0.163 HD
BRANCH   5   7
ATOM      7  C   UNL     1       2.816  -1.153   1.364  1.00  0.00     0.039 A 
ATOM      8  C   UNL     1       3.720  -0.635   2.280  1.00  0.00     0.014 A 
ATOM      9  C   UNL     1       2.547  -2.525   1.347  1.00  0.00     0.014 A 
ATOM     10  C   UNL     1       4.602  -1.506   2.894  1.00  0.00     0.010 A 
ATOM     11  C   UNL     1       3.309  -3.392   2.147  1.00  0.00     0.010 A 
ATOM     12  C   UNL     1       4.404  -2.900   2.870  1.00  0.00    -0.014 A 
BRANCH  12  13
ATOM     13  C   UNL     1       5.364  -3.760   3.630  1.00  0.00     0.031 A 
ATOM     14  C   UNL     1       6.110  -4.911   2.994  1.00  0.00     0.074 A 
ATOM     15  C   UNL     1       5.651  -3.408   4.903  1.00  0.00     0.049 A 
ATOM     16  N   UNL     1       6.977  -5.726   3.545  1.00  0.00    -0.248 NA
ATOM     17  C   UNL     1       5.846  -5.207   1.576  1.00  0.00     0.031 C 
ATOM     18  C   UNL     1       4.984  -2.330   5.645  1.00  0.00     0.029 A 
ATOM     19  N   UNL     1       6.611  -3.851   5.775  1.00  0.00    -0.354 N 
ATOM     20  C   UNL     1       7.316  -6.659   2.569  1.00  0.00     0.074 A 
ATOM     21  C   UNL     1       6.566  -6.306   1.382  1.00  0.00     0.031 C 
ATOM     22  C   UNL     1       5.645  -2.099   6.784  1.00  0.00     0.029 A 
ATOM     23  C   UNL     1       6.682  -3.109   6.932  1.00  0.00     0.049 A 
ATOM     24  H   UNL     1       7.193  -4.624   5.592  1.00  0.00     0.167 HD
ATOM     25  C   UNL     1       8.167  -7.712   2.661  1.00  0.00     0.037 A 
ATOM     26  C   UNL     1       7.460  -3.239   8.022  1.00  0.00     0.037 A 
ATOM     27  C   UNL     1       8.946  -8.022   3.837  1.00  0.00     0.049 A 
ATOM     28  C   UNL     1       8.426  -4.378   8.076  1.00  0.00     0.074 A 
ATOM     29  C   UNL     1       9.825  -9.074   4.038  1.00  0.00     0.029 A 
ATOM     30  N   UNL     1       8.962  -7.268   5.002  1.00  0.00    -0.354 N 
ATOM     31  N   UNL     1       8.666  -5.291   7.167  1.00  0.00    -0.248 NA
ATOM     32  C   UNL     1       9.200  -4.530   9.313  1.00  0.00     0.031 C 
ATOM     33  C   UNL     1      10.352  -8.970   5.331  1.00  0.00     0.029 A 
ATOM     34  C   UNL     1       9.833  -7.831   5.923  1.00  0.00     0.049 A 
ATOM     35  H   UNL     1       8.432  -6.452   5.153  1.00  0.00     0.167 HD
ATOM     36  C   UNL     1       9.596  -6.149   7.734  1.00  0.00     0.074 A 
ATOM     37  C   UNL     1       9.916  -5.612   9.043  1.00  0.00     0.031 C 
ATOM     38  C   UNL     1      10.118  -7.293   7.228  1.00  0.00     0.037 A 
BRANCH  25  39
ATOM     39  C   UNL     1       8.294  -8.636   1.476  1.00  0.00     0.058 A 
ATOM     40  C   UNL     1       9.009  -8.276   0.324  1.00  0.00     0.135 A 
ATOM     41  C   UNL     1       7.762  -9.936   1.531  1.00  0.00     0.135 A 
ATOM     42  F   UNL     1       9.529  -7.044   0.209  1.00  0.00    -0.206 F 
ATOM     43  C   UNL     1       9.185  -9.167  -0.733  1.00  0.00     0.059 A 
ATOM     44  C   UNL     1       7.944 -10.851   0.496  1.00  0.00     0.059 A 
ATOM     45  F   UNL     1       7.071 -10.338   2.610  1.00  0.00    -0.206 F 
ATOM     46  C   UNL     1       8.651 -10.454  -0.637  1.00  0.00     0.060 A 
BRANCH  46  47
ATOM     47  S   UNL     1       8.914 -11.608  -2.002  1.00  0.00     0.124 S 
ATOM     48  O   UNL     1       7.998 -11.081  -3.010  1.00  0.00    -0.237 OA
ATOM     49  O   UNL     1      10.335 -11.439  -2.289  1.00  0.00    -0.237 OA
ATOM     50  O   UNL     1       8.543 -12.900  -1.433  1.00  0.00    -0.744 OA
ENDBRANCH  46  47
ENDBRANCH  25  39
BRANCH  26  51
ATOM     51  C   UNL     1       7.285  -2.303   9.164  1.00  0.00     0.058 A 
ATOM     52  C   UNL     1       8.273  -1.368   9.500  1.00  0.00     0.135 A 
ATOM     53  C   UNL     1       6.090  -2.289   9.902  1.00  0.00     0.135 A 
ATOM     54  F   UNL     1       9.434  -1.346   8.829  1.00  0.00    -0.206 F 
ATOM     55  C   UNL     1       8.082  -0.448  10.527  1.00  0.00     0.059 A 
ATOM     56  C   UNL     1       5.862  -1.357  10.906  1.00  0.00     0.059 A 
ATOM     57  F   UNL     1       5.105  -3.151   9.605  1.00  0.00    -0.206 F 
ATOM     58  C   UNL     1       6.868  -0.447  11.219  1.00  0.00     0.060 A 
BRANCH  58  59
ATOM     59  S   UNL     1       6.583   0.799  12.494  1.00  0.00     0.124 S 
ATOM     60  O   UNL     1       7.267   0.206  13.637  1.00  0.00    -0.237 OA
ATOM     61  O   UNL     1       7.209   1.986  11.919  1.00  0.00    -0.237 OA
ATOM     62  O   UNL     1       5.127   0.852  12.584  1.00  0.00    -0.744 OA
ENDBRANCH  58  59
ENDBRANCH  26  51
BRANCH  38  63
ATOM     63  C   UNL     1      11.079  -8.029   8.114  1.00  0.00     0.058 A 
ATOM     64  C   UNL     1      10.631  -8.752   9.231  1.00  0.00     0.135 A 
ATOM     65  C   UNL     1      12.459  -7.989   7.862  1.00  0.00     0.135 A 
ATOM     66  F   UNL     1       9.321  -8.809   9.517  1.00  0.00    -0.206 F 
ATOM     67  C   UNL     1      11.523  -9.374  10.096  1.00  0.00     0.059 A 
ATOM     68  C   UNL     1      13.367  -8.623   8.702  1.00  0.00     0.059 A 
ATOM     69  F   UNL     1      12.934  -7.315   6.803  1.00  0.00    -0.206 F 
ATOM     70  C   UNL     1      12.891  -9.295   9.828  1.00  0.00     0.060 A 
BRANCH  70  71
ATOM     71  S   UNL     1      14.045 -10.085  10.969  1.00  0.00     0.124 S 
ATOM     72  O   UNL     1      14.075  -9.123  12.066  1.00  0.00    -0.237 OA
ATOM     73  O   UNL     1      13.386 -11.355  11.257  1.00  0.00    -0.237 OA
ATOM     74  O   UNL     1      15.274 -10.187  10.188  1.00  0.00    -0.744 OA
ENDBRANCH  70  71
ENDBRANCH  38  63
ENDBRANCH  12  13
ENDBRANCH   5   7
ENDBRANCH   2   3
ENDBRANCH   1   2
BRANCH   1  75
ATOM     75  C   UNL     1       5.426   1.854  -2.280  1.00  0.00     0.023 C 
BRANCH  75  76
ATOM     76  C   UNL     1       5.450   3.362  -1.990  1.00  0.00     0.116 C 
BRANCH  76  77
ATOM     77  N   UNL     1       6.600   3.949  -2.689  1.00  0.00    -0.356 N 
ATOM     78  C   UNL     1       6.857   4.545  -3.874  1.00  0.00     0.223 C 
ATOM     79  H   UNL     1       7.414   3.892  -2.139  1.00  0.00     0.163 HD
ATOM     80  O   UNL     1       8.030   4.372  -4.251  1.00  0.00    -0.275 OA
BRANCH  78  81
ATOM     81  C   UNL     1       6.056   5.606  -4.654  1.00  0.00     0.091 C 
ATOM     82  C   UNL     1       6.378   6.926  -3.900  1.00  0.00     0.014 C 
ATOM     83  C   UNL     1       4.575   5.604  -5.076  1.00  0.00     0.091 C 
ATOM     84  C   UNL     1       6.097   8.154  -4.754  1.00  0.00     0.001 C 
ATOM     85  C   UNL     1       4.240   6.908  -5.866  1.00  0.00     0.014 C 
ATOM     86  C   UNL     1       4.635   8.191  -5.154  1.00  0.00     0.001 C 
BRANCH  83  87
ATOM     87  C   UNL     1       3.903   4.523  -5.943  1.00  0.00     0.228 C 
ATOM     88  O   UNL     1       2.800   4.091  -5.574  1.00  0.00    -0.274 OA
ATOM     89  N   UNL     1       4.312   4.123  -7.184  1.00  0.00    -0.325 N 
ATOM     90  H   UNL     1       3.631   3.629  -7.695  1.00  0.00     0.169 HD
BRANCH  89  91
ATOM     91  C   UNL     1       5.528   4.293  -7.856  1.00  0.00     0.054 A 
ATOM     92  C   UNL     1       5.464   5.014  -9.060  1.00  0.00     0.027 A 
ATOM     93  C   UNL     1       6.758   3.745  -7.459  1.00  0.00     0.063 A 
ATOM     94  C   UNL     1       6.628   5.384  -9.734  1.00  0.00     0.002 A 
ATOM     95  C   UNL     1       7.929   4.217  -8.084  1.00  0.00     0.016 A 
ATOM     96  C   UNL     1       7.866   5.045  -9.204  1.00  0.00     0.001 A 
BRANCH  93  97
ATOM     97  C   UNL     1       6.946   2.475  -6.667  1.00  0.00     0.256 C 
ATOM     98  O   UNL     1       8.077   2.108  -6.359  1.00  0.00    -0.269 OA
ATOM     99  N   UNL     1       5.849   1.624  -6.513  1.00  0.00    -0.334 N 
ATOM    100  C   UNL     1       6.069   0.187  -6.698  1.00  0.00     0.148 C 
ATOM    101  C   UNL     1       5.059   1.815  -5.326  1.00  0.00     0.148 C 
ATOM    102  C   UNL     1       4.744  -0.601  -6.634  1.00  0.00     0.181 C 
ATOM    103  C   UNL     1       3.701   1.144  -5.420  1.00  0.00     0.181 C 
ATOM    104  O   UNL     1       3.923  -0.272  -5.497  1.00  0.00    -0.378 OA
ENDBRANCH  93  97
ENDBRANCH  89  91
ENDBRANCH  83  87
ENDBRANCH  78  81
ENDBRANCH  76  77
ENDBRANCH  75  76
ENDBRANCH   1  75
TORSDOF 17
