REMARK SMILES COc1ccc(C(=O)NCCCCNC(=O)c2ccc(-c3c4nc(c(-c5c(F)cc(S(=O)(=O)[O-])cc5F)c5ccc([nH]5)c(-c5c(F)cc(S(=O)(=O)[O-])cc5F)c5nc(c(-c6c(F)cc(S(=O)(=O)[O-])cc6F)c6ccc3[nH]6)C=C5)C=C4)cc2)cc1NC(=O)c1ccccc1[N+](=O)[O-]
REMARK SMILES IDX 11 1 10 2 9 3 7 4 8 5 6 7 3 8 4 9 84 10 5 11 83 12 2 13 1 14
REMARK SMILES IDX 85 15 86 16 87 18 88 19 89 20 93 21 90 22 92 23 91 24 94 25
REMARK SMILES IDX 95 26 96 27 12 28 13 29 14 30 15 31 16 33 17 34 18 35 82 36
REMARK SMILES IDX 19 37 81 38 20 39 21 40 22 41 75 42 23 43 80 44 74 45 76 46
REMARK SMILES IDX 24 47 79 48 73 49 72 50 25 52 59 53 38 54 58 55 39 56 42 57
REMARK SMILES IDX 57 58 77 59 40 60 41 61 56 63 78 64 43 65 26 66 27 67 36 68
REMARK SMILES IDX 28 69 29 70 35 71 37 72 30 73 31 74 32 75 33 76 34 77 60 78
REMARK SMILES IDX 61 79 70 80 62 81 63 82 69 83 71 84 64 85 65 86 66 87 67 88
REMARK SMILES IDX 68 89 44 90 45 91 54 92 46 93 47 94 53 95 55 96 48 97 49 98
REMARK SMILES IDX 50 99 51 100 52 101
REMARK H PARENT 9 6 85 17 14 32 76 51 42 62
REMARK Flexibility Score: inf
ROOT
ATOM      1  C   UNL     1       5.247  -1.163  -6.543  1.00  0.00     0.023 C 
ENDROOT
BRANCH   1   2
ATOM      2  C   UNL     1       4.090  -0.163  -6.603  1.00  0.00     0.116 C 
BRANCH   2   3
ATOM      3  N   UNL     1       2.873  -0.811  -7.043  1.00  0.00    -0.352 N 
ATOM      4  C   UNL     1       1.720  -1.179  -6.403  1.00  0.00     0.251 C 
ATOM      5  O   UNL     1       0.825  -1.653  -7.106  1.00  0.00    -0.269 OA
ATOM      6  H   UNL     1       2.875  -1.034  -8.002  1.00  0.00     0.163 HD
BRANCH   4   7
ATOM      7  C   UNL     1       1.469  -1.031  -4.937  1.00  0.00     0.042 A 
ATOM      8  C   UNL     1       0.728  -0.963  -2.231  1.00  0.00     0.142 A 
ATOM      9  C   UNL     1      -0.259  -1.013  -3.206  1.00  0.00     0.049 A 
ATOM     10  C   UNL     1       2.087  -0.918  -2.586  1.00  0.00     0.084 A 
ATOM     11  C   UNL     1       0.113  -1.020  -4.550  1.00  0.00     0.018 A 
ATOM     12  C   UNL     1       2.454  -1.004  -3.937  1.00  0.00     0.044 A 
BRANCH   8  13
ATOM     13  O   UNL     1       0.337  -1.025  -0.916  1.00  0.00    -0.495 OA
ATOM     14  C   UNL     1       0.268   0.276  -0.328  1.00  0.00     0.278 C 
ENDBRANCH   8  13
BRANCH  10  15
ATOM     15  N   UNL     1       3.006  -0.822  -1.528  1.00  0.00    -0.319 N 
ATOM     16  C   UNL     1       4.255  -0.274  -1.414  1.00  0.00     0.262 C 
ATOM     17  H   UNL     1       2.684  -1.234  -0.695  1.00  0.00     0.170 HD
ATOM     18  O   UNL     1       4.903  -0.463  -0.383  1.00  0.00    -0.269 OA
BRANCH  16  19
ATOM     19  C   UNL     1       4.857   0.591  -2.448  1.00  0.00     0.117 A 
ATOM     20  C   UNL     1       6.195   0.319  -2.772  1.00  0.00     0.021 A 
ATOM     21  C   UNL     1       4.246   1.705  -3.035  1.00  0.00     0.282 A 
ATOM     22  C   UNL     1       6.880   1.115  -3.692  1.00  0.00     0.001 A 
ATOM     23  C   UNL     1       4.915   2.482  -3.997  1.00  0.00     0.086 A 
ATOM     24  C   UNL     1       6.235   2.177  -4.325  1.00  0.00     0.007 A 
BRANCH  21  25
ATOM     25  N   UNL     1       2.930   2.153  -2.627  1.00  0.00     0.063 N 
ATOM     26  O   UNL     1       2.114   2.392  -3.527  1.00  0.00    -0.258 OA
ATOM     27  O   UNL     1       2.723   2.303  -1.416  1.00  0.00    -0.258 OA
ENDBRANCH  21  25
ENDBRANCH  16  19
ENDBRANCH  10  15
ENDBRANCH   4   7
ENDBRANCH   2   3
ENDBRANCH   1   2
BRANCH   1  28
ATOM     28  C   UNL     1       6.126  -1.180  -7.801  1.00  0.00     0.023 C 
BRANCH  28  29
ATOM     29  C   UNL     1       6.937   0.093  -8.049  1.00  0.00     0.116 C 
BRANCH  29  30
ATOM     30  N   UNL     1       7.844   0.420  -6.960  1.00  0.00    -0.352 N 
ATOM     31  C   UNL     1       8.987   1.185  -6.981  1.00  0.00     0.251 C 
ATOM     32  H   UNL     1       7.607   0.040  -6.083  1.00  0.00     0.163 HD
ATOM     33  O   UNL     1       9.634   1.351  -5.952  1.00  0.00    -0.269 OA
BRANCH  31  34
ATOM     34  C   UNL     1       9.464   1.737  -8.265  1.00  0.00     0.039 A 
ATOM     35  C   UNL     1      10.775   1.453  -8.658  1.00  0.00     0.014 A 
ATOM     36  C   UNL     1       8.606   2.440  -9.113  1.00  0.00     0.014 A 
ATOM     37  C   UNL     1      11.188   1.766  -9.953  1.00  0.00     0.010 A 
ATOM     38  C   UNL     1       9.000   2.700 -10.422  1.00  0.00     0.010 A 
ATOM     39  C   UNL     1      10.280   2.332 -10.862  1.00  0.00    -0.014 A 
BRANCH  39  40
ATOM     40  C   UNL     1      10.620   2.457 -12.301  1.00  0.00     0.031 A 
ATOM     41  C   UNL     1      10.736   3.808 -12.941  1.00  0.00     0.074 A 
ATOM     42  C   UNL     1      10.725   1.337 -13.044  1.00  0.00     0.049 A 
ATOM     43  N   UNL     1      10.936   4.108 -14.198  1.00  0.00    -0.248 NA
ATOM     44  C   UNL     1      10.581   4.974 -12.059  1.00  0.00     0.031 C 
ATOM     45  C   UNL     1      10.567  -0.031 -12.539  1.00  0.00     0.029 A 
ATOM     46  N   UNL     1      10.973   1.166 -14.382  1.00  0.00    -0.354 N 
ATOM     47  C   UNL     1      10.916   5.495 -14.263  1.00  0.00     0.074 A 
ATOM     48  C   UNL     1      10.646   5.976 -12.925  1.00  0.00     0.031 C 
ATOM     49  C   UNL     1      10.739  -0.897 -13.550  1.00  0.00     0.029 A 
ATOM     50  C   UNL     1      10.986  -0.150 -14.778  1.00  0.00     0.049 A 
ATOM     51  H   UNL     1      11.128   1.917 -15.000  1.00  0.00     0.167 HD
ATOM     52  C   UNL     1      11.123   6.292 -15.338  1.00  0.00     0.037 A 
ATOM     53  C   UNL     1      11.172  -0.695 -15.996  1.00  0.00     0.037 A 
ATOM     54  C   UNL     1      11.411   5.803 -16.661  1.00  0.00     0.049 A 
ATOM     55  C   UNL     1      11.428   0.210 -17.168  1.00  0.00     0.074 A 
ATOM     56  C   UNL     1      11.686   6.529 -17.808  1.00  0.00     0.029 A 
ATOM     57  N   UNL     1      11.465   4.463 -17.014  1.00  0.00    -0.354 N 
ATOM     58  N   UNL     1      11.467   1.521 -17.200  1.00  0.00    -0.248 NA
ATOM     59  C   UNL     1      11.672  -0.433 -18.466  1.00  0.00     0.031 C 
ATOM     60  C   UNL     1      11.880   5.626 -18.860  1.00  0.00     0.029 A 
ATOM     61  C   UNL     1      11.759   4.338 -18.362  1.00  0.00     0.049 A 
ATOM     62  H   UNL     1      11.315   3.710 -16.398  1.00  0.00     0.167 HD
ATOM     63  C   UNL     1      11.760   1.860 -18.515  1.00  0.00     0.074 A 
ATOM     64  C   UNL     1      11.898   0.616 -19.246  1.00  0.00     0.031 C 
ATOM     65  C   UNL     1      11.901   3.089 -19.067  1.00  0.00     0.037 A 
BRANCH  52  66
ATOM     66  C   UNL     1      11.046   7.777 -15.120  1.00  0.00     0.058 A 
ATOM     67  C   UNL     1      12.052   8.467 -14.425  1.00  0.00     0.135 A 
ATOM     68  C   UNL     1       9.965   8.520 -15.619  1.00  0.00     0.135 A 
ATOM     69  F   UNL     1      13.099   7.800 -13.914  1.00  0.00    -0.206 F 
ATOM     70  C   UNL     1      11.971   9.836 -14.199  1.00  0.00     0.059 A 
ATOM     71  C   UNL     1       9.876   9.896 -15.426  1.00  0.00     0.059 A 
ATOM     72  F   UNL     1       8.977   7.910 -16.291  1.00  0.00    -0.206 F 
ATOM     73  C   UNL     1      10.875  10.542 -14.698  1.00  0.00     0.060 A 
BRANCH  73  74
ATOM     74  S   UNL     1      10.771  12.316 -14.381  1.00  0.00     0.124 S 
ATOM     75  O   UNL     1      10.345  12.335 -12.985  1.00  0.00    -0.237 OA
ATOM     76  O   UNL     1      12.138  12.761 -14.631  1.00  0.00    -0.237 OA
ATOM     77  O   UNL     1       9.779  12.775 -15.347  1.00  0.00    -0.744 OA
ENDBRANCH  73  74
ENDBRANCH  52  66
BRANCH  53  78
ATOM     78  C   UNL     1      11.152  -2.172 -16.158  1.00  0.00     0.058 A 
ATOM     79  C   UNL     1      12.339  -2.886 -16.376  1.00  0.00     0.135 A 
ATOM     80  C   UNL     1       9.956  -2.900 -16.072  1.00  0.00     0.135 A 
ATOM     81  F   UNL     1      13.507  -2.232 -16.469  1.00  0.00    -0.206 F 
ATOM     82  C   UNL     1      12.342  -4.270 -16.515  1.00  0.00     0.059 A 
ATOM     83  C   UNL     1       9.935  -4.287 -16.187  1.00  0.00     0.059 A 
ATOM     84  F   UNL     1       8.796  -2.264 -15.844  1.00  0.00    -0.206 F 
ATOM     85  C   UNL     1      11.134  -4.962 -16.417  1.00  0.00     0.060 A 
BRANCH  85  86
ATOM     86  S   UNL     1      11.153  -6.764 -16.539  1.00  0.00     0.124 S 
ATOM     87  O   UNL     1      11.310  -6.959 -17.976  1.00  0.00    -0.237 OA
ATOM     88  O   UNL     1      12.307  -7.117 -15.716  1.00  0.00    -0.237 OA
ATOM     89  O   UNL     1       9.859  -7.149 -15.985  1.00  0.00    -0.744 OA
ENDBRANCH  85  86
ENDBRANCH  53  78
BRANCH  65  90
ATOM     90  C   UNL     1      12.248   3.151 -20.526  1.00  0.00     0.058 A 
ATOM     91  C   UNL     1      11.286   2.915 -21.519  1.00  0.00     0.135 A 
ATOM     92  C   UNL     1      13.543   3.509 -20.933  1.00  0.00     0.135 A 
ATOM     93  F   UNL     1      10.037   2.562 -21.178  1.00  0.00    -0.206 F 
ATOM     94  C   UNL     1      11.598   3.021 -22.870  1.00  0.00     0.059 A 
ATOM     95  C   UNL     1      13.873   3.640 -22.278  1.00  0.00     0.059 A 
ATOM     96  F   UNL     1      14.497   3.751 -20.020  1.00  0.00    -0.206 F 
ATOM     97  C   UNL     1      12.895   3.386 -23.239  1.00  0.00     0.060 A 
BRANCH  97  98
ATOM     98  S   UNL     1      13.278   3.568 -24.994  1.00  0.00     0.124 S 
ATOM     99  O   UNL     1      13.418   2.177 -25.410  1.00  0.00    -0.237 OA
ATOM    100  O   UNL     1      12.101   4.267 -25.503  1.00  0.00    -0.237 OA
ATOM    101  O   UNL     1      14.510   4.352 -24.991  1.00  0.00    -0.744 OA
ENDBRANCH  97  98
ENDBRANCH  65  90
ENDBRANCH  39  40
ENDBRANCH  31  34
ENDBRANCH  29  30
ENDBRANCH  28  29
ENDBRANCH   1  28
TORSDOF 18
