REMARK SMILES CN(C)C(=O)c1cc(N(CC(=O)NCCCCNC(=O)c2ccc(-c3c4nc(c(-c5c(F)cc(S(=O)(=O)[O-])cc5F)c5ccc([nH]5)c(-c5c(F)cc(S(=O)(=O)[O-])cc5F)c5nc(c(-c6c(F)cc(S(=O)(=O)[O-])cc6F)c6ccc3[nH]6)C=C5)C=C4)cc2)CC(F)(F)F)ccn1
REMARK SMILES IDX 15 1 14 2 13 3 11 4 12 5 10 7 9 8 8 9 6 10 7 11 94 12 93 13
REMARK SMILES IDX 92 14 4 15 1 16 2 17 3 18 5 19 87 20 88 21 89 22 90 23 91 24
REMARK SMILES IDX 16 25 17 26 18 27 19 28 20 30 21 31 22 32 86 33 23 34 85 35
REMARK SMILES IDX 24 36 25 37 26 38 79 39 27 40 84 41 78 42 80 43 28 44 83 45
REMARK SMILES IDX 77 46 76 47 29 49 63 50 42 51 62 52 43 53 46 54 61 55 81 56
REMARK SMILES IDX 44 57 45 58 60 60 82 61 47 62 30 63 31 64 40 65 32 66 33 67
REMARK SMILES IDX 39 68 41 69 34 70 35 71 36 72 37 73 38 74 64 75 65 76 74 77
REMARK SMILES IDX 66 78 67 79 73 80 75 81 68 82 69 83 70 84 71 85 72 86 48 87
REMARK SMILES IDX 49 88 58 89 50 90 51 91 57 92 59 93 52 94 53 95 54 96 55 97
REMARK SMILES IDX 56 98
REMARK H PARENT 13 6 18 29 80 48 46 59
REMARK Flexibility Score: inf
ROOT
ATOM      1  C   UNL     1      -1.195   2.311   5.869  1.00  0.00     0.023 C 
ENDROOT
BRANCH   1   2
ATOM      2  C   UNL     1      -1.573   1.608   7.171  1.00  0.00     0.116 C 
BRANCH   2   3
ATOM      3  N   UNL     1      -3.006   1.583   7.380  1.00  0.00    -0.355 N 
ATOM      4  C   UNL     1      -3.880   0.552   7.180  1.00  0.00     0.239 C 
ATOM      5  O   UNL     1      -5.086   0.748   7.346  1.00  0.00    -0.273 OA
ATOM      6  H   UNL     1      -3.404   2.421   7.710  1.00  0.00     0.163 HD
BRANCH   4   7
ATOM      7  C   UNL     1      -3.358  -0.833   6.778  1.00  0.00     0.216 C 
BRANCH   7   8
ATOM      8  N   UNL     1      -2.880  -0.896   5.372  1.00  0.00    -0.353 N 
BRANCH   8   9
ATOM      9  C   UNL     1      -1.578  -1.251   5.031  1.00  0.00     0.041 A 
ATOM     10  C   UNL     1       0.251  -1.409   3.439  1.00  0.00     0.130 A 
ATOM     11  C   UNL     1      -1.101  -1.187   3.715  1.00  0.00     0.060 A 
ATOM     12  N   UNL     1       1.159  -1.761   4.377  1.00  0.00    -0.251 NA
ATOM     13  C   UNL     1       0.691  -1.902   5.623  1.00  0.00     0.114 A 
ATOM     14  C   UNL     1      -0.633  -1.675   5.979  1.00  0.00     0.046 A 
BRANCH  10  15
ATOM     15  C   UNL     1       0.771  -1.332   2.039  1.00  0.00     0.272 C 
ATOM     16  C   UNL     1       0.995  -0.223  -0.114  1.00  0.00     0.146 C 
ATOM     17  N   UNL     1       0.511  -0.201   1.254  1.00  0.00    -0.343 N 
ATOM     18  C   UNL     1      -0.113   1.033   1.710  1.00  0.00     0.146 C 
ATOM     19  O   UNL     1       1.410  -2.292   1.604  1.00  0.00    -0.267 OA
ENDBRANCH  10  15
ENDBRANCH   8   9
BRANCH   8  20
ATOM     20  C   UNL     1      -3.935  -0.627   4.339  1.00  0.00     0.232 C 
BRANCH  20  21
ATOM     21  C   UNL     1      -3.977   0.777   3.705  1.00  0.00     0.405 C 
ATOM     22  F   UNL     1      -2.819   1.096   3.084  1.00  0.00    -0.169 F 
ATOM     23  F   UNL     1      -4.948   0.827   2.760  1.00  0.00    -0.169 F 
ATOM     24  F   UNL     1      -4.241   1.748   4.602  1.00  0.00    -0.169 F 
ENDBRANCH  20  21
ENDBRANCH   8  20
ENDBRANCH   7   8
ENDBRANCH   4   7
ENDBRANCH   2   3
ENDBRANCH   1   2
BRANCH   1  25
ATOM     25  C   UNL     1      -1.427   3.824   5.888  1.00  0.00     0.023 C 
BRANCH  25  26
ATOM     26  C   UNL     1      -0.625   4.571   6.947  1.00  0.00     0.116 C 
BRANCH  26  27
ATOM     27  N   UNL     1       0.810   4.386   6.796  1.00  0.00    -0.352 N 
ATOM     28  C   UNL     1       1.814   5.318   6.883  1.00  0.00     0.251 C 
ATOM     29  H   UNL     1       1.102   3.465   6.604  1.00  0.00     0.163 HD
ATOM     30  O   UNL     1       2.960   5.014   6.562  1.00  0.00    -0.269 OA
BRANCH  28  31
ATOM     31  C   UNL     1       1.503   6.690   7.334  1.00  0.00     0.039 A 
ATOM     32  C   UNL     1       2.047   7.767   6.633  1.00  0.00     0.014 A 
ATOM     33  C   UNL     1       0.663   6.913   8.429  1.00  0.00     0.014 A 
ATOM     34  C   UNL     1       1.696   9.069   6.993  1.00  0.00     0.010 A 
ATOM     35  C   UNL     1       0.248   8.206   8.731  1.00  0.00     0.010 A 
ATOM     36  C   UNL     1       0.763   9.298   8.019  1.00  0.00    -0.014 A 
BRANCH  36  37
ATOM     37  C   UNL     1       0.307  10.676   8.334  1.00  0.00     0.031 A 
ATOM     38  C   UNL     1       0.575  11.280   9.685  1.00  0.00     0.074 A 
ATOM     39  C   UNL     1      -0.388  11.366   7.407  1.00  0.00     0.049 A 
ATOM     40  N   UNL     1       0.259  12.468  10.134  1.00  0.00    -0.248 NA
ATOM     41  C   UNL     1       1.265  10.433  10.672  1.00  0.00     0.031 C 
ATOM     42  C   UNL     1      -0.767  10.860   6.086  1.00  0.00     0.029 A 
ATOM     43  N   UNL     1      -0.897  12.640   7.431  1.00  0.00    -0.354 N 
ATOM     44  C   UNL     1       0.706  12.509  11.449  1.00  0.00     0.074 A 
ATOM     45  C   UNL     1       1.258  11.206  11.748  1.00  0.00     0.031 C 
ATOM     46  C   UNL     1      -1.412  11.825   5.412  1.00  0.00     0.029 A 
ATOM     47  C   UNL     1      -1.528  13.004   6.264  1.00  0.00     0.049 A 
ATOM     48  H   UNL     1      -0.818  13.237   8.209  1.00  0.00     0.167 HD
ATOM     49  C   UNL     1       0.684  13.547  12.319  1.00  0.00     0.037 A 
ATOM     50  C   UNL     1      -2.132  14.157   5.918  1.00  0.00     0.037 A 
ATOM     51  C   UNL     1       0.144  14.846  12.006  1.00  0.00     0.049 A 
ATOM     52  C   UNL     1      -2.142  15.296   6.900  1.00  0.00     0.074 A 
ATOM     53  C   UNL     1       0.126  15.983  12.794  1.00  0.00     0.029 A 
ATOM     54  N   UNL     1      -0.479  15.180  10.811  1.00  0.00    -0.354 N 
ATOM     55  N   UNL     1      -1.641  15.344   8.112  1.00  0.00    -0.248 NA
ATOM     56  C   UNL     1      -2.788  16.541   6.466  1.00  0.00     0.031 C 
ATOM     57  C   UNL     1      -0.557  16.987  12.099  1.00  0.00     0.029 A 
ATOM     58  C   UNL     1      -0.910  16.496  10.853  1.00  0.00     0.049 A 
ATOM     59  H   UNL     1      -0.598  14.570  10.047  1.00  0.00     0.167 HD
ATOM     60  C   UNL     1      -1.891  16.631   8.576  1.00  0.00     0.074 A 
ATOM     61  C   UNL     1      -2.569  17.333   7.506  1.00  0.00     0.031 C 
ATOM     62  C   UNL     1      -1.589  17.181   9.779  1.00  0.00     0.037 A 
BRANCH  49  63
ATOM     63  C   UNL     1       1.262  13.323  13.691  1.00  0.00     0.058 A 
ATOM     64  C   UNL     1       2.640  13.132  13.891  1.00  0.00     0.135 A 
ATOM     65  C   UNL     1       0.435  13.337  14.827  1.00  0.00     0.135 A 
ATOM     66  F   UNL     1       3.477  13.094  12.842  1.00  0.00    -0.206 F 
ATOM     67  C   UNL     1       3.172  12.932  15.161  1.00  0.00     0.059 A 
ATOM     68  C   UNL     1       0.950  13.171  16.110  1.00  0.00     0.059 A 
ATOM     69  F   UNL     1      -0.889  13.515  14.697  1.00  0.00    -0.206 F 
ATOM     70  C   UNL     1       2.319  12.955  16.265  1.00  0.00     0.060 A 
BRANCH  70  71
ATOM     71  S   UNL     1       3.027  12.700  17.905  1.00  0.00     0.124 S 
ATOM     72  O   UNL     1       3.364  11.280  17.860  1.00  0.00    -0.237 OA
ATOM     73  O   UNL     1       4.160  13.620  17.901  1.00  0.00    -0.237 OA
ATOM     74  O   UNL     1       1.937  13.057  18.807  1.00  0.00    -0.744 OA
ENDBRANCH  70  71
ENDBRANCH  49  63
BRANCH  50  75
ATOM     75  C   UNL     1      -2.749  14.297   4.572  1.00  0.00     0.058 A 
ATOM     76  C   UNL     1      -2.193  15.148   3.604  1.00  0.00     0.135 A 
ATOM     77  C   UNL     1      -3.897  13.570   4.219  1.00  0.00     0.135 A 
ATOM     78  F   UNL     1      -1.099  15.868   3.894  1.00  0.00    -0.206 F 
ATOM     79  C   UNL     1      -2.761  15.287   2.342  1.00  0.00     0.059 A 
ATOM     80  C   UNL     1      -4.467  13.670   2.953  1.00  0.00     0.059 A 
ATOM     81  F   UNL     1      -4.458  12.729   5.101  1.00  0.00    -0.206 F 
ATOM     82  C   UNL     1      -3.897  14.539   2.024  1.00  0.00     0.060 A 
BRANCH  82  83
ATOM     83  S   UNL     1      -4.596  14.689   0.366  1.00  0.00     0.124 S 
ATOM     84  O   UNL     1      -5.188  16.021   0.416  1.00  0.00    -0.237 OA
ATOM     85  O   UNL     1      -3.414  14.545  -0.478  1.00  0.00    -0.237 OA
ATOM     86  O   UNL     1      -5.543  13.579   0.300  1.00  0.00    -0.744 OA
ENDBRANCH  82  83
ENDBRANCH  50  75
BRANCH  62  87
ATOM     87  C   UNL     1      -1.965  18.622   9.991  1.00  0.00     0.058 A 
ATOM     88  C   UNL     1      -3.303  19.026  10.128  1.00  0.00     0.135 A 
ATOM     89  C   UNL     1      -0.970  19.609  10.091  1.00  0.00     0.135 A 
ATOM     90  F   UNL     1      -4.293  18.124  10.036  1.00  0.00    -0.206 F 
ATOM     91  C   UNL     1      -3.643  20.361  10.320  1.00  0.00     0.059 A 
ATOM     92  C   UNL     1      -1.286  20.945  10.317  1.00  0.00     0.059 A 
ATOM     93  F   UNL     1       0.326  19.278   9.981  1.00  0.00    -0.206 F 
ATOM     94  C   UNL     1      -2.627  21.314  10.413  1.00  0.00     0.060 A 
BRANCH  94  95
ATOM     95  S   UNL     1      -3.083  23.040  10.678  1.00  0.00     0.124 S 
ATOM     96  O   UNL     1      -3.620  23.405   9.372  1.00  0.00    -0.237 OA
ATOM     97  O   UNL     1      -4.057  22.943  11.761  1.00  0.00    -0.237 OA
ATOM     98  O   UNL     1      -1.818  23.674  11.036  1.00  0.00    -0.744 OA
ENDBRANCH  94  95
ENDBRANCH  62  87
ENDBRANCH  36  37
ENDBRANCH  28  31
ENDBRANCH  26  27
ENDBRANCH  25  26
ENDBRANCH   1  25
TORSDOF 19
