REMARK SMILES Cc1cc(F)cc(N[C@@](C)(C(=O)NCCCCNC(=O)c2ccc(-c3c4nc(c(-c5c(F)cc(S(=O)(=O)[O-])cc5F)c5ccc([nH]5)c(-c5c(F)cc(S(=O)(=O)[O-])cc5F)c5nc(c(-c6c(F)cc(S(=O)(=O)[O-])cc6F)c6ccc3[nH]6)C=C5)C=C4)cc2)c2ccc(O)cc2)c1
REMARK SMILES IDX 16 1 15 2 14 3 13 4 11 5 12 6 9 8 10 9 8 10 7 12 1 13 2 14
REMARK SMILES IDX 3 15 94 16 4 17 5 18 6 19 87 20 88 21 93 22 89 23 92 24
REMARK SMILES IDX 90 25 91 26 17 28 18 29 19 30 20 32 21 33 22 34 86 35 23 36
REMARK SMILES IDX 85 37 24 38 25 39 26 40 79 41 27 42 84 43 78 44 80 45 28 46
REMARK SMILES IDX 83 47 77 48 76 49 29 51 63 52 42 53 62 54 43 55 46 56 61 57
REMARK SMILES IDX 81 58 44 59 45 60 60 62 82 63 47 64 30 65 31 66 40 67 32 68
REMARK SMILES IDX 33 69 39 70 41 71 34 72 35 73 36 74 37 75 38 76 64 77 65 78
REMARK SMILES IDX 74 79 66 80 67 81 73 82 75 83 68 84 69 85 70 86 71 87 72 88
REMARK SMILES IDX 48 89 49 90 58 91 50 92 51 93 57 94 59 95 52 96 53 97 54 98
REMARK SMILES IDX 55 99 56 100
REMARK H PARENT 13 7 8 11 91 27 18 31 80 50 46 61
REMARK Flexibility Score: inf
ROOT
ATOM      1  C   UNL     1       3.072  -6.469   2.333  1.00  0.00     0.023 C 
ENDROOT
BRANCH   1   2
ATOM      2  C   UNL     1       2.755  -5.532   1.166  1.00  0.00     0.023 C 
BRANCH   2   3
ATOM      3  C   UNL     1       1.448  -5.821   0.431  1.00  0.00     0.116 C 
BRANCH   3   4
ATOM      4  N   UNL     1       0.287  -5.581   1.267  1.00  0.00    -0.354 N 
ATOM      5  C   UNL     1      -0.780  -4.728   1.166  1.00  0.00     0.250 C 
ATOM      6  O   UNL     1      -1.482  -4.686   2.184  1.00  0.00    -0.272 OA
ATOM      7  H   UNL     1       0.261  -6.148   2.072  1.00  0.00     0.163 HD
BRANCH   5   8
ATOM      8  C   UNL     1      -1.075  -3.862  -0.135  1.00  0.00     0.139 C 
ATOM      9  C   UNL     1      -1.110  -4.771  -1.389  1.00  0.00     0.051 C 
BRANCH   8  10
ATOM     10  N   UNL     1       0.051  -2.897  -0.292  1.00  0.00    -0.368 N 
ATOM     11  H   UNL     1       0.771  -3.205  -0.889  1.00  0.00     0.161 HD
BRANCH  10  12
ATOM     12  C   UNL     1       0.261  -1.642   0.256  1.00  0.00     0.038 A 
ATOM     13  C   UNL     1       2.872   1.121  -0.267  1.00  0.00     0.044 C 
ATOM     14  C   UNL     1       1.631   0.411   0.182  1.00  0.00    -0.046 A 
ATOM     15  C   UNL     1       0.631   1.102   0.862  1.00  0.00     0.042 A 
ATOM     16  C   UNL     1       1.420  -0.942  -0.137  1.00  0.00     0.029 A 
ATOM     17  C   UNL     1      -0.488   0.413   1.304  1.00  0.00     0.125 A 
ATOM     18  F   UNL     1      -1.450   1.083   1.956  1.00  0.00    -0.207 F 
ATOM     19  C   UNL     1      -0.651  -0.949   1.052  1.00  0.00     0.065 A 
ENDBRANCH  10  12
ENDBRANCH   8  10
BRANCH   8  20
ATOM     20  C   UNL     1      -2.478  -3.185  -0.168  1.00  0.00    -0.013 A 
ATOM     21  C   UNL     1      -2.713  -2.046  -0.970  1.00  0.00     0.010 A 
ATOM     22  C   UNL     1      -3.579  -3.700   0.543  1.00  0.00     0.010 A 
ATOM     23  C   UNL     1      -3.930  -1.360  -0.922  1.00  0.00     0.046 A 
ATOM     24  C   UNL     1      -4.803  -3.023   0.585  1.00  0.00     0.046 A 
ATOM     25  C   UNL     1      -4.954  -1.838  -0.120  1.00  0.00     0.115 A 
BRANCH  25  26
ATOM     26  O   UNL     1      -6.104  -1.111  -0.042  1.00  0.00    -0.508 OA
ATOM     27  H   UNL     1      -6.188  -0.313  -0.526  1.00  0.00     0.293 HD
ENDBRANCH  25  26
ENDBRANCH   8  20
ENDBRANCH   5   8
ENDBRANCH   3   4
ENDBRANCH   2   3
ENDBRANCH   1   2
BRANCH   1  28
ATOM     28  C   UNL     1       3.095  -7.959   2.002  1.00  0.00     0.116 C 
BRANCH  28  29
ATOM     29  N   UNL     1       4.040  -8.299   0.949  1.00  0.00    -0.352 N 
ATOM     30  C   UNL     1       4.983  -9.300   0.909  1.00  0.00     0.251 C 
ATOM     31  H   UNL     1       3.998  -7.729   0.147  1.00  0.00     0.163 HD
ATOM     32  O   UNL     1       5.771  -9.354  -0.025  1.00  0.00    -0.269 OA
BRANCH  30  33
ATOM     33  C   UNL     1       5.063 -10.287   2.010  1.00  0.00     0.039 A 
ATOM     34  C   UNL     1       6.315 -10.591   2.552  1.00  0.00     0.014 A 
ATOM     35  C   UNL     1       3.914 -10.902   2.514  1.00  0.00     0.014 A 
ATOM     36  C   UNL     1       6.406 -11.453   3.649  1.00  0.00     0.010 A 
ATOM     37  C   UNL     1       3.999 -11.706   3.649  1.00  0.00     0.010 A 
ATOM     38  C   UNL     1       5.245 -11.986   4.233  1.00  0.00    -0.014 A 
BRANCH  38  39
ATOM     39  C   UNL     1       5.309 -12.822   5.461  1.00  0.00     0.031 A 
ATOM     40  C   UNL     1       4.849 -14.255   5.428  1.00  0.00     0.074 A 
ATOM     41  C   UNL     1       5.699 -12.264   6.627  1.00  0.00     0.049 A 
ATOM     42  N   UNL     1       4.738 -15.108   6.413  1.00  0.00    -0.248 NA
ATOM     43  C   UNL     1       4.431 -14.792   4.122  1.00  0.00     0.031 C 
ATOM     44  C   UNL     1       6.107 -10.868   6.804  1.00  0.00     0.029 A 
ATOM     45  N   UNL     1       5.794 -12.796   7.889  1.00  0.00    -0.354 N 
ATOM     46  C   UNL     1       4.211 -16.267   5.855  1.00  0.00     0.074 A 
ATOM     47  C   UNL     1       3.994 -15.999   4.450  1.00  0.00     0.031 C 
ATOM     48  C   UNL     1       6.412 -10.657   8.095  1.00  0.00     0.029 A 
ATOM     49  C   UNL     1       6.190 -11.889   8.845  1.00  0.00     0.049 A 
ATOM     50  H   UNL     1       5.598 -13.740   8.091  1.00  0.00     0.167 HD
ATOM     51  C   UNL     1       3.947 -17.451   6.458  1.00  0.00     0.037 A 
ATOM     52  C   UNL     1       6.343 -12.028  10.177  1.00  0.00     0.037 A 
ATOM     53  C   UNL     1       4.217 -17.730   7.844  1.00  0.00     0.049 A 
ATOM     54  C   UNL     1       6.083 -13.369  10.810  1.00  0.00     0.074 A 
ATOM     55  C   UNL     1       4.082 -18.931   8.519  1.00  0.00     0.029 A 
ATOM     56  N   UNL     1       4.676 -16.803   8.766  1.00  0.00    -0.354 N 
ATOM     57  N   UNL     1       5.674 -14.481  10.247  1.00  0.00    -0.248 NA
ATOM     58  C   UNL     1       6.313 -13.479  12.258  1.00  0.00     0.031 C 
ATOM     59  C   UNL     1       4.417 -18.720   9.859  1.00  0.00     0.029 A 
ATOM     60  C   UNL     1       4.806 -17.399  10.009  1.00  0.00     0.049 A 
ATOM     61  H   UNL     1       4.878 -15.860   8.567  1.00  0.00     0.167 HD
ATOM     62  C   UNL     1       5.628 -15.427  11.264  1.00  0.00     0.074 A 
ATOM     63  C   UNL     1       6.061 -14.763  12.475  1.00  0.00     0.031 C 
ATOM     64  C   UNL     1       5.259 -16.730  11.202  1.00  0.00     0.037 A 
BRANCH  51  65
ATOM     65  C   UNL     1       3.344 -18.551   5.629  1.00  0.00     0.058 A 
ATOM     66  C   UNL     1       4.097 -19.253   4.676  1.00  0.00     0.135 A 
ATOM     67  C   UNL     1       2.021 -18.965   5.856  1.00  0.00     0.135 A 
ATOM     68  F   UNL     1       5.361 -18.888   4.409  1.00  0.00    -0.206 F 
ATOM     69  C   UNL     1       3.557 -20.323   3.970  1.00  0.00     0.059 A 
ATOM     70  C   UNL     1       1.469 -20.048   5.179  1.00  0.00     0.059 A 
ATOM     71  F   UNL     1       1.258 -18.324   6.755  1.00  0.00    -0.206 F 
ATOM     72  C   UNL     1       2.244 -20.718   4.234  1.00  0.00     0.060 A 
BRANCH  72  73
ATOM     73  S   UNL     1       1.575 -22.139   3.343  1.00  0.00     0.124 S 
ATOM     74  O   UNL     1       1.372 -21.578   2.011  1.00  0.00    -0.237 OA
ATOM     75  O   UNL     1       2.652 -23.116   3.461  1.00  0.00    -0.237 OA
ATOM     76  O   UNL     1       0.357 -22.461   4.081  1.00  0.00    -0.744 OA
ENDBRANCH  72  73
ENDBRANCH  51  65
BRANCH  52  77
ATOM     77  C   UNL     1       6.763 -10.869  11.010  1.00  0.00     0.058 A 
ATOM     78  C   UNL     1       8.029 -10.832  11.614  1.00  0.00     0.135 A 
ATOM     79  C   UNL     1       5.897  -9.789  11.242  1.00  0.00     0.135 A 
ATOM     80  F   UNL     1       8.891 -11.843  11.425  1.00  0.00    -0.206 F 
ATOM     81  C   UNL     1       8.410  -9.784  12.446  1.00  0.00     0.059 A 
ATOM     82  C   UNL     1       6.266  -8.716  12.048  1.00  0.00     0.059 A 
ATOM     83  F   UNL     1       4.683  -9.766  10.672  1.00  0.00    -0.206 F 
ATOM     84  C   UNL     1       7.518  -8.733  12.662  1.00  0.00     0.060 A 
BRANCH  84  85
ATOM     85  S   UNL     1       8.023  -7.370  13.734  1.00  0.00     0.124 S 
ATOM     86  O   UNL     1       7.885  -7.972  15.055  1.00  0.00    -0.237 OA
ATOM     87  O   UNL     1       9.389  -7.115  13.287  1.00  0.00    -0.237 OA
ATOM     88  O   UNL     1       7.061  -6.320  13.414  1.00  0.00    -0.744 OA
ENDBRANCH  84  85
ENDBRANCH  52  77
BRANCH  64  89
ATOM     89  C   UNL     1       5.349 -17.540  12.465  1.00  0.00     0.058 A 
ATOM     90  C   UNL     1       4.429 -17.378  13.512  1.00  0.00     0.135 A 
ATOM     91  C   UNL     1       6.335 -18.530  12.602  1.00  0.00     0.135 A 
ATOM     92  F   UNL     1       3.471 -16.442  13.432  1.00  0.00    -0.206 F 
ATOM     93  C   UNL     1       4.498 -18.157  14.663  1.00  0.00     0.059 A 
ATOM     94  C   UNL     1       6.406 -19.337  13.733  1.00  0.00     0.059 A 
ATOM     95  F   UNL     1       7.232 -18.732  11.624  1.00  0.00    -0.206 F 
ATOM     96  C   UNL     1       5.489 -19.135  14.764  1.00  0.00     0.060 A 
BRANCH  96  97
ATOM     97  S   UNL     1       5.545 -20.164  16.246  1.00  0.00     0.124 S 
ATOM     98  O   UNL     1       6.117 -19.243  17.221  1.00  0.00    -0.237 OA
ATOM     99  O   UNL     1       4.140 -20.506  16.444  1.00  0.00    -0.237 OA
ATOM    100  O   UNL     1       6.405 -21.277  15.853  1.00  0.00    -0.744 OA
ENDBRANCH  96  97
ENDBRANCH  64  89
ENDBRANCH  38  39
ENDBRANCH  30  33
ENDBRANCH  28  29
ENDBRANCH   1  28
TORSDOF 18
