REMARK SMILES CC[C@@H](C)[C@@H](C(=O)NCCCCNC(=O)c1ccc(-c2c3nc(c(-c4c(F)cc(S(=O)(=O)[O-])cc4F)c4ccc([nH]4)c(-c4c(F)cc(S(=O)(=O)[O-])cc4F)c4nc(c(-c5c(F)cc(S(=O)(=O)[O-])cc5F)c5ccc2[nH]5)C=C4)C=C3)cc1)S(=O)(=O)c1ccc(OC)cc1
REMARK SMILES IDX 10 1 9 2 8 3 6 4 7 5 5 7 3 8 4 9 2 10 1 11 82 12 83 13 84 14
REMARK SMILES IDX 85 15 86 16 92 17 87 18 91 19 88 20 89 21 90 22 11 23 12 24
REMARK SMILES IDX 13 25 14 26 15 28 16 29 17 30 81 31 18 32 80 33 19 34 20 35
REMARK SMILES IDX 21 36 74 37 22 38 79 39 73 40 75 41 23 42 78 43 72 44 71 45
REMARK SMILES IDX 24 47 58 48 37 49 57 50 38 51 41 52 56 53 76 54 39 55 40 56
REMARK SMILES IDX 55 58 77 59 42 60 25 61 26 62 35 63 27 64 28 65 34 66 36 67
REMARK SMILES IDX 29 68 30 69 31 70 32 71 33 72 59 73 60 74 69 75 61 76 62 77
REMARK SMILES IDX 68 78 70 79 63 80 64 81 65 82 66 83 67 84 43 85 44 86 53 87
REMARK SMILES IDX 45 88 46 89 52 90 54 91 47 92 48 93 49 94 50 95 51 96
REMARK H PARENT 8 6 13 27 75 46 41 57
REMARK Flexibility Score: inf
ROOT
ATOM      1  C   UNL     1       0.467  -1.000  -2.873  1.00  0.00     0.023 C 
ENDROOT
BRANCH   1   2
ATOM      2  C   UNL     1      -0.130  -2.369  -2.505  1.00  0.00     0.116 C 
BRANCH   2   3
ATOM      3  N   UNL     1       0.947  -3.293  -2.202  1.00  0.00    -0.355 N 
ATOM      4  C   UNL     1       1.559  -3.557  -1.010  1.00  0.00     0.239 C 
ATOM      5  O   UNL     1       2.752  -3.854  -1.084  1.00  0.00    -0.274 OA
ATOM      6  H   UNL     1       1.287  -3.806  -2.970  1.00  0.00     0.163 HD
BRANCH   4   7
ATOM      7  C   UNL     1       0.813  -3.501   0.328  1.00  0.00     0.205 C 
BRANCH   7   8
ATOM      8  C   UNL     1       1.094  -2.207   1.166  1.00  0.00     0.014 C 
ATOM      9  C   UNL     1       0.605  -2.275   2.620  1.00  0.00     0.009 C 
BRANCH   8  10
ATOM     10  C   UNL     1       0.444  -0.959   0.541  1.00  0.00     0.002 C 
ATOM     11  C   UNL     1       0.986   0.373   1.045  1.00  0.00     0.004 C 
ENDBRANCH   8  10
ENDBRANCH   7   8
BRANCH   7  12
ATOM     12  S   UNL     1       1.222  -5.076   1.151  1.00  0.00     0.190 S 
ATOM     13  O   UNL     1       0.662  -5.095   2.492  1.00  0.00    -0.223 OA
ATOM     14  O   UNL     1       0.825  -6.143   0.244  1.00  0.00    -0.223 OA
BRANCH  12  15
ATOM     15  C   UNL     1       2.996  -5.202   1.364  1.00  0.00     0.068 A 
ATOM     16  C   UNL     1       3.658  -6.346   0.910  1.00  0.00     0.024 A 
ATOM     17  C   UNL     1       3.732  -4.159   1.929  1.00  0.00     0.024 A 
ATOM     18  C   UNL     1       5.055  -6.405   0.961  1.00  0.00     0.048 A 
ATOM     19  C   UNL     1       5.130  -4.204   1.936  1.00  0.00     0.048 A 
ATOM     20  C   UNL     1       5.797  -5.318   1.430  1.00  0.00     0.118 A 
BRANCH  20  21
ATOM     21  O   UNL     1       7.157  -5.461   1.383  1.00  0.00    -0.497 OA
ATOM     22  C   UNL     1       7.897  -4.246   1.293  1.00  0.00     0.278 C 
ENDBRANCH  20  21
ENDBRANCH  12  15
ENDBRANCH   7  12
ENDBRANCH   4   7
ENDBRANCH   2   3
ENDBRANCH   1   2
BRANCH   1  23
ATOM     23  C   UNL     1       0.879  -0.834  -4.327  1.00  0.00     0.023 C 
BRANCH  23  24
ATOM     24  C   UNL     1      -0.281  -0.769  -5.303  1.00  0.00     0.116 C 
BRANCH  24  25
ATOM     25  N   UNL     1      -1.202   0.330  -5.034  1.00  0.00    -0.352 N 
ATOM     26  C   UNL     1      -1.718   1.256  -5.911  1.00  0.00     0.251 C 
ATOM     27  H   UNL     1      -1.495   0.420  -4.098  1.00  0.00     0.163 HD
ATOM     28  O   UNL     1      -2.407   2.184  -5.500  1.00  0.00    -0.269 OA
BRANCH  26  29
ATOM     29  C   UNL     1      -1.388   1.137  -7.345  1.00  0.00     0.039 A 
ATOM     30  C   UNL     1      -0.893   2.251  -8.025  1.00  0.00     0.014 A 
ATOM     31  C   UNL     1      -1.475  -0.104  -7.979  1.00  0.00     0.014 A 
ATOM     32  C   UNL     1      -0.390   2.094  -9.318  1.00  0.00     0.010 A 
ATOM     33  C   UNL     1      -0.880  -0.277  -9.220  1.00  0.00     0.010 A 
ATOM     34  C   UNL     1      -0.331   0.819  -9.902  1.00  0.00    -0.014 A 
BRANCH  34  35
ATOM     35  C   UNL     1       0.292   0.593 -11.230  1.00  0.00     0.031 A 
ATOM     36  C   UNL     1      -0.536   0.020 -12.348  1.00  0.00     0.074 A 
ATOM     37  C   UNL     1       1.613   0.802 -11.399  1.00  0.00     0.049 A 
ATOM     38  N   UNL     1      -0.160  -0.387 -13.531  1.00  0.00    -0.248 NA
ATOM     39  C   UNL     1      -1.974  -0.162 -12.080  1.00  0.00     0.031 C 
ATOM     40  C   UNL     1       2.537   1.290 -10.370  1.00  0.00     0.029 A 
ATOM     41  N   UNL     1       2.415   0.613 -12.497  1.00  0.00    -0.354 N 
ATOM     42  C   UNL     1      -1.301  -0.904 -14.132  1.00  0.00     0.074 A 
ATOM     43  C   UNL     1      -2.372  -0.808 -13.165  1.00  0.00     0.031 C 
ATOM     44  C   UNL     1       3.771   1.383 -10.893  1.00  0.00     0.029 A 
ATOM     45  C   UNL     1       3.736   0.929 -12.279  1.00  0.00     0.049 A 
ATOM     46  H   UNL     1       2.076   0.282 -13.360  1.00  0.00     0.167 HD
ATOM     47  C   UNL     1      -1.450  -1.389 -15.386  1.00  0.00     0.037 A 
ATOM     48  C   UNL     1       4.799   0.854 -13.104  1.00  0.00     0.037 A 
ATOM     49  C   UNL     1      -0.396  -1.422 -16.363  1.00  0.00     0.049 A 
ATOM     50  C   UNL     1       4.598   0.362 -14.511  1.00  0.00     0.074 A 
ATOM     51  C   UNL     1      -0.462  -1.814 -17.688  1.00  0.00     0.029 A 
ATOM     52  N   UNL     1       0.914  -1.036 -16.122  1.00  0.00    -0.354 N 
ATOM     53  N   UNL     1       3.497  -0.065 -15.083  1.00  0.00    -0.248 NA
ATOM     54  C   UNL     1       5.778   0.345 -15.386  1.00  0.00     0.031 C 
ATOM     55  C   UNL     1       0.816  -1.687 -18.243  1.00  0.00     0.029 A 
ATOM     56  C   UNL     1       1.669  -1.187 -17.271  1.00  0.00     0.049 A 
ATOM     57  H   UNL     1       1.256  -0.704 -15.261  1.00  0.00     0.167 HD
ATOM     58  C   UNL     1       3.847  -0.382 -16.390  1.00  0.00     0.074 A 
ATOM     59  C   UNL     1       5.259  -0.086 -16.528  1.00  0.00     0.031 C 
ATOM     60  C   UNL     1       3.071  -0.874 -17.387  1.00  0.00     0.037 A 
BRANCH  47  61
ATOM     61  C   UNL     1      -2.808  -1.901 -15.773  1.00  0.00     0.058 A 
ATOM     62  C   UNL     1      -3.892  -1.031 -15.971  1.00  0.00     0.135 A 
ATOM     63  C   UNL     1      -3.027  -3.275 -15.961  1.00  0.00     0.135 A 
ATOM     64  F   UNL     1      -3.741   0.290 -15.785  1.00  0.00    -0.206 F 
ATOM     65  C   UNL     1      -5.154  -1.507 -16.308  1.00  0.00     0.059 A 
ATOM     66  C   UNL     1      -4.276  -3.771 -16.325  1.00  0.00     0.059 A 
ATOM     67  F   UNL     1      -2.026  -4.151 -15.782  1.00  0.00    -0.206 F 
ATOM     68  C   UNL     1      -5.337  -2.880 -16.479  1.00  0.00     0.060 A 
BRANCH  68  69
ATOM     69  S   UNL     1      -6.982  -3.483 -16.913  1.00  0.00     0.124 S 
ATOM     70  O   UNL     1      -7.673  -3.389 -15.631  1.00  0.00    -0.237 OA
ATOM     71  O   UNL     1      -7.408  -2.530 -17.933  1.00  0.00    -0.237 OA
ATOM     72  O   UNL     1      -6.729  -4.838 -17.393  1.00  0.00    -0.744 OA
ENDBRANCH  68  69
ENDBRANCH  47  61
BRANCH  48  73
ATOM     73  C   UNL     1       6.140   1.284 -12.630  1.00  0.00     0.058 A 
ATOM     74  C   UNL     1       6.708   2.485 -13.080  1.00  0.00     0.135 A 
ATOM     75  C   UNL     1       6.872   0.518 -11.710  1.00  0.00     0.135 A 
ATOM     76  F   UNL     1       6.048   3.248 -13.964  1.00  0.00    -0.206 F 
ATOM     77  C   UNL     1       7.961   2.906 -12.647  1.00  0.00     0.059 A 
ATOM     78  C   UNL     1       8.119   0.929 -11.246  1.00  0.00     0.059 A 
ATOM     79  F   UNL     1       6.364  -0.629 -11.235  1.00  0.00    -0.206 F 
ATOM     80  C   UNL     1       8.659   2.121 -11.729  1.00  0.00     0.060 A 
BRANCH  80  81
ATOM     81  S   UNL     1      10.262   2.702 -11.131  1.00  0.00     0.124 S 
ATOM     82  O   UNL     1      11.125   2.403 -12.267  1.00  0.00    -0.237 OA
ATOM     83  O   UNL     1      10.003   4.117 -10.879  1.00  0.00    -0.237 OA
ATOM     84  O   UNL     1      10.485   1.893  -9.936  1.00  0.00    -0.744 OA
ENDBRANCH  80  81
ENDBRANCH  48  73
BRANCH  60  85
ATOM     85  C   UNL     1       3.721  -1.097 -18.721  1.00  0.00     0.058 A 
ATOM     86  C   UNL     1       4.560  -2.197 -18.951  1.00  0.00     0.135 A 
ATOM     87  C   UNL     1       3.443  -0.241 -19.799  1.00  0.00     0.135 A 
ATOM     88  F   UNL     1       4.860  -3.040 -17.950  1.00  0.00    -0.206 F 
ATOM     89  C   UNL     1       5.113  -2.436 -20.205  1.00  0.00     0.059 A 
ATOM     90  C   UNL     1       3.968  -0.472 -21.065  1.00  0.00     0.059 A 
ATOM     91  F   UNL     1       2.638   0.820 -19.629  1.00  0.00    -0.206 F 
ATOM     92  C   UNL     1       4.808  -1.569 -21.257  1.00  0.00     0.060 A 
BRANCH  92  93
ATOM     93  S   UNL     1       5.490  -1.916 -22.892  1.00  0.00     0.124 S 
ATOM     94  O   UNL     1       6.870  -1.468 -22.735  1.00  0.00    -0.237 OA
ATOM     95  O   UNL     1       5.301  -3.359 -23.011  1.00  0.00    -0.237 OA
ATOM     96  O   UNL     1       4.663  -1.107 -23.782  1.00  0.00    -0.744 OA
ENDBRANCH  92  93
ENDBRANCH  60  85
ENDBRANCH  34  35
ENDBRANCH  26  29
ENDBRANCH  24  25
ENDBRANCH  23  24
ENDBRANCH   1  23
TORSDOF 19
