REMARK SMILES O=C(NCCCCNC(=O)c1c(-c2ccc(Cl)cc2)noc1CO[C@@H]1CCCCO1)c1ccc(-c2c3nc(c(-c4c(F)cc(S(=O)(=O)[O-])cc4F)c4ccc([nH]4)c(-c4c(F)cc(S(=O)(=O)[O-])cc4F)c4nc(c(-c5c(F)cc(S(=O)(=O)[O-])cc5F)c5ccc2[nH]5)C=C4)C=C3)cc1
REMARK SMILES IDX 5 1 4 2 3 3 1 4 2 5 31 7 32 8 96 9 33 10 95 11 34 12 35 13
REMARK SMILES IDX 36 14 89 15 37 16 94 17 88 18 90 19 38 20 93 21 87 22 86 23
REMARK SMILES IDX 39 25 73 26 52 27 72 28 53 29 56 30 71 31 91 32 54 33 55 34
REMARK SMILES IDX 70 36 92 37 57 38 40 39 41 40 50 41 42 42 43 43 49 44 51 45
REMARK SMILES IDX 44 46 45 47 46 48 47 49 48 50 74 51 75 52 84 53 76 54 77 55
REMARK SMILES IDX 83 56 85 57 78 58 79 59 80 60 81 61 82 62 58 63 59 64 68 65
REMARK SMILES IDX 60 66 61 67 67 68 69 69 62 70 63 71 64 72 65 73 66 74 6 75
REMARK SMILES IDX 7 76 8 77 9 78 10 80 11 81 12 82 22 83 20 84 21 85 13 86
REMARK SMILES IDX 14 87 19 88 15 89 18 90 16 91 17 92 23 93 24 94 25 95 26 96
REMARK SMILES IDX 30 97 27 98 29 99 28 100
REMARK H PARENT 3 6 90 24 56 35 8 79
REMARK Flexibility Score: inf
ROOT
ATOM      1  C   UNL     1       4.305  -3.250   0.106  1.00  0.00     0.023 C 
ENDROOT
BRANCH   1   2
ATOM      2  C   UNL     1       4.338  -1.729  -0.025  1.00  0.00     0.116 C 
BRANCH   2   3
ATOM      3  N   UNL     1       3.048  -1.149  -0.350  1.00  0.00    -0.352 N 
ATOM      4  O   UNL     1       1.322   0.286  -0.213  1.00  0.00    -0.269 OA
ATOM      5  C   UNL     1       2.469   0.006   0.123  1.00  0.00     0.251 C 
ATOM      6  H   UNL     1       2.510  -1.654  -1.002  1.00  0.00     0.163 HD
BRANCH   5   7
ATOM      7  C   UNL     1       3.200   0.888   1.063  1.00  0.00     0.039 A 
ATOM      8  C   UNL     1       4.516   1.291   0.817  1.00  0.00     0.014 A 
ATOM      9  C   UNL     1       2.535   1.337   2.210  1.00  0.00     0.014 A 
ATOM     10  C   UNL     1       5.198   2.052   1.768  1.00  0.00     0.010 A 
ATOM     11  C   UNL     1       3.210   2.123   3.149  1.00  0.00     0.010 A 
ATOM     12  C   UNL     1       4.557   2.455   2.950  1.00  0.00    -0.014 A 
BRANCH  12  13
ATOM     13  C   UNL     1       5.322   3.200   3.978  1.00  0.00     0.031 A 
ATOM     14  C   UNL     1       5.847   2.492   5.194  1.00  0.00     0.074 A 
ATOM     15  C   UNL     1       5.592   4.505   3.795  1.00  0.00     0.049 A 
ATOM     16  N   UNL     1       6.614   2.953   6.149  1.00  0.00    -0.248 NA
ATOM     17  C   UNL     1       5.456   1.084   5.359  1.00  0.00     0.031 C 
ATOM     18  C   UNL     1       5.125   5.314   2.669  1.00  0.00     0.029 A 
ATOM     19  N   UNL     1       6.348   5.370   4.543  1.00  0.00    -0.354 N 
ATOM     20  C   UNL     1       6.782   1.901   7.040  1.00  0.00     0.074 A 
ATOM     21  C   UNL     1       6.041   0.776   6.508  1.00  0.00     0.031 C 
ATOM     22  C   UNL     1       5.643   6.549   2.778  1.00  0.00     0.029 A 
ATOM     23  C   UNL     1       6.476   6.614   3.977  1.00  0.00     0.049 A 
ATOM     24  H   UNL     1       6.760   5.123   5.403  1.00  0.00     0.167 HD
ATOM     25  C   UNL     1       7.487   1.873   8.197  1.00  0.00     0.037 A 
ATOM     26  C   UNL     1       7.206   7.676   4.362  1.00  0.00     0.037 A 
ATOM     27  C   UNL     1       8.246   2.974   8.723  1.00  0.00     0.049 A 
ATOM     28  C   UNL     1       8.055   7.596   5.596  1.00  0.00     0.074 A 
ATOM     29  C   UNL     1       8.978   3.040   9.897  1.00  0.00     0.029 A 
ATOM     30  N   UNL     1       8.383   4.203   8.098  1.00  0.00    -0.354 N 
ATOM     31  N   UNL     1       8.201   6.594   6.428  1.00  0.00    -0.248 NA
ATOM     32  C   UNL     1       8.846   8.787   5.935  1.00  0.00     0.031 C 
ATOM     33  C   UNL     1       9.568   4.310   9.975  1.00  0.00     0.029 A 
ATOM     34  C   UNL     1       9.201   5.030   8.850  1.00  0.00     0.049 A 
ATOM     35  H   UNL     1       7.962   4.451   7.244  1.00  0.00     0.167 HD
ATOM     36  C   UNL     1       9.101   7.032   7.391  1.00  0.00     0.074 A 
ATOM     37  C   UNL     1       9.472   8.387   7.035  1.00  0.00     0.031 C 
ATOM     38  C   UNL     1       9.572   6.369   8.475  1.00  0.00     0.037 A 
BRANCH  25  39
ATOM     39  C   UNL     1       7.450   0.588   8.965  1.00  0.00     0.058 A 
ATOM     40  C   UNL     1       8.359  -0.444   8.693  1.00  0.00     0.135 A 
ATOM     41  C   UNL     1       6.467   0.367   9.941  1.00  0.00     0.135 A 
ATOM     42  F   UNL     1       9.303  -0.283   7.752  1.00  0.00    -0.206 F 
ATOM     43  C   UNL     1       8.278  -1.671   9.344  1.00  0.00     0.059 A 
ATOM     44  C   UNL     1       6.369  -0.850  10.606  1.00  0.00     0.059 A 
ATOM     45  F   UNL     1       5.567   1.322  10.223  1.00  0.00    -0.206 F 
ATOM     46  C   UNL     1       7.266  -1.870  10.284  1.00  0.00     0.060 A 
BRANCH  46  47
ATOM     47  S   UNL     1       7.099  -3.478  11.089  1.00  0.00     0.124 S 
ATOM     48  O   UNL     1       6.139  -4.139  10.210  1.00  0.00    -0.237 OA
ATOM     49  O   UNL     1       8.458  -4.009  11.050  1.00  0.00    -0.237 OA
ATOM     50  O   UNL     1       6.605  -3.128  12.416  1.00  0.00    -0.744 OA
ENDBRANCH  46  47
ENDBRANCH  25  39
BRANCH  26  51
ATOM     51  C   UNL     1       7.205   8.891   3.518  1.00  0.00     0.058 A 
ATOM     52  C   UNL     1       8.144   9.042   2.489  1.00  0.00     0.135 A 
ATOM     53  C   UNL     1       6.229   9.883   3.680  1.00  0.00     0.135 A 
ATOM     54  F   UNL     1       9.090   8.109   2.301  1.00  0.00    -0.206 F 
ATOM     55  C   UNL     1       8.109  10.136   1.632  1.00  0.00     0.059 A 
ATOM     56  C   UNL     1       6.173  10.985   2.834  1.00  0.00     0.059 A 
ATOM     57  F   UNL     1       5.310   9.770   4.650  1.00  0.00    -0.206 F 
ATOM     58  C   UNL     1       7.117  11.101   1.810  1.00  0.00     0.060 A 
BRANCH  58  59
ATOM     59  S   UNL     1       6.990  12.479   0.650  1.00  0.00     0.124 S 
ATOM     60  O   UNL     1       7.703  13.530   1.366  1.00  0.00    -0.237 OA
ATOM     61  O   UNL     1       7.650  11.963  -0.545  1.00  0.00    -0.237 OA
ATOM     62  O   UNL     1       5.546  12.657   0.528  1.00  0.00    -0.744 OA
ENDBRANCH  58  59
ENDBRANCH  26  51
BRANCH  38  63
ATOM     63  C   UNL     1      10.545   7.103   9.346  1.00  0.00     0.058 A 
ATOM     64  C   UNL     1      10.101   7.906  10.407  1.00  0.00     0.135 A 
ATOM     65  C   UNL     1      11.926   6.993   9.131  1.00  0.00     0.135 A 
ATOM     66  F   UNL     1       8.787   8.041  10.646  1.00  0.00    -0.206 F 
ATOM     67  C   UNL     1      10.996   8.588  11.224  1.00  0.00     0.059 A 
ATOM     68  C   UNL     1      12.840   7.666   9.936  1.00  0.00     0.059 A 
ATOM     69  F   UNL     1      12.396   6.239   8.124  1.00  0.00    -0.206 F 
ATOM     70  C   UNL     1      12.364   8.469  10.974  1.00  0.00     0.060 A 
BRANCH  70  71
ATOM     71  S   UNL     1      13.544   9.335  12.033  1.00  0.00     0.124 S 
ATOM     72  O   UNL     1      13.748  10.574  11.290  1.00  0.00    -0.237 OA
ATOM     73  O   UNL     1      12.821   9.466  13.294  1.00  0.00    -0.237 OA
ATOM     74  O   UNL     1      14.683   8.422  12.066  1.00  0.00    -0.744 OA
ENDBRANCH  70  71
ENDBRANCH  38  63
ENDBRANCH  12  13
ENDBRANCH   5   7
ENDBRANCH   2   3
ENDBRANCH   1   2
BRANCH   1  75
ATOM     75  C   UNL     1       3.833  -4.037  -1.121  1.00  0.00     0.023 C 
BRANCH  75  76
ATOM     76  C   UNL     1       4.490  -3.681  -2.454  1.00  0.00     0.116 C 
BRANCH  76  77
ATOM     77  N   UNL     1       5.939  -3.775  -2.421  1.00  0.00    -0.352 N 
ATOM     78  C   UNL     1       6.809  -4.488  -3.205  1.00  0.00     0.257 C 
ATOM     79  H   UNL     1       6.368  -3.235  -1.719  1.00  0.00     0.163 HD
ATOM     80  O   UNL     1       8.002  -4.469  -2.915  1.00  0.00    -0.269 OA
BRANCH  78  81
ATOM     81  C   UNL     1       6.317  -5.241  -4.331  1.00  0.00     0.113 A 
ATOM     82  C   UNL     1       6.625  -6.587  -4.701  1.00  0.00     0.127 A 
ATOM     83  C   UNL     1       5.578  -4.762  -5.395  1.00  0.00     0.175 A 
ATOM     84  N   UNL     1       6.005  -6.909  -5.849  1.00  0.00    -0.079 NA
ATOM     85  O   UNL     1       5.350  -5.775  -6.270  1.00  0.00    -0.357 OA
BRANCH  82  86
ATOM     86  C   UNL     1       7.484  -7.563  -4.029  1.00  0.00     0.005 A 
ATOM     87  C   UNL     1       7.502  -7.689  -2.633  1.00  0.00     0.012 A 
ATOM     88  C   UNL     1       8.322  -8.393  -4.793  1.00  0.00     0.012 A 
ATOM     89  C   UNL     1       8.350  -8.615  -2.014  1.00  0.00     0.021 A 
ATOM     90  C   UNL     1       9.169  -9.318  -4.176  1.00  0.00     0.021 A 
ATOM     91  C   UNL     1       9.180  -9.423  -2.788  1.00  0.00     0.041 A 
ATOM     92  Cl  UNL     1      10.223 -10.560  -2.027  1.00  0.00    -0.084 Cl
ENDBRANCH  82  86
BRANCH  83  93
ATOM     93  C   UNL     1       5.043  -3.429  -5.769  1.00  0.00     0.242 C 
BRANCH  93  94
ATOM     94  O   UNL     1       5.155  -3.256  -7.169  1.00  0.00    -0.345 OA
BRANCH  94  95
ATOM     95  C   UNL     1       6.256  -2.525  -7.699  1.00  0.00     0.250 C 
ATOM     96  C   UNL     1       7.662  -2.959  -7.266  1.00  0.00     0.062 C 
ATOM     97  O   UNL     1       6.050  -1.115  -7.701  1.00  0.00    -0.353 OA
ATOM     98  C   UNL     1       8.210  -2.174  -6.081  1.00  0.00     0.008 C 
ATOM     99  C   UNL     1       6.510  -0.406  -6.561  1.00  0.00     0.163 C 
ATOM    100  C   UNL     1       7.975  -0.684  -6.272  1.00  0.00     0.029 C 
ENDBRANCH  94  95
ENDBRANCH  93  94
ENDBRANCH  83  93
ENDBRANCH  78  81
ENDBRANCH  76  77
ENDBRANCH  75  76
ENDBRANCH   1  75
TORSDOF 18
