REMARK SMILES CS(=O)(=O)c1ccc(C(=O)N2C[C@@H](C(=O)NCCCCNC(=O)c3ccc(-c4c5nc(c(-c6c(F)cc(S(=O)(=O)[O-])cc6F)c6ccc([nH]6)c(-c6c(F)cc(S(=O)(=O)[O-])cc6F)c6nc(c(-c7c(F)cc(S(=O)(=O)[O-])cc7F)c7ccc4[nH]7)C=C6)C=C5)cc3)[C@H](c3ccncc3)C2)cc1
REMARK SMILES IDX 18 1 17 2 16 3 14 4 15 5 13 7 11 8 12 9 97 10 90 11 9 12
REMARK SMILES IDX 10 13 8 14 5 15 6 16 99 17 7 18 98 19 2 20 1 21 3 22 4 23
REMARK SMILES IDX 91 24 92 25 96 26 93 27 95 28 94 29 19 30 20 31 21 32 22 33
REMARK SMILES IDX 23 35 24 36 25 37 89 38 26 39 88 40 27 41 28 42 29 43 82 44
REMARK SMILES IDX 30 45 87 46 81 47 83 48 31 49 86 50 80 51 79 52 32 54 66 55
REMARK SMILES IDX 45 56 65 57 46 58 49 59 64 60 84 61 47 62 48 63 63 65 85 66
REMARK SMILES IDX 50 67 33 68 34 69 43 70 35 71 36 72 42 73 44 74 37 75 38 76
REMARK SMILES IDX 39 77 40 78 41 79 67 80 68 81 77 82 69 83 70 84 76 85 78 86
REMARK SMILES IDX 71 87 72 88 73 89 74 90 75 91 51 92 52 93 61 94 53 95 54 96
REMARK SMILES IDX 60 97 62 98 55 99 56 100 57 101 58 102 59 103
REMARK H PARENT 16 6 21 34 83 53 49 64
REMARK Flexibility Score: inf
ROOT
ATOM      1  C   UNL     1      -2.665   7.028   0.394  1.00  0.00     0.023 C 
ENDROOT
BRANCH   1   2
ATOM      2  C   UNL     1      -2.745   7.302  -1.108  1.00  0.00     0.116 C 
BRANCH   2   3
ATOM      3  N   UNL     1      -2.568   8.716  -1.383  1.00  0.00    -0.356 N 
ATOM      4  C   UNL     1      -1.468   9.382  -1.839  1.00  0.00     0.225 C 
ATOM      5  O   UNL     1      -1.508  10.610  -1.885  1.00  0.00    -0.275 OA
ATOM      6  H   UNL     1      -3.358   9.278  -1.216  1.00  0.00     0.163 HD
BRANCH   4   7
ATOM      7  C   UNL     1      -0.264   8.587  -2.301  1.00  0.00     0.107 C 
ATOM      8  N   UNL     1       1.791   7.739  -1.668  1.00  0.00    -0.337 N 
ATOM      9  C   UNL     1       0.479   7.989  -1.118  1.00  0.00     0.134 C 
ATOM     10  C   UNL     1       2.171   8.863  -2.502  1.00  0.00     0.129 C 
ATOM     11  C   UNL     1       0.828   9.434  -3.037  1.00  0.00     0.053 C 
BRANCH   8  12
ATOM     12  C   UNL     1       2.610   6.638  -1.524  1.00  0.00     0.253 C 
ATOM     13  O   UNL     1       3.827   6.704  -1.688  1.00  0.00    -0.269 OA
BRANCH  12  14
ATOM     14  C   UNL     1       2.009   5.290  -1.297  1.00  0.00     0.040 A 
ATOM     15  C   UNL     1       1.138   2.625  -1.241  1.00  0.00     0.067 A 
ATOM     16  C   UNL     1       2.344   2.971  -0.625  1.00  0.00     0.021 A 
ATOM     17  C   UNL     1       0.351   3.601  -1.859  1.00  0.00     0.021 A 
ATOM     18  C   UNL     1       2.773   4.305  -0.651  1.00  0.00     0.015 A 
ATOM     19  C   UNL     1       0.802   4.921  -1.909  1.00  0.00     0.015 A 
BRANCH  15  20
ATOM     20  S   UNL     1       0.615   0.929  -1.363  1.00  0.00     0.175 S 
ATOM     21  C   UNL     1       1.066   0.149   0.159  1.00  0.00     0.163 C 
ATOM     22  O   UNL     1       1.403   0.337  -2.426  1.00  0.00    -0.224 OA
ATOM     23  O   UNL     1      -0.835   0.941  -1.421  1.00  0.00    -0.224 OA
ENDBRANCH  15  20
ENDBRANCH  12  14
ENDBRANCH   8  12
BRANCH  11  24
ATOM     24  C   UNL     1       0.597   9.438  -4.547  1.00  0.00    -0.039 A 
ATOM     25  C   UNL     1      -0.569  10.038  -5.052  1.00  0.00     0.024 A 
ATOM     26  C   UNL     1       1.483   8.897  -5.484  1.00  0.00     0.024 A 
ATOM     27  C   UNL     1      -0.801  10.052  -6.421  1.00  0.00     0.111 A 
ATOM     28  C   UNL     1       1.171   8.972  -6.838  1.00  0.00     0.111 A 
ATOM     29  N   UNL     1       0.046   9.530  -7.327  1.00  0.00    -0.265 NA
ENDBRANCH  11  24
ENDBRANCH   4   7
ENDBRANCH   2   3
ENDBRANCH   1   2
BRANCH   1  30
ATOM     30  C   UNL     1      -3.863   7.550   1.192  1.00  0.00     0.023 C 
BRANCH  30  31
ATOM     31  C   UNL     1      -5.203   6.934   0.808  1.00  0.00     0.116 C 
BRANCH  31  32
ATOM     32  N   UNL     1      -5.249   5.495   1.019  1.00  0.00    -0.352 N 
ATOM     33  C   UNL     1      -6.327   4.737   1.413  1.00  0.00     0.251 C 
ATOM     34  H   UNL     1      -4.409   5.006   0.862  1.00  0.00     0.163 HD
ATOM     35  O   UNL     1      -6.191   3.548   1.678  1.00  0.00    -0.269 OA
BRANCH  33  36
ATOM     36  C   UNL     1      -7.642   5.395   1.550  1.00  0.00     0.039 A 
ATOM     37  C   UNL     1      -8.332   5.290   2.760  1.00  0.00     0.014 A 
ATOM     38  C   UNL     1      -8.152   6.167   0.503  1.00  0.00     0.014 A 
ATOM     39  C   UNL     1      -9.507   6.022   2.947  1.00  0.00     0.010 A 
ATOM     40  C   UNL     1      -9.289   6.939   0.713  1.00  0.00     0.010 A 
ATOM     41  C   UNL     1      -9.973   6.879   1.938  1.00  0.00    -0.014 A 
BRANCH  41  42
ATOM     42  C   UNL     1     -11.181   7.723   2.117  1.00  0.00     0.031 A 
ATOM     43  C   UNL     1     -12.377   7.491   1.236  1.00  0.00     0.074 A 
ATOM     44  C   UNL     1     -11.159   8.758   2.980  1.00  0.00     0.049 A 
ATOM     45  N   UNL     1     -13.444   8.229   1.081  1.00  0.00    -0.248 NA
ATOM     46  C   UNL     1     -12.351   6.284   0.392  1.00  0.00     0.031 C 
ATOM     47  C   UNL     1     -10.043   9.107   3.861  1.00  0.00     0.029 A 
ATOM     48  N   UNL     1     -12.096   9.730   3.234  1.00  0.00    -0.354 N 
ATOM     49  C   UNL     1     -14.195   7.602   0.094  1.00  0.00     0.074 A 
ATOM     50  C   UNL     1     -13.452   6.436  -0.330  1.00  0.00     0.031 C 
ATOM     51  C   UNL     1     -10.358  10.215   4.554  1.00  0.00     0.029 A 
ATOM     52  C   UNL     1     -11.678  10.678   4.139  1.00  0.00     0.049 A 
ATOM     53  H   UNL     1     -12.984   9.746   2.808  1.00  0.00     0.167 HD
ATOM     54  C   UNL     1     -15.401   7.961  -0.403  1.00  0.00     0.037 A 
ATOM     55  C   UNL     1     -12.281  11.806   4.565  1.00  0.00     0.037 A 
ATOM     56  C   UNL     1     -16.160   9.090   0.066  1.00  0.00     0.049 A 
ATOM     57  C   UNL     1     -13.641  12.161   4.025  1.00  0.00     0.074 A 
ATOM     58  C   UNL     1     -17.422   9.499  -0.328  1.00  0.00     0.029 A 
ATOM     59  N   UNL     1     -15.734   9.979   1.041  1.00  0.00    -0.354 N 
ATOM     60  N   UNL     1     -14.357  11.532   3.123  1.00  0.00    -0.248 NA
ATOM     61  C   UNL     1     -14.279  13.373   4.560  1.00  0.00     0.031 C 
ATOM     62  C   UNL     1     -17.750  10.651   0.393  1.00  0.00     0.029 A 
ATOM     63  C   UNL     1     -16.708  10.937   1.260  1.00  0.00     0.049 A 
ATOM     64  H   UNL     1     -14.868   9.935   1.507  1.00  0.00     0.167 HD
ATOM     65  C   UNL     1     -15.542  12.251   3.011  1.00  0.00     0.074 A 
ATOM     66  C   UNL     1     -15.448  13.362   3.933  1.00  0.00     0.031 C 
ATOM     67  C   UNL     1     -16.611  12.011   2.215  1.00  0.00     0.037 A 
BRANCH  54  68
ATOM     68  C   UNL     1     -15.986   7.125  -1.504  1.00  0.00     0.058 A 
ATOM     69  C   UNL     1     -16.515   5.849  -1.255  1.00  0.00     0.135 A 
ATOM     70  C   UNL     1     -16.072   7.629  -2.811  1.00  0.00     0.135 A 
ATOM     71  F   UNL     1     -16.441   5.314  -0.026  1.00  0.00    -0.206 F 
ATOM     72  C   UNL     1     -17.096   5.095  -2.269  1.00  0.00     0.059 A 
ATOM     73  C   UNL     1     -16.671   6.902  -3.835  1.00  0.00     0.059 A 
ATOM     74  F   UNL     1     -15.577   8.843  -3.101  1.00  0.00    -0.206 F 
ATOM     75  C   UNL     1     -17.172   5.632  -3.555  1.00  0.00     0.060 A 
BRANCH  75  76
ATOM     76  S   UNL     1     -17.956   4.653  -4.854  1.00  0.00     0.124 S 
ATOM     77  O   UNL     1     -16.921   3.663  -5.135  1.00  0.00    -0.237 OA
ATOM     78  O   UNL     1     -19.151   4.147  -4.187  1.00  0.00    -0.237 OA
ATOM     79  O   UNL     1     -18.198   5.627  -5.914  1.00  0.00    -0.744 OA
ENDBRANCH  75  76
ENDBRANCH  54  68
BRANCH  55  80
ATOM     80  C   UNL     1     -11.610  12.686   5.558  1.00  0.00     0.058 A 
ATOM     81  C   UNL     1     -12.081  12.774   6.876  1.00  0.00     0.135 A 
ATOM     82  C   UNL     1     -10.497  13.465   5.208  1.00  0.00     0.135 A 
ATOM     83  F   UNL     1     -13.145  12.051   7.257  1.00  0.00    -0.206 F 
ATOM     84  C   UNL     1     -11.492  13.624   7.806  1.00  0.00     0.059 A 
ATOM     85  C   UNL     1      -9.876  14.306   6.126  1.00  0.00     0.059 A 
ATOM     86  F   UNL     1      -9.995  13.402   3.965  1.00  0.00    -0.206 F 
ATOM     87  C   UNL     1     -10.391  14.391   7.420  1.00  0.00     0.060 A 
BRANCH  87  88
ATOM     88  S   UNL     1      -9.617  15.476   8.637  1.00  0.00     0.124 S 
ATOM     89  O   UNL     1     -10.553  16.593   8.670  1.00  0.00    -0.237 OA
ATOM     90  O   UNL     1      -9.585  14.633   9.828  1.00  0.00    -0.237 OA
ATOM     91  O   UNL     1      -8.312  15.761   8.047  1.00  0.00    -0.744 OA
ENDBRANCH  87  88
ENDBRANCH  55  80
BRANCH  67  92
ATOM     92  C   UNL     1     -17.800  12.918   2.344  1.00  0.00     0.058 A 
ATOM     93  C   UNL     1     -17.819  14.194   1.764  1.00  0.00     0.135 A 
ATOM     94  C   UNL     1     -18.972  12.457   2.965  1.00  0.00     0.135 A 
ATOM     95  F   UNL     1     -16.720  14.681   1.165  1.00  0.00    -0.206 F 
ATOM     96  C   UNL     1     -18.962  14.985   1.794  1.00  0.00     0.059 A 
ATOM     97  C   UNL     1     -20.132  13.222   2.989  1.00  0.00     0.059 A 
ATOM     98  F   UNL     1     -19.004  11.238   3.528  1.00  0.00    -0.206 F 
ATOM     99  C   UNL     1     -20.117  14.487   2.401  1.00  0.00     0.060 A 
BRANCH  99 100
ATOM    100  S   UNL     1     -21.619  15.488   2.363  1.00  0.00     0.124 S 
ATOM    101  O   UNL     1     -21.333  16.486   3.387  1.00  0.00    -0.237 OA
ATOM    102  O   UNL     1     -21.636  15.977   0.988  1.00  0.00    -0.237 OA
ATOM    103  O   UNL     1     -22.672  14.532   2.693  1.00  0.00    -0.744 OA
ENDBRANCH  99 100
ENDBRANCH  67  92
ENDBRANCH  41  42
ENDBRANCH  33  36
ENDBRANCH  31  32
ENDBRANCH  30  31
ENDBRANCH   1  30
TORSDOF 18
