REMARK SMILES O=C(NCCCCNC(=O)[C@@H](Cc1ccccc1)N1C(=O)/C(=C/c2ccncc2)SC1=S)c1ccc(-c2c3nc(c(-c4c(F)cc(S(=O)(=O)[O-])cc4F)c4ccc([nH]4)c(-c4c(F)cc(S(=O)(=O)[O-])cc4F)c4nc(c(-c5c(F)cc(S(=O)(=O)[O-])cc5F)c5ccc2[nH]5)C=C4)C=C3)cc1
REMARK SMILES IDX 5 1 4 2 3 3 1 4 2 5 33 7 34 8 98 9 35 10 97 11 36 12 37 13
REMARK SMILES IDX 38 14 91 15 39 16 96 17 90 18 92 19 40 20 95 21 89 22 88 23
REMARK SMILES IDX 41 25 75 26 54 27 74 28 55 29 58 30 73 31 93 32 56 33 57 34
REMARK SMILES IDX 72 36 94 37 59 38 42 39 43 40 52 41 44 42 45 43 51 44 53 45
REMARK SMILES IDX 46 46 47 47 48 48 49 49 50 50 76 51 77 52 86 53 78 54 79 55
REMARK SMILES IDX 85 56 87 57 80 58 81 59 82 60 83 61 84 62 60 63 61 64 70 65
REMARK SMILES IDX 62 66 63 67 69 68 71 69 64 70 65 71 66 72 67 73 68 74 6 75
REMARK SMILES IDX 7 76 8 77 9 78 10 80 11 81 12 82 13 83 14 84 18 85 15 86
REMARK SMILES IDX 17 87 16 88 19 89 20 90 31 91 21 92 22 93 30 94 32 95 23 96
REMARK SMILES IDX 24 97 25 98 29 99 26 100 28 101 27 102
REMARK H PARENT 3 6 92 24 58 35 8 79
REMARK Flexibility Score: inf
ROOT
ATOM      1  C   UNL     1       5.598  -1.917  -1.224  1.00  0.00     0.023 C 
ENDROOT
BRANCH   1   2
ATOM      2  C   UNL     1       4.916  -0.676  -0.665  1.00  0.00     0.116 C 
BRANCH   2   3
ATOM      3  N   UNL     1       3.465  -0.656  -0.827  1.00  0.00    -0.352 N 
ATOM      4  O   UNL     1       1.323  -0.274  -0.191  1.00  0.00    -0.269 OA
ATOM      5  C   UNL     1       2.515  -0.192   0.062  1.00  0.00     0.251 C 
ATOM      6  H   UNL     1       3.121  -1.018  -1.675  1.00  0.00     0.163 HD
BRANCH   5   7
ATOM      7  C   UNL     1       2.984   0.350   1.356  1.00  0.00     0.039 A 
ATOM      8  C   UNL     1       4.018   1.286   1.378  1.00  0.00     0.014 A 
ATOM      9  C   UNL     1       2.497  -0.199   2.544  1.00  0.00     0.014 A 
ATOM     10  C   UNL     1       4.713   1.496   2.560  1.00  0.00     0.010 A 
ATOM     11  C   UNL     1       3.129   0.108   3.753  1.00  0.00     0.010 A 
ATOM     12  C   UNL     1       4.284   0.906   3.763  1.00  0.00    -0.014 A 
BRANCH  12  13
ATOM     13  C   UNL     1       5.070   1.150   5.002  1.00  0.00     0.031 A 
ATOM     14  C   UNL     1       5.739   0.021   5.744  1.00  0.00     0.074 A 
ATOM     15  C   UNL     1       5.242   2.422   5.412  1.00  0.00     0.049 A 
ATOM     16  N   UNL     1       6.482   0.073   6.821  1.00  0.00    -0.248 NA
ATOM     17  C   UNL     1       5.545  -1.342   5.222  1.00  0.00     0.031 C 
ATOM     18  C   UNL     1       4.644   3.598   4.774  1.00  0.00     0.029 A 
ATOM     19  N   UNL     1       5.998   2.946   6.427  1.00  0.00    -0.354 N 
ATOM     20  C   UNL     1       6.810  -1.244   7.128  1.00  0.00     0.074 A 
ATOM     21  C   UNL     1       6.178  -2.076   6.127  1.00  0.00     0.031 C 
ATOM     22  C   UNL     1       5.119   4.706   5.359  1.00  0.00     0.029 A 
ATOM     23  C   UNL     1       5.990   4.320   6.462  1.00  0.00     0.049 A 
ATOM     24  H   UNL     1       6.498   2.392   7.070  1.00  0.00     0.167 HD
ATOM     25  C   UNL     1       7.567  -1.712   8.151  1.00  0.00     0.037 A 
ATOM     26  C   UNL     1       6.604   5.179   7.295  1.00  0.00     0.037 A 
ATOM     27  C   UNL     1       8.228  -0.874   9.120  1.00  0.00     0.049 A 
ATOM     28  C   UNL     1       7.453   4.636   8.404  1.00  0.00     0.074 A 
ATOM     29  C   UNL     1       9.036  -1.252  10.179  1.00  0.00     0.029 A 
ATOM     30  N   UNL     1       8.166   0.512   9.142  1.00  0.00    -0.354 N 
ATOM     31  N   UNL     1       7.733   3.387   8.686  1.00  0.00    -0.248 NA
ATOM     32  C   UNL     1       8.055   5.616   9.316  1.00  0.00     0.031 C 
ATOM     33  C   UNL     1       9.439  -0.096  10.858  1.00  0.00     0.029 A 
ATOM     34  C   UNL     1       8.911   1.004  10.201  1.00  0.00     0.049 A 
ATOM     35  H   UNL     1       7.666   1.065   8.499  1.00  0.00     0.167 HD
ATOM     36  C   UNL     1       8.542   3.428   9.814  1.00  0.00     0.074 A 
ATOM     37  C   UNL     1       8.729   4.828  10.143  1.00  0.00     0.031 C 
ATOM     38  C   UNL     1       9.075   2.400  10.518  1.00  0.00     0.037 A 
BRANCH  25  39
ATOM     39  C   UNL     1       7.706  -3.204   8.294  1.00  0.00     0.058 A 
ATOM     40  C   UNL     1       8.523  -3.960   7.439  1.00  0.00     0.135 A 
ATOM     41  C   UNL     1       7.040  -3.881   9.330  1.00  0.00     0.135 A 
ATOM     42  F   UNL     1       9.170  -3.366   6.424  1.00  0.00    -0.206 F 
ATOM     43  C   UNL     1       8.657  -5.337   7.591  1.00  0.00     0.059 A 
ATOM     44  C   UNL     1       7.176  -5.255   9.513  1.00  0.00     0.059 A 
ATOM     45  F   UNL     1       6.247  -3.207  10.177  1.00  0.00    -0.206 F 
ATOM     46  C   UNL     1       7.975  -5.977   8.628  1.00  0.00     0.060 A 
BRANCH  46  47
ATOM     47  S   UNL     1       8.151  -7.765   8.812  1.00  0.00     0.124 S 
ATOM     48  O   UNL     1       7.287  -8.252   7.741  1.00  0.00    -0.237 OA
ATOM     49  O   UNL     1       9.583  -7.964   8.609  1.00  0.00    -0.237 OA
ATOM     50  O   UNL     1       7.673  -8.016  10.168  1.00  0.00    -0.744 OA
ENDBRANCH  46  47
ENDBRANCH  25  39
BRANCH  26  51
ATOM     51  C   UNL     1       6.420   6.639   7.102  1.00  0.00     0.058 A 
ATOM     52  C   UNL     1       7.460   7.438   6.606  1.00  0.00     0.135 A 
ATOM     53  C   UNL     1       5.182   7.251   7.351  1.00  0.00     0.135 A 
ATOM     54  F   UNL     1       8.662   6.896   6.356  1.00  0.00    -0.206 F 
ATOM     55  C   UNL     1       7.279   8.795   6.362  1.00  0.00     0.059 A 
ATOM     56  C   UNL     1       4.970   8.600   7.091  1.00  0.00     0.059 A 
ATOM     57  F   UNL     1       4.151   6.522   7.807  1.00  0.00    -0.206 F 
ATOM     58  C   UNL     1       6.027   9.365   6.601  1.00  0.00     0.060 A 
BRANCH  58  59
ATOM     59  S   UNL     1       5.769  11.107   6.203  1.00  0.00     0.124 S 
ATOM     60  O   UNL     1       6.363  11.762   7.362  1.00  0.00    -0.237 OA
ATOM     61  O   UNL     1       6.497  11.251   4.946  1.00  0.00    -0.237 OA
ATOM     62  O   UNL     1       4.317  11.210   6.091  1.00  0.00    -0.744 OA
ENDBRANCH  58  59
ENDBRANCH  26  51
BRANCH  38  63
ATOM     63  C   UNL     1       9.912   2.761  11.709  1.00  0.00     0.058 A 
ATOM     64  C   UNL     1       9.326   3.192  12.909  1.00  0.00     0.135 A 
ATOM     65  C   UNL     1      11.311   2.664  11.655  1.00  0.00     0.135 A 
ATOM     66  F   UNL     1       7.992   3.310  13.005  1.00  0.00    -0.206 F 
ATOM     67  C   UNL     1      10.101   3.543  14.009  1.00  0.00     0.059 A 
ATOM     68  C   UNL     1      12.105   2.991  12.749  1.00  0.00     0.059 A 
ATOM     69  F   UNL     1      11.917   2.250  10.531  1.00  0.00    -0.206 F 
ATOM     70  C   UNL     1      11.491   3.444  13.917  1.00  0.00     0.060 A 
BRANCH  70  71
ATOM     71  S   UNL     1      12.491   3.891  15.352  1.00  0.00     0.124 S 
ATOM     72  O   UNL     1      12.488   5.347  15.267  1.00  0.00    -0.237 OA
ATOM     73  O   UNL     1      11.730   3.319  16.459  1.00  0.00    -0.237 OA
ATOM     74  O   UNL     1      13.773   3.246  15.083  1.00  0.00    -0.744 OA
ENDBRANCH  70  71
ENDBRANCH  38  63
ENDBRANCH  12  13
ENDBRANCH   5   7
ENDBRANCH   2   3
ENDBRANCH   1   2
BRANCH   1  75
ATOM     75  C   UNL     1       5.387  -2.117  -2.716  1.00  0.00     0.023 C 
BRANCH  75  76
ATOM     76  C   UNL     1       6.003  -1.041  -3.609  1.00  0.00     0.116 C 
BRANCH  76  77
ATOM     77  N   UNL     1       7.123  -1.588  -4.339  1.00  0.00    -0.354 N 
ATOM     78  C   UNL     1       7.227  -2.049  -5.610  1.00  0.00     0.243 C 
ATOM     79  H   UNL     1       7.960  -1.634  -3.822  1.00  0.00     0.163 HD
ATOM     80  O   UNL     1       8.278  -2.640  -5.895  1.00  0.00    -0.273 OA
BRANCH  78  81
ATOM     81  C   UNL     1       6.098  -1.974  -6.668  1.00  0.00     0.185 C 
BRANCH  81  82
ATOM     82  C   UNL     1       5.095  -3.152  -6.380  1.00  0.00     0.071 C 
BRANCH  82  83
ATOM     83  C   UNL     1       3.889  -3.050  -5.455  1.00  0.00    -0.045 A 
ATOM     84  C   UNL     1       3.069  -1.921  -5.312  1.00  0.00     0.004 A 
ATOM     85  C   UNL     1       3.511  -4.206  -4.742  1.00  0.00     0.004 A 
ATOM     86  C   UNL     1       1.956  -1.924  -4.460  1.00  0.00     0.000 A 
ATOM     87  C   UNL     1       2.403  -4.211  -3.887  1.00  0.00     0.000 A 
ATOM     88  C   UNL     1       1.628  -3.067  -3.741  1.00  0.00     0.000 A 
ENDBRANCH  82  83
ENDBRANCH  81  82
BRANCH  81  89
ATOM     89  N   UNL     1       5.502  -0.672  -7.056  1.00  0.00    -0.280 N 
ATOM     90  C   UNL     1       4.460  -0.704  -7.975  1.00  0.00     0.266 C 
ATOM     91  C   UNL     1       6.109   0.569  -6.997  1.00  0.00     0.149 C 
ATOM     92  O   UNL     1       4.052  -1.680  -8.589  1.00  0.00    -0.268 OA
ATOM     93  C   UNL     1       3.913   0.652  -8.205  1.00  0.00     0.081 C 
ATOM     94  S   UNL     1       4.987   1.813  -7.569  1.00  0.00    -0.054 SA
ATOM     95  S   UNL     1       7.644   1.004  -6.517  1.00  0.00    -0.052 S 
ATOM     96  C   UNL     1       2.720   0.826  -8.788  1.00  0.00     0.029 C 
BRANCH  96  97
ATOM     97  C   UNL     1       2.050   2.105  -9.026  1.00  0.00    -0.021 A 
ATOM     98  C   UNL     1       2.579   3.051  -9.902  1.00  0.00     0.028 A 
ATOM     99  C   UNL     1       0.834   2.369  -8.395  1.00  0.00     0.028 A 
ATOM    100  C   UNL     1       1.874   4.226 -10.101  1.00  0.00     0.111 A 
ATOM    101  C   UNL     1       0.206   3.574  -8.660  1.00  0.00     0.111 A 
ATOM    102  N   UNL     1       0.697   4.507  -9.503  1.00  0.00    -0.265 NA
ENDBRANCH  96  97
ENDBRANCH  81  89
ENDBRANCH  78  81
ENDBRANCH  76  77
ENDBRANCH  75  76
ENDBRANCH   1  75
TORSDOF 18
