REMARK SMILES C[C@@H](C(=O)NCCCCNC(=O)c1ccc(-c2c3nc(c(-c4c(F)cc(S(=O)(=O)[O-])cc4F)c4ccc([nH]4)c(-c4c(F)cc(S(=O)(=O)[O-])cc4F)c4nc(c(-c5c(F)cc(S(=O)(=O)[O-])cc5F)c5ccc2[nH]5)C=C4)C=C3)cc1)c1ccc(-c2cccc(OC(=O)NC3CC3)c2)c(F)c1
REMARK SMILES IDX 6 1 5 2 3 3 4 4 2 6 1 7 79 8 80 9 98 10 81 11 96 12 82 13
REMARK SMILES IDX 97 14 83 15 84 16 95 17 85 18 87 19 86 20 88 21 89 22 90 23
REMARK SMILES IDX 91 24 92 26 93 27 94 28 7 29 8 30 9 31 10 32 11 33 12 35
REMARK SMILES IDX 13 36 14 37 78 38 15 39 77 40 16 41 17 42 18 43 71 44 19 45
REMARK SMILES IDX 76 46 70 47 72 48 20 49 75 50 69 51 68 52 21 54 55 55 34 56
REMARK SMILES IDX 54 57 35 58 38 59 53 60 73 61 36 62 37 63 52 65 74 66 39 67
REMARK SMILES IDX 22 68 23 69 32 70 24 71 25 72 31 73 33 74 26 75 27 76 28 77
REMARK SMILES IDX 29 78 30 79 56 80 57 81 66 82 58 83 59 84 65 85 67 86 60 87
REMARK SMILES IDX 61 88 62 89 63 90 64 91 40 92 41 93 50 94 42 95 43 96 49 97
REMARK SMILES IDX 51 98 44 99 45 100 46 101 47 102 48 103
REMARK H PARENT 5 5 91 25 10 34 72 53 38 64
REMARK Flexibility Score: inf
ROOT
ATOM      1  C   UNL     1       3.542   1.016  -1.637  1.00  0.00     0.116 C 
ENDROOT
BRANCH   1   2
ATOM      2  N   UNL     1       2.490   0.748  -2.592  1.00  0.00    -0.356 N 
ATOM      3  C   UNL     1       1.157   0.556  -2.385  1.00  0.00     0.227 C 
ATOM      4  O   UNL     1       0.485   0.211  -3.358  1.00  0.00    -0.274 OA
ATOM      5  H   UNL     1       2.780   0.696  -3.531  1.00  0.00     0.163 HD
BRANCH   3   6
ATOM      6  C   UNL     1       0.552   0.828  -0.999  1.00  0.00     0.105 C 
ATOM      7  C   UNL     1       0.982  -0.195   0.062  1.00  0.00     0.023 C 
BRANCH   6   8
ATOM      8  C   UNL     1      -0.968   0.896  -1.067  1.00  0.00    -0.033 A 
ATOM      9  C   UNL     1      -1.627   2.134  -1.034  1.00  0.00     0.005 A 
ATOM     10  C   UNL     1      -1.733  -0.273  -1.177  1.00  0.00     0.044 A 
ATOM     11  C   UNL     1      -3.023   2.194  -1.045  1.00  0.00     0.012 A 
ATOM     12  C   UNL     1      -3.118  -0.205  -1.179  1.00  0.00     0.131 A 
ATOM     13  C   UNL     1      -3.790   1.020  -1.085  1.00  0.00     0.018 A 
ATOM     14  F   UNL     1      -3.808  -1.355  -1.237  1.00  0.00    -0.206 F 
BRANCH  13  15
ATOM     15  C   UNL     1      -5.244   1.061  -0.921  1.00  0.00    -0.012 A 
ATOM     16  C   UNL     1      -6.085   1.704  -1.838  1.00  0.00     0.009 A 
ATOM     17  C   UNL     1      -5.812   0.443   0.205  1.00  0.00     0.056 A 
ATOM     18  C   UNL     1      -7.468   1.719  -1.637  1.00  0.00     0.004 A 
ATOM     19  C   UNL     1      -7.185   0.462   0.406  1.00  0.00     0.133 A 
ATOM     20  C   UNL     1      -8.018   1.099  -0.514  1.00  0.00     0.047 A 
BRANCH  19  21
ATOM     21  O   UNL     1      -7.831  -0.137   1.514  1.00  0.00    -0.410 OA
BRANCH  21  22
ATOM     22  C   UNL     1      -7.234  -0.951   2.474  1.00  0.00     0.412 C 
ATOM     23  O   UNL     1      -6.038  -1.213   2.570  1.00  0.00    -0.224 OA
ATOM     24  N   UNL     1      -8.116  -1.495   3.369  1.00  0.00    -0.318 N 
ATOM     25  H   UNL     1      -7.719  -2.118   4.021  1.00  0.00     0.167 HD
BRANCH  24  26
ATOM     26  C   UNL     1      -9.519  -1.297   3.500  1.00  0.00     0.085 C 
ATOM     27  C   UNL     1     -10.483  -0.928   2.410  1.00  0.00     0.027 C 
ATOM     28  C   UNL     1     -10.446  -2.335   2.920  1.00  0.00     0.027 C 
ENDBRANCH  24  26
ENDBRANCH  21  22
ENDBRANCH  19  21
ENDBRANCH  13  15
ENDBRANCH   6   8
ENDBRANCH   3   6
ENDBRANCH   1   2
BRANCH   1  29
ATOM     29  C   UNL     1       4.316  -0.263  -1.315  1.00  0.00     0.023 C 
BRANCH  29  30
ATOM     30  C   UNL     1       5.106  -0.831  -2.497  1.00  0.00     0.023 C 
BRANCH  30  31
ATOM     31  C   UNL     1       6.089   0.142  -3.134  1.00  0.00     0.116 C 
BRANCH  31  32
ATOM     32  N   UNL     1       7.072   0.645  -2.186  1.00  0.00    -0.352 N 
ATOM     33  C   UNL     1       8.433   0.760  -2.342  1.00  0.00     0.251 C 
ATOM     34  H   UNL     1       6.716   0.942  -1.317  1.00  0.00     0.163 HD
ATOM     35  O   UNL     1       9.142   1.062  -1.388  1.00  0.00    -0.269 OA
BRANCH  33  36
ATOM     36  C   UNL     1       9.029   0.482  -3.665  1.00  0.00     0.039 A 
ATOM     37  C   UNL     1      10.110  -0.397  -3.748  1.00  0.00     0.014 A 
ATOM     38  C   UNL     1       8.480   1.044  -4.821  1.00  0.00     0.014 A 
ATOM     39  C   UNL     1      10.592  -0.775  -5.003  1.00  0.00     0.010 A 
ATOM     40  C   UNL     1       8.912   0.609  -6.069  1.00  0.00     0.010 A 
ATOM     41  C   UNL     1       9.967  -0.312  -6.173  1.00  0.00    -0.014 A 
BRANCH  41  42
ATOM     42  C   UNL     1      10.377  -0.799  -7.515  1.00  0.00     0.031 A 
ATOM     43  C   UNL     1      10.921   0.165  -8.533  1.00  0.00     0.074 A 
ATOM     44  C   UNL     1      10.177  -2.092  -7.843  1.00  0.00     0.049 A 
ATOM     45  N   UNL     1      11.237  -0.048  -9.784  1.00  0.00    -0.248 NA
ATOM     46  C   UNL     1      11.111   1.558  -8.095  1.00  0.00     0.031 C 
ATOM     47  C   UNL     1       9.611  -3.112  -6.956  1.00  0.00     0.029 A 
ATOM     48  N   UNL     1      10.405  -2.767  -9.016  1.00  0.00    -0.354 N 
ATOM     49  C   UNL     1      11.643   1.182 -10.288  1.00  0.00     0.074 A 
ATOM     50  C   UNL     1      11.493   2.146  -9.220  1.00  0.00     0.031 C 
ATOM     51  C   UNL     1       9.548  -4.281  -7.612  1.00  0.00     0.029 A 
ATOM     52  C   UNL     1      10.020  -4.088  -8.979  1.00  0.00     0.049 A 
ATOM     53  H   UNL     1      10.807  -2.346  -9.810  1.00  0.00     0.167 HD
ATOM     54  C   UNL     1      12.112   1.474 -11.523  1.00  0.00     0.037 A 
ATOM     55  C   UNL     1      10.022  -5.030  -9.943  1.00  0.00     0.037 A 
ATOM     56  C   UNL     1      12.281   0.501 -12.571  1.00  0.00     0.049 A 
ATOM     57  C   UNL     1      10.533  -4.674 -11.313  1.00  0.00     0.074 A 
ATOM     58  C   UNL     1      12.824   0.682 -13.830  1.00  0.00     0.029 A 
ATOM     59  N   UNL     1      11.897  -0.830 -12.489  1.00  0.00    -0.354 N 
ATOM     60  N   UNL     1      10.998  -3.526 -11.746  1.00  0.00    -0.248 NA
ATOM     61  C   UNL     1      10.522  -5.737 -12.328  1.00  0.00     0.031 C 
ATOM     62  C   UNL     1      12.710  -0.521 -14.533  1.00  0.00     0.029 A 
ATOM     63  C   UNL     1      12.156  -1.471 -13.690  1.00  0.00     0.049 A 
ATOM     64  H   UNL     1      11.500  -1.256 -11.695  1.00  0.00     0.167 HD
ATOM     65  C   UNL     1      11.356  -3.736 -13.073  1.00  0.00     0.074 A 
ATOM     66  C   UNL     1      11.070  -5.124 -13.368  1.00  0.00     0.031 C 
ATOM     67  C   UNL     1      11.874  -2.858 -13.967  1.00  0.00     0.037 A 
BRANCH  54  68
ATOM     68  C   UNL     1      12.475   2.904 -11.822  1.00  0.00     0.058 A 
ATOM     69  C   UNL     1      13.592   3.523 -11.239  1.00  0.00     0.135 A 
ATOM     70  C   UNL     1      11.728   3.645 -12.752  1.00  0.00     0.135 A 
ATOM     71  F   UNL     1      14.333   2.867 -10.332  1.00  0.00    -0.206 F 
ATOM     72  C   UNL     1      13.943   4.832 -11.553  1.00  0.00     0.059 A 
ATOM     73  C   UNL     1      12.079   4.945 -13.104  1.00  0.00     0.059 A 
ATOM     74  F   UNL     1      10.649   3.103 -13.338  1.00  0.00    -0.206 F 
ATOM     75  C   UNL     1      13.183   5.534 -12.490  1.00  0.00     0.060 A 
BRANCH  75  76
ATOM     76  S   UNL     1      13.668   7.223 -12.899  1.00  0.00     0.124 S 
ATOM     77  O   UNL     1      13.319   7.932 -11.672  1.00  0.00    -0.237 OA
ATOM     78  O   UNL     1      15.096   7.081 -13.164  1.00  0.00    -0.237 OA
ATOM     79  O   UNL     1      12.846   7.543 -14.062  1.00  0.00    -0.744 OA
ENDBRANCH  75  76
ENDBRANCH  54  68
BRANCH  55  80
ATOM     80  C   UNL     1       9.514  -6.399  -9.650  1.00  0.00     0.058 A 
ATOM     81  C   UNL     1      10.378  -7.505  -9.632  1.00  0.00     0.135 A 
ATOM     82  C   UNL     1       8.155  -6.631  -9.387  1.00  0.00     0.135 A 
ATOM     83  F   UNL     1      11.685  -7.338  -9.884  1.00  0.00    -0.206 F 
ATOM     84  C   UNL     1       9.911  -8.792  -9.386  1.00  0.00     0.059 A 
ATOM     85  C   UNL     1       7.668  -7.904  -9.109  1.00  0.00     0.059 A 
ATOM     86  F   UNL     1       7.287  -5.607  -9.377  1.00  0.00    -0.206 F 
ATOM     87  C   UNL     1       8.553  -8.981  -9.124  1.00  0.00     0.060 A 
BRANCH  87  88
ATOM     88  S   UNL     1       7.964 -10.652  -8.775  1.00  0.00     0.124 S 
ATOM     89  O   UNL     1       8.056 -11.277 -10.089  1.00  0.00    -0.237 OA
ATOM     90  O   UNL     1       8.927 -11.113  -7.779  1.00  0.00    -0.237 OA
ATOM     91  O   UNL     1       6.611 -10.433  -8.273  1.00  0.00    -0.744 OA
ENDBRANCH  87  88
ENDBRANCH  55  80
BRANCH  67  92
ATOM     92  C   UNL     1      12.196  -3.369 -15.345  1.00  0.00     0.058 A 
ATOM     93  C   UNL     1      11.189  -3.674 -16.273  1.00  0.00     0.135 A 
ATOM     94  C   UNL     1      13.532  -3.475 -15.768  1.00  0.00     0.135 A 
ATOM     95  F   UNL     1       9.897  -3.599 -15.918  1.00  0.00    -0.206 F 
ATOM     96  C   UNL     1      11.494  -4.077 -17.570  1.00  0.00     0.059 A 
ATOM     97  C   UNL     1      13.859  -3.845 -17.069  1.00  0.00     0.059 A 
ATOM     98  F   UNL     1      14.534  -3.187 -14.923  1.00  0.00    -0.206 F 
ATOM     99  C   UNL     1      12.833  -4.149 -17.961  1.00  0.00     0.060 A 
BRANCH  99 100
ATOM    100  S   UNL     1      13.210  -4.610 -19.665  1.00  0.00     0.124 S 
ATOM    101  O   UNL     1      12.863  -6.027 -19.672  1.00  0.00    -0.237 OA
ATOM    102  O   UNL     1      12.323  -3.736 -20.427  1.00  0.00    -0.237 OA
ATOM    103  O   UNL     1      14.634  -4.313 -19.792  1.00  0.00    -0.744 OA
ENDBRANCH  99 100
ENDBRANCH  67  92
ENDBRANCH  41  42
ENDBRANCH  33  36
ENDBRANCH  31  32
ENDBRANCH  30  31
ENDBRANCH  29  30
ENDBRANCH   1  29
TORSDOF 19
