REMARK SMILES CCC[C@H](CNC(=O)N1C[C@H]2CCC[N@H+]2C[C@@H]1C)C(=O)NCCCCNC(=O)c1ccc(-c2c3nc(c(-c4c(F)cc(S(=O)(=O)[O-])cc4F)c4ccc([nH]4)c(-c4c(F)cc(S(=O)(=O)[O-])cc4F)c4nc(c(-c5c(F)cc(S(=O)(=O)[O-])cc5F)c5ccc2[nH]5)C=C4)C=C3)cc1
REMARK SMILES IDX 23 1 22 2 21 3 19 4 20 5 4 7 3 8 2 9 1 10 5 11 6 12 7 13
REMARK SMILES IDX 8 15 9 16 10 17 17 18 11 19 16 20 18 21 12 22 15 23 13 24
REMARK SMILES IDX 14 25 24 27 25 28 26 29 27 30 28 32 29 33 30 34 94 35 31 36
REMARK SMILES IDX 93 37 32 38 33 39 34 40 87 41 35 42 92 43 86 44 88 45 36 46
REMARK SMILES IDX 91 47 85 48 84 49 37 51 71 52 50 53 70 54 51 55 54 56 69 57
REMARK SMILES IDX 89 58 52 59 53 60 68 62 90 63 55 64 38 65 39 66 48 67 40 68
REMARK SMILES IDX 41 69 47 70 49 71 42 72 43 73 44 74 45 75 46 76 72 77 73 78
REMARK SMILES IDX 82 79 74 80 75 81 81 82 83 83 76 84 77 85 78 86 79 87 80 88
REMARK SMILES IDX 56 89 57 90 66 91 58 92 59 93 65 94 67 95 60 96 61 97 62 98
REMARK SMILES IDX 63 99 64 100
REMARK H PARENT 21 6 6 14 15 26 26 31 88 50 54 61
REMARK Flexibility Score: inf
ROOT
ATOM      1  C   UNL     1       0.625   4.311   4.253  1.00  0.00     0.023 C 
ENDROOT
BRANCH   1   2
ATOM      2  C   UNL     1      -0.219   4.577   3.011  1.00  0.00     0.116 C 
BRANCH   2   3
ATOM      3  N   UNL     1       0.589   5.029   1.899  1.00  0.00    -0.356 N 
ATOM      4  C   UNL     1       0.900   4.415   0.729  1.00  0.00     0.224 C 
ATOM      5  O   UNL     1       1.683   4.991  -0.030  1.00  0.00    -0.275 OA
ATOM      6  H   UNL     1       0.975   5.927   2.009  1.00  0.00     0.163 HD
BRANCH   4   7
ATOM      7  C   UNL     1       0.316   3.062   0.341  1.00  0.00     0.097 C 
BRANCH   7   8
ATOM      8  C   UNL     1      -1.207   3.071   0.108  1.00  0.00     0.015 C 
BRANCH   8   9
ATOM      9  C   UNL     1      -1.713   4.186  -0.816  1.00  0.00    -0.003 C 
ATOM     10  C   UNL     1      -1.163   4.104  -2.230  1.00  0.00     0.004 C 
ENDBRANCH   8   9
ENDBRANCH   7   8
BRANCH   7  11
ATOM     11  C   UNL     1       0.873   1.945   1.248  1.00  0.00     0.131 C 
BRANCH  11  12
ATOM     12  N   UNL     1      -0.125   1.177   1.973  1.00  0.00    -0.337 N 
ATOM     13  C   UNL     1      -0.424  -0.135   1.867  1.00  0.00     0.318 C 
ATOM     14  H   UNL     1      -0.655   1.682   2.631  1.00  0.00     0.165 HD
ATOM     15  O   UNL     1      -1.594  -0.462   2.073  1.00  0.00    -0.249 OA
BRANCH  13  16
ATOM     16  N   UNL     1       0.545  -1.031   1.516  1.00  0.00    -0.311 N 
ATOM     17  C   UNL     1       0.112  -2.252   0.845  1.00  0.00     0.186 C 
ATOM     18  C   UNL     1       1.975  -0.988   1.929  1.00  0.00     0.139 C 
ATOM     19  C   UNL     1       0.550  -3.505   1.610  1.00  0.00     0.204 C 
ATOM     20  C   UNL     1       2.711  -2.328   1.599  1.00  0.00     0.287 C 
ATOM     21  C   UNL     1       2.164  -0.645   3.413  1.00  0.00     0.037 C 
ATOM     22  C   UNL     1       0.335  -4.772   0.786  1.00  0.00     0.073 C 
ATOM     23  N   UNL     1       1.973  -3.529   2.029  1.00  0.00    -0.329 N 
ATOM     24  C   UNL     1       1.401  -5.709   1.313  1.00  0.00     0.068 C 
ATOM     25  C   UNL     1       2.576  -4.774   1.543  1.00  0.00     0.262 C 
ATOM     26  H   UNL     1       2.026  -3.510   3.047  1.00  0.00     0.348 HD
ENDBRANCH  13  16
ENDBRANCH  11  12
ENDBRANCH   7  11
ENDBRANCH   4   7
ENDBRANCH   2   3
ENDBRANCH   1   2
BRANCH   1  27
ATOM     27  C   UNL     1       1.179   5.570   4.921  1.00  0.00     0.023 C 
BRANCH  27  28
ATOM     28  C   UNL     1       0.134   6.620   5.282  1.00  0.00     0.116 C 
BRANCH  28  29
ATOM     29  N   UNL     1      -0.933   6.102   6.125  1.00  0.00    -0.352 N 
ATOM     30  C   UNL     1      -1.585   6.736   7.156  1.00  0.00     0.251 C 
ATOM     31  H   UNL     1      -1.225   5.181   5.933  1.00  0.00     0.163 HD
ATOM     32  O   UNL     1      -2.393   6.125   7.849  1.00  0.00    -0.269 OA
BRANCH  30  33
ATOM     33  C   UNL     1      -1.267   8.149   7.439  1.00  0.00     0.039 A 
ATOM     34  C   UNL     1      -0.919   8.516   8.740  1.00  0.00     0.014 A 
ATOM     35  C   UNL     1      -1.258   9.091   6.407  1.00  0.00     0.014 A 
ATOM     36  C   UNL     1      -0.496   9.822   8.994  1.00  0.00     0.010 A 
ATOM     37  C   UNL     1      -0.768  10.370   6.648  1.00  0.00     0.010 A 
ATOM     38  C   UNL     1      -0.384  10.748   7.944  1.00  0.00    -0.014 A 
BRANCH  38  39
ATOM     39  C   UNL     1       0.123  12.122   8.179  1.00  0.00     0.031 A 
ATOM     40  C   UNL     1      -0.780  13.302   7.947  1.00  0.00     0.074 A 
ATOM     41  C   UNL     1       1.411  12.309   8.531  1.00  0.00     0.049 A 
ATOM     42  N   UNL     1      -0.505  14.578   8.013  1.00  0.00    -0.248 NA
ATOM     43  C   UNL     1      -2.169  13.006   7.558  1.00  0.00     0.031 C 
ATOM     44  C   UNL     1       2.398  11.246   8.734  1.00  0.00     0.029 A 
ATOM     45  N   UNL     1       2.115  13.463   8.768  1.00  0.00    -0.354 N 
ATOM     46  C   UNL     1      -1.677  15.236   7.657  1.00  0.00     0.074 A 
ATOM     47  C   UNL     1      -2.649  14.218   7.325  1.00  0.00     0.031 C 
ATOM     48  C   UNL     1       3.571  11.796   9.086  1.00  0.00     0.029 A 
ATOM     49  C   UNL     1       3.432  13.249   9.101  1.00  0.00     0.049 A 
ATOM     50  H   UNL     1       1.714  14.360   8.707  1.00  0.00     0.167 HD
ATOM     51  C   UNL     1      -1.927  16.566   7.635  1.00  0.00     0.037 A 
ATOM     52  C   UNL     1       4.415  14.126   9.382  1.00  0.00     0.037 A 
ATOM     53  C   UNL     1      -0.965  17.572   8.002  1.00  0.00     0.049 A 
ATOM     54  C   UNL     1       4.107  15.599   9.370  1.00  0.00     0.074 A 
ATOM     55  C   UNL     1      -1.136  18.943   8.068  1.00  0.00     0.029 A 
ATOM     56  N   UNL     1       0.347  17.313   8.369  1.00  0.00    -0.354 N 
ATOM     57  N   UNL     1       2.977  16.202   9.087  1.00  0.00    -0.248 NA
ATOM     58  C   UNL     1       5.204  16.510   9.723  1.00  0.00     0.031 C 
ATOM     59  C   UNL     1       0.083  19.517   8.444  1.00  0.00     0.029 A 
ATOM     60  C   UNL     1       1.002  18.500   8.653  1.00  0.00     0.049 A 
ATOM     61  H   UNL     1       0.754  16.418   8.420  1.00  0.00     0.167 HD
ATOM     62  C   UNL     1       3.219  17.561   9.255  1.00  0.00     0.074 A 
ATOM     63  C   UNL     1       4.600  17.690   9.673  1.00  0.00     0.031 C 
ATOM     64  C   UNL     1       2.374  18.607   9.081  1.00  0.00     0.037 A 
BRANCH  51  65
ATOM     65  C   UNL     1      -3.301  17.006   7.211  1.00  0.00     0.058 A 
ATOM     66  C   UNL     1      -4.425  16.793   8.026  1.00  0.00     0.135 A 
ATOM     67  C   UNL     1      -3.495  17.668   5.988  1.00  0.00     0.135 A 
ATOM     68  F   UNL     1      -4.299  16.150   9.197  1.00  0.00    -0.206 F 
ATOM     69  C   UNL     1      -5.697  17.190   7.628  1.00  0.00     0.059 A 
ATOM     70  C   UNL     1      -4.755  18.099   5.583  1.00  0.00     0.059 A 
ATOM     71  F   UNL     1      -2.455  17.896   5.170  1.00  0.00    -0.206 F 
ATOM     72  C   UNL     1      -5.852  17.840   6.403  1.00  0.00     0.060 A 
BRANCH  72  73
ATOM     73  S   UNL     1      -7.510  18.349   5.901  1.00  0.00     0.124 S 
ATOM     74  O   UNL     1      -8.102  17.071   5.519  1.00  0.00    -0.237 OA
ATOM     75  O   UNL     1      -8.037  18.951   7.122  1.00  0.00    -0.237 OA
ATOM     76  O   UNL     1      -7.262  19.280   4.805  1.00  0.00    -0.744 OA
ENDBRANCH  72  73
ENDBRANCH  51  65
BRANCH  52  77
ATOM     77  C   UNL     1       5.774  13.633   9.730  1.00  0.00     0.058 A 
ATOM     78  C   UNL     1       6.257  13.723  11.044  1.00  0.00     0.135 A 
ATOM     79  C   UNL     1       6.612  13.056   8.764  1.00  0.00     0.135 A 
ATOM     80  F   UNL     1       5.494  14.272  12.002  1.00  0.00    -0.206 F 
ATOM     81  C   UNL     1       7.528  13.275  11.387  1.00  0.00     0.059 A 
ATOM     82  C   UNL     1       7.879  12.579   9.086  1.00  0.00     0.059 A 
ATOM     83  F   UNL     1       6.190  12.930   7.496  1.00  0.00    -0.206 F 
ATOM     84  C   UNL     1       8.332  12.703  10.399  1.00  0.00     0.060 A 
BRANCH  84  85
ATOM     85  S   UNL     1       9.964  12.082  10.863  1.00  0.00     0.124 S 
ATOM     86  O   UNL     1      10.717  13.321  11.014  1.00  0.00    -0.237 OA
ATOM     87  O   UNL     1       9.677  11.353  12.094  1.00  0.00    -0.237 OA
ATOM     88  O   UNL     1      10.339  11.248   9.724  1.00  0.00    -0.744 OA
ENDBRANCH  84  85
ENDBRANCH  52  77
BRANCH  64  89
ATOM     89  C   UNL     1       2.905  19.980   9.379  1.00  0.00     0.058 A 
ATOM     90  C   UNL     1       3.800  20.628   8.515  1.00  0.00     0.135 A 
ATOM     91  C   UNL     1       2.468  20.677  10.517  1.00  0.00     0.135 A 
ATOM     92  F   UNL     1       4.252  20.003   7.416  1.00  0.00    -0.206 F 
ATOM     93  C   UNL     1       4.261  21.914   8.780  1.00  0.00     0.059 A 
ATOM     94  C   UNL     1       2.897  21.972  10.789  1.00  0.00     0.059 A 
ATOM     95  F   UNL     1       1.604  20.104  11.370  1.00  0.00    -0.206 F 
ATOM     96  C   UNL     1       3.803  22.578   9.919  1.00  0.00     0.060 A 
BRANCH  96  97
ATOM     97  S   UNL     1       4.380  24.259  10.234  1.00  0.00     0.124 S 
ATOM     98  O   UNL     1       5.735  24.018  10.719  1.00  0.00    -0.237 OA
ATOM     99  O   UNL     1       4.279  24.878   8.916  1.00  0.00    -0.237 OA
ATOM    100  O   UNL     1       3.437  24.761  11.229  1.00  0.00    -0.744 OA
ENDBRANCH  96  97
ENDBRANCH  64  89
ENDBRANCH  38  39
ENDBRANCH  30  33
ENDBRANCH  28  29
ENDBRANCH  27  28
ENDBRANCH   1  27
TORSDOF 19
