REMARK SMILES O=C(NCCCCNC(=O)c1ccc(-c2c3nc(c(-c4c(F)cc(S(=O)(=O)[O-])cc4F)c4ccc([nH]4)c(-c4c(F)cc(S(=O)(=O)[O-])cc4F)c4nc(c(-c5c(F)cc(S(=O)(=O)[O-])cc5F)c5ccc2[nH]5)C=C4)C=C3)cc1)C1=Cc2cc(Cl)c(Cl)c(Cl)c2O[C@@H]1C(F)(F)F
REMARK SMILES IDX 6 1 5 2 4 3 3 4 1 5 2 6 77 8 78 9 89 10 79 11 88 12 80 13
REMARK SMILES IDX 87 14 81 15 85 16 82 17 83 18 86 19 84 20 90 21 91 22 92 23
REMARK SMILES IDX 93 24 7 25 8 26 9 27 10 29 11 30 12 31 76 32 13 33 75 34
REMARK SMILES IDX 14 35 15 36 16 37 69 38 17 39 74 40 68 41 70 42 18 43 73 44
REMARK SMILES IDX 67 45 66 46 19 48 53 49 32 50 52 51 33 52 36 53 51 54 71 55
REMARK SMILES IDX 34 56 35 57 50 59 72 60 37 61 20 62 21 63 30 64 22 65 23 66
REMARK SMILES IDX 29 67 31 68 24 69 25 70 26 71 27 72 28 73 54 74 55 75 64 76
REMARK SMILES IDX 56 77 57 78 63 79 65 80 58 81 59 82 60 83 61 84 62 85 38 86
REMARK SMILES IDX 39 87 48 88 40 89 41 90 47 91 49 92 42 93 43 94 44 95 45 96
REMARK SMILES IDX 46 97
REMARK H PARENT 3 7 8 28 70 47 36 58
REMARK Flexibility Score: inf
ROOT
ATOM      1  C   UNL     1       3.935   2.436   3.629  1.00  0.00     0.023 C 
ENDROOT
BRANCH   1   2
ATOM      2  C   UNL     1       4.174   2.357   2.122  1.00  0.00     0.023 C 
BRANCH   2   3
ATOM      3  C   UNL     1       3.670   1.077   1.454  1.00  0.00     0.116 C 
BRANCH   3   4
ATOM      4  N   UNL     1       2.506   1.274   0.587  1.00  0.00    -0.352 N 
ATOM      5  O   UNL     1       1.059   0.779  -1.091  1.00  0.00    -0.270 OA
ATOM      6  C   UNL     1       2.181   0.677  -0.611  1.00  0.00     0.251 C 
ATOM      7  H   UNL     1       1.854   1.936   0.911  1.00  0.00     0.163 HD
BRANCH   6   8
ATOM      8  C   UNL     1       3.184  -0.206  -1.242  1.00  0.00     0.067 C 
ATOM      9  C   UNL     1       4.370   0.275  -1.638  1.00  0.00     0.025 C 
ATOM     10  C   UNL     1       2.949  -1.681  -1.139  1.00  0.00     0.314 C 
ATOM     11  C   UNL     1       5.480  -0.504  -1.052  1.00  0.00     0.020 A 
ATOM     12  O   UNL     1       3.994  -2.324  -0.377  1.00  0.00    -0.474 OA
ATOM     13  C   UNL     1       6.692   0.164  -0.847  1.00  0.00     0.034 A 
ATOM     14  C   UNL     1       5.220  -1.693  -0.337  1.00  0.00     0.148 A 
ATOM     15  C   UNL     1       7.606  -0.307   0.103  1.00  0.00     0.062 A 
ATOM     16  C   UNL     1       6.157  -2.185   0.591  1.00  0.00     0.103 A 
ATOM     17  Cl  UNL     1       8.997   0.680   0.395  1.00  0.00    -0.083 Cl
ATOM     18  C   UNL     1       7.345  -1.477   0.833  1.00  0.00     0.082 A 
ATOM     19  Cl  UNL     1       5.752  -3.604   1.512  1.00  0.00    -0.079 Cl
ATOM     20  Cl  UNL     1       8.448  -2.001   2.066  1.00  0.00    -0.081 Cl
BRANCH  10  21
ATOM     21  C   UNL     1       2.816  -2.323  -2.534  1.00  0.00     0.429 C 
ATOM     22  F   UNL     1       2.491  -3.635  -2.444  1.00  0.00    -0.167 F 
ATOM     23  F   UNL     1       1.853  -1.729  -3.277  1.00  0.00    -0.167 F 
ATOM     24  F   UNL     1       3.968  -2.249  -3.245  1.00  0.00    -0.167 F 
ENDBRANCH  10  21
ENDBRANCH   6   8
ENDBRANCH   3   4
ENDBRANCH   2   3
ENDBRANCH   1   2
BRANCH   1  25
ATOM     25  C   UNL     1       4.524   1.307   4.475  1.00  0.00     0.116 C 
BRANCH  25  26
ATOM     26  N   UNL     1       5.969   1.153   4.369  1.00  0.00    -0.352 N 
ATOM     27  C   UNL     1       6.881   0.915   5.377  1.00  0.00     0.251 C 
ATOM     28  H   UNL     1       6.343   1.228   3.461  1.00  0.00     0.163 HD
ATOM     29  O   UNL     1       8.082   0.856   5.123  1.00  0.00    -0.269 OA
BRANCH  27  30
ATOM     30  C   UNL     1       6.406   0.804   6.773  1.00  0.00     0.039 A 
ATOM     31  C   UNL     1       6.971   1.635   7.744  1.00  0.00     0.014 A 
ATOM     32  C   UNL     1       5.335  -0.033   7.097  1.00  0.00     0.014 A 
ATOM     33  C   UNL     1       6.383   1.716   9.008  1.00  0.00     0.010 A 
ATOM     34  C   UNL     1       4.702   0.110   8.329  1.00  0.00     0.010 A 
ATOM     35  C   UNL     1       5.205   1.004   9.288  1.00  0.00    -0.014 A 
BRANCH  35  36
ATOM     36  C   UNL     1       4.457   1.221  10.555  1.00  0.00     0.031 A 
ATOM     37  C   UNL     1       4.270   0.091  11.529  1.00  0.00     0.074 A 
ATOM     38  C   UNL     1       3.879   2.417  10.787  1.00  0.00     0.049 A 
ATOM     39  N   UNL     1       3.602   0.073  12.653  1.00  0.00    -0.248 NA
ATOM     40  C   UNL     1       4.890  -1.196  11.177  1.00  0.00     0.031 C 
ATOM     41  C   UNL     1       3.933   3.574   9.889  1.00  0.00     0.029 A 
ATOM     42  N   UNL     1       3.125   2.860  11.846  1.00  0.00    -0.354 N 
ATOM     43  C   UNL     1       3.706  -1.226  13.134  1.00  0.00     0.074 A 
ATOM     44  C   UNL     1       4.456  -1.980  12.153  1.00  0.00     0.031 C 
ATOM     45  C   UNL     1       3.276   4.602  10.452  1.00  0.00     0.029 A 
ATOM     46  C   UNL     1       2.723   4.170  11.731  1.00  0.00     0.049 A 
ATOM     47  H   UNL     1       2.895   2.292  12.617  1.00  0.00     0.167 HD
ATOM     48  C   UNL     1       3.241  -1.739  14.299  1.00  0.00     0.037 A 
ATOM     49  C   UNL     1       1.994   4.939  12.564  1.00  0.00     0.037 A 
ATOM     50  C   UNL     1       2.521  -0.977  15.285  1.00  0.00     0.049 A 
ATOM     51  C   UNL     1       1.502   4.352  13.858  1.00  0.00     0.074 A 
ATOM     52  C   UNL     1       2.062  -1.386  16.524  1.00  0.00     0.029 A 
ATOM     53  N   UNL     1       2.153   0.353  15.142  1.00  0.00    -0.354 N 
ATOM     54  N   UNL     1       1.670   3.139  14.329  1.00  0.00    -0.248 NA
ATOM     55  C   UNL     1       0.725   5.238  14.736  1.00  0.00     0.031 C 
ATOM     56  C   UNL     1       1.387  -0.312  17.117  1.00  0.00     0.029 A 
ATOM     57  C   UNL     1       1.459   0.776  16.263  1.00  0.00     0.049 A 
ATOM     58  H   UNL     1       2.355   0.913  14.358  1.00  0.00     0.167 HD
ATOM     59  C   UNL     1       1.044   3.124  15.570  1.00  0.00     0.074 A 
ATOM     60  C   UNL     1       0.501   4.451  15.780  1.00  0.00     0.031 C 
ATOM     61  C   UNL     1       0.932   2.104  16.457  1.00  0.00     0.037 A 
BRANCH  48  62
ATOM     62  C   UNL     1       3.508  -3.195  14.563  1.00  0.00     0.058 A 
ATOM     63  C   UNL     1       4.802  -3.667  14.841  1.00  0.00     0.135 A 
ATOM     64  C   UNL     1       2.462  -4.131  14.535  1.00  0.00     0.135 A 
ATOM     65  F   UNL     1       5.840  -2.817  14.866  1.00  0.00    -0.206 F 
ATOM     66  C   UNL     1       5.056  -5.021  15.035  1.00  0.00     0.059 A 
ATOM     67  C   UNL     1       2.690  -5.487  14.755  1.00  0.00     0.059 A 
ATOM     68  F   UNL     1       1.206  -3.735  14.277  1.00  0.00    -0.206 F 
ATOM     69  C   UNL     1       3.995  -5.924  14.982  1.00  0.00     0.060 A 
BRANCH  69  70
ATOM     70  S   UNL     1       4.343  -7.681  15.208  1.00  0.00     0.124 S 
ATOM     71  O   UNL     1       4.922  -8.030  13.914  1.00  0.00    -0.237 OA
ATOM     72  O   UNL     1       5.269  -7.676  16.335  1.00  0.00    -0.237 OA
ATOM     73  O   UNL     1       3.029  -8.254  15.483  1.00  0.00    -0.744 OA
ENDBRANCH  69  70
ENDBRANCH  48  62
BRANCH  49  74
ATOM     74  C   UNL     1       1.725   6.361  12.221  1.00  0.00     0.058 A 
ATOM     75  C   UNL     1       2.370   7.397  12.913  1.00  0.00     0.135 A 
ATOM     76  C   UNL     1       0.838   6.715  11.194  1.00  0.00     0.135 A 
ATOM     77  F   UNL     1       3.223   7.109  13.908  1.00  0.00    -0.206 F 
ATOM     78  C   UNL     1       2.137   8.734  12.608  1.00  0.00     0.059 A 
ATOM     79  C   UNL     1       0.604   8.045  10.856  1.00  0.00     0.059 A 
ATOM     80  F   UNL     1       0.208   5.761  10.491  1.00  0.00    -0.206 F 
ATOM     81  C   UNL     1       1.253   9.048  11.575  1.00  0.00     0.060 A 
BRANCH  81  82
ATOM     82  S   UNL     1       0.999  10.786  11.149  1.00  0.00     0.124 S 
ATOM     83  O   UNL     1       0.155  11.237  12.249  1.00  0.00    -0.237 OA
ATOM     84  O   UNL     1       2.365  11.302  11.137  1.00  0.00    -0.237 OA
ATOM     85  O   UNL     1       0.353  10.718   9.842  1.00  0.00    -0.744 OA
ENDBRANCH  81  82
ENDBRANCH  49  74
BRANCH  61  86
ATOM     86  C   UNL     1       0.222   2.392  17.750  1.00  0.00     0.058 A 
ATOM     87  C   UNL     1      -1.174   2.523  17.809  1.00  0.00     0.135 A 
ATOM     88  C   UNL     1       0.945   2.493  18.949  1.00  0.00     0.135 A 
ATOM     89  F   UNL     1      -1.909   2.443  16.689  1.00  0.00    -0.206 F 
ATOM     90  C   UNL     1      -1.828   2.764  19.013  1.00  0.00     0.059 A 
ATOM     91  C   UNL     1       0.309   2.709  20.167  1.00  0.00     0.059 A 
ATOM     92  F   UNL     1       2.281   2.366  18.946  1.00  0.00    -0.206 F 
ATOM     93  C   UNL     1      -1.078   2.855  20.187  1.00  0.00     0.060 A 
BRANCH  93  94
ATOM     94  S   UNL     1      -1.940   3.133  21.749  1.00  0.00     0.124 S 
ATOM     95  O   UNL     1      -2.251   4.556  21.663  1.00  0.00    -0.237 OA
ATOM     96  O   UNL     1      -3.080   2.228  21.644  1.00  0.00    -0.237 OA
ATOM     97  O   UNL     1      -0.947   2.766  22.754  1.00  0.00    -0.744 OA
ENDBRANCH  93  94
ENDBRANCH  61  86
ENDBRANCH  35  36
ENDBRANCH  27  30
ENDBRANCH  25  26
ENDBRANCH   1  25
TORSDOF 15
