REMARK SMILES CC(C)CSc1cc2c(cc1Cl)C=C(C(=O)NCCCCNC(=O)c1ccc(-c3c4nc(c(-c5c(F)cc(S(=O)(=O)[O-])cc5F)c5ccc([nH]5)c(-c5c(F)cc(S(=O)(=O)[O-])cc5F)c5nc(c(-c6c(F)cc(S(=O)(=O)[O-])cc6F)c6ccc3[nH]6)C=C5)C=C4)cc1)[C@@H](C(F)(F)F)O2
REMARK SMILES IDX 19 1 18 2 17 3 15 4 16 5 14 7 6 8 7 9 11 10 8 11 10 12 12 13
REMARK SMILES IDX 9 14 96 15 13 16 91 17 5 18 4 19 2 20 1 21 3 22 92 23 93 24
REMARK SMILES IDX 94 25 95 26 20 27 21 28 22 29 23 30 24 32 25 33 26 34 90 35
REMARK SMILES IDX 27 36 89 37 28 38 29 39 30 40 83 41 31 42 88 43 82 44 84 45
REMARK SMILES IDX 32 46 87 47 81 48 80 49 33 51 67 52 46 53 66 54 47 55 50 56
REMARK SMILES IDX 65 57 85 58 48 59 49 60 64 62 86 63 51 64 34 65 35 66 44 67
REMARK SMILES IDX 36 68 37 69 43 70 45 71 38 72 39 73 40 74 41 75 42 76 68 77
REMARK SMILES IDX 69 78 78 79 70 80 71 81 77 82 79 83 72 84 73 85 74 86 75 87
REMARK SMILES IDX 76 88 52 89 53 90 62 91 54 92 55 93 61 94 63 95 56 96 57 97
REMARK SMILES IDX 58 98 59 99 60 100
REMARK H PARENT 17 6 22 31 84 50 50 61
REMARK Flexibility Score: inf
ROOT
ATOM      1  C   UNL     1       1.440  -2.594   9.268  1.00  0.00     0.023 C 
ENDROOT
BRANCH   1   2
ATOM      2  C   UNL     1       2.249  -3.037   8.051  1.00  0.00     0.116 C 
BRANCH   2   3
ATOM      3  N   UNL     1       1.566  -4.061   7.280  1.00  0.00    -0.352 N 
ATOM      4  C   UNL     1       0.854  -4.124   6.131  1.00  0.00     0.251 C 
ATOM      5  O   UNL     1       0.449  -5.249   5.820  1.00  0.00    -0.270 OA
ATOM      6  H   UNL     1       1.642  -4.945   7.706  1.00  0.00     0.163 HD
BRANCH   4   7
ATOM      7  C   UNL     1       0.534  -2.962   5.247  1.00  0.00     0.067 C 
ATOM      8  C   UNL     1      -1.401  -0.007   1.627  1.00  0.00     0.030 A 
ATOM      9  C   UNL     1      -0.662   0.220   2.797  1.00  0.00     0.063 A 
ATOM     10  C   UNL     1      -1.834  -1.316   1.354  1.00  0.00     0.055 A 
ATOM     11  C   UNL     1      -0.301  -0.838   3.629  1.00  0.00     0.129 A 
ATOM     12  C   UNL     1      -1.475  -2.375   2.201  1.00  0.00     0.033 A 
ATOM     13  Cl  UNL     1      -2.864  -1.702   0.019  1.00  0.00    -0.083 Cl
ATOM     14  C   UNL     1      -0.699  -2.139   3.339  1.00  0.00     0.019 A 
ATOM     15  O   UNL     1       0.416  -0.516   4.744  1.00  0.00    -0.475 OA
ATOM     16  C   UNL     1      -0.344  -3.212   4.257  1.00  0.00     0.025 C 
ATOM     17  C   UNL     1       1.154  -1.599   5.380  1.00  0.00     0.314 C 
BRANCH   8  18
ATOM     18  S   UNL     1      -1.746   1.441   0.634  1.00  0.00    -0.124 SA
BRANCH  18  19
ATOM     19  C   UNL     1      -0.901   1.050  -0.944  1.00  0.00     0.078 C 
BRANCH  19  20
ATOM     20  C   UNL     1       0.628   1.235  -0.953  1.00  0.00    -0.007 C 
ATOM     21  C   UNL     1       1.378   0.131  -0.204  1.00  0.00     0.008 C 
ATOM     22  C   UNL     1       1.115   1.260  -2.408  1.00  0.00     0.008 C 
ENDBRANCH  19  20
ENDBRANCH  18  19
ENDBRANCH   8  18
BRANCH  17  23
ATOM     23  C   UNL     1       2.614  -1.562   4.889  1.00  0.00     0.429 C 
ATOM     24  F   UNL     1       3.226  -0.426   5.307  1.00  0.00    -0.167 F 
ATOM     25  F   UNL     1       3.351  -2.593   5.361  1.00  0.00    -0.167 F 
ATOM     26  F   UNL     1       2.706  -1.597   3.539  1.00  0.00    -0.167 F 
ENDBRANCH  17  23
ENDBRANCH   4   7
ENDBRANCH   2   3
ENDBRANCH   1   2
BRANCH   1  27
ATOM     27  C   UNL     1       1.606  -3.492  10.496  1.00  0.00     0.023 C 
BRANCH  27  28
ATOM     28  C   UNL     1       3.043  -3.715  10.965  1.00  0.00     0.116 C 
BRANCH  28  29
ATOM     29  N   UNL     1       3.810  -2.490  11.148  1.00  0.00    -0.352 N 
ATOM     30  C   UNL     1       4.835  -2.251  12.036  1.00  0.00     0.251 C 
ATOM     31  H   UNL     1       3.564  -1.737  10.563  1.00  0.00     0.163 HD
ATOM     32  O   UNL     1       5.341  -1.135  12.114  1.00  0.00    -0.269 OA
BRANCH  30  33
ATOM     33  C   UNL     1       5.277  -3.341  12.930  1.00  0.00     0.039 A 
ATOM     34  C   UNL     1       5.556  -4.607  12.412  1.00  0.00     0.014 A 
ATOM     35  C   UNL     1       5.328  -3.112  14.307  1.00  0.00     0.014 A 
ATOM     36  C   UNL     1       5.708  -5.681  13.280  1.00  0.00     0.010 A 
ATOM     37  C   UNL     1       5.561  -4.181  15.176  1.00  0.00     0.010 A 
ATOM     38  C   UNL     1       5.693  -5.484  14.671  1.00  0.00    -0.014 A 
BRANCH  38  39
ATOM     39  C   UNL     1       5.783  -6.664  15.570  1.00  0.00     0.031 A 
ATOM     40  C   UNL     1       4.617  -7.057  16.440  1.00  0.00     0.074 A 
ATOM     41  C   UNL     1       6.891  -7.428  15.540  1.00  0.00     0.049 A 
ATOM     42  N   UNL     1       4.503  -8.078  17.251  1.00  0.00    -0.248 NA
ATOM     43  C   UNL     1       3.425  -6.194  16.399  1.00  0.00     0.031 C 
ATOM     44  C   UNL     1       8.079  -7.155  14.728  1.00  0.00     0.029 A 
ATOM     45  N   UNL     1       7.189  -8.604  16.178  1.00  0.00    -0.354 N 
ATOM     46  C   UNL     1       3.242  -7.972  17.827  1.00  0.00     0.074 A 
ATOM     47  C   UNL     1       2.635  -6.772  17.294  1.00  0.00     0.031 C 
ATOM     48  C   UNL     1       8.949  -8.166  14.868  1.00  0.00     0.029 A 
ATOM     49  C   UNL     1       8.408  -9.129  15.822  1.00  0.00     0.049 A 
ATOM     50  H   UNL     1       6.587  -9.032  16.830  1.00  0.00     0.167 HD
ATOM     51  C   UNL     1       2.641  -8.805  18.710  1.00  0.00     0.037 A 
ATOM     52  C   UNL     1       9.026 -10.257  16.220  1.00  0.00     0.037 A 
ATOM     53  C   UNL     1       3.236 -10.015  19.215  1.00  0.00     0.049 A 
ATOM     54  C   UNL     1       8.349 -11.151  17.218  1.00  0.00     0.074 A 
ATOM     55  C   UNL     1       2.698 -10.935  20.098  1.00  0.00     0.029 A 
ATOM     56  N   UNL     1       4.498 -10.479  18.875  1.00  0.00    -0.354 N 
ATOM     57  N   UNL     1       7.161 -11.026  17.759  1.00  0.00    -0.248 NA
ATOM     58  C   UNL     1       9.101 -12.328  17.674  1.00  0.00     0.031 C 
ATOM     59  C   UNL     1       3.647 -11.939  20.317  1.00  0.00     0.029 A 
ATOM     60  C   UNL     1       4.763 -11.663  19.544  1.00  0.00     0.049 A 
ATOM     61  H   UNL     1       5.115 -10.033  18.251  1.00  0.00     0.167 HD
ATOM     62  C   UNL     1       7.021 -12.108  18.619  1.00  0.00     0.074 A 
ATOM     63  C   UNL     1       8.238 -12.889  18.510  1.00  0.00     0.031 C 
ATOM     64  C   UNL     1       5.982 -12.422  19.430  1.00  0.00     0.037 A 
BRANCH  51  65
ATOM     65  C   UNL     1       1.266  -8.440  19.194  1.00  0.00     0.058 A 
ATOM     66  C   UNL     1       0.134  -8.601  18.381  1.00  0.00     0.135 A 
ATOM     67  C   UNL     1       1.071  -7.976  20.506  1.00  0.00     0.135 A 
ATOM     68  F   UNL     1       0.266  -9.024  17.114  1.00  0.00    -0.206 F 
ATOM     69  C   UNL     1      -1.143  -8.299  18.846  1.00  0.00     0.059 A 
ATOM     70  C   UNL     1      -0.199  -7.688  20.998  1.00  0.00     0.059 A 
ATOM     71  F   UNL     1       2.122  -7.804  21.324  1.00  0.00    -0.206 F 
ATOM     72  C   UNL     1      -1.299  -7.843  20.156  1.00  0.00     0.060 A 
BRANCH  72  73
ATOM     73  S   UNL     1      -2.963  -7.465  20.745  1.00  0.00     0.124 S 
ATOM     74  O   UNL     1      -3.247  -6.221  20.036  1.00  0.00    -0.237 OA
ATOM     75  O   UNL     1      -3.723  -8.632  20.306  1.00  0.00    -0.237 OA
ATOM     76  O   UNL     1      -2.793  -7.339  22.189  1.00  0.00    -0.744 OA
ENDBRANCH  72  73
ENDBRANCH  51  65
BRANCH  52  77
ATOM     77  C   UNL     1      10.360 -10.596  15.663  1.00  0.00     0.058 A 
ATOM     78  C   UNL     1      10.510 -11.641  14.741  1.00  0.00     0.135 A 
ATOM     79  C   UNL     1      11.499  -9.851  16.003  1.00  0.00     0.135 A 
ATOM     80  F   UNL     1       9.450 -12.385  14.391  1.00  0.00    -0.206 F 
ATOM     81  C   UNL     1      11.744 -11.935  14.172  1.00  0.00     0.059 A 
ATOM     82  C   UNL     1      12.739 -10.111  15.431  1.00  0.00     0.059 A 
ATOM     83  F   UNL     1      11.401  -8.831  16.871  1.00  0.00    -0.206 F 
ATOM     84  C   UNL     1      12.852 -11.159  14.518  1.00  0.00     0.060 A 
BRANCH  84  85
ATOM     85  S   UNL     1      14.434 -11.497  13.716  1.00  0.00     0.124 S 
ATOM     86  O   UNL     1      14.857 -12.712  14.402  1.00  0.00    -0.237 OA
ATOM     87  O   UNL     1      14.042 -11.655  12.318  1.00  0.00    -0.237 OA
ATOM     88  O   UNL     1      15.219 -10.301  14.006  1.00  0.00    -0.744 OA
ENDBRANCH  84  85
ENDBRANCH  52  77
BRANCH  64  89
ATOM     89  C   UNL     1       6.112 -13.659  20.270  1.00  0.00     0.058 A 
ATOM     90  C   UNL     1       6.898 -13.668  21.432  1.00  0.00     0.135 A 
ATOM     91  C   UNL     1       5.390 -14.819  19.952  1.00  0.00     0.135 A 
ATOM     92  F   UNL     1       7.613 -12.584  21.772  1.00  0.00    -0.206 F 
ATOM     93  C   UNL     1       6.971 -14.790  22.248  1.00  0.00     0.059 A 
ATOM     94  C   UNL     1       5.433 -15.948  20.765  1.00  0.00     0.059 A 
ATOM     95  F   UNL     1       4.619 -14.856  18.854  1.00  0.00    -0.206 F 
ATOM     96  C   UNL     1       6.230 -15.925  21.909  1.00  0.00     0.060 A 
BRANCH  96  97
ATOM     97  S   UNL     1       6.292 -17.357  23.006  1.00  0.00     0.124 S 
ATOM     98  O   UNL     1       7.615 -17.896  22.712  1.00  0.00    -0.237 OA
ATOM     99  O   UNL     1       6.134 -16.748  24.324  1.00  0.00    -0.237 OA
ATOM    100  O   UNL     1       5.167 -18.174  22.562  1.00  0.00    -0.744 OA
ENDBRANCH  96  97
ENDBRANCH  64  89
ENDBRANCH  38  39
ENDBRANCH  30  33
ENDBRANCH  28  29
ENDBRANCH  27  28
ENDBRANCH   1  27
TORSDOF 18
