REMARK SMILES O=C1C[C@H](c2cn[nH]c2C(=O)NCCCCNC(=O)c2ccc(-c3c4nc(c(-c5c(F)cc(S(=O)(=O)[O-])cc5F)c5ccc([nH]5)c(-c5c(F)cc(S(=O)(=O)[O-])cc5F)c5nc(c(-c6c(F)cc(S(=O)(=O)[O-])cc6F)c6ccc3[nH]6)C=C5)C=C4)cc2)c2c(-c3cccs3)n[nH]c2N1
REMARK SMILES IDX 15 1 14 2 13 3 12 4 10 5 11 6 9 8 5 9 6 10 7 11 8 12 4 14
REMARK SMILES IDX 1 15 2 16 3 17 96 18 95 19 86 21 94 22 87 23 93 24 88 26
REMARK SMILES IDX 89 27 92 28 90 29 91 30 16 31 17 32 18 33 19 35 20 36 21 37
REMARK SMILES IDX 85 38 22 39 84 40 23 41 24 42 25 43 78 44 26 45 83 46 77 47
REMARK SMILES IDX 79 48 27 49 82 50 76 51 75 52 28 54 62 55 41 56 61 57 42 58
REMARK SMILES IDX 45 59 60 60 80 61 43 62 44 63 59 65 81 66 46 67 29 68 30 69
REMARK SMILES IDX 39 70 31 71 32 72 38 73 40 74 33 75 34 76 35 77 36 78 37 79
REMARK SMILES IDX 63 80 64 81 73 82 65 83 66 84 72 85 74 86 67 87 68 88 69 89
REMARK SMILES IDX 70 90 71 91 47 92 48 93 57 94 49 95 50 96 56 97 58 98 51 99
REMARK SMILES IDX 52 100 53 101 54 102 55 103
REMARK H PARENT 12 7 8 13 96 20 94 25 17 34 79 53 45 64
REMARK Flexibility Score: inf
ROOT
ATOM      1  C   UNL     1       4.029  -3.693   1.335  1.00  0.00     0.023 C 
ENDROOT
BRANCH   1   2
ATOM      2  C   UNL     1       3.643  -2.277   0.898  1.00  0.00     0.023 C 
BRANCH   2   3
ATOM      3  C   UNL     1       4.953  -1.168   0.438  1.00  0.00     0.116 C 
BRANCH   3   4
ATOM      4  N   UNL     1       5.515  -0.552  -1.578  1.00  0.00    -0.351 N 
ATOM      5  C   UNL     1       5.570   0.274  -2.723  1.00  0.00     0.269 C 
ATOM      6  O   UNL     1       6.187  -0.189  -3.686  1.00  0.00    -0.268 OA
ATOM      7  H   UNL     1       6.068  -1.314  -1.865  1.00  0.00     0.163 HD
BRANCH   5   8
ATOM      8  C   UNL     1       5.006   1.602  -2.796  1.00  0.00     0.126 A 
ATOM      9  C   UNL     1       4.344   2.381  -1.862  1.00  0.00     0.011 A 
ATOM     10  C   UNL     1       4.126   3.612  -2.508  1.00  0.00     0.140 A 
ATOM     11  N   UNL     1       4.570   3.611  -3.767  1.00  0.00    -0.183 NA
ATOM     12  N   UNL     1       5.125   2.392  -3.905  1.00  0.00    -0.273 N 
ATOM     13  H   UNL     1       5.575   2.097  -4.730  1.00  0.00     0.190 HD
BRANCH   9  14
ATOM     14  C   UNL     1       4.008   1.948  -0.481  1.00  0.00     0.069 C 
ATOM     15  O   UNL     1       0.497   0.447  -0.598  1.00  0.00    -0.275 OA
ATOM     16  C   UNL     1       1.722   0.511  -0.752  1.00  0.00     0.226 C 
ATOM     17  C   UNL     1       2.483   1.782  -0.271  1.00  0.00     0.114 C 
ATOM     18  N   UNL     1       2.361  -0.592  -1.263  1.00  0.00    -0.311 N 
ATOM     19  C   UNL     1       3.696  -0.707  -1.025  1.00  0.00     0.132 A 
ATOM     20  H   UNL     1       1.873  -1.272  -1.781  1.00  0.00     0.171 HD
ATOM     21  C   UNL     1       4.624   0.627  -0.342  1.00  0.00     0.031 A 
ATOM     22  N   UNL     1       4.827  -2.172  -1.174  1.00  0.00    -0.262 N 
ATOM     23  C   UNL     1       6.448   0.001  -0.054  1.00  0.00     0.108 A 
ATOM     24  N   UNL     1       6.547  -1.692  -0.557  1.00  0.00    -0.173 NA
ATOM     25  H   UNL     1       4.571  -3.058  -1.519  1.00  0.00     0.192 HD
BRANCH  23  26
ATOM     26  C   UNL     1       7.581   0.961   0.085  1.00  0.00     0.055 A 
ATOM     27  C   UNL     1       8.674   0.985  -0.750  1.00  0.00     0.022 A 
ATOM     28  S   UNL     1       7.568   2.264   1.181  1.00  0.00    -0.142 S 
ATOM     29  C   UNL     1       9.492   2.132  -0.511  1.00  0.00     0.012 A 
ATOM     30  C   UNL     1       9.039   2.878   0.556  1.00  0.00     0.065 A 
ENDBRANCH  23  26
ENDBRANCH   9  14
ENDBRANCH   5   8
ENDBRANCH   3   4
ENDBRANCH   2   3
ENDBRANCH   1   2
BRANCH   1  31
ATOM     31  C   UNL     1       5.109  -3.749   2.386  1.00  0.00     0.116 C 
BRANCH  31  32
ATOM     32  N   UNL     1       4.704  -3.034   3.591  1.00  0.00    -0.352 N 
ATOM     33  C   UNL     1       5.348  -3.110   4.806  1.00  0.00     0.251 C 
ATOM     34  H   UNL     1       3.911  -2.454   3.531  1.00  0.00     0.163 HD
ATOM     35  O   UNL     1       4.747  -2.956   5.861  1.00  0.00    -0.269 OA
BRANCH  33  36
ATOM     36  C   UNL     1       6.809  -3.277   4.752  1.00  0.00     0.039 A 
ATOM     37  C   UNL     1       7.507  -4.175   5.554  1.00  0.00     0.014 A 
ATOM     38  C   UNL     1       7.460  -2.530   3.768  1.00  0.00     0.014 A 
ATOM     39  C   UNL     1       8.892  -4.260   5.387  1.00  0.00     0.010 A 
ATOM     40  C   UNL     1       8.766  -2.793   3.465  1.00  0.00     0.010 A 
ATOM     41  C   UNL     1       9.524  -3.528   4.356  1.00  0.00    -0.014 A 
BRANCH  41  42
ATOM     42  C   UNL     1      10.910  -3.752   3.939  1.00  0.00     0.031 A 
ATOM     43  C   UNL     1      11.045  -5.175   3.519  1.00  0.00     0.074 A 
ATOM     44  C   UNL     1      11.848  -2.769   3.803  1.00  0.00     0.049 A 
ATOM     45  N   UNL     1      11.472  -6.125   4.283  1.00  0.00    -0.248 NA
ATOM     46  C   UNL     1      10.331  -5.694   2.330  1.00  0.00     0.031 C 
ATOM     47  C   UNL     1      11.716  -1.323   4.044  1.00  0.00     0.029 A 
ATOM     48  N   UNL     1      13.162  -2.850   3.382  1.00  0.00    -0.354 N 
ATOM     49  C   UNL     1      11.475  -7.262   3.490  1.00  0.00     0.074 A 
ATOM     50  C   UNL     1      10.506  -7.015   2.464  1.00  0.00     0.031 C 
ATOM     51  C   UNL     1      12.788  -0.654   3.542  1.00  0.00     0.029 A 
ATOM     52  C   UNL     1      13.769  -1.606   3.052  1.00  0.00     0.049 A 
ATOM     53  H   UNL     1      13.642  -3.707   3.315  1.00  0.00     0.167 HD
ATOM     54  C   UNL     1      12.548  -8.099   3.553  1.00  0.00     0.037 A 
ATOM     55  C   UNL     1      15.006  -1.402   2.480  1.00  0.00     0.037 A 
ATOM     56  C   UNL     1      13.352  -7.757   4.708  1.00  0.00     0.049 A 
ATOM     57  C   UNL     1      15.794  -2.640   2.743  1.00  0.00     0.074 A 
ATOM     58  C   UNL     1      13.113  -7.676   6.066  1.00  0.00     0.029 A 
ATOM     59  N   UNL     1      14.446  -6.967   4.451  1.00  0.00    -0.354 N 
ATOM     60  N   UNL     1      16.162  -2.986   3.949  1.00  0.00    -0.248 NA
ATOM     61  C   UNL     1      15.598  -3.732   1.799  1.00  0.00     0.031 C 
ATOM     62  C   UNL     1      13.793  -6.498   6.489  1.00  0.00     0.029 A 
ATOM     63  C   UNL     1      14.558  -6.016   5.428  1.00  0.00     0.049 A 
ATOM     64  H   UNL     1      15.054  -7.069   3.683  1.00  0.00     0.167 HD
ATOM     65  C   UNL     1      15.737  -4.302   4.060  1.00  0.00     0.074 A 
ATOM     66  C   UNL     1      15.412  -4.714   2.688  1.00  0.00     0.031 C 
ATOM     67  C   UNL     1      15.344  -4.815   5.265  1.00  0.00     0.037 A 
BRANCH  54  68
ATOM     68  C   UNL     1      13.149  -8.854   2.389  1.00  0.00     0.058 A 
ATOM     69  C   UNL     1      14.247  -9.704   2.650  1.00  0.00     0.135 A 
ATOM     70  C   UNL     1      12.907  -8.582   1.025  1.00  0.00     0.135 A 
ATOM     71  F   UNL     1      14.576 -10.029   3.910  1.00  0.00    -0.206 F 
ATOM     72  C   UNL     1      15.080 -10.186   1.644  1.00  0.00     0.059 A 
ATOM     73  C   UNL     1      13.700  -9.093   0.000  1.00  0.00     0.059 A 
ATOM     74  F   UNL     1      11.940  -7.754   0.616  1.00  0.00    -0.206 F 
ATOM     75  C   UNL     1      14.796  -9.877   0.320  1.00  0.00     0.060 A 
BRANCH  75  76
ATOM     76  S   UNL     1      15.860 -10.538  -0.972  1.00  0.00     0.124 S 
ATOM     77  O   UNL     1      17.118  -9.852  -0.702  1.00  0.00    -0.237 OA
ATOM     78  O   UNL     1      15.832 -11.966  -0.672  1.00  0.00    -0.237 OA
ATOM     79  O   UNL     1      15.177 -10.149  -2.202  1.00  0.00    -0.744 OA
ENDBRANCH  75  76
ENDBRANCH  54  68
BRANCH  55  80
ATOM     80  C   UNL     1      15.473  -0.396   1.454  1.00  0.00     0.058 A 
ATOM     81  C   UNL     1      16.819  -0.276   1.014  1.00  0.00     0.135 A 
ATOM     82  C   UNL     1      14.531   0.260   0.645  1.00  0.00     0.135 A 
ATOM     83  F   UNL     1      17.811  -0.865   1.701  1.00  0.00    -0.206 F 
ATOM     84  C   UNL     1      17.184   0.394  -0.178  1.00  0.00     0.059 A 
ATOM     85  C   UNL     1      14.868   0.923  -0.541  1.00  0.00     0.059 A 
ATOM     86  F   UNL     1      13.225   0.196   0.932  1.00  0.00    -0.206 F 
ATOM     87  C   UNL     1      16.189   0.965  -0.969  1.00  0.00     0.060 A 
BRANCH  87  88
ATOM     88  S   UNL     1      16.571   1.644  -2.613  1.00  0.00     0.124 S 
ATOM     89  O   UNL     1      17.343   2.837  -2.287  1.00  0.00    -0.237 OA
ATOM     90  O   UNL     1      17.314   0.556  -3.240  1.00  0.00    -0.237 OA
ATOM     91  O   UNL     1      15.251   1.898  -3.186  1.00  0.00    -0.744 OA
ENDBRANCH  87  88
ENDBRANCH  55  80
BRANCH  67  92
ATOM     92  C   UNL     1      15.638  -4.040   6.524  1.00  0.00     0.058 A 
ATOM     93  C   UNL     1      15.111  -2.778   6.858  1.00  0.00     0.135 A 
ATOM     94  C   UNL     1      16.374  -4.705   7.515  1.00  0.00     0.135 A 
ATOM     95  F   UNL     1      14.288  -2.131   6.021  1.00  0.00    -0.206 F 
ATOM     96  C   UNL     1      15.369  -2.179   8.096  1.00  0.00     0.059 A 
ATOM     97  C   UNL     1      16.611  -4.147   8.763  1.00  0.00     0.059 A 
ATOM     98  F   UNL     1      16.832  -5.947   7.291  1.00  0.00    -0.206 F 
ATOM     99  C   UNL     1      16.135  -2.869   9.037  1.00  0.00     0.060 A 
BRANCH  99 100
ATOM    100  S   UNL     1      16.509  -2.101  10.627  1.00  0.00     0.124 S 
ATOM    101  O   UNL     1      17.398  -1.013  10.237  1.00  0.00    -0.237 OA
ATOM    102  O   UNL     1      15.188  -1.703  11.106  1.00  0.00    -0.237 OA
ATOM    103  O   UNL     1      17.140  -3.179  11.386  1.00  0.00    -0.744 OA
ENDBRANCH  99 100
ENDBRANCH  67  92
ENDBRANCH  41  42
ENDBRANCH  33  36
ENDBRANCH  31  32
ENDBRANCH   1  31
TORSDOF 16
