REMARK SMILES CN(c1ccc(C(=O)NCCCCNC(=O)c2ccc(-c3c4nc(c(-c5c(F)cc(S(=O)(=O)[O-])cc5F)c5ccc([nH]5)c(-c5c(F)cc(S(=O)(=O)[O-])cc5F)c5nc(c(-c6c(F)cc(S(=O)(=O)[O-])cc6F)c6ccc3[nH]6)C=C5)C=C4)cc2)cc1)S(C)(=O)=O
REMARK SMILES IDX 12 1 11 2 10 3 9 4 7 5 8 6 6 8 3 9 4 10 84 11 5 12 83 13
REMARK SMILES IDX 2 14 1 15 85 16 86 17 87 18 88 19 13 20 14 21 15 22 16 24
REMARK SMILES IDX 17 25 18 26 82 27 19 28 81 29 20 30 21 31 22 32 75 33 23 34
REMARK SMILES IDX 80 35 74 36 76 37 24 38 79 39 73 40 72 41 25 43 59 44 38 45
REMARK SMILES IDX 58 46 39 47 42 48 57 49 77 50 40 51 41 52 56 54 78 55 43 56
REMARK SMILES IDX 26 57 27 58 36 59 28 60 29 61 35 62 37 63 30 64 31 65 32 66
REMARK SMILES IDX 33 67 34 68 60 69 61 70 70 71 62 72 63 73 69 74 71 75 64 76
REMARK SMILES IDX 65 77 66 78 67 79 68 80 44 81 45 82 54 83 46 84 47 85 53 86
REMARK SMILES IDX 55 87 48 88 49 89 50 90 51 91 52 92
REMARK H PARENT 9 7 14 23 76 42 42 53
REMARK Flexibility Score: inf
ROOT
ATOM      1  C   UNL     1      -6.754  -3.305   2.708  1.00  0.00     0.023 C 
ENDROOT
BRANCH   1   2
ATOM      2  C   UNL     1      -5.441  -2.644   2.280  1.00  0.00     0.023 C 
BRANCH   2   3
ATOM      3  C   UNL     1      -4.191  -3.348   2.811  1.00  0.00     0.116 C 
BRANCH   3   4
ATOM      4  N   UNL     1      -3.926  -4.543   2.038  1.00  0.00    -0.352 N 
ATOM      5  C   UNL     1      -3.078  -4.788   0.990  1.00  0.00     0.251 C 
ATOM      6  O   UNL     1      -3.063  -5.927   0.522  1.00  0.00    -0.269 OA
ATOM      7  H   UNL     1      -4.453  -5.326   2.318  1.00  0.00     0.163 HD
BRANCH   5   8
ATOM      8  C   UNL     1      -2.136  -3.770   0.441  1.00  0.00     0.039 A 
ATOM      9  C   UNL     1      -0.176  -2.005  -0.552  1.00  0.00     0.051 A 
ATOM     10  C   UNL     1       0.024  -3.384  -0.612  1.00  0.00     0.028 A 
ATOM     11  C   UNL     1      -1.380  -1.509  -0.054  1.00  0.00     0.028 A 
ATOM     12  C   UNL     1      -0.947  -4.258  -0.118  1.00  0.00     0.016 A 
ATOM     13  C   UNL     1      -2.363  -2.390   0.419  1.00  0.00     0.016 A 
BRANCH   9  14
ATOM     14  N   UNL     1       0.866  -1.126  -0.981  1.00  0.00    -0.274 N 
ATOM     15  C   UNL     1       1.302  -0.044  -0.089  1.00  0.00     0.163 C 
BRANCH  14  16
ATOM     16  S   UNL     1       1.273  -1.047  -2.620  1.00  0.00     0.231 S 
ATOM     17  C   UNL     1       0.324   0.357  -3.165  1.00  0.00     0.183 C 
ATOM     18  O   UNL     1       2.671  -0.666  -2.710  1.00  0.00    -0.207 OA
ATOM     19  O   UNL     1       0.778  -2.211  -3.320  1.00  0.00    -0.207 OA
ENDBRANCH  14  16
ENDBRANCH   9  14
ENDBRANCH   5   8
ENDBRANCH   3   4
ENDBRANCH   2   3
ENDBRANCH   1   2
BRANCH   1  20
ATOM     20  C   UNL     1      -6.993  -3.326   4.212  1.00  0.00     0.116 C 
BRANCH  20  21
ATOM     21  N   UNL     1      -6.979  -1.999   4.809  1.00  0.00    -0.352 N 
ATOM     22  C   UNL     1      -7.732  -1.533   5.858  1.00  0.00     0.251 C 
ATOM     23  H   UNL     1      -6.350  -1.354   4.410  1.00  0.00     0.163 HD
ATOM     24  O   UNL     1      -7.704  -0.345   6.160  1.00  0.00    -0.269 OA
BRANCH  22  25
ATOM     25  C   UNL     1      -8.599  -2.478   6.589  1.00  0.00     0.039 A 
ATOM     26  C   UNL     1      -9.931  -2.135   6.826  1.00  0.00     0.014 A 
ATOM     27  C   UNL     1      -8.102  -3.718   7.001  1.00  0.00     0.014 A 
ATOM     28  C   UNL     1     -10.779  -3.059   7.437  1.00  0.00     0.010 A 
ATOM     29  C   UNL     1      -8.969  -4.667   7.528  1.00  0.00     0.010 A 
ATOM     30  C   UNL     1     -10.312  -4.341   7.770  1.00  0.00    -0.014 A 
BRANCH  30  31
ATOM     31  C   UNL     1     -11.201  -5.343   8.410  1.00  0.00     0.031 A 
ATOM     32  C   UNL     1     -10.882  -5.848   9.793  1.00  0.00     0.074 A 
ATOM     33  C   UNL     1     -12.259  -5.834   7.734  1.00  0.00     0.049 A 
ATOM     34  N   UNL     1     -11.498  -6.756  10.504  1.00  0.00    -0.248 NA
ATOM     35  C   UNL     1      -9.695  -5.277  10.451  1.00  0.00     0.031 C 
ATOM     36  C   UNL     1     -12.640  -5.460   6.370  1.00  0.00     0.029 A 
ATOM     37  N   UNL     1     -13.204  -6.758   8.099  1.00  0.00    -0.354 N 
ATOM     38  C   UNL     1     -10.769  -6.874  11.681  1.00  0.00     0.074 A 
ATOM     39  C   UNL     1      -9.627  -5.996  11.561  1.00  0.00     0.031 C 
ATOM     40  C   UNL     1     -13.754  -6.126   6.026  1.00  0.00     0.029 A 
ATOM     41  C   UNL     1     -14.144  -7.003   7.125  1.00  0.00     0.049 A 
ATOM     42  H   UNL     1     -13.210  -7.205   8.977  1.00  0.00     0.167 HD
ATOM     43  C   UNL     1     -11.042  -7.622  12.776  1.00  0.00     0.037 A 
ATOM     44  C   UNL     1     -15.198  -7.843   7.120  1.00  0.00     0.037 A 
ATOM     45  C   UNL     1     -12.194  -8.476  12.895  1.00  0.00     0.049 A 
ATOM     46  C   UNL     1     -15.481  -8.666   8.349  1.00  0.00     0.074 A 
ATOM     47  C   UNL     1     -12.590  -9.240  13.978  1.00  0.00     0.029 A 
ATOM     48  N   UNL     1     -13.137  -8.678  11.897  1.00  0.00    -0.354 N 
ATOM     49  N   UNL     1     -14.814  -8.722   9.478  1.00  0.00    -0.248 NA
ATOM     50  C   UNL     1     -16.668  -9.531   8.310  1.00  0.00     0.031 C 
ATOM     51  C   UNL     1     -13.743  -9.945  13.617  1.00  0.00     0.029 A 
ATOM     52  C   UNL     1     -14.104  -9.569  12.333  1.00  0.00     0.049 A 
ATOM     53  H   UNL     1     -13.120  -8.252  11.009  1.00  0.00     0.167 HD
ATOM     54  C   UNL     1     -15.524  -9.593  10.297  1.00  0.00     0.074 A 
ATOM     55  C   UNL     1     -16.674 -10.036   9.536  1.00  0.00     0.031 C 
ATOM     56  C   UNL     1     -15.253  -9.986  11.567  1.00  0.00     0.037 A 
BRANCH  43  57
ATOM     57  C   UNL     1     -10.078  -7.548  13.931  1.00  0.00     0.058 A 
ATOM     58  C   UNL     1      -9.934  -6.381  14.700  1.00  0.00     0.135 A 
ATOM     59  C   UNL     1      -9.309  -8.665  14.291  1.00  0.00     0.135 A 
ATOM     60  F   UNL     1     -10.631  -5.275  14.391  1.00  0.00    -0.206 F 
ATOM     61  C   UNL     1      -9.039  -6.314  15.763  1.00  0.00     0.059 A 
ATOM     62  C   UNL     1      -8.431  -8.632  15.372  1.00  0.00     0.059 A 
ATOM     63  F   UNL     1      -9.403  -9.806  13.591  1.00  0.00    -0.206 F 
ATOM     64  C   UNL     1      -8.293  -7.447  16.092  1.00  0.00     0.060 A 
BRANCH  64  65
ATOM     65  S   UNL     1      -7.141  -7.344  17.478  1.00  0.00     0.124 S 
ATOM     66  O   UNL     1      -6.095  -6.489  16.924  1.00  0.00    -0.237 OA
ATOM     67  O   UNL     1      -7.964  -6.743  18.522  1.00  0.00    -0.237 OA
ATOM     68  O   UNL     1      -6.758  -8.734  17.706  1.00  0.00    -0.744 OA
ENDBRANCH  64  65
ENDBRANCH  43  57
BRANCH  44  69
ATOM     69  C   UNL     1     -16.081  -7.924   5.925  1.00  0.00     0.058 A 
ATOM     70  C   UNL     1     -17.400  -7.447   5.965  1.00  0.00     0.135 A 
ATOM     71  C   UNL     1     -15.625  -8.475   4.717  1.00  0.00     0.135 A 
ATOM     72  F   UNL     1     -17.886  -6.915   7.097  1.00  0.00    -0.206 F 
ATOM     73  C   UNL     1     -18.243  -7.533   4.862  1.00  0.00     0.059 A 
ATOM     74  C   UNL     1     -16.439  -8.546   3.590  1.00  0.00     0.059 A 
ATOM     75  F   UNL     1     -14.366  -8.930   4.618  1.00  0.00    -0.206 F 
ATOM     76  C   UNL     1     -17.752  -8.083   3.676  1.00  0.00     0.060 A 
BRANCH  76  77
ATOM     77  S   UNL     1     -18.841  -8.152   2.238  1.00  0.00     0.124 S 
ATOM     78  O   UNL     1     -19.783  -9.193   2.633  1.00  0.00    -0.237 OA
ATOM     79  O   UNL     1     -19.372  -6.793   2.192  1.00  0.00    -0.237 OA
ATOM     80  O   UNL     1     -17.936  -8.501   1.147  1.00  0.00    -0.744 OA
ENDBRANCH  76  77
ENDBRANCH  44  69
BRANCH  56  81
ATOM     81  C   UNL     1     -16.249 -10.891  12.243  1.00  0.00     0.058 A 
ATOM     82  C   UNL     1     -16.419 -12.231  11.864  1.00  0.00     0.135 A 
ATOM     83  C   UNL     1     -17.014 -10.412  13.320  1.00  0.00     0.135 A 
ATOM     84  F   UNL     1     -15.715 -12.740  10.840  1.00  0.00    -0.206 F 
ATOM     85  C   UNL     1     -17.339 -13.055  12.505  1.00  0.00     0.059 A 
ATOM     86  C   UNL     1     -17.914 -11.228  13.997  1.00  0.00     0.059 A 
ATOM     87  F   UNL     1     -16.881  -9.142  13.733  1.00  0.00    -0.206 F 
ATOM     88  C   UNL     1     -18.082 -12.544  13.571  1.00  0.00     0.060 A 
BRANCH  88  89
ATOM     89  S   UNL     1     -19.259 -13.628  14.406  1.00  0.00     0.124 S 
ATOM     90  O   UNL     1     -20.322 -13.729  13.411  1.00  0.00    -0.237 OA
ATOM     91  O   UNL     1     -18.471 -14.839  14.618  1.00  0.00    -0.237 OA
ATOM     92  O   UNL     1     -19.602 -12.890  15.618  1.00  0.00    -0.744 OA
ENDBRANCH  88  89
ENDBRANCH  56  81
ENDBRANCH  30  31
ENDBRANCH  22  25
ENDBRANCH  20  21
ENDBRANCH   1  20
TORSDOF 16
