REMARK SMILES C[C@@H](Sc1ccccc1[N+](=O)[O-])[C@@H](C)C(=O)NCCCCNC(=O)c1ccc(-c2c3nc(c(-c4c(F)cc(S(=O)(=O)[O-])cc4F)c4ccc([nH]4)c(-c4c(F)cc(S(=O)(=O)[O-])cc4F)c4nc(c(-c5c(F)cc(S(=O)(=O)[O-])cc5F)c5ccc2[nH]5)C=C4)C=C3)cc1
REMARK SMILES IDX 19 1 18 2 17 3 15 4 16 5 13 7 14 8 2 9 1 10 3 11 4 12 5 13
REMARK SMILES IDX 9 14 6 15 8 16 7 17 10 18 11 19 12 20 20 21 21 22 22 23
REMARK SMILES IDX 23 24 24 26 25 27 26 28 90 29 27 30 89 31 28 32 29 33 30 34
REMARK SMILES IDX 83 35 31 36 88 37 82 38 84 39 32 40 87 41 81 42 80 43 33 45
REMARK SMILES IDX 67 46 46 47 66 48 47 49 50 50 65 51 85 52 48 53 49 54 64 56
REMARK SMILES IDX 86 57 51 58 34 59 35 60 44 61 36 62 37 63 43 64 45 65 38 66
REMARK SMILES IDX 39 67 40 68 41 69 42 70 68 71 69 72 78 73 70 74 71 75 77 76
REMARK SMILES IDX 79 77 72 78 73 79 74 80 75 81 76 82 52 83 53 84 62 85 54 86
REMARK SMILES IDX 55 87 61 88 63 89 56 90 57 91 58 92 59 93 60 94
REMARK H PARENT 17 6 22 25 84 44 50 55
REMARK Flexibility Score: inf
ROOT
ATOM      1  C   UNL     1       0.952   3.654   3.019  1.00  0.00     0.023 C 
ENDROOT
BRANCH   1   2
ATOM      2  C   UNL     1      -0.334   2.849   2.848  1.00  0.00     0.116 C 
BRANCH   2   3
ATOM      3  N   UNL     1      -1.142   3.339   1.748  1.00  0.00    -0.356 N 
ATOM      4  C   UNL     1      -1.486   2.780   0.557  1.00  0.00     0.223 C 
ATOM      5  O   UNL     1      -2.241   3.421  -0.179  1.00  0.00    -0.275 OA
ATOM      6  H   UNL     1      -1.509   4.241   1.890  1.00  0.00     0.163 HD
BRANCH   4   7
ATOM      7  C   UNL     1      -1.050   1.372   0.163  1.00  0.00     0.088 C 
ATOM      8  C   UNL     1      -1.774   0.360   1.063  1.00  0.00     0.019 C 
BRANCH   7   9
ATOM      9  C   UNL     1       0.489   1.210   0.045  1.00  0.00     0.061 C 
ATOM     10  C   UNL     1       0.919  -0.258   0.073  1.00  0.00     0.020 C 
BRANCH   9  11
ATOM     11  S   UNL     1       1.081   2.006  -1.536  1.00  0.00    -0.115 SA
BRANCH  11  12
ATOM     12  C   UNL     1       2.796   2.364  -1.150  1.00  0.00     0.085 A 
ATOM     13  C   UNL     1       3.697   1.288  -1.210  1.00  0.00     0.022 A 
ATOM     14  C   UNL     1       3.336   3.636  -0.897  1.00  0.00     0.282 A 
ATOM     15  C   UNL     1       5.061   1.455  -0.951  1.00  0.00     0.002 A 
ATOM     16  C   UNL     1       4.712   3.816  -0.651  1.00  0.00     0.087 A 
ATOM     17  C   UNL     1       5.569   2.718  -0.665  1.00  0.00     0.007 A 
BRANCH  14  18
ATOM     18  N   UNL     1       2.517   4.840  -0.908  1.00  0.00     0.063 N 
ATOM     19  O   UNL     1       2.957   5.808  -1.546  1.00  0.00    -0.258 OA
ATOM     20  O   UNL     1       1.484   4.845  -0.228  1.00  0.00    -0.258 OA
ENDBRANCH  14  18
ENDBRANCH  11  12
ENDBRANCH   9  11
ENDBRANCH   7   9
ENDBRANCH   4   7
ENDBRANCH   2   3
ENDBRANCH   1   2
BRANCH   1  21
ATOM     21  C   UNL     1       0.747   5.101   3.469  1.00  0.00     0.023 C 
BRANCH  21  22
ATOM     22  C   UNL     1      -0.028   5.272   4.771  1.00  0.00     0.116 C 
BRANCH  22  23
ATOM     23  N   UNL     1       0.568   4.550   5.887  1.00  0.00    -0.352 N 
ATOM     24  C   UNL     1       0.789   4.972   7.175  1.00  0.00     0.251 C 
ATOM     25  H   UNL     1       0.854   3.629   5.689  1.00  0.00     0.163 HD
ATOM     26  O   UNL     1       1.426   4.262   7.949  1.00  0.00    -0.269 OA
BRANCH  24  27
ATOM     27  C   UNL     1       0.290   6.293   7.612  1.00  0.00     0.039 A 
ATOM     28  C   UNL     1       1.154   7.143   8.307  1.00  0.00     0.014 A 
ATOM     29  C   UNL     1      -1.012   6.703   7.314  1.00  0.00     0.014 A 
ATOM     30  C   UNL     1       0.735   8.433   8.637  1.00  0.00     0.010 A 
ATOM     31  C   UNL     1      -1.403   8.013   7.580  1.00  0.00     0.010 A 
ATOM     32  C   UNL     1      -0.531   8.893   8.239  1.00  0.00    -0.014 A 
BRANCH  32  33
ATOM     33  C   UNL     1      -0.944  10.301   8.475  1.00  0.00     0.031 A 
ATOM     34  C   UNL     1      -2.110  10.614   9.371  1.00  0.00     0.074 A 
ATOM     35  C   UNL     1      -0.307  11.294   7.823  1.00  0.00     0.049 A 
ATOM     36  N   UNL     1      -2.639  11.776   9.660  1.00  0.00    -0.248 NA
ATOM     37  C   UNL     1      -2.788   9.472  10.004  1.00  0.00     0.031 C 
ATOM     38  C   UNL     1       0.795  11.112   6.875  1.00  0.00     0.029 A 
ATOM     39  N   UNL     1      -0.501  12.652   7.847  1.00  0.00    -0.354 N 
ATOM     40  C   UNL     1      -3.717  11.505  10.494  1.00  0.00     0.074 A 
ATOM     41  C   UNL     1      -3.798  10.066  10.624  1.00  0.00     0.031 C 
ATOM     42  C   UNL     1       1.194  12.313   6.428  1.00  0.00     0.029 A 
ATOM     43  C   UNL     1       0.357  13.348   7.028  1.00  0.00     0.049 A 
ATOM     44  H   UNL     1      -1.189  13.088   8.400  1.00  0.00     0.167 HD
ATOM     45  C   UNL     1      -4.550  12.376  11.113  1.00  0.00     0.037 A 
ATOM     46  C   UNL     1       0.457  14.668   6.783  1.00  0.00     0.037 A 
ATOM     47  C   UNL     1      -4.450  13.809  10.997  1.00  0.00     0.049 A 
ATOM     48  C   UNL     1      -0.466  15.618   7.495  1.00  0.00     0.074 A 
ATOM     49  C   UNL     1      -5.199  14.778  11.640  1.00  0.00     0.029 A 
ATOM     50  N   UNL     1      -3.550  14.477  10.179  1.00  0.00    -0.354 N 
ATOM     51  N   UNL     1      -1.428  15.349   8.345  1.00  0.00    -0.248 NA
ATOM     52  C   UNL     1      -0.284  17.050   7.223  1.00  0.00     0.031 C 
ATOM     53  C   UNL     1      -4.781  16.032  11.179  1.00  0.00     0.029 A 
ATOM     54  C   UNL     1      -3.740  15.846  10.284  1.00  0.00     0.049 A 
ATOM     55  H   UNL     1      -2.876  14.043   9.608  1.00  0.00     0.167 HD
ATOM     56  C   UNL     1      -1.954  16.579   8.725  1.00  0.00     0.074 A 
ATOM     57  C   UNL     1      -1.192  17.592   8.024  1.00  0.00     0.031 C 
ATOM     58  C   UNL     1      -2.975  16.844   9.577  1.00  0.00     0.037 A 
BRANCH  45  59
ATOM     59  C   UNL     1      -5.642  11.802  11.975  1.00  0.00     0.058 A 
ATOM     60  C   UNL     1      -5.360  11.166  13.195  1.00  0.00     0.135 A 
ATOM     61  C   UNL     1      -6.988  11.906  11.588  1.00  0.00     0.135 A 
ATOM     62  F   UNL     1      -4.090  11.026  13.607  1.00  0.00    -0.206 F 
ATOM     63  C   UNL     1      -6.370  10.624  13.984  1.00  0.00     0.059 A 
ATOM     64  C   UNL     1      -8.017  11.396  12.375  1.00  0.00     0.059 A 
ATOM     65  F   UNL     1      -7.315  12.505  10.432  1.00  0.00    -0.206 F 
ATOM     66  C   UNL     1      -7.695  10.741  13.563  1.00  0.00     0.060 A 
BRANCH  66  67
ATOM     67  S   UNL     1      -8.993  10.024  14.594  1.00  0.00     0.124 S 
ATOM     68  O   UNL     1      -8.815   8.599  14.335  1.00  0.00    -0.237 OA
ATOM     69  O   UNL     1      -8.617  10.477  15.930  1.00  0.00    -0.237 OA
ATOM     70  O   UNL     1     -10.217  10.612  14.057  1.00  0.00    -0.744 OA
ENDBRANCH  66  67
ENDBRANCH  45  59
BRANCH  46  71
ATOM     71  C   UNL     1       1.494  15.168   5.841  1.00  0.00     0.058 A 
ATOM     72  C   UNL     1       2.622  15.857   6.311  1.00  0.00     0.135 A 
ATOM     73  C   UNL     1       1.396  14.938   4.460  1.00  0.00     0.135 A 
ATOM     74  F   UNL     1       2.757  16.106   7.622  1.00  0.00    -0.206 F 
ATOM     75  C   UNL     1       3.612  16.309   5.445  1.00  0.00     0.059 A 
ATOM     76  C   UNL     1       2.385  15.359   3.577  1.00  0.00     0.059 A 
ATOM     77  F   UNL     1       0.345  14.268   3.963  1.00  0.00    -0.206 F 
ATOM     78  C   UNL     1       3.487  16.051   4.079  1.00  0.00     0.060 A 
BRANCH  78  79
ATOM     79  S   UNL     1       4.812  16.585   2.973  1.00  0.00     0.124 S 
ATOM     80  O   UNL     1       4.595  18.026   2.928  1.00  0.00    -0.237 OA
ATOM     81  O   UNL     1       6.005  16.141   3.688  1.00  0.00    -0.237 OA
ATOM     82  O   UNL     1       4.528  15.863   1.736  1.00  0.00    -0.744 OA
ENDBRANCH  78  79
ENDBRANCH  46  71
BRANCH  58  83
ATOM     83  C   UNL     1      -3.315  18.289   9.817  1.00  0.00     0.058 A 
ATOM     84  C   UNL     1      -3.958  19.067   8.841  1.00  0.00     0.135 A 
ATOM     85  C   UNL     1      -3.028  18.892  11.052  1.00  0.00     0.135 A 
ATOM     86  F   UNL     1      -4.249  18.541   7.641  1.00  0.00    -0.206 F 
ATOM     87  C   UNL     1      -4.281  20.401   9.072  1.00  0.00     0.059 A 
ATOM     88  C   UNL     1      -3.366  20.216  11.315  1.00  0.00     0.059 A 
ATOM     89  F   UNL     1      -2.423  18.190  12.023  1.00  0.00    -0.206 F 
ATOM     90  C   UNL     1      -3.980  20.967  10.313  1.00  0.00     0.060 A 
BRANCH  90  91
ATOM     91  S   UNL     1      -4.425  22.691  10.610  1.00  0.00     0.124 S 
ATOM     92  O   UNL     1      -3.405  23.394   9.838  1.00  0.00    -0.237 OA
ATOM     93  O   UNL     1      -5.782  22.761  10.078  1.00  0.00    -0.237 OA
ATOM     94  O   UNL     1      -4.319  22.824  12.059  1.00  0.00    -0.744 OA
ENDBRANCH  90  91
ENDBRANCH  58  83
ENDBRANCH  32  33
ENDBRANCH  24  27
ENDBRANCH  22  23
ENDBRANCH  21  22
ENDBRANCH   1  21
TORSDOF 18
