REMARK SMILES CC(C)Cc1s/c(=N/C(=O)CCC(=O)Nc2nccs2)[nH]c1C(=O)NCCCCNC(=O)c1ccc(-c2c3nc(c(-c4c(F)cc(S(=O)(=O)[O-])cc4F)c4ccc([nH]4)c(-c4c(F)cc(S(=O)(=O)[O-])cc4F)c4nc(c(-c5c(F)cc(S(=O)(=O)[O-])cc5F)c5ccc2[nH]5)C=C4)C=C3)cc1
REMARK SMILES IDX 26 1 25 2 23 3 24 4 22 6 5 7 6 8 7 9 21 10 8 11 4 13 2 14
REMARK SMILES IDX 1 15 3 16 9 17 10 18 11 19 12 20 13 21 14 22 15 23 16 25
REMARK SMILES IDX 17 26 20 27 18 28 19 29 27 30 28 31 29 32 30 33 31 34 32 36
REMARK SMILES IDX 33 37 34 38 98 39 35 40 97 41 36 42 37 43 38 44 91 45 39 46
REMARK SMILES IDX 96 47 90 48 92 49 40 50 95 51 89 52 88 53 41 55 75 56 54 57
REMARK SMILES IDX 74 58 55 59 58 60 73 61 93 62 56 63 57 64 72 66 94 67 59 68
REMARK SMILES IDX 42 69 43 70 52 71 44 72 45 73 51 74 53 75 46 76 47 77 48 78
REMARK SMILES IDX 49 79 50 80 76 81 77 82 86 83 78 84 79 85 85 86 87 87 80 88
REMARK SMILES IDX 81 89 82 90 83 91 84 92 60 93 61 94 70 95 62 96 63 97 69 98
REMARK SMILES IDX 71 99 64 100 65 101 66 102 67 103 68 104
REMARK H PARENT 25 5 21 12 15 24 30 35 92 54 58 65
REMARK Flexibility Score: inf
ROOT
ATOM      1  C   UNL     1      -2.633  -1.612  -0.911  1.00  0.00     0.116 C 
ENDROOT
BRANCH   1   2
ATOM      2  N   UNL     1      -2.692  -1.204   0.474  1.00  0.00    -0.351 N 
ATOM      3  C   UNL     1      -2.459  -0.034   1.108  1.00  0.00     0.268 C 
ATOM      4  O   UNL     1      -2.576  -0.045   2.341  1.00  0.00    -0.268 OA
ATOM      5  H   UNL     1      -2.958  -1.931   1.083  1.00  0.00     0.163 HD
BRANCH   3   6
ATOM      6  C   UNL     1      -2.193   1.300   0.459  1.00  0.00     0.119 A 
ATOM      7  C   UNL     1      -1.441   1.736  -0.584  1.00  0.00     0.038 A 
ATOM      8  S   UNL     1      -1.508   3.525  -0.697  1.00  0.00    -0.101 S 
ATOM      9  C   UNL     1      -2.469   3.633   0.787  1.00  0.00     0.190 A 
ATOM     10  N   UNL     1      -2.742   2.362   1.179  1.00  0.00    -0.326 N 
ATOM     11  N   UNL     1      -2.709   4.790   1.283  1.00  0.00    -0.185 NA
ATOM     12  H   UNL     1      -3.319   2.192   1.959  1.00  0.00     0.169 HD
BRANCH   7  13
ATOM     13  C   UNL     1      -0.610   1.061  -1.633  1.00  0.00     0.052 C 
BRANCH  13  14
ATOM     14  C   UNL     1       0.921   1.032  -1.439  1.00  0.00    -0.012 C 
ATOM     15  C   UNL     1       1.372   0.384  -0.131  1.00  0.00     0.008 C 
ATOM     16  C   UNL     1       1.566   0.280  -2.611  1.00  0.00     0.008 C 
ENDBRANCH  13  14
ENDBRANCH   7  13
BRANCH  11  17
ATOM     17  C   UNL     1      -3.365   4.836   2.486  1.00  0.00     0.248 C 
ATOM     18  O   UNL     1      -4.055   3.933   2.954  1.00  0.00    -0.273 OA
BRANCH  17  19
ATOM     19  C   UNL     1      -3.212   6.166   3.197  1.00  0.00     0.112 C 
BRANCH  19  20
ATOM     20  C   UNL     1      -1.855   6.380   3.850  1.00  0.00     0.110 C 
BRANCH  20  21
ATOM     21  C   UNL     1      -0.703   6.411   2.863  1.00  0.00     0.226 C 
ATOM     22  O   UNL     1      -0.468   7.445   2.228  1.00  0.00    -0.275 OA
ATOM     23  N   UNL     1       0.111   5.338   2.671  1.00  0.00    -0.302 N 
ATOM     24  H   UNL     1       0.897   5.481   2.096  1.00  0.00     0.172 HD
BRANCH  23  25
ATOM     25  C   UNL     1      -0.046   4.088   3.188  1.00  0.00     0.189 A 
ATOM     26  N   UNL     1      -1.002   3.626   3.950  1.00  0.00    -0.229 NA
ATOM     27  S   UNL     1       1.147   2.970   2.706  1.00  0.00    -0.105 S 
ATOM     28  C   UNL     1      -0.835   2.266   4.122  1.00  0.00     0.125 A 
ATOM     29  C   UNL     1       0.277   1.727   3.510  1.00  0.00     0.088 A 
ENDBRANCH  23  25
ENDBRANCH  20  21
ENDBRANCH  19  20
ENDBRANCH  17  19
ENDBRANCH  11  17
ENDBRANCH   3   6
ENDBRANCH   1   2
BRANCH   1  30
ATOM     30  C   UNL     1      -1.254  -2.212  -1.202  1.00  0.00     0.023 C 
BRANCH  30  31
ATOM     31  C   UNL     1      -1.148  -3.725  -1.081  1.00  0.00     0.023 C 
BRANCH  31  32
ATOM     32  C   UNL     1      -1.827  -4.465  -2.221  1.00  0.00     0.116 C 
BRANCH  32  33
ATOM     33  N   UNL     1      -1.302  -4.126  -3.539  1.00  0.00    -0.352 N 
ATOM     34  C   UNL     1      -1.272  -4.911  -4.668  1.00  0.00     0.251 C 
ATOM     35  H   UNL     1      -0.921  -3.223  -3.633  1.00  0.00     0.163 HD
ATOM     36  O   UNL     1      -0.737  -4.508  -5.695  1.00  0.00    -0.269 OA
BRANCH  34  37
ATOM     37  C   UNL     1      -1.844  -6.268  -4.593  1.00  0.00     0.039 A 
ATOM     38  C   UNL     1      -1.065  -7.351  -5.001  1.00  0.00     0.014 A 
ATOM     39  C   UNL     1      -3.101  -6.468  -4.020  1.00  0.00     0.014 A 
ATOM     40  C   UNL     1      -1.519  -8.648  -4.761  1.00  0.00     0.010 A 
ATOM     41  C   UNL     1      -3.504  -7.753  -3.691  1.00  0.00     0.010 A 
ATOM     42  C   UNL     1      -2.722  -8.855  -4.066  1.00  0.00    -0.014 A 
BRANCH  42  43
ATOM     43  C   UNL     1      -3.209 -10.218  -3.745  1.00  0.00     0.031 A 
ATOM     44  C   UNL     1      -4.523 -10.681  -4.312  1.00  0.00     0.074 A 
ATOM     45  C   UNL     1      -2.520 -10.995  -2.887  1.00  0.00     0.049 A 
ATOM     46  N   UNL     1      -5.189 -11.778  -4.066  1.00  0.00    -0.248 NA
ATOM     47  C   UNL     1      -5.201  -9.764  -5.246  1.00  0.00     0.031 C 
ATOM     48  C   UNL     1      -1.267 -10.626  -2.222  1.00  0.00     0.029 A 
ATOM     49  N   UNL     1      -2.783 -12.256  -2.417  1.00  0.00    -0.354 N 
ATOM     50  C   UNL     1      -6.373 -11.668  -4.785  1.00  0.00     0.074 A 
ATOM     51  C   UNL     1      -6.362 -10.373  -5.428  1.00  0.00     0.031 C 
ATOM     52  C   UNL     1      -0.858 -11.649  -1.454  1.00  0.00     0.029 A 
ATOM     53  C   UNL     1      -1.832 -12.732  -1.546  1.00  0.00     0.049 A 
ATOM     54  H   UNL     1      -3.579 -12.773  -2.679  1.00  0.00     0.167 HD
ATOM     55  C   UNL     1      -7.365 -12.577  -4.923  1.00  0.00     0.037 A 
ATOM     56  C   UNL     1      -1.757 -13.910  -0.898  1.00  0.00     0.037 A 
ATOM     57  C   UNL     1      -7.337 -13.886  -4.331  1.00  0.00     0.049 A 
ATOM     58  C   UNL     1      -2.842 -14.930  -1.117  1.00  0.00     0.074 A 
ATOM     59  C   UNL     1      -8.256 -14.911  -4.461  1.00  0.00     0.029 A 
ATOM     60  N   UNL     1      -6.323 -14.355  -3.508  1.00  0.00    -0.354 N 
ATOM     61  N   UNL     1      -3.931 -14.831  -1.843  1.00  0.00    -0.248 NA
ATOM     62  C   UNL     1      -2.685 -16.224  -0.440  1.00  0.00     0.031 C 
ATOM     63  C   UNL     1      -7.806 -15.996  -3.700  1.00  0.00     0.029 A 
ATOM     64  C   UNL     1      -6.593 -15.657  -3.123  1.00  0.00     0.049 A 
ATOM     65  H   UNL     1      -5.529 -13.839  -3.239  1.00  0.00     0.167 HD
ATOM     66  C   UNL     1      -4.574 -16.058  -1.732  1.00  0.00     0.074 A 
ATOM     67  C   UNL     1      -3.748 -16.886  -0.876  1.00  0.00     0.031 C 
ATOM     68  C   UNL     1      -5.742 -16.464  -2.286  1.00  0.00     0.037 A 
BRANCH  55  69
ATOM     69  C   UNL     1      -8.547 -12.187  -5.765  1.00  0.00     0.058 A 
ATOM     70  C   UNL     1      -8.444 -12.057  -7.160  1.00  0.00     0.135 A 
ATOM     71  C   UNL     1      -9.797 -11.944  -5.176  1.00  0.00     0.135 A 
ATOM     72  F   UNL     1      -7.265 -12.257  -7.772  1.00  0.00    -0.206 F 
ATOM     73  C   UNL     1      -9.527 -11.663  -7.936  1.00  0.00     0.059 A 
ATOM     74  C   UNL     1     -10.903 -11.576  -5.937  1.00  0.00     0.059 A 
ATOM     75  F   UNL     1      -9.951 -12.051  -3.846  1.00  0.00    -0.206 F 
ATOM     76  C   UNL     1     -10.753 -11.420  -7.314  1.00  0.00     0.060 A 
BRANCH  76  77
ATOM     77  S   UNL     1     -12.150 -10.903  -8.333  1.00  0.00     0.124 S 
ATOM     78  O   UNL     1     -11.822  -9.503  -8.585  1.00  0.00    -0.237 OA
ATOM     79  O   UNL     1     -12.047 -11.794  -9.484  1.00  0.00    -0.237 OA
ATOM     80  O   UNL     1     -13.303 -11.132  -7.468  1.00  0.00    -0.744 OA
ENDBRANCH  76  77
ENDBRANCH  55  69
BRANCH  56  81
ATOM     81  C   UNL     1      -0.595 -14.207  -0.021  1.00  0.00     0.058 A 
ATOM     82  C   UNL     1       0.391 -15.120  -0.422  1.00  0.00     0.135 A 
ATOM     83  C   UNL     1      -0.438 -13.581   1.225  1.00  0.00     0.135 A 
ATOM     84  F   UNL     1       0.283 -15.746  -1.604  1.00  0.00    -0.206 F 
ATOM     85  C   UNL     1       1.482 -15.419   0.387  1.00  0.00     0.059 A 
ATOM     86  C   UNL     1       0.656 -13.847   2.043  1.00  0.00     0.059 A 
ATOM     87  F   UNL     1      -1.344 -12.684   1.645  1.00  0.00    -0.206 F 
ATOM     88  C   UNL     1       1.606 -14.776   1.620  1.00  0.00     0.060 A 
BRANCH  88  89
ATOM     89  S   UNL     1       3.049 -15.135   2.645  1.00  0.00     0.124 S 
ATOM     90  O   UNL     1       2.706 -16.445   3.185  1.00  0.00    -0.237 OA
ATOM     91  O   UNL     1       4.134 -15.110   1.669  1.00  0.00    -0.237 OA
ATOM     92  O   UNL     1       3.057 -14.036   3.606  1.00  0.00    -0.744 OA
ENDBRANCH  88  89
ENDBRANCH  56  81
BRANCH  68  93
ATOM     93  C   UNL     1      -6.177 -17.876  -2.019  1.00  0.00     0.058 A 
ATOM     94  C   UNL     1      -6.721 -18.255  -0.784  1.00  0.00     0.135 A 
ATOM     95  C   UNL     1      -6.103 -18.843  -3.034  1.00  0.00     0.135 A 
ATOM     96  F   UNL     1      -6.808 -17.367   0.218  1.00  0.00    -0.206 F 
ATOM     97  C   UNL     1      -7.163 -19.554  -0.557  1.00  0.00     0.059 A 
ATOM     98  C   UNL     1      -6.559 -20.141  -2.837  1.00  0.00     0.059 A 
ATOM     99  F   UNL     1      -5.598 -18.524  -4.237  1.00  0.00    -0.206 F 
ATOM    100  C   UNL     1      -7.079 -20.489  -1.590  1.00  0.00     0.060 A 
BRANCH 100 101
ATOM    101  S   UNL     1      -7.694 -22.161  -1.299  1.00  0.00     0.124 S 
ATOM    102  O   UNL     1      -6.612 -22.737  -0.508  1.00  0.00    -0.237 OA
ATOM    103  O   UNL     1      -8.943 -21.917  -0.584  1.00  0.00    -0.237 OA
ATOM    104  O   UNL     1      -7.847 -22.705  -2.645  1.00  0.00    -0.744 OA
ENDBRANCH 100 101
ENDBRANCH  68  93
ENDBRANCH  42  43
ENDBRANCH  34  37
ENDBRANCH  32  33
ENDBRANCH  31  32
ENDBRANCH  30  31
ENDBRANCH   1  30
TORSDOF 21
