REMARK SMILES CCc1ccc(C(=O)NC[C@@H](CC(C)C)C(=O)NCCCCNC(=O)c2ccc(-c3c4nc(c(-c5c(F)cc(S(=O)(=O)[O-])cc5F)c5ccc([nH]5)c(-c5c(F)cc(S(=O)(=O)[O-])cc5F)c5nc(c(-c6c(F)cc(S(=O)(=O)[O-])cc6F)c6ccc3[nH]6)C=C5)C=C4)cc2)s1
REMARK SMILES IDX 20 1 19 2 18 3 16 4 17 5 11 7 10 8 9 9 7 10 8 11 6 13 3 14
REMARK SMILES IDX 4 15 92 16 5 17 2 18 1 19 12 20 13 21 14 22 15 23 21 24
REMARK SMILES IDX 22 25 23 26 24 27 25 29 26 30 27 31 91 32 28 33 90 34 29 35
REMARK SMILES IDX 30 36 31 37 84 38 32 39 89 40 83 41 85 42 33 43 88 44 82 45
REMARK SMILES IDX 81 46 34 48 68 49 47 50 67 51 48 52 51 53 66 54 86 55 49 56
REMARK SMILES IDX 50 57 65 59 87 60 52 61 35 62 36 63 45 64 37 65 38 66 44 67
REMARK SMILES IDX 46 68 39 69 40 70 41 71 42 72 43 73 69 74 70 75 79 76 71 77
REMARK SMILES IDX 72 78 78 79 80 80 73 81 74 82 75 83 76 84 77 85 53 86 54 87
REMARK SMILES IDX 63 88 55 89 56 90 62 91 64 92 57 93 58 94 59 95 60 96 61 97
REMARK H PARENT 18 6 9 12 23 28 85 47 51 58
REMARK Flexibility Score: inf
ROOT
ATOM      1  C   UNL     1       6.600  -4.733   3.786  1.00  0.00     0.023 C 
ENDROOT
BRANCH   1   2
ATOM      2  C   UNL     1       5.480  -5.530   4.436  1.00  0.00     0.116 C 
BRANCH   2   3
ATOM      3  N   UNL     1       4.453  -4.693   5.024  1.00  0.00    -0.356 N 
ATOM      4  C   UNL     1       3.120  -4.898   5.193  1.00  0.00     0.224 C 
ATOM      5  O   UNL     1       2.513  -4.080   5.891  1.00  0.00    -0.275 OA
ATOM      6  H   UNL     1       4.777  -3.826   5.359  1.00  0.00     0.163 HD
BRANCH   4   7
ATOM      7  C   UNL     1       2.365  -6.074   4.579  1.00  0.00     0.098 C 
BRANCH   7   8
ATOM      8  C   UNL     1       2.722  -6.346   3.111  1.00  0.00     0.129 C 
BRANCH   8   9
ATOM      9  N   UNL     1       1.569  -6.669   2.289  1.00  0.00    -0.351 N 
ATOM     10  C   UNL     1       0.917  -5.962   1.304  1.00  0.00     0.261 C 
ATOM     11  O   UNL     1       0.128  -6.638   0.635  1.00  0.00    -0.268 OA
ATOM     12  H   UNL     1       1.184  -7.557   2.469  1.00  0.00     0.163 HD
BRANCH  10  13
ATOM     13  C   UNL     1       1.135  -4.534   1.083  1.00  0.00     0.092 A 
ATOM     14  C   UNL     1       0.953  -2.258   0.047  1.00  0.00     0.005 A 
ATOM     15  C   UNL     1       1.647  -2.245   1.237  1.00  0.00     0.016 A 
ATOM     16  S   UNL     1       0.499  -3.856  -0.373  1.00  0.00    -0.135 S 
ATOM     17  C   UNL     1       1.722  -3.539   1.842  1.00  0.00     0.026 A 
BRANCH  14  18
ATOM     18  C   UNL     1       0.550  -1.130  -0.862  1.00  0.00     0.043 C 
ATOM     19  C   UNL     1       0.927   0.252  -0.348  1.00  0.00     0.010 C 
ENDBRANCH  14  18
ENDBRANCH  10  13
ENDBRANCH   8   9
ENDBRANCH   7   8
BRANCH   7  20
ATOM     20  C   UNL     1       2.319  -7.337   5.478  1.00  0.00     0.018 C 
BRANCH  20  21
ATOM     21  C   UNL     1       3.662  -7.992   5.866  1.00  0.00    -0.017 C 
ATOM     22  C   UNL     1       4.224  -7.421   7.174  1.00  0.00     0.007 C 
ATOM     23  C   UNL     1       3.514  -9.508   6.029  1.00  0.00     0.007 C 
ENDBRANCH  20  21
ENDBRANCH   7  20
ENDBRANCH   4   7
ENDBRANCH   2   3
ENDBRANCH   1   2
BRANCH   1  24
ATOM     24  C   UNL     1       7.534  -4.037   4.772  1.00  0.00     0.023 C 
BRANCH  24  25
ATOM     25  C   UNL     1       8.074  -4.920   5.892  1.00  0.00     0.116 C 
BRANCH  25  26
ATOM     26  N   UNL     1       8.725  -6.130   5.407  1.00  0.00    -0.352 N 
ATOM     27  C   UNL     1       9.986  -6.609   5.682  1.00  0.00     0.251 C 
ATOM     28  H   UNL     1       8.187  -6.683   4.796  1.00  0.00     0.163 HD
ATOM     29  O   UNL     1      10.418  -7.580   5.081  1.00  0.00    -0.269 OA
BRANCH  27  30
ATOM     30  C   UNL     1      10.816  -5.913   6.688  1.00  0.00     0.039 A 
ATOM     31  C   UNL     1      12.140  -5.603   6.375  1.00  0.00     0.014 A 
ATOM     32  C   UNL     1      10.272  -5.538   7.918  1.00  0.00     0.014 A 
ATOM     33  C   UNL     1      12.902  -4.861   7.280  1.00  0.00     0.010 A 
ATOM     34  C   UNL     1      10.998  -4.716   8.770  1.00  0.00     0.010 A 
ATOM     35  C   UNL     1      12.328  -4.386   8.472  1.00  0.00    -0.014 A 
BRANCH  35  36
ATOM     36  C   UNL     1      13.118  -3.581   9.438  1.00  0.00     0.031 A 
ATOM     37  C   UNL     1      13.357  -4.105  10.829  1.00  0.00     0.074 A 
ATOM     38  C   UNL     1      13.573  -2.363   9.087  1.00  0.00     0.049 A 
ATOM     39  N   UNL     1      13.987  -3.542  11.828  1.00  0.00    -0.248 NA
ATOM     40  C   UNL     1      12.780  -5.420  11.150  1.00  0.00     0.031 C 
ATOM     41  C   UNL     1      13.346  -1.714   7.794  1.00  0.00     0.029 A 
ATOM     42  N   UNL     1      14.316  -1.449   9.791  1.00  0.00    -0.354 N 
ATOM     43  C   UNL     1      13.872  -4.429  12.893  1.00  0.00     0.074 A 
ATOM     44  C   UNL     1      13.043  -5.524  12.443  1.00  0.00     0.031 C 
ATOM     45  C   UNL     1      13.955  -0.517   7.790  1.00  0.00     0.029 A 
ATOM     46  C   UNL     1      14.591  -0.301   9.087  1.00  0.00     0.049 A 
ATOM     47  H   UNL     1      14.622  -1.601  10.714  1.00  0.00     0.167 HD
ATOM     48  C   UNL     1      14.436  -4.359  14.123  1.00  0.00     0.037 A 
ATOM     49  C   UNL     1      15.278   0.801   9.445  1.00  0.00     0.037 A 
ATOM     50  C   UNL     1      15.273  -3.273  14.559  1.00  0.00     0.049 A 
ATOM     51  C   UNL     1      15.920   0.853  10.805  1.00  0.00     0.074 A 
ATOM     52  C   UNL     1      15.929  -3.120  15.767  1.00  0.00     0.029 A 
ATOM     53  N   UNL     1      15.569  -2.149  13.799  1.00  0.00    -0.354 N 
ATOM     54  N   UNL     1      15.859  -0.025  11.778  1.00  0.00    -0.248 NA
ATOM     55  C   UNL     1      16.740   2.033  11.108  1.00  0.00     0.031 C 
ATOM     56  C   UNL     1      16.588  -1.885  15.753  1.00  0.00     0.029 A 
ATOM     57  C   UNL     1      16.389  -1.294  14.515  1.00  0.00     0.049 A 
ATOM     58  H   UNL     1      15.243  -1.984  12.884  1.00  0.00     0.167 HD
ATOM     59  C   UNL     1      16.655   0.482  12.800  1.00  0.00     0.074 A 
ATOM     60  C   UNL     1      17.195   1.738  12.319  1.00  0.00     0.031 C 
ATOM     61  C   UNL     1      16.920  -0.046  14.021  1.00  0.00     0.037 A 
BRANCH  48  62
ATOM     62  C   UNL     1      14.160  -5.498  15.069  1.00  0.00     0.058 A 
ATOM     63  C   UNL     1      14.648  -6.794  14.824  1.00  0.00     0.135 A 
ATOM     64  C   UNL     1      13.383  -5.302  16.221  1.00  0.00     0.135 A 
ATOM     65  F   UNL     1      15.385  -7.044  13.730  1.00  0.00    -0.206 F 
ATOM     66  C   UNL     1      14.328  -7.863  15.654  1.00  0.00     0.059 A 
ATOM     67  C   UNL     1      13.080  -6.351  17.086  1.00  0.00     0.059 A 
ATOM     68  F   UNL     1      12.893  -4.086  16.509  1.00  0.00    -0.206 F 
ATOM     69  C   UNL     1      13.535  -7.632  16.779  1.00  0.00     0.060 A 
BRANCH  69  70
ATOM     70  S   UNL     1      13.096  -9.036  17.825  1.00  0.00     0.124 S 
ATOM     71  O   UNL     1      12.105  -9.716  16.996  1.00  0.00    -0.237 OA
ATOM     72  O   UNL     1      14.373  -9.725  17.977  1.00  0.00    -0.237 OA
ATOM     73  O   UNL     1      12.577  -8.408  19.036  1.00  0.00    -0.744 OA
ENDBRANCH  69  70
ENDBRANCH  48  62
BRANCH  49  74
ATOM     74  C   UNL     1      15.422   1.922   8.477  1.00  0.00     0.058 A 
ATOM     75  C   UNL     1      16.645   2.179   7.840  1.00  0.00     0.135 A 
ATOM     76  C   UNL     1      14.324   2.725   8.131  1.00  0.00     0.135 A 
ATOM     77  F   UNL     1      17.726   1.442   8.140  1.00  0.00    -0.206 F 
ATOM     78  C   UNL     1      16.777   3.194   6.897  1.00  0.00     0.059 A 
ATOM     79  C   UNL     1      14.425   3.729   7.174  1.00  0.00     0.059 A 
ATOM     80  F   UNL     1      13.127   2.507   8.699  1.00  0.00    -0.206 F 
ATOM     81  C   UNL     1      15.657   3.958   6.564  1.00  0.00     0.060 A 
BRANCH  81  82
ATOM     82  S   UNL     1      15.819   5.217   5.278  1.00  0.00     0.124 S 
ATOM     83  O   UNL     1      16.600   6.240   5.963  1.00  0.00    -0.237 OA
ATOM     84  O   UNL     1      16.511   4.485   4.221  1.00  0.00    -0.237 OA
ATOM     85  O   UNL     1      14.434   5.572   4.981  1.00  0.00    -0.744 OA
ENDBRANCH  81  82
ENDBRANCH  49  74
BRANCH  61  86
ATOM     86  C   UNL     1      17.867   0.711  14.912  1.00  0.00     0.058 A 
ATOM     87  C   UNL     1      17.508   1.924  15.520  1.00  0.00     0.135 A 
ATOM     88  C   UNL     1      19.143   0.192  15.189  1.00  0.00     0.135 A 
ATOM     89  F   UNL     1      16.303   2.466  15.287  1.00  0.00    -0.206 F 
ATOM     90  C   UNL     1      18.393   2.612  16.345  1.00  0.00     0.059 A 
ATOM     91  C   UNL     1      20.031   0.847  16.035  1.00  0.00     0.059 A 
ATOM     92  F   UNL     1      19.533  -0.972  14.645  1.00  0.00    -0.206 F 
ATOM     93  C   UNL     1      19.653   2.067  16.595  1.00  0.00     0.060 A 
BRANCH  93  94
ATOM     94  S   UNL     1      20.787   2.963  17.676  1.00  0.00     0.124 S 
ATOM     95  O   UNL     1      21.207   4.062  16.813  1.00  0.00    -0.237 OA
ATOM     96  O   UNL     1      19.927   3.329  18.797  1.00  0.00    -0.237 OA
ATOM     97  O   UNL     1      21.818   1.975  17.981  1.00  0.00    -0.744 OA
ENDBRANCH  93  94
ENDBRANCH  61  86
ENDBRANCH  35  36
ENDBRANCH  27  30
ENDBRANCH  25  26
ENDBRANCH  24  25
ENDBRANCH   1  24
TORSDOF 20
