REMARK SMILES C[C@@H](C(=O)NCCCCNC(=O)c1ccc(-c2c3nc(c(-c4c(F)cc(S(=O)(=O)[O-])cc4F)c4ccc([nH]4)c(-c4c(F)cc(S(=O)(=O)[O-])cc4F)c4nc(c(-c5c(F)cc(S(=O)(=O)[O-])cc5F)c5ccc2[nH]5)C=C4)C=C3)cc1)[C@H](C)[N@@H+](C)[C@@H](C)C1CC1
REMARK SMILES IDX 7 1 6 2 5 3 3 4 4 5 2 7 1 8 79 9 80 10 81 11 82 12 83 14
REMARK SMILES IDX 84 15 85 16 86 17 87 18 8 19 9 20 10 21 11 22 12 24 13 25
REMARK SMILES IDX 14 26 78 27 15 28 77 29 16 30 17 31 18 32 71 33 19 34 76 35
REMARK SMILES IDX 70 36 72 37 20 38 75 39 69 40 68 41 21 43 55 44 34 45 54 46
REMARK SMILES IDX 35 47 38 48 53 49 73 50 36 51 37 52 52 54 74 55 39 56 22 57
REMARK SMILES IDX 23 58 32 59 24 60 25 61 31 62 33 63 26 64 27 65 28 66 29 67
REMARK SMILES IDX 30 68 56 69 57 70 66 71 58 72 59 73 65 74 67 75 60 76 61 77
REMARK SMILES IDX 62 78 63 79 64 80 40 81 41 82 50 83 42 84 43 85 49 86 51 87
REMARK SMILES IDX 44 88 45 89 46 90 47 91 48 92
REMARK H PARENT 5 6 81 13 10 23 72 42 38 53
REMARK Flexibility Score: inf
ROOT
ATOM      1  C   UNL     1      -2.385   4.403   0.006  1.00  0.00     0.023 C 
ENDROOT
BRANCH   1   2
ATOM      2  C   UNL     1      -2.025   3.577  -1.228  1.00  0.00     0.116 C 
BRANCH   2   3
ATOM      3  N   UNL     1      -0.719   2.965  -1.087  1.00  0.00    -0.356 N 
ATOM      4  C   UNL     1      -0.368   1.670  -0.838  1.00  0.00     0.228 C 
ATOM      5  O   UNL     1       0.820   1.460  -0.601  1.00  0.00    -0.275 OA
ATOM      6  H   UNL     1       0.040   3.585  -1.188  1.00  0.00     0.163 HD
BRANCH   4   7
ATOM      7  C   UNL     1      -1.448   0.587  -0.806  1.00  0.00     0.133 C 
ATOM      8  C   UNL     1      -2.106   0.599   0.582  1.00  0.00     0.024 C 
BRANCH   7   9
ATOM      9  C   UNL     1      -0.991  -0.860  -1.177  1.00  0.00     0.193 C 
ATOM     10  C   UNL     1       0.387  -1.309  -0.662  1.00  0.00     0.076 C 
BRANCH   9  11
ATOM     11  N   UNL     1      -1.298  -1.357  -2.551  1.00  0.00    -0.332 N 
ATOM     12  C   UNL     1      -2.724  -1.707  -2.657  1.00  0.00     0.333 C 
ATOM     13  H   UNL     1      -0.668  -2.158  -2.590  1.00  0.00     0.348 HD
BRANCH  11  14
ATOM     14  C   UNL     1      -0.840  -0.645  -3.766  1.00  0.00     0.184 C 
ATOM     15  C   UNL     1      -1.414   0.752  -4.022  1.00  0.00     0.075 C 
BRANCH  14  16
ATOM     16  C   UNL     1       0.664  -0.656  -3.925  1.00  0.00     0.047 C 
ATOM     17  C   UNL     1       1.316  -1.556  -4.952  1.00  0.00     0.010 C 
ATOM     18  C   UNL     1       1.348  -0.069  -5.141  1.00  0.00     0.010 C 
ENDBRANCH  14  16
ENDBRANCH  11  14
ENDBRANCH   9  11
ENDBRANCH   7   9
ENDBRANCH   4   7
ENDBRANCH   2   3
ENDBRANCH   1   2
BRANCH   1  19
ATOM     19  C   UNL     1      -1.444   5.576   0.288  1.00  0.00     0.023 C 
BRANCH  19  20
ATOM     20  C   UNL     1      -1.305   6.579  -0.851  1.00  0.00     0.116 C 
BRANCH  20  21
ATOM     21  N   UNL     1      -2.575   7.186  -1.218  1.00  0.00    -0.352 N 
ATOM     22  C   UNL     1      -2.874   8.514  -1.418  1.00  0.00     0.251 C 
ATOM     23  H   UNL     1      -3.324   6.559  -1.340  1.00  0.00     0.163 HD
ATOM     24  O   UNL     1      -4.034   8.864  -1.570  1.00  0.00    -0.269 OA
BRANCH  22  25
ATOM     25  C   UNL     1      -1.781   9.512  -1.418  1.00  0.00     0.039 A 
ATOM     26  C   UNL     1      -1.935  10.681  -0.670  1.00  0.00     0.014 A 
ATOM     27  C   UNL     1      -0.603   9.284  -2.135  1.00  0.00     0.014 A 
ATOM     28  C   UNL     1      -0.880  11.593  -0.590  1.00  0.00     0.010 A 
ATOM     29  C   UNL     1       0.472  10.156  -1.994  1.00  0.00     0.010 A 
ATOM     30  C   UNL     1       0.345  11.320  -1.221  1.00  0.00    -0.014 A 
BRANCH  30  31
ATOM     31  C   UNL     1       1.506  12.236  -1.081  1.00  0.00     0.031 A 
ATOM     32  C   UNL     1       2.067  12.934  -2.290  1.00  0.00     0.074 A 
ATOM     33  C   UNL     1       2.096  12.385   0.122  1.00  0.00     0.049 A 
ATOM     34  N   UNL     1       3.116  13.709  -2.383  1.00  0.00    -0.248 NA
ATOM     35  C   UNL     1       1.373  12.708  -3.568  1.00  0.00     0.031 C 
ATOM     36  C   UNL     1       1.676  11.722   1.359  1.00  0.00     0.029 A 
ATOM     37  N   UNL     1       3.184  13.131   0.501  1.00  0.00    -0.354 N 
ATOM     38  C   UNL     1       3.217  14.052  -3.726  1.00  0.00     0.074 A 
ATOM     39  C   UNL     1       2.154  13.357  -4.420  1.00  0.00     0.031 C 
ATOM     40  C   UNL     1       2.483  12.108   2.361  1.00  0.00     0.029 A 
ATOM     41  C   UNL     1       3.500  13.012   1.834  1.00  0.00     0.049 A 
ATOM     42  H   UNL     1       3.691  13.699  -0.124  1.00  0.00     0.167 HD
ATOM     43  C   UNL     1       4.100  14.887  -4.324  1.00  0.00     0.037 A 
ATOM     44  C   UNL     1       4.501  13.562   2.550  1.00  0.00     0.037 A 
ATOM     45  C   UNL     1       5.140  15.595  -3.623  1.00  0.00     0.049 A 
ATOM     46  C   UNL     1       5.469  14.488   1.864  1.00  0.00     0.074 A 
ATOM     47  C   UNL     1       6.049  16.508  -4.127  1.00  0.00     0.029 A 
ATOM     48  N   UNL     1       5.411  15.468  -2.268  1.00  0.00    -0.354 N 
ATOM     49  N   UNL     1       5.510  14.851   0.604  1.00  0.00    -0.248 NA
ATOM     50  C   UNL     1       6.522  15.085   2.697  1.00  0.00     0.031 C 
ATOM     51  C   UNL     1       6.897  16.901  -3.087  1.00  0.00     0.029 A 
ATOM     52  C   UNL     1       6.484  16.272  -1.923  1.00  0.00     0.049 A 
ATOM     53  H   UNL     1       4.914  14.891  -1.644  1.00  0.00     0.167 HD
ATOM     54  C   UNL     1       6.572  15.742   0.500  1.00  0.00     0.074 A 
ATOM     55  C   UNL     1       7.142  15.870   1.825  1.00  0.00     0.031 C 
ATOM     56  C   UNL     1       7.033  16.398  -0.595  1.00  0.00     0.037 A 
BRANCH  43  57
ATOM     57  C   UNL     1       3.977  15.087  -5.810  1.00  0.00     0.058 A 
ATOM     58  C   UNL     1       2.898  15.790  -6.372  1.00  0.00     0.135 A 
ATOM     59  C   UNL     1       4.965  14.602  -6.681  1.00  0.00     0.135 A 
ATOM     60  F   UNL     1       1.917  16.263  -5.588  1.00  0.00    -0.206 F 
ATOM     61  C   UNL     1       2.789  15.978  -7.746  1.00  0.00     0.059 A 
ATOM     62  C   UNL     1       4.891  14.804  -8.056  1.00  0.00     0.059 A 
ATOM     63  F   UNL     1       6.018  13.923  -6.199  1.00  0.00    -0.206 F 
ATOM     64  C   UNL     1       3.791  15.481  -8.580  1.00  0.00     0.060 A 
BRANCH  64  65
ATOM     65  S   UNL     1       3.635  15.738 -10.360  1.00  0.00     0.124 S 
ATOM     66  O   UNL     1       2.567  14.802 -10.697  1.00  0.00    -0.237 OA
ATOM     67  O   UNL     1       3.286  17.153 -10.442  1.00  0.00    -0.237 OA
ATOM     68  O   UNL     1       4.958  15.392 -10.871  1.00  0.00    -0.744 OA
ENDBRANCH  64  65
ENDBRANCH  43  57
BRANCH  44  69
ATOM     69  C   UNL     1       4.623  13.269   4.003  1.00  0.00     0.058 A 
ATOM     70  C   UNL     1       4.348  14.255   4.963  1.00  0.00     0.135 A 
ATOM     71  C   UNL     1       5.004  11.999   4.462  1.00  0.00     0.135 A 
ATOM     72  F   UNL     1       3.985  15.486   4.573  1.00  0.00    -0.206 F 
ATOM     73  C   UNL     1       4.462  13.998   6.325  1.00  0.00     0.059 A 
ATOM     74  C   UNL     1       5.100  11.710   5.820  1.00  0.00     0.059 A 
ATOM     75  F   UNL     1       5.261  11.016   3.586  1.00  0.00    -0.206 F 
ATOM     76  C   UNL     1       4.837  12.721   6.744  1.00  0.00     0.060 A 
BRANCH  76  77
ATOM     77  S   UNL     1       4.936  12.386   8.516  1.00  0.00     0.124 S 
ATOM     78  O   UNL     1       6.154  13.099   8.882  1.00  0.00    -0.237 OA
ATOM     79  O   UNL     1       3.688  12.960   9.007  1.00  0.00    -0.237 OA
ATOM     80  O   UNL     1       5.014  10.929   8.578  1.00  0.00    -0.744 OA
ENDBRANCH  76  77
ENDBRANCH  44  69
BRANCH  56  81
ATOM     81  C   UNL     1       8.184  17.346  -0.404  1.00  0.00     0.058 A 
ATOM     82  C   UNL     1       9.490  16.889  -0.174  1.00  0.00     0.135 A 
ATOM     83  C   UNL     1       7.983  18.733  -0.512  1.00  0.00     0.135 A 
ATOM     84  F   UNL     1       9.735  15.574  -0.056  1.00  0.00    -0.206 F 
ATOM     85  C   UNL     1      10.555  17.773  -0.038  1.00  0.00     0.059 A 
ATOM     86  C   UNL     1       9.038  19.634  -0.407  1.00  0.00     0.059 A 
ATOM     87  F   UNL     1       6.754  19.223  -0.741  1.00  0.00    -0.206 F 
ATOM     88  C   UNL     1      10.319  19.145  -0.160  1.00  0.00     0.060 A 
BRANCH  88  89
ATOM     89  S   UNL     1      11.717  20.279  -0.022  1.00  0.00     0.124 S 
ATOM     90  O   UNL     1      11.983  20.245   1.412  1.00  0.00    -0.237 OA
ATOM     91  O   UNL     1      12.721  19.642  -0.869  1.00  0.00    -0.237 OA
ATOM     92  O   UNL     1      11.184  21.539  -0.533  1.00  0.00    -0.744 OA
ENDBRANCH  88  89
ENDBRANCH  56  81
ENDBRANCH  30  31
ENDBRANCH  22  25
ENDBRANCH  20  21
ENDBRANCH  19  20
ENDBRANCH   1  19
TORSDOF 18
