REMARK SMILES O=C(NCCCCNC(=O)[C@@H]1C=C[C@@H](NS(=O)(=O)c2ccc(F)c(F)c2F)C1)c1ccc(-c2c3nc(c(-c4c(F)cc(S(=O)(=O)[O-])cc4F)c4ccc([nH]4)c(-c4c(F)cc(S(=O)(=O)[O-])cc4F)c4nc(c(-c5c(F)cc(S(=O)(=O)[O-])cc5F)c5ccc2[nH]5)C=C4)C=C3)cc1
REMARK SMILES IDX 5 1 4 2 3 3 1 4 2 5 29 7 30 8 94 9 31 10 93 11 32 12 33 13
REMARK SMILES IDX 34 14 87 15 35 16 92 17 86 18 88 19 36 20 91 21 85 22 84 23
REMARK SMILES IDX 37 25 71 26 50 27 70 28 51 29 54 30 69 31 89 32 52 33 53 34
REMARK SMILES IDX 68 36 90 37 55 38 38 39 39 40 48 41 40 42 41 43 47 44 49 45
REMARK SMILES IDX 42 46 43 47 44 48 45 49 46 50 72 51 73 52 82 53 74 54 75 55
REMARK SMILES IDX 81 56 83 57 76 58 77 59 78 60 79 61 80 62 56 63 57 64 66 65
REMARK SMILES IDX 58 66 59 67 65 68 67 69 60 70 61 71 62 72 63 73 64 74 6 75
REMARK SMILES IDX 7 76 8 77 9 78 10 80 11 81 12 82 28 83 13 84 14 85 15 86
REMARK SMILES IDX 16 88 17 89 18 90 19 91 20 92 26 93 21 94 24 95 27 96 22 97
REMARK SMILES IDX 25 98 23 99
REMARK H PARENT 3 6 88 24 54 35 8 79 15 87
REMARK Flexibility Score: inf
ROOT
ATOM      1  C   UNL     1       1.910   7.309   1.758  1.00  0.00     0.023 C 
ENDROOT
BRANCH   1   2
ATOM      2  C   UNL     1       0.917   8.007   2.682  1.00  0.00     0.116 C 
BRANCH   2   3
ATOM      3  N   UNL     1       1.161   9.432   2.839  1.00  0.00    -0.352 N 
ATOM      4  O   UNL     1       0.554  11.591   3.119  1.00  0.00    -0.269 OA
ATOM      5  C   UNL     1       0.230  10.410   3.104  1.00  0.00     0.251 C 
ATOM      6  H   UNL     1       2.095   9.730   2.746  1.00  0.00     0.163 HD
BRANCH   5   7
ATOM      7  C   UNL     1      -1.170   9.999   3.326  1.00  0.00     0.039 A 
ATOM      8  C   UNL     1      -1.464   9.021   4.279  1.00  0.00     0.014 A 
ATOM      9  C   UNL     1      -2.177  10.543   2.526  1.00  0.00     0.014 A 
ATOM     10  C   UNL     1      -2.750   8.502   4.353  1.00  0.00     0.010 A 
ATOM     11  C   UNL     1      -3.484  10.068   2.651  1.00  0.00     0.010 A 
ATOM     12  C   UNL     1      -3.775   9.032   3.551  1.00  0.00    -0.014 A 
BRANCH  12  13
ATOM     13  C   UNL     1      -5.165   8.559   3.754  1.00  0.00     0.031 A 
ATOM     14  C   UNL     1      -5.892   7.779   2.696  1.00  0.00     0.074 A 
ATOM     15  C   UNL     1      -5.759   8.845   4.929  1.00  0.00     0.049 A 
ATOM     16  N   UNL     1      -7.112   7.309   2.722  1.00  0.00    -0.248 NA
ATOM     17  C   UNL     1      -5.167   7.495   1.448  1.00  0.00     0.031 C 
ATOM     18  C   UNL     1      -5.146   9.620   6.013  1.00  0.00     0.029 A 
ATOM     19  N   UNL     1      -6.999   8.523   5.413  1.00  0.00    -0.354 N 
ATOM     20  C   UNL     1      -7.313   6.694   1.492  1.00  0.00     0.074 A 
ATOM     21  C   UNL     1      -6.089   6.855   0.737  1.00  0.00     0.031 C 
ATOM     22  C   UNL     1      -6.001   9.690   7.043  1.00  0.00     0.029 A 
ATOM     23  C   UNL     1      -7.240   9.019   6.672  1.00  0.00     0.049 A 
ATOM     24  H   UNL     1      -7.653   7.987   4.909  1.00  0.00     0.167 HD
ATOM     25  C   UNL     1      -8.421   6.056   1.044  1.00  0.00     0.037 A 
ATOM     26  C   UNL     1      -8.348   8.970   7.433  1.00  0.00     0.037 A 
ATOM     27  C   UNL     1      -9.621   5.879   1.821  1.00  0.00     0.049 A 
ATOM     28  C   UNL     1      -9.559   8.263   6.903  1.00  0.00     0.074 A 
ATOM     29  C   UNL     1     -10.767   5.178   1.486  1.00  0.00     0.029 A 
ATOM     30  N   UNL     1      -9.838   6.414   3.083  1.00  0.00    -0.354 N 
ATOM     31  N   UNL     1      -9.710   7.639   5.759  1.00  0.00    -0.248 NA
ATOM     32  C   UNL     1     -10.753   8.262   7.757  1.00  0.00     0.031 C 
ATOM     33  C   UNL     1     -11.692   5.325   2.526  1.00  0.00     0.029 A 
ATOM     34  C   UNL     1     -11.109   6.087   3.525  1.00  0.00     0.049 A 
ATOM     35  H   UNL     1      -9.183   6.948   3.589  1.00  0.00     0.167 HD
ATOM     36  C   UNL     1     -11.018   7.176   5.753  1.00  0.00     0.074 A 
ATOM     37  C   UNL     1     -11.605   7.563   7.020  1.00  0.00     0.031 C 
ATOM     38  C   UNL     1     -11.678   6.498   4.782  1.00  0.00     0.037 A 
BRANCH  25  39
ATOM     39  C   UNL     1      -8.411   5.500  -0.352  1.00  0.00     0.058 A 
ATOM     40  C   UNL     1      -7.747   4.305  -0.666  1.00  0.00     0.135 A 
ATOM     41  C   UNL     1      -9.167   6.116  -1.364  1.00  0.00     0.135 A 
ATOM     42  F   UNL     1      -7.000   3.683   0.261  1.00  0.00    -0.206 F 
ATOM     43  C   UNL     1      -7.836   3.736  -1.933  1.00  0.00     0.059 A 
ATOM     44  C   UNL     1      -9.283   5.556  -2.634  1.00  0.00     0.059 A 
ATOM     45  F   UNL     1      -9.818   7.263  -1.116  1.00  0.00    -0.206 F 
ATOM     46  C   UNL     1      -8.611   4.366  -2.909  1.00  0.00     0.060 A 
BRANCH  46  47
ATOM     47  S   UNL     1      -8.757   3.589  -4.533  1.00  0.00     0.124 S 
ATOM     48  O   UNL     1      -7.442   3.862  -5.105  1.00  0.00    -0.237 OA
ATOM     49  O   UNL     1      -9.020   2.195  -4.190  1.00  0.00    -0.237 OA
ATOM     50  O   UNL     1      -9.871   4.300  -5.152  1.00  0.00    -0.744 OA
ENDBRANCH  46  47
ENDBRANCH  25  39
BRANCH  26  51
ATOM     51  C   UNL     1      -8.367   9.649   8.752  1.00  0.00     0.058 A 
ATOM     52  C   UNL     1      -8.386   8.916   9.946  1.00  0.00     0.135 A 
ATOM     53  C   UNL     1      -8.347  11.050   8.841  1.00  0.00     0.135 A 
ATOM     54  F   UNL     1      -8.406   7.575   9.910  1.00  0.00    -0.206 F 
ATOM     55  C   UNL     1      -8.401   9.548  11.185  1.00  0.00     0.059 A 
ATOM     56  C   UNL     1      -8.336  11.704  10.066  1.00  0.00     0.059 A 
ATOM     57  F   UNL     1      -8.307  11.794   7.724  1.00  0.00    -0.206 F 
ATOM     58  C   UNL     1      -8.378  10.943  11.234  1.00  0.00     0.060 A 
BRANCH  58  59
ATOM     59  S   UNL     1      -8.358  11.762  12.843  1.00  0.00     0.124 S 
ATOM     60  O   UNL     1      -9.765  11.701  13.217  1.00  0.00    -0.237 OA
ATOM     61  O   UNL     1      -7.455  10.912  13.614  1.00  0.00    -0.237 OA
ATOM     62  O   UNL     1      -7.840  13.091  12.532  1.00  0.00    -0.744 OA
ENDBRANCH  58  59
ENDBRANCH  26  51
BRANCH  38  63
ATOM     63  C   UNL     1     -13.109   6.147   5.057  1.00  0.00     0.058 A 
ATOM     64  C   UNL     1     -14.121   7.117   4.987  1.00  0.00     0.135 A 
ATOM     65  C   UNL     1     -13.477   4.829   5.369  1.00  0.00     0.135 A 
ATOM     66  F   UNL     1     -13.815   8.393   4.704  1.00  0.00    -0.206 F 
ATOM     67  C   UNL     1     -15.450   6.796   5.238  1.00  0.00     0.059 A 
ATOM     68  C   UNL     1     -14.803   4.482   5.603  1.00  0.00     0.059 A 
ATOM     69  F   UNL     1     -12.545   3.866   5.442  1.00  0.00    -0.206 F 
ATOM     70  C   UNL     1     -15.781   5.475   5.547  1.00  0.00     0.060 A 
BRANCH  70  71
ATOM     71  S   UNL     1     -17.512   5.063   5.849  1.00  0.00     0.124 S 
ATOM     72  O   UNL     1     -17.699   5.564   7.207  1.00  0.00    -0.237 OA
ATOM     73  O   UNL     1     -18.201   5.806   4.798  1.00  0.00    -0.237 OA
ATOM     74  O   UNL     1     -17.543   3.611   5.704  1.00  0.00    -0.744 OA
ENDBRANCH  70  71
ENDBRANCH  38  63
ENDBRANCH  12  13
ENDBRANCH   5   7
ENDBRANCH   2   3
ENDBRANCH   1   2
BRANCH   1  75
ATOM     75  C   UNL     1       3.380   7.477   2.142  1.00  0.00     0.023 C 
BRANCH  75  76
ATOM     76  C   UNL     1       3.718   6.983   3.545  1.00  0.00     0.116 C 
BRANCH  76  77
ATOM     77  N   UNL     1       4.129   5.599   3.564  1.00  0.00    -0.356 N 
ATOM     78  C   UNL     1       5.333   4.981   3.619  1.00  0.00     0.226 C 
ATOM     79  H   UNL     1       3.372   4.970   3.530  1.00  0.00     0.163 HD
ATOM     80  O   UNL     1       5.293   3.745   3.693  1.00  0.00    -0.274 OA
BRANCH  78  81
ATOM     81  C   UNL     1       6.707   5.674   3.642  1.00  0.00     0.103 C 
ATOM     82  C   UNL     1       7.299   5.651   5.025  1.00  0.00    -0.016 C 
ATOM     83  C   UNL     1       6.910   7.137   3.245  1.00  0.00     0.042 C 
ATOM     84  C   UNL     1       7.509   6.883   5.504  1.00  0.00    -0.011 C 
ATOM     85  C   UNL     1       6.993   7.916   4.569  1.00  0.00     0.093 C 
BRANCH  85  86
ATOM     86  N   UNL     1       7.831   9.088   4.448  1.00  0.00    -0.204 NA
ATOM     87  H   UNL     1       7.516   9.578   3.610  1.00  0.00     0.142 HD
BRANCH  86  88
ATOM     88  S   UNL     1       7.933  10.247   5.656  1.00  0.00     0.244 S 
ATOM     89  O   UNL     1       8.100   9.577   6.925  1.00  0.00    -0.207 OA
ATOM     90  O   UNL     1       8.921  11.190   5.182  1.00  0.00    -0.207 OA
BRANCH  88  91
ATOM     91  C   UNL     1       6.341  11.020   5.688  1.00  0.00     0.121 A 
ATOM     92  C   UNL     1       5.267  10.337   6.287  1.00  0.00     0.028 A 
ATOM     93  C   UNL     1       6.170  12.334   5.265  1.00  0.00     0.181 A 
ATOM     94  C   UNL     1       4.017  10.948   6.399  1.00  0.00     0.044 A 
ATOM     95  C   UNL     1       4.931  12.952   5.412  1.00  0.00     0.195 A 
ATOM     96  F   UNL     1       7.175  13.041   4.734  1.00  0.00    -0.202 F 
ATOM     97  C   UNL     1       3.860  12.260   5.967  1.00  0.00     0.161 A 
ATOM     98  F   UNL     1       4.776  14.231   5.038  1.00  0.00    -0.200 F 
ATOM     99  F   UNL     1       2.673  12.860   6.120  1.00  0.00    -0.204 F 
ENDBRANCH  88  91
ENDBRANCH  86  88
ENDBRANCH  85  86
ENDBRANCH  78  81
ENDBRANCH  76  77
ENDBRANCH  75  76
ENDBRANCH   1  75
TORSDOF 17
