REMARK SMILES Cn1c(=O)c2c(nc(Nc3cccc(Cl)c3Cl)n2CC(=O)NCCCCNC(=O)c2ccc(-c3c4nc(c(-c5c(F)cc(S(=O)(=O)[O-])cc5F)c5ccc([nH]5)c(-c5c(F)cc(S(=O)(=O)[O-])cc5F)c5nc(c(-c6c(F)cc(S(=O)(=O)[O-])cc6F)c6ccc3[nH]6)C=C5)C=C4)cc2)n(C)c1=O
REMARK SMILES IDX 24 1 23 2 22 3 20 4 21 5 19 7 18 8 1 9 2 10 3 11 98 12 4 13
REMARK SMILES IDX 5 14 96 15 99 16 6 17 97 18 7 19 8 20 9 21 10 23 11 24 16 25
REMARK SMILES IDX 12 26 14 27 17 28 13 29 15 30 25 31 26 32 27 33 28 34 29 36
REMARK SMILES IDX 30 37 31 38 95 39 32 40 94 41 33 42 34 43 35 44 88 45 36 46
REMARK SMILES IDX 93 47 87 48 89 49 37 50 92 51 86 52 85 53 38 55 72 56 51 57
REMARK SMILES IDX 71 58 52 59 55 60 70 61 90 62 53 63 54 64 69 66 91 67 56 68
REMARK SMILES IDX 39 69 40 70 49 71 41 72 42 73 48 74 50 75 43 76 44 77 45 78
REMARK SMILES IDX 46 79 47 80 73 81 74 82 83 83 75 84 76 85 82 86 84 87 77 88
REMARK SMILES IDX 78 89 79 90 80 91 81 92 57 93 58 94 67 95 59 96 60 97 66 98
REMARK SMILES IDX 68 99 61 100 62 101 63 102 64 103 65 104
REMARK H PARENT 22 6 9 22 27 35 89 54 55 65
REMARK Flexibility Score: inf
ROOT
ATOM      1  C   UNL     1       2.109  -1.401   6.323  1.00  0.00     0.023 C 
ENDROOT
BRANCH   1   2
ATOM      2  C   UNL     1       0.984  -0.653   7.034  1.00  0.00     0.116 C 
BRANCH   2   3
ATOM      3  N   UNL     1       0.624   0.574   6.364  1.00  0.00    -0.355 N 
ATOM      4  C   UNL     1      -0.458   0.845   5.578  1.00  0.00     0.240 C 
ATOM      5  O   UNL     1      -0.598   2.012   5.205  1.00  0.00    -0.273 OA
ATOM      6  H   UNL     1       1.250   1.323   6.492  1.00  0.00     0.163 HD
BRANCH   4   7
ATOM      7  C   UNL     1      -1.519  -0.204   5.299  1.00  0.00     0.226 C 
BRANCH   7   8
ATOM      8  N   UNL     1      -1.071  -1.425   4.644  1.00  0.00    -0.295 N 
ATOM      9  C   UNL     1       0.760   0.072   0.262  1.00  0.00     0.159 C 
ATOM     10  N   UNL     1       0.397  -0.896   1.279  1.00  0.00    -0.261 N 
ATOM     11  C   UNL     1      -0.300  -0.445   2.400  1.00  0.00     0.282 A 
ATOM     12  C   UNL     1       0.762  -2.232   1.029  1.00  0.00     0.332 A 
ATOM     13  O   UNL     1      -0.698   0.713   2.533  1.00  0.00    -0.267 OA
ATOM     14  C   UNL     1      -0.531  -1.457   3.372  1.00  0.00     0.154 A 
ATOM     15  N   UNL     1       0.439  -3.170   2.009  1.00  0.00    -0.279 N 
ATOM     16  O   UNL     1       1.340  -2.552  -0.014  1.00  0.00    -0.247 OA
ATOM     17  C   UNL     1      -0.185  -2.754   3.159  1.00  0.00     0.170 A 
ATOM     18  C   UNL     1       0.777  -4.570   1.828  1.00  0.00     0.157 C 
ATOM     19  N   UNL     1      -0.524  -3.542   4.206  1.00  0.00    -0.194 NA
ATOM     20  C   UNL     1      -1.100  -2.747   5.091  1.00  0.00     0.210 A 
BRANCH  20  21
ATOM     21  N   UNL     1      -1.518  -3.238   6.284  1.00  0.00    -0.324 N 
ATOM     22  H   UNL     1      -1.291  -4.186   6.420  1.00  0.00     0.170 HD
BRANCH  21  23
ATOM     23  C   UNL     1      -2.211  -2.663   7.366  1.00  0.00     0.061 A 
ATOM     24  C   UNL     1      -1.549  -2.646   8.610  1.00  0.00     0.028 A 
ATOM     25  C   UNL     1      -3.496  -2.090   7.278  1.00  0.00     0.083 A 
ATOM     26  C   UNL     1      -2.076  -1.955   9.699  1.00  0.00     0.004 A 
ATOM     27  C   UNL     1      -4.022  -1.392   8.378  1.00  0.00     0.061 A 
ATOM     28  Cl  UNL     1      -4.409  -2.251   5.809  1.00  0.00    -0.080 Cl
ATOM     29  C   UNL     1      -3.301  -1.306   9.573  1.00  0.00     0.022 A 
ATOM     30  Cl  UNL     1      -5.546  -0.579   8.313  1.00  0.00    -0.083 Cl
ENDBRANCH  21  23
ENDBRANCH  20  21
ENDBRANCH   7   8
ENDBRANCH   4   7
ENDBRANCH   2   3
ENDBRANCH   1   2
BRANCH   1  31
ATOM     31  C   UNL     1       3.481  -0.722   6.406  1.00  0.00     0.023 C 
BRANCH  31  32
ATOM     32  C   UNL     1       4.016  -0.575   7.823  1.00  0.00     0.116 C 
BRANCH  32  33
ATOM     33  N   UNL     1       4.257  -1.863   8.467  1.00  0.00    -0.352 N 
ATOM     34  C   UNL     1       4.777  -2.091   9.725  1.00  0.00     0.251 C 
ATOM     35  H   UNL     1       4.020  -2.662   7.943  1.00  0.00     0.163 HD
ATOM     36  O   UNL     1       5.305  -3.164   9.993  1.00  0.00    -0.269 OA
BRANCH  34  37
ATOM     37  C   UNL     1       4.667  -1.032  10.745  1.00  0.00     0.039 A 
ATOM     38  C   UNL     1       5.715  -0.770  11.633  1.00  0.00     0.014 A 
ATOM     39  C   UNL     1       3.479  -0.303  10.809  1.00  0.00     0.014 A 
ATOM     40  C   UNL     1       5.580   0.276  12.543  1.00  0.00     0.010 A 
ATOM     41  C   UNL     1       3.392   0.800  11.623  1.00  0.00     0.010 A 
ATOM     42  C   UNL     1       4.418   1.064  12.522  1.00  0.00    -0.014 A 
BRANCH  42  43
ATOM     43  C   UNL     1       4.328   2.290  13.310  1.00  0.00     0.031 A 
ATOM     44  C   UNL     1       5.380   3.281  12.953  1.00  0.00     0.074 A 
ATOM     45  C   UNL     1       3.261   2.584  14.087  1.00  0.00     0.049 A 
ATOM     46  N   UNL     1       6.399   3.639  13.662  1.00  0.00    -0.248 NA
ATOM     47  C   UNL     1       5.427   3.782  11.566  1.00  0.00     0.031 C 
ATOM     48  C   UNL     1       2.031   1.802  14.254  1.00  0.00     0.029 A 
ATOM     49  N   UNL     1       2.995   3.701  14.821  1.00  0.00    -0.354 N 
ATOM     50  C   UNL     1       7.043   4.624  12.918  1.00  0.00     0.074 A 
ATOM     51  C   UNL     1       6.568   4.476  11.571  1.00  0.00     0.031 C 
ATOM     52  C   UNL     1       1.079   2.563  14.838  1.00  0.00     0.029 A 
ATOM     53  C   UNL     1       1.665   3.832  15.229  1.00  0.00     0.049 A 
ATOM     54  H   UNL     1       3.687   4.364  15.046  1.00  0.00     0.167 HD
ATOM     55  C   UNL     1       7.663   5.667  13.539  1.00  0.00     0.037 A 
ATOM     56  C   UNL     1       1.091   4.913  15.824  1.00  0.00     0.037 A 
ATOM     57  C   UNL     1       7.866   5.370  14.938  1.00  0.00     0.049 A 
ATOM     58  C   UNL     1       2.202   5.712  16.405  1.00  0.00     0.074 A 
ATOM     59  C   UNL     1       8.525   4.378  15.637  1.00  0.00     0.029 A 
ATOM     60  N   UNL     1       6.994   5.948  15.827  1.00  0.00    -0.354 N 
ATOM     61  N   UNL     1       2.966   5.289  17.377  1.00  0.00    -0.248 NA
ATOM     62  C   UNL     1       2.765   6.769  15.581  1.00  0.00     0.031 C 
ATOM     63  C   UNL     1       7.692   4.104  16.761  1.00  0.00     0.029 A 
ATOM     64  C   UNL     1       6.622   5.002  16.744  1.00  0.00     0.049 A 
ATOM     65  H   UNL     1       6.688   6.884  15.809  1.00  0.00     0.167 HD
ATOM     66  C   UNL     1       4.244   5.696  17.022  1.00  0.00     0.074 A 
ATOM     67  C   UNL     1       4.046   6.669  15.947  1.00  0.00     0.031 C 
ATOM     68  C   UNL     1       5.342   4.990  17.421  1.00  0.00     0.037 A 
BRANCH  55  69
ATOM     69  C   UNL     1       7.691   7.092  13.017  1.00  0.00     0.058 A 
ATOM     70  C   UNL     1       8.407   8.067  13.748  1.00  0.00     0.135 A 
ATOM     71  C   UNL     1       6.833   7.604  12.018  1.00  0.00     0.135 A 
ATOM     72  F   UNL     1       9.255   7.706  14.724  1.00  0.00    -0.206 F 
ATOM     73  C   UNL     1       8.218   9.437  13.561  1.00  0.00     0.059 A 
ATOM     74  C   UNL     1       6.670   8.964  11.780  1.00  0.00     0.059 A 
ATOM     75  F   UNL     1       6.037   6.827  11.277  1.00  0.00    -0.206 F 
ATOM     76  C   UNL     1       7.335   9.875  12.580  1.00  0.00     0.060 A 
BRANCH  76  77
ATOM     77  S   UNL     1       7.032  11.638  12.386  1.00  0.00     0.124 S 
ATOM     78  O   UNL     1       6.363  11.958  13.640  1.00  0.00    -0.237 OA
ATOM     79  O   UNL     1       8.387  12.156  12.230  1.00  0.00    -0.237 OA
ATOM     80  O   UNL     1       6.200  11.704  11.188  1.00  0.00    -0.744 OA
ENDBRANCH  76  77
ENDBRANCH  55  69
BRANCH  56  81
ATOM     81  C   UNL     1      -0.278   5.482  15.622  1.00  0.00     0.058 A 
ATOM     82  C   UNL     1      -0.763   6.534  16.427  1.00  0.00     0.135 A 
ATOM     83  C   UNL     1      -1.023   5.214  14.457  1.00  0.00     0.135 A 
ATOM     84  F   UNL     1      -0.115   6.877  17.551  1.00  0.00    -0.206 F 
ATOM     85  C   UNL     1      -1.879   7.306  16.070  1.00  0.00     0.059 A 
ATOM     86  C   UNL     1      -2.142   5.963  14.084  1.00  0.00     0.059 A 
ATOM     87  F   UNL     1      -0.635   4.266  13.591  1.00  0.00    -0.206 F 
ATOM     88  C   UNL     1      -2.549   7.027  14.880  1.00  0.00     0.060 A 
BRANCH  88  89
ATOM     89  S   UNL     1      -3.882   8.119  14.323  1.00  0.00     0.124 S 
ATOM     90  O   UNL     1      -4.908   7.887  15.334  1.00  0.00    -0.237 OA
ATOM     91  O   UNL     1      -3.241   9.429  14.354  1.00  0.00    -0.237 OA
ATOM     92  O   UNL     1      -4.198   7.614  12.989  1.00  0.00    -0.744 OA
ENDBRANCH  88  89
ENDBRANCH  56  81
BRANCH  68  93
ATOM     93  C   UNL     1       5.193   3.966  18.519  1.00  0.00     0.058 A 
ATOM     94  C   UNL     1       4.480   2.760  18.405  1.00  0.00     0.135 A 
ATOM     95  C   UNL     1       5.999   4.130  19.657  1.00  0.00     0.135 A 
ATOM     96  F   UNL     1       3.750   2.488  17.315  1.00  0.00    -0.206 F 
ATOM     97  C   UNL     1       4.565   1.763  19.383  1.00  0.00     0.059 A 
ATOM     98  C   UNL     1       6.124   3.139  20.624  1.00  0.00     0.059 A 
ATOM     99  F   UNL     1       6.743   5.239  19.797  1.00  0.00    -0.206 F 
ATOM    100  C   UNL     1       5.404   1.956  20.482  1.00  0.00     0.060 A 
BRANCH 100 101
ATOM    101  S   UNL     1       5.611   0.623  21.683  1.00  0.00     0.124 S 
ATOM    102  O   UNL     1       4.296   0.570  22.314  1.00  0.00    -0.237 OA
ATOM    103  O   UNL     1       5.954  -0.515  20.836  1.00  0.00    -0.237 OA
ATOM    104  O   UNL     1       6.694   1.099  22.541  1.00  0.00    -0.744 OA
ENDBRANCH 100 101
ENDBRANCH  68  93
ENDBRANCH  42  43
ENDBRANCH  34  37
ENDBRANCH  32  33
ENDBRANCH  31  32
ENDBRANCH   1  31
TORSDOF 17
