REMARK SMILES Cc1ccc(C#N)cc1S(=O)(=O)Nc1cccc(C(=O)NCCCCNC(=O)c2ccc(-c3c4nc(c(-c5c(F)cc(S(=O)(=O)[O-])cc5F)c5ccc([nH]5)c(-c5c(F)cc(S(=O)(=O)[O-])cc5F)c5nc(c(-c6c(F)cc(S(=O)(=O)[O-])cc6F)c6ccc3[nH]6)C=C5)C=C4)cc2)c1
REMARK SMILES IDX 23 1 22 2 21 3 19 4 20 5 18 7 14 8 15 9 95 10 16 11 17 12
REMARK SMILES IDX 13 13 10 15 11 16 12 17 9 18 1 19 2 20 3 21 4 22 8 23 5 24
REMARK SMILES IDX 6 25 7 26 24 27 25 28 26 29 27 30 28 32 29 33 30 34 94 35
REMARK SMILES IDX 31 36 93 37 32 38 33 39 34 40 87 41 35 42 92 43 86 44 88 45
REMARK SMILES IDX 36 46 91 47 85 48 84 49 37 51 71 52 50 53 70 54 51 55 54 56
REMARK SMILES IDX 69 57 89 58 52 59 53 60 68 62 90 63 55 64 38 65 39 66 48 67
REMARK SMILES IDX 40 68 41 69 47 70 49 71 42 72 43 73 44 74 45 75 46 76 72 77
REMARK SMILES IDX 73 78 82 79 74 80 75 81 81 82 83 83 76 84 77 85 78 86 79 87
REMARK SMILES IDX 80 88 56 89 57 90 66 91 58 92 59 93 65 94 67 95 60 96 61 97
REMARK SMILES IDX 62 98 63 99 64 100
REMARK H PARENT 21 6 13 14 26 31 88 50 54 61
REMARK Flexibility Score: inf
ROOT
ATOM      1  C   UNL     1      -1.834   3.426   3.055  1.00  0.00     0.023 C 
ENDROOT
BRANCH   1   2
ATOM      2  C   UNL     1      -0.719   3.552   2.026  1.00  0.00     0.116 C 
BRANCH   2   3
ATOM      3  N   UNL     1       0.637   3.502   2.542  1.00  0.00    -0.352 N 
ATOM      4  C   UNL     1       1.819   3.060   1.983  1.00  0.00     0.251 C 
ATOM      5  O   UNL     1       2.850   3.219   2.639  1.00  0.00    -0.269 OA
ATOM      6  H   UNL     1       0.731   3.846   3.459  1.00  0.00     0.163 HD
BRANCH   4   7
ATOM      7  C   UNL     1       1.909   2.307   0.687  1.00  0.00     0.041 A 
ATOM      8  C   UNL     1       0.883   1.211  -1.216  1.00  0.00     0.050 A 
ATOM      9  C   UNL     1       2.011   0.424  -1.406  1.00  0.00     0.027 A 
ATOM     10  C   UNL     1       0.890   2.238  -0.266  1.00  0.00     0.040 A 
ATOM     11  C   UNL     1       3.116   0.601  -0.580  1.00  0.00     0.003 A 
ATOM     12  C   UNL     1       3.049   1.506   0.486  1.00  0.00     0.014 A 
BRANCH   8  13
ATOM     13  N   UNL     1      -0.306   0.909  -1.950  1.00  0.00    -0.280 N 
ATOM     14  H   UNL     1      -0.517   1.430  -2.757  1.00  0.00     0.180 HD
BRANCH  13  15
ATOM     15  S   UNL     1      -1.372  -0.340  -1.457  1.00  0.00     0.262 S 
ATOM     16  O   UNL     1      -1.976  -0.776  -2.704  1.00  0.00    -0.201 OA
ATOM     17  O   UNL     1      -2.211   0.213  -0.416  1.00  0.00    -0.201 OA
BRANCH  15  18
ATOM     18  C   UNL     1      -0.541  -1.775  -0.767  1.00  0.00     0.092 A 
ATOM     19  C   UNL     1       0.338  -0.660   1.391  1.00  0.00     0.046 C 
ATOM     20  C   UNL     1       0.263  -1.770   0.385  1.00  0.00    -0.030 A 
ATOM     21  C   UNL     1       0.929  -2.957   0.758  1.00  0.00     0.006 A 
ATOM     22  C   UNL     1       0.637  -4.172   0.145  1.00  0.00     0.020 A 
ATOM     23  C   UNL     1      -0.879  -3.023  -1.338  1.00  0.00     0.042 A 
ATOM     24  C   UNL     1      -0.333  -4.218  -0.852  1.00  0.00     0.053 A 
BRANCH  24  25
ATOM     25  C   UNL     1      -0.810  -5.487  -1.315  1.00  0.00     0.099 C 
ATOM     26  N   UNL     1      -1.209  -6.528  -1.650  1.00  0.00    -0.192 NA
ENDBRANCH  24  25
ENDBRANCH  15  18
ENDBRANCH  13  15
ENDBRANCH   8  13
ENDBRANCH   4   7
ENDBRANCH   2   3
ENDBRANCH   1   2
BRANCH   1  27
ATOM     27  C   UNL     1      -1.924   4.508   4.117  1.00  0.00     0.023 C 
BRANCH  27  28
ATOM     28  C   UNL     1      -1.918   5.940   3.606  1.00  0.00     0.116 C 
BRANCH  28  29
ATOM     29  N   UNL     1      -3.031   6.265   2.718  1.00  0.00    -0.352 N 
ATOM     30  C   UNL     1      -3.989   7.253   2.833  1.00  0.00     0.251 C 
ATOM     31  H   UNL     1      -3.111   5.695   1.919  1.00  0.00     0.163 HD
ATOM     32  O   UNL     1      -4.905   7.323   2.019  1.00  0.00    -0.269 OA
BRANCH  30  33
ATOM     33  C   UNL     1      -3.927   8.194   3.973  1.00  0.00     0.039 A 
ATOM     34  C   UNL     1      -2.710   8.764   4.338  1.00  0.00     0.014 A 
ATOM     35  C   UNL     1      -5.069   8.425   4.744  1.00  0.00     0.014 A 
ATOM     36  C   UNL     1      -2.576   9.324   5.601  1.00  0.00     0.010 A 
ATOM     37  C   UNL     1      -4.955   9.117   5.956  1.00  0.00     0.010 A 
ATOM     38  C   UNL     1      -3.693   9.502   6.435  1.00  0.00    -0.014 A 
BRANCH  38  39
ATOM     39  C   UNL     1      -3.492  10.057   7.805  1.00  0.00     0.031 A 
ATOM     40  C   UNL     1      -3.872   9.258   9.031  1.00  0.00     0.074 A 
ATOM     41  C   UNL     1      -2.869  11.246   7.946  1.00  0.00     0.049 A 
ATOM     42  N   UNL     1      -3.714   9.568  10.295  1.00  0.00    -0.248 NA
ATOM     43  C   UNL     1      -4.509   7.947   8.821  1.00  0.00     0.031 C 
ATOM     44  C   UNL     1      -2.431  12.103   6.840  1.00  0.00     0.029 A 
ATOM     45  N   UNL     1      -2.456  11.923   9.066  1.00  0.00    -0.354 N 
ATOM     46  C   UNL     1      -4.228   8.498  11.022  1.00  0.00     0.074 A 
ATOM     47  C   UNL     1      -4.756   7.554  10.063  1.00  0.00     0.031 C 
ATOM     48  C   UNL     1      -1.742  13.143   7.331  1.00  0.00     0.029 A 
ATOM     49  C   UNL     1      -1.763  13.080   8.787  1.00  0.00     0.049 A 
ATOM     50  H   UNL     1      -2.637  11.611   9.982  1.00  0.00     0.167 HD
ATOM     51  C   UNL     1      -4.230   8.304  12.363  1.00  0.00     0.037 A 
ATOM     52  C   UNL     1      -1.215  13.997   9.607  1.00  0.00     0.037 A 
ATOM     53  C   UNL     1      -3.683   9.236  13.315  1.00  0.00     0.049 A 
ATOM     54  C   UNL     1      -1.327  13.803  11.095  1.00  0.00     0.074 A 
ATOM     55  C   UNL     1      -3.646   9.129  14.694  1.00  0.00     0.029 A 
ATOM     56  N   UNL     1      -3.072  10.438  12.991  1.00  0.00    -0.354 N 
ATOM     57  N   UNL     1      -1.809  12.778  11.757  1.00  0.00    -0.248 NA
ATOM     58  C   UNL     1      -0.834  14.893  11.948  1.00  0.00     0.031 C 
ATOM     59  C   UNL     1      -3.059  10.287  15.207  1.00  0.00     0.029 A 
ATOM     60  C   UNL     1      -2.677  11.091  14.146  1.00  0.00     0.049 A 
ATOM     61  H   UNL     1      -2.938  10.775  12.076  1.00  0.00     0.167 HD
ATOM     62  C   UNL     1      -1.652  13.091  13.102  1.00  0.00     0.074 A 
ATOM     63  C   UNL     1      -1.012  14.388  13.161  1.00  0.00     0.031 C 
ATOM     64  C   UNL     1      -2.016  12.371  14.191  1.00  0.00     0.037 A 
BRANCH  51  65
ATOM     65  C   UNL     1      -4.816   7.024  12.900  1.00  0.00     0.058 A 
ATOM     66  C   UNL     1      -4.154   5.797  12.737  1.00  0.00     0.135 A 
ATOM     67  C   UNL     1      -5.988   7.037  13.675  1.00  0.00     0.135 A 
ATOM     68  F   UNL     1      -3.038   5.723  11.995  1.00  0.00    -0.206 F 
ATOM     69  C   UNL     1      -4.636   4.628  13.316  1.00  0.00     0.059 A 
ATOM     70  C   UNL     1      -6.473   5.884  14.288  1.00  0.00     0.059 A 
ATOM     71  F   UNL     1      -6.660   8.183  13.866  1.00  0.00    -0.206 F 
ATOM     72  C   UNL     1      -5.791   4.683  14.099  1.00  0.00     0.060 A 
BRANCH  72  73
ATOM     73  S   UNL     1      -6.374   3.159  14.870  1.00  0.00     0.124 S 
ATOM     74  O   UNL     1      -6.746   2.365  13.703  1.00  0.00    -0.237 OA
ATOM     75  O   UNL     1      -5.189   2.706  15.591  1.00  0.00    -0.237 OA
ATOM     76  O   UNL     1      -7.486   3.600  15.706  1.00  0.00    -0.744 OA
ENDBRANCH  72  73
ENDBRANCH  51  65
BRANCH  52  77
ATOM     77  C   UNL     1      -0.513  15.186   9.048  1.00  0.00     0.058 A 
ATOM     78  C   UNL     1       0.858  15.380   9.268  1.00  0.00     0.135 A 
ATOM     79  C   UNL     1      -1.196  16.159   8.299  1.00  0.00     0.135 A 
ATOM     80  F   UNL     1       1.557  14.482   9.981  1.00  0.00    -0.206 F 
ATOM     81  C   UNL     1       1.521  16.507   8.795  1.00  0.00     0.059 A 
ATOM     82  C   UNL     1      -0.548  17.276   7.783  1.00  0.00     0.059 A 
ATOM     83  F   UNL     1      -2.507  16.017   8.045  1.00  0.00    -0.206 F 
ATOM     84  C   UNL     1       0.808  17.450   8.053  1.00  0.00     0.060 A 
BRANCH  84  85
ATOM     85  S   UNL     1       1.683  18.905   7.441  1.00  0.00     0.124 S 
ATOM     86  O   UNL     1       1.986  19.608   8.682  1.00  0.00    -0.237 OA
ATOM     87  O   UNL     1       2.821  18.306   6.751  1.00  0.00    -0.237 OA
ATOM     88  O   UNL     1       0.701  19.550   6.575  1.00  0.00    -0.744 OA
ENDBRANCH  84  85
ENDBRANCH  52  77
BRANCH  64  89
ATOM     89  C   UNL     1      -1.720  12.945  15.549  1.00  0.00     0.058 A 
ATOM     90  C   UNL     1      -2.452  14.026  16.060  1.00  0.00     0.135 A 
ATOM     91  C   UNL     1      -0.775  12.333  16.391  1.00  0.00     0.135 A 
ATOM     92  F   UNL     1      -3.359  14.652  15.293  1.00  0.00    -0.206 F 
ATOM     93  C   UNL     1      -2.262  14.480  17.360  1.00  0.00     0.059 A 
ATOM     94  C   UNL     1      -0.591  12.751  17.705  1.00  0.00     0.059 A 
ATOM     95  F   UNL     1      -0.053  11.290  15.951  1.00  0.00    -0.206 F 
ATOM     96  C   UNL     1      -1.341  13.825  18.181  1.00  0.00     0.060 A 
BRANCH  96  97
ATOM     97  S   UNL     1      -1.173  14.376  19.891  1.00  0.00     0.124 S 
ATOM     98  O   UNL     1      -0.601  15.708  19.718  1.00  0.00    -0.237 OA
ATOM     99  O   UNL     1      -2.554  14.336  20.363  1.00  0.00    -0.237 OA
ATOM    100  O   UNL     1      -0.282  13.384  20.485  1.00  0.00    -0.744 OA
ENDBRANCH  96  97
ENDBRANCH  64  89
ENDBRANCH  38  39
ENDBRANCH  30  33
ENDBRANCH  28  29
ENDBRANCH  27  28
ENDBRANCH   1  27
TORSDOF 18
