REMARK SMILES NC(=O)CC[C@H](C(=O)NCCCCNC(=O)c1ccc(-c2c3nc(c(-c4c(F)cc(S(=O)(=O)[O-])cc4F)c4ccc([nH]4)c(-c4c(F)cc(S(=O)(=O)[O-])cc4F)c4nc(c(-c5c(F)cc(S(=O)(=O)[O-])cc5F)c5ccc2[nH]5)C=C4)C=C3)cc1)N1CCOC1=O
REMARK SMILES IDX 11 1 10 2 9 3 7 4 8 5 6 7 5 8 4 9 2 10 1 11 3 14 83 15 84 16
REMARK SMILES IDX 87 17 85 18 86 19 88 20 12 21 13 22 14 23 15 24 16 26 17 27
REMARK SMILES IDX 18 28 82 29 19 30 81 31 20 32 21 33 22 34 75 35 23 36 80 37
REMARK SMILES IDX 74 38 76 39 24 40 79 41 73 42 72 43 25 45 59 46 38 47 58 48
REMARK SMILES IDX 39 49 42 50 57 51 77 52 40 53 41 54 56 56 78 57 43 58 26 59
REMARK SMILES IDX 27 60 36 61 28 62 29 63 35 64 37 65 30 66 31 67 32 68 33 69
REMARK SMILES IDX 34 70 60 71 61 72 70 73 62 74 63 75 69 76 71 77 64 78 65 79
REMARK SMILES IDX 66 80 67 81 68 82 44 83 45 84 54 85 46 86 47 87 53 88 55 89
REMARK SMILES IDX 48 90 49 91 50 92 51 93 52 94
REMARK H PARENT 9 6 1 12 1 13 14 25 76 44 42 55
REMARK Flexibility Score: inf
ROOT
ATOM      1  C   UNL     1       4.163   4.522  -3.617  1.00  0.00     0.023 C 
ENDROOT
BRANCH   1   2
ATOM      2  C   UNL     1       3.260   4.479  -2.385  1.00  0.00     0.116 C 
BRANCH   2   3
ATOM      3  N   UNL     1       2.345   3.361  -2.425  1.00  0.00    -0.354 N 
ATOM      4  C   UNL     1       2.143   2.319  -1.575  1.00  0.00     0.242 C 
ATOM      5  O   UNL     1       1.234   1.537  -1.892  1.00  0.00    -0.273 OA
ATOM      6  H   UNL     1       1.758   3.352  -3.215  1.00  0.00     0.163 HD
BRANCH   4   7
ATOM      7  C   UNL     1       3.091   1.924  -0.398  1.00  0.00     0.178 C 
BRANCH   7   8
ATOM      8  C   UNL     1       4.007   0.770  -0.894  1.00  0.00     0.045 C 
BRANCH   8   9
ATOM      9  C   UNL     1       5.011   1.103  -2.002  1.00  0.00     0.102 C 
BRANCH   9  10
ATOM     10  C   UNL     1       6.342   1.615  -1.499  1.00  0.00     0.217 C 
ATOM     11  N   UNL     1       6.476   2.965  -1.414  1.00  0.00    -0.370 N 
ATOM     12  H   UNL     1       7.321   3.356  -1.093  1.00  0.00     0.159 HD
ATOM     13  H   UNL     1       5.729   3.551  -1.673  1.00  0.00     0.159 HD
ATOM     14  O   UNL     1       7.255   0.878  -1.144  1.00  0.00    -0.275 OA
ENDBRANCH   9  10
ENDBRANCH   8   9
ENDBRANCH   7   8
BRANCH   7  15
ATOM     15  N   UNL     1       3.799   2.946   0.378  1.00  0.00    -0.293 N 
ATOM     16  C   UNL     1       4.796   2.613   1.361  1.00  0.00     0.165 C 
ATOM     17  C   UNL     1       3.133   4.056   0.882  1.00  0.00     0.410 C 
ATOM     18  C   UNL     1       5.146   3.970   1.907  1.00  0.00     0.256 C 
ATOM     19  O   UNL     1       3.909   4.682   1.823  1.00  0.00    -0.448 OA
ATOM     20  O   UNL     1       2.028   4.452   0.552  1.00  0.00    -0.224 OA
ENDBRANCH   7  15
ENDBRANCH   4   7
ENDBRANCH   2   3
ENDBRANCH   1   2
BRANCH   1  21
ATOM     21  C   UNL     1       3.605   5.311  -4.795  1.00  0.00     0.023 C 
BRANCH  21  22
ATOM     22  C   UNL     1       3.322   6.781  -4.509  1.00  0.00     0.116 C 
BRANCH  22  23
ATOM     23  N   UNL     1       4.465   7.506  -3.964  1.00  0.00    -0.352 N 
ATOM     24  C   UNL     1       4.876   8.786  -4.258  1.00  0.00     0.251 C 
ATOM     25  H   UNL     1       5.009   7.019  -3.305  1.00  0.00     0.163 HD
ATOM     26  O   UNL     1       5.912   9.236  -3.780  1.00  0.00    -0.269 OA
BRANCH  24  27
ATOM     27  C   UNL     1       4.066   9.582  -5.199  1.00  0.00     0.039 A 
ATOM     28  C   UNL     1       4.670  10.085  -6.352  1.00  0.00     0.014 A 
ATOM     29  C   UNL     1       2.688   9.705  -4.998  1.00  0.00     0.014 A 
ATOM     30  C   UNL     1       3.869  10.626  -7.359  1.00  0.00     0.010 A 
ATOM     31  C   UNL     1       1.888  10.169  -6.035  1.00  0.00     0.010 A 
ATOM     32  C   UNL     1       2.469  10.615  -7.232  1.00  0.00    -0.014 A 
BRANCH  32  33
ATOM     33  C   UNL     1       1.591  11.017  -8.359  1.00  0.00     0.031 A 
ATOM     34  C   UNL     1       0.663  12.189  -8.210  1.00  0.00     0.074 A 
ATOM     35  C   UNL     1       1.567  10.270  -9.481  1.00  0.00     0.049 A 
ATOM     36  N   UNL     1      -0.237  12.639  -9.045  1.00  0.00    -0.248 NA
ATOM     37  C   UNL     1       0.738  12.936  -6.944  1.00  0.00     0.031 C 
ATOM     38  C   UNL     1       2.374   9.069  -9.716  1.00  0.00     0.029 A 
ATOM     39  N   UNL     1       0.823  10.395 -10.627  1.00  0.00    -0.354 N 
ATOM     40  C   UNL     1      -0.839  13.715  -8.406  1.00  0.00     0.074 A 
ATOM     41  C   UNL     1      -0.246  13.812  -7.090  1.00  0.00     0.031 C 
ATOM     42  C   UNL     1       2.093   8.580 -10.934  1.00  0.00     0.029 A 
ATOM     43  C   UNL     1       1.059   9.404 -11.551  1.00  0.00     0.049 A 
ATOM     44  H   UNL     1       0.181  11.127 -10.775  1.00  0.00     0.167 HD
ATOM     45  C   UNL     1      -1.780  14.564  -8.883  1.00  0.00     0.037 A 
ATOM     46  C   UNL     1       0.495   9.174 -12.753  1.00  0.00     0.037 A 
ATOM     47  C   UNL     1      -2.359  14.466 -10.197  1.00  0.00     0.049 A 
ATOM     48  C   UNL     1      -0.559  10.120 -13.259  1.00  0.00     0.074 A 
ATOM     49  C   UNL     1      -3.278  15.307 -10.798  1.00  0.00     0.029 A 
ATOM     50  N   UNL     1      -2.080  13.460 -11.113  1.00  0.00    -0.354 N 
ATOM     51  N   UNL     1      -1.062  11.180 -12.672  1.00  0.00    -0.248 NA
ATOM     52  C   UNL     1      -1.121   9.843 -14.588  1.00  0.00     0.031 C 
ATOM     53  C   UNL     1      -3.590  14.786 -12.058  1.00  0.00     0.029 A 
ATOM     54  C   UNL     1      -2.830  13.645 -12.263  1.00  0.00     0.049 A 
ATOM     55  H   UNL     1      -1.444  12.723 -10.966  1.00  0.00     0.167 HD
ATOM     56  C   UNL     1      -1.992  11.703 -13.564  1.00  0.00     0.074 A 
ATOM     57  C   UNL     1      -1.965  10.855 -14.739  1.00  0.00     0.031 C 
ATOM     58  C   UNL     1      -2.797  12.785 -13.421  1.00  0.00     0.037 A 
BRANCH  45  59
ATOM     59  C   UNL     1      -2.233  15.674  -7.975  1.00  0.00     0.058 A 
ATOM     60  C   UNL     1      -1.382  16.741  -7.641  1.00  0.00     0.135 A 
ATOM     61  C   UNL     1      -3.532  15.683  -7.443  1.00  0.00     0.135 A 
ATOM     62  F   UNL     1      -0.124  16.774  -8.109  1.00  0.00    -0.206 F 
ATOM     63  C   UNL     1      -1.788  17.755  -6.781  1.00  0.00     0.059 A 
ATOM     64  C   UNL     1      -3.970  16.704  -6.604  1.00  0.00     0.059 A 
ATOM     65  F   UNL     1      -4.387  14.690  -7.730  1.00  0.00    -0.206 F 
ATOM     66  C   UNL     1      -3.084  17.726  -6.264  1.00  0.00     0.060 A 
BRANCH  66  67
ATOM     67  S   UNL     1      -3.592  19.044  -5.141  1.00  0.00     0.124 S 
ATOM     68  O   UNL     1      -2.857  18.692  -3.930  1.00  0.00    -0.237 OA
ATOM     69  O   UNL     1      -3.130  20.241  -5.836  1.00  0.00    -0.237 OA
ATOM     70  O   UNL     1      -5.041  18.887  -5.064  1.00  0.00    -0.744 OA
ENDBRANCH  66  67
ENDBRANCH  45  59
BRANCH  46  71
ATOM     71  C   UNL     1       0.926   8.000 -13.559  1.00  0.00     0.058 A 
ATOM     72  C   UNL     1       1.690   8.162 -14.723  1.00  0.00     0.135 A 
ATOM     73  C   UNL     1       0.612   6.691 -13.160  1.00  0.00     0.135 A 
ATOM     74  F   UNL     1       2.010   9.394 -15.149  1.00  0.00    -0.206 F 
ATOM     75  C   UNL     1       2.123   7.070 -15.469  1.00  0.00     0.059 A 
ATOM     76  C   UNL     1       1.053   5.582 -13.876  1.00  0.00     0.059 A 
ATOM     77  F   UNL     1      -0.103   6.481 -12.044  1.00  0.00    -0.206 F 
ATOM     78  C   UNL     1       1.804   5.783 -15.033  1.00  0.00     0.060 A 
BRANCH  78  79
ATOM     79  S   UNL     1       2.430   4.371 -15.970  1.00  0.00     0.124 S 
ATOM     80  O   UNL     1       1.583   4.407 -17.157  1.00  0.00    -0.237 OA
ATOM     81  O   UNL     1       3.829   4.733 -16.172  1.00  0.00    -0.237 OA
ATOM     82  O   UNL     1       2.207   3.245 -15.068  1.00  0.00    -0.744 OA
ENDBRANCH  78  79
ENDBRANCH  46  71
BRANCH  58  83
ATOM     83  C   UNL     1      -3.715  13.119 -14.564  1.00  0.00     0.058 A 
ATOM     84  C   UNL     1      -4.857  12.350 -14.835  1.00  0.00     0.135 A 
ATOM     85  C   UNL     1      -3.485  14.256 -15.356  1.00  0.00     0.135 A 
ATOM     86  F   UNL     1      -5.117  11.248 -14.113  1.00  0.00    -0.206 F 
ATOM     87  C   UNL     1      -5.733  12.688 -15.861  1.00  0.00     0.059 A 
ATOM     88  C   UNL     1      -4.362  14.628 -16.370  1.00  0.00     0.059 A 
ATOM     89  F   UNL     1      -2.411  15.030 -15.132  1.00  0.00    -0.206 F 
ATOM     90  C   UNL     1      -5.479  13.832 -16.621  1.00  0.00     0.060 A 
BRANCH  90  91
ATOM     91  S   UNL     1      -6.650  14.285 -17.918  1.00  0.00     0.124 S 
ATOM     92  O   UNL     1      -6.363  13.280 -18.937  1.00  0.00    -0.237 OA
ATOM     93  O   UNL     1      -7.935  14.151 -17.240  1.00  0.00    -0.237 OA
ATOM     94  O   UNL     1      -6.268  15.652 -18.259  1.00  0.00    -0.744 OA
ENDBRANCH  90  91
ENDBRANCH  58  83
ENDBRANCH  32  33
ENDBRANCH  24  27
ENDBRANCH  22  23
ENDBRANCH  21  22
ENDBRANCH   1  21
TORSDOF 18
