REMARK SMILES CCN(CCO)C(=O)N[C@H]1CCCCC[C@H]1C(=O)NCCCCNC(=O)c1ccc(-c2c3nc(c(-c4c(F)cc(S(=O)(=O)[O-])cc4F)c4ccc([nH]4)c(-c4c(F)cc(S(=O)(=O)[O-])cc4F)c4nc(c(-c5c(F)cc(S(=O)(=O)[O-])cc5F)c5ccc2[nH]5)C=C4)C=C3)cc1
REMARK SMILES IDX 20 1 19 2 17 3 18 4 16 6 10 7 9 8 7 9 8 10 3 12 2 13 1 14
REMARK SMILES IDX 4 15 5 16 6 17 11 19 15 21 14 22 13 23 12 24 21 26 22 27
REMARK SMILES IDX 23 28 24 29 25 30 26 32 27 33 28 34 92 35 29 36 91 37 30 38
REMARK SMILES IDX 31 39 32 40 85 41 33 42 90 43 84 44 86 45 34 46 89 47 83 48
REMARK SMILES IDX 82 49 35 51 69 52 48 53 68 54 49 55 52 56 67 57 87 58 50 59
REMARK SMILES IDX 51 60 66 62 88 63 53 64 36 65 37 66 46 67 38 68 39 69 45 70
REMARK SMILES IDX 47 71 40 72 41 73 42 74 43 75 44 76 70 77 71 78 80 79 72 80
REMARK SMILES IDX 73 81 79 82 81 83 74 84 75 85 76 86 77 87 78 88 54 89 55 90
REMARK SMILES IDX 64 91 56 92 57 93 63 94 65 95 58 96 59 97 60 98 61 99 62 100
REMARK H PARENT 19 5 9 11 6 18 24 31 86 50 52 61
REMARK Flexibility Score: 100.00
ROOT
ATOM      1  C   UNL     1      -0.415   5.737  -5.000  1.00  0.00     0.116 C 
ENDROOT
BRANCH   1   2
ATOM      2  N   UNL     1      -0.100   4.432  -5.513  1.00  0.00    -0.356 N 
ATOM      3  C   UNL     1       0.118   3.264  -4.859  1.00  0.00     0.225 C 
ATOM      4  O   UNL     1       0.038   2.233  -5.542  1.00  0.00    -0.275 OA
ATOM      5  H   UNL     1      -0.030   4.378  -6.494  1.00  0.00     0.163 HD
BRANCH   3   6
ATOM      6  C   UNL     1       0.445   3.143  -3.356  1.00  0.00     0.101 C 
BRANCH   6   7
ATOM      7  C   UNL     1       1.711   3.832  -2.806  1.00  0.00     0.096 C 
BRANCH   7   8
ATOM      8  N   UNL     1       2.666   4.194  -3.860  1.00  0.00    -0.334 N 
ATOM      9  C   UNL     1       3.530   3.527  -4.654  1.00  0.00     0.317 C 
ATOM     10  O   UNL     1       3.886   4.150  -5.659  1.00  0.00    -0.249 OA
ATOM     11  H   UNL     1       2.678   5.164  -4.031  1.00  0.00     0.165 HD
BRANCH   9  12
ATOM     12  N   UNL     1       4.035   2.286  -4.365  1.00  0.00    -0.323 N 
BRANCH  12  13
ATOM     13  C   UNL     1       4.878   1.672  -5.401  1.00  0.00     0.118 C 
ATOM     14  C   UNL     1       4.044   0.981  -6.471  1.00  0.00     0.027 C 
ENDBRANCH  12  13
BRANCH  12  15
ATOM     15  C   UNL     1       3.929   1.501  -3.128  1.00  0.00     0.149 C 
BRANCH  15  16
ATOM     16  C   UNL     1       4.882   1.998  -2.031  1.00  0.00     0.177 C 
BRANCH  16  17
ATOM     17  O   UNL     1       4.628   3.339  -1.632  1.00  0.00    -0.395 OA
ATOM     18  H   UNL     1       4.757   3.932  -2.388  1.00  0.00     0.210 HD
ENDBRANCH  16  17
ENDBRANCH  15  16
ENDBRANCH  12  15
ENDBRANCH   9  12
ENDBRANCH   7   8
BRANCH   7  19
ATOM     19  C   UNL     1       1.648   4.904  -1.698  1.00  0.00     0.026 CG0
ATOM     20  G   UNL     1       0.484   5.867  -1.554  1.00  0.00     0.000 G0
ENDBRANCH   7  19
ENDBRANCH   6   7
BRANCH   6  21
ATOM     21  C   UNL     1      -0.761   3.032  -2.420  1.00  0.00     0.015 C 
BRANCH  21  22
ATOM     22  C   UNL     1      -1.539   4.285  -2.054  1.00  0.00     0.001 C 
BRANCH  22  23
ATOM     23  C   UNL     1      -0.834   5.247  -1.106  1.00  0.00     0.000 C 
BRANCH  23  24
ATOM     24  C   UNL     1       0.484   5.867  -1.554  1.00  0.00     0.002 CG0
ATOM     25  G   UNL     1       1.648   4.904  -1.698  1.00  0.00     0.000 G0
ENDBRANCH  23  24
ENDBRANCH  22  23
ENDBRANCH  21  22
ENDBRANCH   6  21
ENDBRANCH   3   6
ENDBRANCH   1   2
BRANCH   1  26
ATOM     26  C   UNL     1       0.570   6.830  -5.398  1.00  0.00     0.023 C 
BRANCH  26  27
ATOM     27  C   UNL     1       0.013   7.875  -6.361  1.00  0.00     0.023 C 
BRANCH  27  28
ATOM     28  C   UNL     1      -1.318   8.518  -5.985  1.00  0.00     0.116 C 
BRANCH  28  29
ATOM     29  N   UNL     1      -1.363   9.153  -4.674  1.00  0.00    -0.352 N 
ATOM     30  C   UNL     1      -2.141  10.240  -4.307  1.00  0.00     0.251 C 
ATOM     31  H   UNL     1      -0.780   8.771  -3.978  1.00  0.00     0.163 HD
ATOM     32  O   UNL     1      -2.099  10.703  -3.180  1.00  0.00    -0.269 OA
BRANCH  30  33
ATOM     33  C   UNL     1      -2.981  10.860  -5.357  1.00  0.00     0.039 A 
ATOM     34  C   UNL     1      -2.678  12.157  -5.777  1.00  0.00     0.014 A 
ATOM     35  C   UNL     1      -3.907  10.079  -6.051  1.00  0.00     0.014 A 
ATOM     36  C   UNL     1      -3.212  12.625  -6.980  1.00  0.00     0.010 A 
ATOM     37  C   UNL     1      -4.373  10.520  -7.285  1.00  0.00     0.010 A 
ATOM     38  C   UNL     1      -4.001  11.781  -7.780  1.00  0.00    -0.014 A 
BRANCH  38  39
ATOM     39  C   UNL     1      -4.389  12.158  -9.166  1.00  0.00     0.031 A 
ATOM     40  C   UNL     1      -5.841  12.250  -9.543  1.00  0.00     0.074 A 
ATOM     41  C   UNL     1      -3.437  12.300 -10.112  1.00  0.00     0.049 A 
ATOM     42  N   UNL     1      -6.378  12.414 -10.723  1.00  0.00    -0.248 NA
ATOM     43  C   UNL     1      -6.816  12.099  -8.452  1.00  0.00     0.031 C 
ATOM     44  C   UNL     1      -1.994  12.167  -9.895  1.00  0.00     0.029 A 
ATOM     45  N   UNL     1      -3.542  12.568 -11.456  1.00  0.00    -0.354 N 
ATOM     46  C   UNL     1      -7.752  12.351 -10.524  1.00  0.00     0.074 A 
ATOM     47  C   UNL     1      -7.963  12.095  -9.115  1.00  0.00     0.031 C 
ATOM     48  C   UNL     1      -1.350  12.378 -11.055  1.00  0.00     0.029 A 
ATOM     49  C   UNL     1      -2.331  12.621 -12.107  1.00  0.00     0.049 A 
ATOM     50  H   UNL     1      -4.403  12.710 -11.910  1.00  0.00     0.167 HD
ATOM     51  C   UNL     1      -8.747  12.513 -11.428  1.00  0.00     0.037 A 
ATOM     52  C   UNL     1      -2.042  12.832 -13.407  1.00  0.00     0.037 A 
ATOM     53  C   UNL     1      -8.537  12.819 -12.817  1.00  0.00     0.049 A 
ATOM     54  C   UNL     1      -3.164  13.054 -14.384  1.00  0.00     0.074 A 
ATOM     55  C   UNL     1      -9.482  13.078 -13.795  1.00  0.00     0.029 A 
ATOM     56  N   UNL     1      -7.294  12.918 -13.426  1.00  0.00    -0.354 N 
ATOM     57  N   UNL     1      -4.457  13.047 -14.165  1.00  0.00    -0.248 NA
ATOM     58  C   UNL     1      -2.789  13.311 -15.782  1.00  0.00     0.031 C 
ATOM     59  C   UNL     1      -8.811  13.313 -15.000  1.00  0.00     0.029 A 
ATOM     60  C   UNL     1      -7.448  13.227 -14.767  1.00  0.00     0.049 A 
ATOM     61  H   UNL     1      -6.431  12.788 -12.972  1.00  0.00     0.167 HD
ATOM     62  C   UNL     1      -5.050  13.317 -15.393  1.00  0.00     0.074 A 
ATOM     63  C   UNL     1      -3.975  13.493 -16.349  1.00  0.00     0.031 C 
ATOM     64  C   UNL     1      -6.366  13.410 -15.701  1.00  0.00     0.037 A 
BRANCH  51  65
ATOM     65  C   UNL     1     -10.157  12.373 -10.930  1.00  0.00     0.058 A 
ATOM     66  C   UNL     1     -10.747  13.354 -10.118  1.00  0.00     0.135 A 
ATOM     67  C   UNL     1     -10.930  11.253 -11.274  1.00  0.00     0.135 A 
ATOM     68  F   UNL     1     -10.044  14.436  -9.746  1.00  0.00    -0.206 F 
ATOM     69  C   UNL     1     -12.042  13.212  -9.632  1.00  0.00     0.059 A 
ATOM     70  C   UNL     1     -12.237  11.102 -10.820  1.00  0.00     0.059 A 
ATOM     71  F   UNL     1     -10.413  10.286 -12.049  1.00  0.00    -0.206 F 
ATOM     72  C   UNL     1     -12.777  12.078  -9.983  1.00  0.00     0.060 A 
BRANCH  72  73
ATOM     73  S   UNL     1     -14.451  11.897  -9.334  1.00  0.00     0.124 S 
ATOM     74  O   UNL     1     -14.184  11.461  -7.966  1.00  0.00    -0.237 OA
ATOM     75  O   UNL     1     -14.992  13.246  -9.473  1.00  0.00    -0.237 OA
ATOM     76  O   UNL     1     -15.046  10.893 -10.209  1.00  0.00    -0.744 OA
ENDBRANCH  72  73
ENDBRANCH  51  65
BRANCH  52  77
ATOM     77  C   UNL     1      -0.626  12.870 -13.858  1.00  0.00     0.058 A 
ATOM     78  C   UNL     1      -0.016  14.088 -14.193  1.00  0.00     0.135 A 
ATOM     79  C   UNL     1       0.145  11.703 -13.953  1.00  0.00     0.135 A 
ATOM     80  F   UNL     1      -0.718  15.230 -14.124  1.00  0.00    -0.206 F 
ATOM     81  C   UNL     1       1.306  14.148 -14.620  1.00  0.00     0.059 A 
ATOM     82  C   UNL     1       1.476  11.739 -14.358  1.00  0.00     0.059 A 
ATOM     83  F   UNL     1      -0.389  10.515 -13.627  1.00  0.00    -0.206 F 
ATOM     84  C   UNL     1       2.045  12.966 -14.699  1.00  0.00     0.060 A 
BRANCH  84  85
ATOM     85  S   UNL     1       3.777  13.059 -15.204  1.00  0.00     0.124 S 
ATOM     86  O   UNL     1       3.653  13.234 -16.646  1.00  0.00    -0.237 OA
ATOM     87  O   UNL     1       4.256  14.219 -14.458  1.00  0.00    -0.237 OA
ATOM     88  O   UNL     1       4.320  11.776 -14.766  1.00  0.00    -0.744 OA
ENDBRANCH  84  85
ENDBRANCH  52  77
BRANCH  64  89
ATOM     89  C   UNL     1      -6.723  13.742 -17.120  1.00  0.00     0.058 A 
ATOM     90  C   UNL     1      -6.664  12.775 -18.134  1.00  0.00     0.135 A 
ATOM     91  C   UNL     1      -7.197  15.021 -17.454  1.00  0.00     0.135 A 
ATOM     92  F   UNL     1      -6.211  11.540 -17.865  1.00  0.00    -0.206 F 
ATOM     93  C   UNL     1      -7.057  13.066 -19.437  1.00  0.00     0.059 A 
ATOM     94  C   UNL     1      -7.612  15.329 -18.745  1.00  0.00     0.059 A 
ATOM     95  F   UNL     1      -7.277  15.977 -16.516  1.00  0.00    -0.206 F 
ATOM     96  C   UNL     1      -7.533  14.346 -19.732  1.00  0.00     0.060 A 
BRANCH  96  97
ATOM     97  S   UNL     1      -8.094  14.698 -21.412  1.00  0.00     0.124 S 
ATOM     98  O   UNL     1      -6.827  14.876 -22.113  1.00  0.00    -0.237 OA
ATOM     99  O   UNL     1      -8.844  13.493 -21.753  1.00  0.00    -0.237 OA
ATOM    100  O   UNL     1      -8.900  15.905 -21.252  1.00  0.00    -0.744 OA
ENDBRANCH  96  97
ENDBRANCH  64  89
ENDBRANCH  38  39
ENDBRANCH  30  33
ENDBRANCH  28  29
ENDBRANCH  27  28
ENDBRANCH  26  27
ENDBRANCH   1  26
TORSDOF 20
