REMARK SMILES Cc1ccc([C@@H](C)Nc2ccc(N)cc2C(=O)NCCCCNC(=O)c2ccc(-c3c4nc(c(-c5c(F)cc(S(=O)(=O)[O-])cc5F)c5ccc([nH]5)c(-c5c(F)cc(S(=O)(=O)[O-])cc5F)c5nc(c(-c6c(F)cc(S(=O)(=O)[O-])cc6F)c6ccc3[nH]6)C=C5)C=C4)cc2)cc1F
REMARK SMILES IDX 20 1 19 2 18 3 16 4 17 5 15 7 9 8 10 9 11 10 14 11 12 12
REMARK SMILES IDX 8 13 6 15 7 16 5 17 1 18 2 19 3 20 93 21 4 22 92 23 94 24
REMARK SMILES IDX 13 25 21 28 22 29 23 30 24 31 25 33 26 34 27 35 91 36 28 37
REMARK SMILES IDX 90 38 29 39 30 40 31 41 84 42 32 43 89 44 83 45 85 46 33 47
REMARK SMILES IDX 88 48 82 49 81 50 34 52 68 53 47 54 67 55 48 56 51 57 66 58
REMARK SMILES IDX 86 59 49 60 50 61 65 63 87 64 52 65 35 66 36 67 45 68 37 69
REMARK SMILES IDX 38 70 44 71 46 72 39 73 40 74 41 75 42 76 43 77 69 78 70 79
REMARK SMILES IDX 79 80 71 81 72 82 78 83 80 84 73 85 74 86 75 87 76 88 77 89
REMARK SMILES IDX 53 90 54 91 63 92 55 93 56 94 62 95 64 96 57 97 58 98 59 99
REMARK SMILES IDX 60 100 61 101
REMARK H PARENT 18 6 8 14 13 26 13 27 23 32 85 51 51 62
REMARK Flexibility Score: inf
ROOT
ATOM      1  C   UNL     1      -0.198  -1.495   0.537  1.00  0.00     0.023 C 
ENDROOT
BRANCH   1   2
ATOM      2  C   UNL     1      -0.592  -3.191   0.628  1.00  0.00     0.116 C 
BRANCH   2   3
ATOM      3  N   UNL     1      -0.810  -4.010  -0.569  1.00  0.00    -0.352 N 
ATOM      4  C   UNL     1      -1.919  -4.706  -0.988  1.00  0.00     0.253 C 
ATOM      5  O   UNL     1      -1.992  -5.120  -2.143  1.00  0.00    -0.269 OA
ATOM      6  H   UNL     1      -0.035  -4.071  -1.173  1.00  0.00     0.163 HD
BRANCH   4   7
ATOM      7  C   UNL     1      -2.907  -5.140   0.012  1.00  0.00     0.065 A 
ATOM      8  C   UNL     1      -3.470  -4.298   0.974  1.00  0.00     0.048 A 
ATOM      9  C   UNL     1      -3.756  -4.931   2.199  1.00  0.00     0.028 A 
ATOM     10  C   UNL     1      -3.614  -6.323   2.385  1.00  0.00     0.027 A 
ATOM     11  C   UNL     1      -2.933  -6.546   0.130  1.00  0.00     0.041 A 
ATOM     12  C   UNL     1      -3.302  -7.155   1.317  1.00  0.00     0.032 A 
BRANCH   8  13
ATOM     13  N   UNL     1      -3.703  -2.938   0.855  1.00  0.00    -0.378 N 
ATOM     14  H   UNL     1      -4.039  -2.512   1.677  1.00  0.00     0.161 HD
BRANCH  13  15
ATOM     15  C   UNL     1      -3.537  -2.013  -0.289  1.00  0.00     0.106 C 
ATOM     16  C   UNL     1      -4.242  -2.476  -1.555  1.00  0.00     0.036 C 
BRANCH  15  17
ATOM     17  C   UNL     1      -2.131  -1.399  -0.297  1.00  0.00    -0.023 A 
ATOM     18  C   UNL     1       2.189   1.221   0.304  1.00  0.00     0.047 C 
ATOM     19  C   UNL     1       1.103   0.185   0.257  1.00  0.00    -0.015 A 
ATOM     20  C   UNL     1      -0.264   0.482   1.375  1.00  0.00     0.007 A 
ATOM     21  C   UNL     1       0.852  -0.906  -1.183  1.00  0.00     0.126 A 
ATOM     22  C   UNL     1      -1.851  -0.327   1.125  1.00  0.00     0.006 A 
ATOM     23  C   UNL     1      -0.763  -1.706  -1.462  1.00  0.00     0.045 A 
ATOM     24  F   UNL     1       1.815  -1.015  -2.105  1.00  0.00    -0.207 F 
ENDBRANCH  15  17
ENDBRANCH  13  15
ENDBRANCH   8  13
BRANCH  12  25
ATOM     25  N   UNL     1      -3.134  -8.522   1.473  1.00  0.00    -0.399 N 
ATOM     26  H   UNL     1      -3.395  -8.957   2.316  1.00  0.00     0.156 HD
ATOM     27  H   UNL     1      -2.753  -9.058   0.740  1.00  0.00     0.156 HD
ENDBRANCH  12  25
ENDBRANCH   4   7
ENDBRANCH   2   3
ENDBRANCH   1   2
BRANCH   1  28
ATOM     28  C   UNL     1      -0.811   0.222  -0.677  1.00  0.00     0.023 C 
BRANCH  28  29
ATOM     29  C   UNL     1      -1.911   1.352  -0.635  1.00  0.00     0.116 C 
BRANCH  29  30
ATOM     30  N   UNL     1      -1.619   2.498   0.234  1.00  0.00    -0.352 N 
ATOM     31  C   UNL     1      -1.397   3.745  -0.326  1.00  0.00     0.251 C 
ATOM     32  H   UNL     1      -1.582   2.381   1.211  1.00  0.00     0.163 HD
ATOM     33  O   UNL     1      -0.297   4.204  -0.600  1.00  0.00    -0.269 OA
BRANCH  31  34
ATOM     34  C   UNL     1      -2.653   4.384  -0.778  1.00  0.00     0.039 A 
ATOM     35  C   UNL     1      -2.777   5.721  -1.148  1.00  0.00     0.014 A 
ATOM     36  C   UNL     1      -3.716   3.506  -0.959  1.00  0.00     0.014 A 
ATOM     37  C   UNL     1      -3.993   6.142  -1.684  1.00  0.00     0.010 A 
ATOM     38  C   UNL     1      -4.764   3.829  -1.707  1.00  0.00     0.010 A 
ATOM     39  C   UNL     1      -4.960   5.168  -1.947  1.00  0.00    -0.014 A 
BRANCH  39  40
ATOM     40  C   UNL     1      -6.218   5.295  -2.634  1.00  0.00     0.031 A 
ATOM     41  C   UNL     1      -6.010   5.576  -4.059  1.00  0.00     0.074 A 
ATOM     42  C   UNL     1      -7.257   4.814  -1.901  1.00  0.00     0.049 A 
ATOM     43  N   UNL     1      -6.536   6.529  -4.740  1.00  0.00    -0.248 NA
ATOM     44  C   UNL     1      -4.942   4.884  -4.819  1.00  0.00     0.031 C 
ATOM     45  C   UNL     1      -8.616   4.412  -2.199  1.00  0.00     0.029 A 
ATOM     46  N   UNL     1      -7.208   4.655  -0.503  1.00  0.00    -0.354 N 
ATOM     47  C   UNL     1      -6.342   6.133  -6.051  1.00  0.00     0.074 A 
ATOM     48  C   UNL     1      -5.114   5.385  -6.045  1.00  0.00     0.031 C 
ATOM     49  C   UNL     1      -9.346   4.497  -1.061  1.00  0.00     0.029 A 
ATOM     50  C   UNL     1      -8.466   4.949   0.016  1.00  0.00     0.049 A 
ATOM     51  H   UNL     1      -6.419   4.383   0.019  1.00  0.00     0.167 HD
ATOM     52  C   UNL     1      -7.442   5.980  -6.849  1.00  0.00     0.037 A 
ATOM     53  C   UNL     1      -8.536   6.125   0.713  1.00  0.00     0.037 A 
ATOM     54  C   UNL     1      -8.646   6.139  -6.025  1.00  0.00     0.049 A 
ATOM     55  C   UNL     1      -9.107   7.183  -0.202  1.00  0.00     0.074 A 
ATOM     56  C   UNL     1      -9.547   5.229  -5.494  1.00  0.00     0.029 A 
ATOM     57  N   UNL     1      -8.827   7.319  -5.319  1.00  0.00    -0.354 N 
ATOM     58  N   UNL     1      -9.001   7.156  -1.505  1.00  0.00    -0.248 NA
ATOM     59  C   UNL     1      -9.982   8.249   0.269  1.00  0.00     0.031 C 
ATOM     60  C   UNL     1     -10.241   5.877  -4.431  1.00  0.00     0.029 A 
ATOM     61  C   UNL     1      -9.704   7.143  -4.267  1.00  0.00     0.049 A 
ATOM     62  H   UNL     1      -8.388   8.172  -5.540  1.00  0.00     0.167 HD
ATOM     63  C   UNL     1      -9.818   8.102  -2.049  1.00  0.00     0.074 A 
ATOM     64  C   UNL     1     -10.400   8.771  -0.897  1.00  0.00     0.031 C 
ATOM     65  C   UNL     1      -9.993   8.268  -3.393  1.00  0.00     0.037 A 
BRANCH  52  66
ATOM     66  C   UNL     1      -7.482   5.418  -8.254  1.00  0.00     0.058 A 
ATOM     67  C   UNL     1      -8.728   5.112  -8.847  1.00  0.00     0.135 A 
ATOM     68  C   UNL     1      -6.370   5.263  -9.111  1.00  0.00     0.135 A 
ATOM     69  F   UNL     1      -9.880   5.246  -8.176  1.00  0.00    -0.206 F 
ATOM     70  C   UNL     1      -8.864   4.690 -10.166  1.00  0.00     0.059 A 
ATOM     71  C   UNL     1      -6.481   4.815 -10.434  1.00  0.00     0.059 A 
ATOM     72  F   UNL     1      -5.131   5.596  -8.730  1.00  0.00    -0.206 F 
ATOM     73  C   UNL     1      -7.737   4.551 -10.959  1.00  0.00     0.060 A 
BRANCH  73  74
ATOM     74  S   UNL     1      -7.964   4.093 -12.686  1.00  0.00     0.124 S 
ATOM     75  O   UNL     1      -8.646   2.808 -12.572  1.00  0.00    -0.237 OA
ATOM     76  O   UNL     1      -8.773   5.198 -13.188  1.00  0.00    -0.237 OA
ATOM     77  O   UNL     1      -6.601   4.031 -13.205  1.00  0.00    -0.744 OA
ENDBRANCH  73  74
ENDBRANCH  52  66
BRANCH  53  78
ATOM     78  C   UNL     1      -7.350   6.238   1.650  1.00  0.00     0.058 A 
ATOM     79  C   UNL     1      -7.273   5.246   2.657  1.00  0.00     0.135 A 
ATOM     80  C   UNL     1      -6.138   6.849   1.283  1.00  0.00     0.135 A 
ATOM     81  F   UNL     1      -8.396   4.644   3.085  1.00  0.00    -0.206 F 
ATOM     82  C   UNL     1      -6.059   4.726   3.102  1.00  0.00     0.059 A 
ATOM     83  C   UNL     1      -4.903   6.356   1.742  1.00  0.00     0.059 A 
ATOM     84  F   UNL     1      -6.125   7.831   0.370  1.00  0.00    -0.206 F 
ATOM     85  C   UNL     1      -4.877   5.239   2.582  1.00  0.00     0.060 A 
BRANCH  85  86
ATOM     86  S   UNL     1      -3.341   4.352   2.948  1.00  0.00     0.124 S 
ATOM     87  O   UNL     1      -3.389   4.218   4.399  1.00  0.00    -0.237 OA
ATOM     88  O   UNL     1      -3.513   3.099   2.206  1.00  0.00    -0.237 OA
ATOM     89  O   UNL     1      -2.304   5.234   2.432  1.00  0.00    -0.744 OA
ENDBRANCH  85  86
ENDBRANCH  53  78
BRANCH  65  90
ATOM     90  C   UNL     1     -10.493   9.541  -4.018  1.00  0.00     0.058 A 
ATOM     91  C   UNL     1     -10.368  10.795  -3.401  1.00  0.00     0.135 A 
ATOM     92  C   UNL     1     -10.942   9.557  -5.363  1.00  0.00     0.135 A 
ATOM     93  F   UNL     1      -9.816  10.936  -2.188  1.00  0.00    -0.206 F 
ATOM     94  C   UNL     1     -10.765  11.967  -4.027  1.00  0.00     0.059 A 
ATOM     95  C   UNL     1     -11.239  10.727  -6.042  1.00  0.00     0.059 A 
ATOM     96  F   UNL     1     -11.087   8.430  -6.078  1.00  0.00    -0.206 F 
ATOM     97  C   UNL     1     -11.196  11.923  -5.348  1.00  0.00     0.060 A 
BRANCH  97  98
ATOM     98  S   UNL     1     -11.694  13.450  -6.144  1.00  0.00     0.124 S 
ATOM     99  O   UNL     1     -13.041  13.620  -5.609  1.00  0.00    -0.237 OA
ATOM    100  O   UNL     1     -10.696  14.398  -5.659  1.00  0.00    -0.237 OA
ATOM    101  O   UNL     1     -11.613  13.134  -7.566  1.00  0.00    -0.744 OA
ENDBRANCH  97  98
ENDBRANCH  65  90
ENDBRANCH  39  40
ENDBRANCH  31  34
ENDBRANCH  29  30
ENDBRANCH  28  29
ENDBRANCH   1  28
TORSDOF 18
