REMARK SMILES COc1c(C(=O)NCCCCNC(=O)c2ccc(-c3c4nc(c(-c5c(F)cc(S(=O)(=O)[O-])cc5F)c5ccc([nH]5)c(-c5c(F)cc(S(=O)(=O)[O-])cc5F)c5nc(c(-c6c(F)cc(S(=O)(=O)[O-])cc6F)c6ccc3[nH]6)C=C5)C=C4)cc2)ccc(F)c1F
REMARK SMILES IDX 10 1 9 2 8 3 7 4 5 5 6 6 4 8 3 9 85 10 81 11 83 12 86 13
REMARK SMILES IDX 82 14 84 15 2 16 1 17 11 18 12 19 13 20 14 22 15 23 16 24
REMARK SMILES IDX 80 25 17 26 79 27 18 28 19 29 20 30 73 31 21 32 78 33 72 34
REMARK SMILES IDX 74 35 22 36 77 37 71 38 70 39 23 41 57 42 36 43 56 44 37 45
REMARK SMILES IDX 40 46 55 47 75 48 38 49 39 50 54 52 76 53 41 54 24 55 25 56
REMARK SMILES IDX 34 57 26 58 27 59 33 60 35 61 28 62 29 63 30 64 31 65 32 66
REMARK SMILES IDX 58 67 59 68 68 69 60 70 61 71 67 72 69 73 62 74 63 75 64 76
REMARK SMILES IDX 65 77 66 78 42 79 43 80 52 81 44 82 45 83 51 84 53 85 46 86
REMARK SMILES IDX 47 87 48 88 49 89 50 90
REMARK H PARENT 7 7 12 21 74 40 40 51
REMARK Flexibility Score: inf
ROOT
ATOM      1  C   UNL     1       6.589   0.682  -3.607  1.00  0.00     0.023 C 
ENDROOT
BRANCH   1   2
ATOM      2  C   UNL     1       5.499  -0.278  -4.104  1.00  0.00     0.023 C 
BRANCH   2   3
ATOM      3  C   UNL     1       5.329  -1.540  -3.254  1.00  0.00     0.116 C 
BRANCH   3   4
ATOM      4  N   UNL     1       4.683  -1.235  -1.996  1.00  0.00    -0.352 N 
ATOM      5  C   UNL     1       3.391  -1.222  -1.538  1.00  0.00     0.255 C 
ATOM      6  O   UNL     1       3.285  -0.905  -0.353  1.00  0.00    -0.269 OA
ATOM      7  H   UNL     1       5.328  -0.973  -1.300  1.00  0.00     0.163 HD
BRANCH   5   8
ATOM      8  C   UNL     1       2.172  -1.578  -2.349  1.00  0.00     0.085 A 
ATOM      9  C   UNL     1       0.925  -1.754  -1.705  1.00  0.00     0.170 A 
ATOM     10  C   UNL     1      -0.191  -2.225  -2.412  1.00  0.00     0.201 A 
ATOM     11  C   UNL     1       2.192  -1.755  -3.743  1.00  0.00     0.021 A 
ATOM     12  C   UNL     1      -0.111  -2.465  -3.773  1.00  0.00     0.162 A 
ATOM     13  F   UNL     1      -1.357  -2.423  -1.777  1.00  0.00    -0.200 F 
ATOM     14  C   UNL     1       1.070  -2.212  -4.449  1.00  0.00     0.043 A 
ATOM     15  F   UNL     1      -1.176  -2.914  -4.449  1.00  0.00    -0.204 F 
BRANCH   9  16
ATOM     16  O   UNL     1       0.728  -1.517  -0.366  1.00  0.00    -0.493 OA
ATOM     17  C   UNL     1       0.411  -0.138  -0.149  1.00  0.00     0.278 C 
ENDBRANCH   9  16
ENDBRANCH   5   8
ENDBRANCH   3   4
ENDBRANCH   2   3
ENDBRANCH   1   2
BRANCH   1  18
ATOM     18  C   UNL     1       7.977   0.068  -3.439  1.00  0.00     0.116 C 
BRANCH  18  19
ATOM     19  N   UNL     1       8.445  -0.627  -4.628  1.00  0.00    -0.352 N 
ATOM     20  C   UNL     1       9.737  -0.848  -5.036  1.00  0.00     0.251 C 
ATOM     21  H   UNL     1       7.743  -0.986  -5.217  1.00  0.00     0.163 HD
ATOM     22  O   UNL     1       9.953  -1.373  -6.125  1.00  0.00    -0.269 OA
BRANCH  20  23
ATOM     23  C   UNL     1      10.859  -0.411  -4.180  1.00  0.00     0.039 A 
ATOM     24  C   UNL     1      11.893   0.331  -4.757  1.00  0.00     0.014 A 
ATOM     25  C   UNL     1      10.885  -0.717  -2.817  1.00  0.00     0.014 A 
ATOM     26  C   UNL     1      12.925   0.817  -3.954  1.00  0.00     0.010 A 
ATOM     27  C   UNL     1      11.881  -0.179  -2.007  1.00  0.00     0.010 A 
ATOM     28  C   UNL     1      12.912   0.591  -2.568  1.00  0.00    -0.014 A 
BRANCH  28  29
ATOM     29  C   UNL     1      13.973   1.144  -1.691  1.00  0.00     0.031 A 
ATOM     30  C   UNL     1      14.914   0.217  -0.971  1.00  0.00     0.074 A 
ATOM     31  C   UNL     1      14.052   2.475  -1.500  1.00  0.00     0.049 A 
ATOM     32  N   UNL     1      15.867   0.503  -0.123  1.00  0.00    -0.248 NA
ATOM     33  C   UNL     1      14.741  -1.223  -1.217  1.00  0.00     0.031 C 
ATOM     34  C   UNL     1      13.165   3.472  -2.105  1.00  0.00     0.029 A 
ATOM     35  N   UNL     1      14.915   3.221  -0.738  1.00  0.00    -0.354 N 
ATOM     36  C   UNL     1      16.398  -0.718   0.276  1.00  0.00     0.074 A 
ATOM     37  C   UNL     1      15.625  -1.749  -0.382  1.00  0.00     0.031 C 
ATOM     38  C   UNL     1      13.546   4.698  -1.710  1.00  0.00     0.029 A 
ATOM     39  C   UNL     1      14.682   4.574  -0.803  1.00  0.00     0.049 A 
ATOM     40  H   UNL     1      15.634   2.824  -0.195  1.00  0.00     0.167 HD
ATOM     41  C   UNL     1      17.449  -0.957   1.097  1.00  0.00     0.037 A 
ATOM     42  C   UNL     1      15.316   5.599  -0.200  1.00  0.00     0.037 A 
ATOM     43  C   UNL     1      18.230   0.074   1.726  1.00  0.00     0.049 A 
ATOM     44  C   UNL     1      16.490   5.309   0.694  1.00  0.00     0.074 A 
ATOM     45  C   UNL     1      19.345  -0.061   2.536  1.00  0.00     0.029 A 
ATOM     46  N   UNL     1      17.982   1.435   1.612  1.00  0.00    -0.354 N 
ATOM     47  N   UNL     1      17.014   4.150   1.018  1.00  0.00    -0.248 NA
ATOM     48  C   UNL     1      17.166   6.465   1.298  1.00  0.00     0.031 C 
ATOM     49  C   UNL     1      19.752   1.217   2.936  1.00  0.00     0.029 A 
ATOM     50  C   UNL     1      18.915   2.150   2.343  1.00  0.00     0.049 A 
ATOM     51  H   UNL     1      17.249   1.833   1.089  1.00  0.00     0.167 HD
ATOM     52  C   UNL     1      18.099   4.439   1.837  1.00  0.00     0.074 A 
ATOM     53  C   UNL     1      18.160   5.882   1.954  1.00  0.00     0.031 C 
ATOM     54  C   UNL     1      18.967   3.588   2.437  1.00  0.00     0.037 A 
BRANCH  41  55
ATOM     55  C   UNL     1      17.814  -2.394   1.349  1.00  0.00     0.058 A 
ATOM     56  C   UNL     1      18.389  -3.193   0.347  1.00  0.00     0.135 A 
ATOM     57  C   UNL     1      17.596  -2.979   2.607  1.00  0.00     0.135 A 
ATOM     58  F   UNL     1      18.604  -2.689  -0.879  1.00  0.00    -0.206 F 
ATOM     59  C   UNL     1      18.698  -4.530   0.570  1.00  0.00     0.059 A 
ATOM     60  C   UNL     1      17.924  -4.308   2.861  1.00  0.00     0.059 A 
ATOM     61  F   UNL     1      17.050  -2.261   3.601  1.00  0.00    -0.206 F 
ATOM     62  C   UNL     1      18.457  -5.081   1.829  1.00  0.00     0.060 A 
BRANCH  62  63
ATOM     63  S   UNL     1      18.849  -6.822   2.100  1.00  0.00     0.124 S 
ATOM     64  O   UNL     1      17.746  -7.479   1.405  1.00  0.00    -0.237 OA
ATOM     65  O   UNL     1      20.160  -6.950   1.470  1.00  0.00    -0.237 OA
ATOM     66  O   UNL     1      18.841  -6.949   3.554  1.00  0.00    -0.744 OA
ENDBRANCH  62  63
ENDBRANCH  41  55
BRANCH  42  67
ATOM     67  C   UNL     1      14.880   6.996  -0.458  1.00  0.00     0.058 A 
ATOM     68  C   UNL     1      15.661   7.857  -1.243  1.00  0.00     0.135 A 
ATOM     69  C   UNL     1      13.674   7.494   0.058  1.00  0.00     0.135 A 
ATOM     70  F   UNL     1      16.824   7.427  -1.755  1.00  0.00    -0.206 F 
ATOM     71  C   UNL     1      15.272   9.169  -1.495  1.00  0.00     0.059 A 
ATOM     72  C   UNL     1      13.252   8.796  -0.198  1.00  0.00     0.059 A 
ATOM     73  F   UNL     1      12.883   6.704   0.800  1.00  0.00    -0.206 F 
ATOM     74  C   UNL     1      14.064   9.629  -0.968  1.00  0.00     0.060 A 
BRANCH  74  75
ATOM     75  S   UNL     1      13.543  11.317  -1.342  1.00  0.00     0.124 S 
ATOM     76  O   UNL     1      14.420  12.094  -0.475  1.00  0.00    -0.237 OA
ATOM     77  O   UNL     1      13.812  11.412  -2.774  1.00  0.00    -0.237 OA
ATOM     78  O   UNL     1      12.129  11.318  -0.978  1.00  0.00    -0.744 OA
ENDBRANCH  74  75
ENDBRANCH  42  67
BRANCH  54  79
ATOM     79  C   UNL     1      20.084   4.195   3.239  1.00  0.00     0.058 A 
ATOM     80  C   UNL     1      19.859   4.770   4.498  1.00  0.00     0.135 A 
ATOM     81  C   UNL     1      21.402   4.160   2.757  1.00  0.00     0.135 A 
ATOM     82  F   UNL     1      18.616   4.834   5.000  1.00  0.00    -0.206 F 
ATOM     83  C   UNL     1      20.901   5.312   5.244  1.00  0.00     0.059 A 
ATOM     84  C   UNL     1      22.462   4.674   3.496  1.00  0.00     0.059 A 
ATOM     85  F   UNL     1      21.671   3.612   1.561  1.00  0.00    -0.206 F 
ATOM     86  C   UNL     1      22.200   5.260   4.734  1.00  0.00     0.060 A 
BRANCH  86  87
ATOM     87  S   UNL     1      23.549   5.940   5.722  1.00  0.00     0.124 S 
ATOM     88  O   UNL     1      23.368   7.373   5.519  1.00  0.00    -0.237 OA
ATOM     89  O   UNL     1      23.239   5.445   7.060  1.00  0.00    -0.237 OA
ATOM     90  O   UNL     1      24.741   5.363   5.108  1.00  0.00    -0.744 OA
ENDBRANCH  86  87
ENDBRANCH  54  79
ENDBRANCH  28  29
ENDBRANCH  20  23
ENDBRANCH  18  19
ENDBRANCH   1  18
TORSDOF 15
