REMARK SMILES Cc1nn(-c2nc3ccccc3o2)c2c1[C@H](c1ccc(C(=O)NCCCCNC(=O)c3ccc(-c4c5nc(c(-c6c(F)cc(S(=O)(=O)[O-])cc6F)c6ccc([nH]6)c(-c6c(F)cc(S(=O)(=O)[O-])cc6F)c6nc(c(-c7c(F)cc(S(=O)(=O)[O-])cc7F)c7ccc4[nH]7)C=C6)C=C5)cc3)cc1)CC(=O)N2
REMARK SMILES IDX 26 1 25 2 24 3 23 4 21 5 22 6 20 8 17 9 18 10 98 11 19 12
REMARK SMILES IDX 97 13 16 14 1 15 2 16 3 17 15 18 4 19 14 20 102 21 99 22
REMARK SMILES IDX 100 23 101 25 5 26 6 27 13 28 7 29 12 30 8 31 11 32 9 33
REMARK SMILES IDX 10 34 27 35 28 36 29 37 30 39 31 40 32 41 96 42 33 43 95 44
REMARK SMILES IDX 34 45 35 46 36 47 89 48 37 49 94 50 88 51 90 52 38 53 93 54
REMARK SMILES IDX 87 55 86 56 39 58 73 59 52 60 72 61 53 62 56 63 71 64 91 65
REMARK SMILES IDX 54 66 55 67 70 69 92 70 57 71 40 72 41 73 50 74 42 75 43 76
REMARK SMILES IDX 49 77 51 78 44 79 45 80 46 81 47 82 48 83 74 84 75 85 84 86
REMARK SMILES IDX 76 87 77 88 83 89 85 90 78 91 79 92 80 93 81 94 82 95 58 96
REMARK SMILES IDX 59 97 68 98 60 99 61 100 67 101 69 102 62 103 63 104 64 105
REMARK SMILES IDX 65 106 66 107
REMARK H PARENT 23 7 102 24 28 38 90 57 56 68
REMARK Flexibility Score: inf
ROOT
ATOM      1  C   UNL     1       6.909   6.520   3.668  1.00  0.00     0.023 C 
ENDROOT
BRANCH   1   2
ATOM      2  C   UNL     1       5.457   6.027   3.718  1.00  0.00     0.023 C 
BRANCH   2   3
ATOM      3  C   UNL     1       4.562   6.468   2.552  1.00  0.00     0.116 C 
BRANCH   3   4
ATOM      4  N   UNL     1       4.880   5.753   1.328  1.00  0.00    -0.352 N 
ATOM      5  C   UNL     1       4.271   4.693   0.701  1.00  0.00     0.251 C 
ATOM      6  O   UNL     1       4.719   4.319  -0.383  1.00  0.00    -0.269 OA
ATOM      7  H   UNL     1       5.678   6.091   0.862  1.00  0.00     0.163 HD
BRANCH   5   8
ATOM      8  C   UNL     1       3.083   3.993   1.260  1.00  0.00     0.039 A 
ATOM      9  C   UNL     1       0.781   2.616   2.216  1.00  0.00    -0.040 A 
ATOM     10  C   UNL     1       0.996   2.809   0.841  1.00  0.00     0.005 A 
ATOM     11  C   UNL     1       1.768   3.097   3.091  1.00  0.00     0.005 A 
ATOM     12  C   UNL     1       2.143   3.465   0.369  1.00  0.00     0.014 A 
ATOM     13  C   UNL     1       2.895   3.776   2.621  1.00  0.00     0.014 A 
BRANCH   9  14
ATOM     14  C   UNL     1      -0.482   1.921   2.712  1.00  0.00     0.064 C 
ATOM     15  C   UNL     1       0.847  -0.485   0.621  1.00  0.00     0.069 C 
ATOM     16  C   UNL     1       0.374  -0.556   2.028  1.00  0.00     0.066 A 
ATOM     17  N   UNL     1       0.381  -1.754   2.640  1.00  0.00    -0.167 NA
ATOM     18  C   UNL     1      -0.161   0.468   2.870  1.00  0.00     0.026 A 
ATOM     19  N   UNL     1      -0.127  -1.505   3.868  1.00  0.00    -0.166 N 
ATOM     20  C   UNL     1      -0.583  -0.221   3.981  1.00  0.00     0.145 A 
ATOM     21  N   UNL     1      -1.391   0.269   4.977  1.00  0.00    -0.310 N 
ATOM     22  C   UNL     1      -1.027   2.522   4.037  1.00  0.00     0.113 C 
ATOM     23  C   UNL     1      -1.808   1.573   4.931  1.00  0.00     0.226 C 
ATOM     24  H   UNL     1      -1.671  -0.315   5.720  1.00  0.00     0.171 HD
ATOM     25  O   UNL     1      -2.684   1.969   5.699  1.00  0.00    -0.275 OA
BRANCH  19  26
ATOM     26  C   UNL     1      -0.046  -2.478   4.856  1.00  0.00     0.325 A 
ATOM     27  N   UNL     1       0.878  -2.409   5.805  1.00  0.00    -0.191 NA
ATOM     28  O   UNL     1      -0.954  -3.499   5.027  1.00  0.00    -0.422 OA
ATOM     29  C   UNL     1       0.649  -3.519   6.566  1.00  0.00     0.111 A 
ATOM     30  C   UNL     1      -0.493  -4.164   6.125  1.00  0.00     0.156 A 
ATOM     31  C   UNL     1       1.365  -4.053   7.642  1.00  0.00     0.032 A 
ATOM     32  C   UNL     1      -1.031  -5.303   6.708  1.00  0.00     0.049 A 
ATOM     33  C   UNL     1       0.895  -5.243   8.215  1.00  0.00     0.003 A 
ATOM     34  C   UNL     1      -0.287  -5.847   7.764  1.00  0.00     0.004 A 
ENDBRANCH  19  26
ENDBRANCH   9  14
ENDBRANCH   5   8
ENDBRANCH   3   4
ENDBRANCH   2   3
ENDBRANCH   1   2
BRANCH   1  35
ATOM     35  C   UNL     1       7.083   8.022   3.850  1.00  0.00     0.116 C 
BRANCH  35  36
ATOM     36  N   UNL     1       6.606   8.496   5.149  1.00  0.00    -0.352 N 
ATOM     37  C   UNL     1       6.383   9.804   5.547  1.00  0.00     0.251 C 
ATOM     38  H   UNL     1       6.422   7.802   5.822  1.00  0.00     0.163 HD
ATOM     39  O   UNL     1       6.390  10.112   6.726  1.00  0.00    -0.269 OA
BRANCH  37  40
ATOM     40  C   UNL     1       6.114  10.810   4.503  1.00  0.00     0.039 A 
ATOM     41  C   UNL     1       6.705  12.075   4.531  1.00  0.00     0.014 A 
ATOM     42  C   UNL     1       5.279  10.431   3.455  1.00  0.00     0.014 A 
ATOM     43  C   UNL     1       6.512  12.925   3.443  1.00  0.00     0.010 A 
ATOM     44  C   UNL     1       5.218  11.202   2.324  1.00  0.00     0.010 A 
ATOM     45  C   UNL     1       5.783  12.472   2.330  1.00  0.00    -0.014 A 
BRANCH  45  46
ATOM     46  C   UNL     1       5.717  13.260   1.102  1.00  0.00     0.031 A 
ATOM     47  C   UNL     1       7.051  13.623   0.543  1.00  0.00     0.074 A 
ATOM     48  C   UNL     1       4.573  13.427   0.399  1.00  0.00     0.049 A 
ATOM     49  N   UNL     1       7.595  14.793   0.476  1.00  0.00    -0.248 NA
ATOM     50  C   UNL     1       7.964  12.529   0.163  1.00  0.00     0.031 C 
ATOM     51  C   UNL     1       3.253  12.832   0.653  1.00  0.00     0.029 A 
ATOM     52  N   UNL     1       4.368  14.086  -0.773  1.00  0.00    -0.354 N 
ATOM     53  C   UNL     1       8.803  14.613  -0.195  1.00  0.00     0.074 A 
ATOM     54  C   UNL     1       9.073  13.201  -0.154  1.00  0.00     0.031 C 
ATOM     55  C   UNL     1       2.477  12.953  -0.447  1.00  0.00     0.029 A 
ATOM     56  C   UNL     1       3.166  13.787  -1.412  1.00  0.00     0.049 A 
ATOM     57  H   UNL     1       5.020  14.725  -1.142  1.00  0.00     0.167 HD
ATOM     58  C   UNL     1       9.334  15.602  -0.968  1.00  0.00     0.037 A 
ATOM     59  C   UNL     1       2.779  14.185  -2.652  1.00  0.00     0.037 A 
ATOM     60  C   UNL     1       8.725  16.875  -0.664  1.00  0.00     0.049 A 
ATOM     61  C   UNL     1       3.630  15.350  -3.011  1.00  0.00     0.074 A 
ATOM     62  C   UNL     1       8.586  17.637   0.480  1.00  0.00     0.029 A 
ATOM     63  N   UNL     1       7.783  17.353  -1.544  1.00  0.00    -0.354 N 
ATOM     64  N   UNL     1       3.587  16.499  -2.392  1.00  0.00    -0.248 NA
ATOM     65  C   UNL     1       4.856  15.079  -3.742  1.00  0.00     0.031 C 
ATOM     66  C   UNL     1       7.263  18.165   0.411  1.00  0.00     0.029 A 
ATOM     67  C   UNL     1       6.705  17.771  -0.807  1.00  0.00     0.049 A 
ATOM     68  H   UNL     1       7.868  17.390  -2.524  1.00  0.00     0.167 HD
ATOM     69  C   UNL     1       4.913  16.895  -2.291  1.00  0.00     0.074 A 
ATOM     70  C   UNL     1       5.641  16.017  -3.207  1.00  0.00     0.031 C 
ATOM     71  C   UNL     1       5.336  17.696  -1.269  1.00  0.00     0.037 A 
BRANCH  58  72
ATOM     72  C   UNL     1      10.100  15.366  -2.255  1.00  0.00     0.058 A 
ATOM     73  C   UNL     1      10.703  16.461  -2.909  1.00  0.00     0.135 A 
ATOM     74  C   UNL     1      10.029  14.176  -3.015  1.00  0.00     0.135 A 
ATOM     75  F   UNL     1      10.818  17.648  -2.290  1.00  0.00    -0.206 F 
ATOM     76  C   UNL     1      11.132  16.400  -4.236  1.00  0.00     0.059 A 
ATOM     77  C   UNL     1      10.501  14.078  -4.319  1.00  0.00     0.059 A 
ATOM     78  F   UNL     1       9.414  13.074  -2.573  1.00  0.00    -0.206 F 
ATOM     79  C   UNL     1      11.014  15.204  -4.936  1.00  0.00     0.060 A 
BRANCH  79  80
ATOM     80  S   UNL     1      11.485  15.142  -6.673  1.00  0.00     0.124 S 
ATOM     81  O   UNL     1      10.450  15.967  -7.284  1.00  0.00    -0.237 OA
ATOM     82  O   UNL     1      12.827  15.715  -6.641  1.00  0.00    -0.237 OA
ATOM     83  O   UNL     1      11.426  13.717  -6.984  1.00  0.00    -0.744 OA
ENDBRANCH  79  80
ENDBRANCH  58  72
BRANCH  59  84
ATOM     84  C   UNL     1       1.996  13.438  -3.676  1.00  0.00     0.058 A 
ATOM     85  C   UNL     1       1.493  14.086  -4.820  1.00  0.00     0.135 A 
ATOM     86  C   UNL     1       1.994  12.029  -3.713  1.00  0.00     0.135 A 
ATOM     87  F   UNL     1       1.470  15.427  -4.879  1.00  0.00    -0.206 F 
ATOM     88  C   UNL     1       1.073  13.384  -5.957  1.00  0.00     0.059 A 
ATOM     89  C   UNL     1       1.574  11.307  -4.833  1.00  0.00     0.059 A 
ATOM     90  F   UNL     1       2.491  11.312  -2.694  1.00  0.00    -0.206 F 
ATOM     91  C   UNL     1       1.142  11.992  -5.963  1.00  0.00     0.060 A 
BRANCH  91  92
ATOM     92  S   UNL     1       0.782  11.090  -7.492  1.00  0.00     0.124 S 
ATOM     93  O   UNL     1      -0.657  11.284  -7.625  1.00  0.00    -0.237 OA
ATOM     94  O   UNL     1       1.612  11.791  -8.466  1.00  0.00    -0.237 OA
ATOM     95  O   UNL     1       1.202   9.725  -7.186  1.00  0.00    -0.744 OA
ENDBRANCH  91  92
ENDBRANCH  59  84
BRANCH  71  96
ATOM     96  C   UNL     1       4.300  18.407  -0.433  1.00  0.00     0.058 A 
ATOM     97  C   UNL     1       3.341  17.778   0.382  1.00  0.00     0.135 A 
ATOM     98  C   UNL     1       4.388  19.805  -0.349  1.00  0.00     0.135 A 
ATOM     99  F   UNL     1       3.253  16.442   0.440  1.00  0.00    -0.206 F 
ATOM    100  C   UNL     1       2.485  18.510   1.210  1.00  0.00     0.059 A 
ATOM    101  C   UNL     1       3.569  20.551   0.492  1.00  0.00     0.059 A 
ATOM    102  F   UNL     1       5.321  20.463  -1.057  1.00  0.00    -0.206 F 
ATOM    103  C   UNL     1       2.608  19.899   1.259  1.00  0.00     0.060 A 
BRANCH 103 104
ATOM    104  S   UNL     1       1.546  20.846   2.372  1.00  0.00     0.124 S 
ATOM    105  O   UNL     1       0.240  20.716   1.734  1.00  0.00    -0.237 OA
ATOM    106  O   UNL     1       1.706  20.142   3.640  1.00  0.00    -0.237 OA
ATOM    107  O   UNL     1       2.124  22.188   2.337  1.00  0.00    -0.744 OA
ENDBRANCH 103 104
ENDBRANCH  71  96
ENDBRANCH  45  46
ENDBRANCH  37  40
ENDBRANCH  35  36
ENDBRANCH   1  35
TORSDOF 16
