REMARK SMILES O=C1C[C@@H](C(=O)NCCCCNC(=O)c2ccc(-c3c4nc(c(-c5c(F)cc(S(=O)(=O)[O-])cc5F)c5ccc([nH]5)c(-c5c(F)cc(S(=O)(=O)[O-])cc5F)c5nc(c(-c6c(F)cc(S(=O)(=O)[O-])cc6F)c6ccc3[nH]6)C=C5)C=C4)cc2)C2(CC[NH+](Cc3c[nH]nc3-c3ccc(Cl)cc3)CC2)N1
REMARK SMILES IDX 9 1 8 2 7 3 5 4 6 5 4 7 1 8 2 9 3 10 100 11 81 12 82 14
REMARK SMILES IDX 99 15 83 16 98 17 84 18 85 20 86 21 87 22 90 23 88 24 89 25
REMARK SMILES IDX 91 27 92 28 97 29 93 30 96 31 94 32 95 33 10 34 11 35 12 36
REMARK SMILES IDX 13 37 14 39 15 40 16 41 80 42 17 43 79 44 18 45 19 46 20 47
REMARK SMILES IDX 73 48 21 49 78 50 72 51 74 52 22 53 77 54 71 55 70 56 23 58
REMARK SMILES IDX 57 59 36 60 56 61 37 62 40 63 55 64 75 65 38 66 39 67 54 69
REMARK SMILES IDX 76 70 41 71 24 72 25 73 34 74 26 75 27 76 33 77 35 78 28 79
REMARK SMILES IDX 29 80 30 81 31 82 32 83 58 84 59 85 68 86 60 87 61 88 67 89
REMARK SMILES IDX 69 90 62 91 63 92 64 93 65 94 66 95 42 96 43 97 52 98 44 99
REMARK SMILES IDX 45 100 51 101 53 102 46 103 47 104 48 105 49 106 50 107
REMARK H PARENT 7 6 100 13 84 19 88 26 12 38 74 57 40 68
REMARK Flexibility Score: inf
ROOT
ATOM      1  C   UNL     1       1.625   3.328  -0.807  1.00  0.00     0.023 C 
ENDROOT
BRANCH   1   2
ATOM      2  C   UNL     1       1.549   1.983  -1.535  1.00  0.00     0.116 C 
BRANCH   2   3
ATOM      3  N   UNL     1       2.577   1.788  -2.544  1.00  0.00    -0.356 N 
ATOM      4  C   UNL     1       3.664   0.977  -2.623  1.00  0.00     0.226 C 
ATOM      5  O   UNL     1       4.328   1.045  -3.665  1.00  0.00    -0.275 OA
ATOM      6  H   UNL     1       2.462   2.364  -3.334  1.00  0.00     0.163 HD
BRANCH   4   7
ATOM      7  C   UNL     1       4.140   0.030  -1.516  1.00  0.00     0.114 C 
ATOM      8  O   UNL     1       1.659  -1.138   0.778  1.00  0.00    -0.275 OA
ATOM      9  C   UNL     1       2.594  -0.644   0.179  1.00  0.00     0.221 C 
ATOM     10  C   UNL     1       3.107  -1.052  -1.177  1.00  0.00     0.116 C 
ATOM     11  N   UNL     1       3.349   0.419   0.627  1.00  0.00    -0.349 N 
ATOM     12  C   UNL     1       4.549   0.656  -0.165  1.00  0.00     0.063 C 
ATOM     13  H   UNL     1       3.101   0.966   1.407  1.00  0.00     0.164 HD
ATOM     14  C   UNL     1       4.879   2.154  -0.249  1.00  0.00     0.091 C 
ATOM     15  C   UNL     1       5.670  -0.168   0.538  1.00  0.00     0.091 C 
ATOM     16  C   UNL     1       6.348   2.467  -0.469  1.00  0.00     0.264 C 
ATOM     17  C   UNL     1       7.087   0.403   0.476  1.00  0.00     0.264 C 
ATOM     18  N   UNL     1       7.188   1.850   0.533  1.00  0.00    -0.331 N 
ATOM     19  H   UNL     1       8.159   2.033   0.281  1.00  0.00     0.348 HD
BRANCH  18  20
ATOM     20  C   UNL     1       7.277   2.526   1.837  1.00  0.00     0.303 C 
BRANCH  20  21
ATOM     21  C   UNL     1       6.035   2.521   2.677  1.00  0.00     0.052 A 
ATOM     22  C   UNL     1       5.560   1.470   3.443  1.00  0.00     0.115 A 
ATOM     23  C   UNL     1       5.138   3.603   3.001  1.00  0.00     0.101 A 
ATOM     24  N   UNL     1       4.396   1.885   4.006  1.00  0.00    -0.285 N 
ATOM     25  N   UNL     1       4.120   3.167   3.765  1.00  0.00    -0.175 NA
ATOM     26  H   UNL     1       3.814   1.297   4.539  1.00  0.00     0.189 HD
BRANCH  23  27
ATOM     27  C   UNL     1       5.214   5.031   2.681  1.00  0.00     0.003 A 
ATOM     28  C   UNL     1       5.210   5.955   3.737  1.00  0.00     0.012 A 
ATOM     29  C   UNL     1       5.251   5.515   1.369  1.00  0.00     0.012 A 
ATOM     30  C   UNL     1       5.284   7.328   3.489  1.00  0.00     0.021 A 
ATOM     31  C   UNL     1       5.333   6.889   1.116  1.00  0.00     0.021 A 
ATOM     32  C   UNL     1       5.358   7.789   2.178  1.00  0.00     0.041 A 
ATOM     33  Cl  UNL     1       5.472   9.476   1.872  1.00  0.00    -0.084 Cl
ENDBRANCH  23  27
ENDBRANCH  20  21
ENDBRANCH  18  20
ENDBRANCH   4   7
ENDBRANCH   2   3
ENDBRANCH   1   2
BRANCH   1  34
ATOM     34  C   UNL     1       1.260   4.533  -1.666  1.00  0.00     0.023 C 
BRANCH  34  35
ATOM     35  C   UNL     1      -0.101   4.422  -2.334  1.00  0.00     0.116 C 
BRANCH  35  36
ATOM     36  N   UNL     1      -1.177   4.152  -1.385  1.00  0.00    -0.352 N 
ATOM     37  C   UNL     1      -2.404   4.762  -1.294  1.00  0.00     0.251 C 
ATOM     38  H   UNL     1      -0.999   3.443  -0.725  1.00  0.00     0.163 HD
ATOM     39  O   UNL     1      -3.155   4.532  -0.354  1.00  0.00    -0.269 OA
BRANCH  37  40
ATOM     40  C   UNL     1      -2.775   5.729  -2.342  1.00  0.00     0.039 A 
ATOM     41  C   UNL     1      -3.160   7.017  -1.971  1.00  0.00     0.014 A 
ATOM     42  C   UNL     1      -2.617   5.383  -3.687  1.00  0.00     0.014 A 
ATOM     43  C   UNL     1      -3.308   7.991  -2.957  1.00  0.00     0.010 A 
ATOM     44  C   UNL     1      -2.670   6.377  -4.653  1.00  0.00     0.010 A 
ATOM     45  C   UNL     1      -3.012   7.691  -4.298  1.00  0.00    -0.014 A 
BRANCH  45  46
ATOM     46  C   UNL     1      -3.040   8.737  -5.349  1.00  0.00     0.031 A 
ATOM     47  C   UNL     1      -3.988   8.604  -6.508  1.00  0.00     0.074 A 
ATOM     48  C   UNL     1      -2.158   9.756  -5.299  1.00  0.00     0.049 A 
ATOM     49  N   UNL     1      -4.101   9.357  -7.571  1.00  0.00    -0.248 NA
ATOM     50  C   UNL     1      -4.909   7.455  -6.487  1.00  0.00     0.031 C 
ATOM     51  C   UNL     1      -1.152   9.957  -4.252  1.00  0.00     0.029 A 
ATOM     52  N   UNL     1      -1.953  10.807  -6.157  1.00  0.00    -0.354 N 
ATOM     53  C   UNL     1      -5.088   8.765  -8.348  1.00  0.00     0.074 A 
ATOM     54  C   UNL     1      -5.505   7.561  -7.665  1.00  0.00     0.031 C 
ATOM     55  C   UNL     1      -0.452  11.071  -4.520  1.00  0.00     0.029 A 
ATOM     56  C   UNL     1      -0.924  11.638  -5.779  1.00  0.00     0.049 A 
ATOM     57  H   UNL     1      -2.491  10.952  -6.969  1.00  0.00     0.167 HD
ATOM     58  C   UNL     1      -5.616   9.201  -9.516  1.00  0.00     0.037 A 
ATOM     59  C   UNL     1      -0.407  12.724  -6.387  1.00  0.00     0.037 A 
ATOM     60  C   UNL     1      -5.212  10.416 -10.173  1.00  0.00     0.049 A 
ATOM     61  C   UNL     1      -1.010  13.185  -7.688  1.00  0.00     0.074 A 
ATOM     62  C   UNL     1      -5.734  10.984 -11.321  1.00  0.00     0.029 A 
ATOM     63  N   UNL     1      -4.185  11.245  -9.747  1.00  0.00    -0.354 N 
ATOM     64  N   UNL     1      -2.001  12.659  -8.369  1.00  0.00    -0.248 NA
ATOM     65  C   UNL     1      -0.432  14.388  -8.301  1.00  0.00     0.031 C 
ATOM     66  C   UNL     1      -4.984  12.124 -11.623  1.00  0.00     0.029 A 
ATOM     67  C   UNL     1      -4.036  12.303 -10.628  1.00  0.00     0.049 A 
ATOM     68  H   UNL     1      -3.642  11.103  -8.938  1.00  0.00     0.167 HD
ATOM     69  C   UNL     1      -2.179  13.481  -9.477  1.00  0.00     0.074 A 
ATOM     70  C   UNL     1      -1.208  14.549  -9.364  1.00  0.00     0.031 C 
ATOM     71  C   UNL     1      -3.065  13.362 -10.497  1.00  0.00     0.037 A 
BRANCH  58  72
ATOM     72  C   UNL     1      -6.686   8.363 -10.160  1.00  0.00     0.058 A 
ATOM     73  C   UNL     1      -7.969   8.243  -9.602  1.00  0.00     0.135 A 
ATOM     74  C   UNL     1      -6.442   7.716 -11.382  1.00  0.00     0.135 A 
ATOM     75  F   UNL     1      -8.253   8.824  -8.425  1.00  0.00    -0.206 F 
ATOM     76  C   UNL     1      -8.965   7.495 -10.221  1.00  0.00     0.059 A 
ATOM     77  C   UNL     1      -7.433   6.989 -12.036  1.00  0.00     0.059 A 
ATOM     78  F   UNL     1      -5.232   7.792 -11.958  1.00  0.00    -0.206 F 
ATOM     79  C   UNL     1      -8.688   6.877 -11.442  1.00  0.00     0.060 A 
BRANCH  79  80
ATOM     80  S   UNL     1     -10.003   5.938 -12.246  1.00  0.00     0.124 S 
ATOM     81  O   UNL     1     -10.111   4.777 -11.368  1.00  0.00    -0.237 OA
ATOM     82  O   UNL     1     -11.123   6.872 -12.203  1.00  0.00    -0.237 OA
ATOM     83  O   UNL     1      -9.465   5.669 -13.576  1.00  0.00    -0.744 OA
ENDBRANCH  79  80
ENDBRANCH  58  72
BRANCH  59  84
ATOM     84  C   UNL     1       0.741  13.449  -5.778  1.00  0.00     0.058 A 
ATOM     85  C   UNL     1       0.592  14.747  -5.267  1.00  0.00     0.135 A 
ATOM     86  C   UNL     1       2.013  12.860  -5.697  1.00  0.00     0.135 A 
ATOM     87  F   UNL     1      -0.601  15.358  -5.325  1.00  0.00    -0.206 F 
ATOM     88  C   UNL     1       1.666  15.446  -4.723  1.00  0.00     0.059 A 
ATOM     89  C   UNL     1       3.095  13.525  -5.129  1.00  0.00     0.059 A 
ATOM     90  F   UNL     1       2.207  11.613  -6.154  1.00  0.00    -0.206 F 
ATOM     91  C   UNL     1       2.914  14.825  -4.658  1.00  0.00     0.060 A 
BRANCH  91  92
ATOM     92  S   UNL     1       4.294  15.729  -3.924  1.00  0.00     0.124 S 
ATOM     93  O   UNL     1       4.565  16.733  -4.946  1.00  0.00    -0.237 OA
ATOM     94  O   UNL     1       3.709  16.224  -2.682  1.00  0.00    -0.237 OA
ATOM     95  O   UNL     1       5.319  14.702  -3.760  1.00  0.00    -0.744 OA
ENDBRANCH  91  92
ENDBRANCH  59  84
BRANCH  71  96
ATOM     96  C   UNL     1      -3.050  14.429 -11.558  1.00  0.00     0.058 A 
ATOM     97  C   UNL     1      -2.002  14.534 -12.485  1.00  0.00     0.135 A 
ATOM     98  C   UNL     1      -4.127  15.321 -11.682  1.00  0.00     0.135 A 
ATOM     99  F   UNL     1      -0.945  13.710 -12.408  1.00  0.00    -0.206 F 
ATOM    100  C   UNL     1      -2.010  15.504 -13.483  1.00  0.00     0.059 A 
ATOM    101  C   UNL     1      -4.172  16.277 -12.692  1.00  0.00     0.059 A 
ATOM    102  F   UNL     1      -5.162  15.257 -10.829  1.00  0.00    -0.206 F 
ATOM    103  C   UNL     1      -3.102  16.368 -13.580  1.00  0.00     0.060 A 
BRANCH 103 104
ATOM    104  S   UNL     1      -3.115  17.598 -14.901  1.00  0.00     0.124 S 
ATOM    105  O   UNL     1      -2.099  18.537 -14.439  1.00  0.00    -0.237 OA
ATOM    106  O   UNL     1      -2.757  16.802 -16.071  1.00  0.00    -0.237 OA
ATOM    107  O   UNL     1      -4.486  18.099 -14.887  1.00  0.00    -0.744 OA
ENDBRANCH 103 104
ENDBRANCH  71  96
ENDBRANCH  45  46
ENDBRANCH  37  40
ENDBRANCH  35  36
ENDBRANCH  34  35
ENDBRANCH   1  34
TORSDOF 17
