REMARK SMILES O=C(Cc1ccccc1)Nc1ccc(C(=O)NCc2ccc(C(=O)NCCCCNC(=O)c3ccc(-c4c5nc(c(-c6c(F)cc(S(=O)(=O)[O-])cc6F)c6ccc([nH]6)c(-c6c(F)cc(S(=O)(=O)[O-])cc6F)c6nc(c(-c7c(F)cc(S(=O)(=O)[O-])cc7F)c7ccc4[nH]7)C=C6)C=C5)cc3)cc2)cc1
REMARK SMILES IDX 26 1 25 2 23 3 24 4 22 6 19 7 20 8 100 9 21 10 99 11 18 12
REMARK SMILES IDX 17 13 15 14 16 15 14 17 11 18 12 19 102 20 13 21 101 22
REMARK SMILES IDX 10 23 1 24 2 25 3 27 4 28 5 29 9 30 6 31 8 32 7 33 27 34
REMARK SMILES IDX 28 35 29 36 30 37 31 38 32 40 33 41 34 42 98 43 35 44 97 45
REMARK SMILES IDX 36 46 37 47 38 48 91 49 39 50 96 51 90 52 92 53 40 54 95 55
REMARK SMILES IDX 89 56 88 57 41 59 75 60 54 61 74 62 55 63 58 64 73 65 93 66
REMARK SMILES IDX 56 67 57 68 72 70 94 71 59 72 42 73 43 74 52 75 44 76 45 77
REMARK SMILES IDX 51 78 53 79 46 80 47 81 48 82 49 83 50 84 76 85 77 86 86 87
REMARK SMILES IDX 78 88 79 89 85 90 87 91 80 92 81 93 82 94 83 95 84 96 60 97
REMARK SMILES IDX 61 98 70 99 62 100 63 101 69 102 71 103 64 104 65 105 66 106
REMARK SMILES IDX 67 107 68 108
REMARK H PARENT 25 5 17 16 10 26 30 39 92 58 58 69
REMARK Flexibility Score: inf
ROOT
ATOM      1  C   UNL     1       1.159  -9.844   1.847  1.00  0.00     0.116 C 
ENDROOT
BRANCH   1   2
ATOM      2  N   UNL     1      -0.172 -10.342   2.137  1.00  0.00    -0.352 N 
ATOM      3  C   UNL     1      -1.302  -9.725   2.613  1.00  0.00     0.251 C 
ATOM      4  O   UNL     1      -2.335 -10.394   2.677  1.00  0.00    -0.269 OA
ATOM      5  H   UNL     1      -0.287 -11.303   1.959  1.00  0.00     0.163 HD
BRANCH   3   6
ATOM      6  C   UNL     1      -1.352  -8.294   3.028  1.00  0.00     0.039 A 
ATOM      7  C   UNL     1      -1.651  -5.606   3.896  1.00  0.00    -0.029 A 
ATOM      8  C   UNL     1      -2.743  -6.318   3.386  1.00  0.00     0.006 A 
ATOM      9  C   UNL     1      -0.409  -6.255   3.947  1.00  0.00     0.006 A 
ATOM     10  C   UNL     1      -2.595  -7.646   2.962  1.00  0.00     0.014 A 
ATOM     11  C   UNL     1      -0.270  -7.587   3.546  1.00  0.00     0.014 A 
BRANCH   7  12
ATOM     12  C   UNL     1      -1.833  -4.185   4.381  1.00  0.00     0.152 C 
BRANCH  12  13
ATOM     13  N   UNL     1      -0.870  -3.833   5.407  1.00  0.00    -0.348 N 
ATOM     14  C   UNL     1       0.322  -3.163   5.412  1.00  0.00     0.251 C 
ATOM     15  O   UNL     1       0.908  -3.094   6.495  1.00  0.00    -0.269 OA
ATOM     16  H   UNL     1      -1.134  -4.148   6.301  1.00  0.00     0.164 HD
BRANCH  14  17
ATOM     17  C   UNL     1       0.938  -2.498   4.225  1.00  0.00     0.039 A 
ATOM     18  C   UNL     1       2.162  -1.022   2.139  1.00  0.00     0.041 A 
ATOM     19  C   UNL     1       2.564  -0.838   3.461  1.00  0.00     0.027 A 
ATOM     20  C   UNL     1       1.208  -2.000   1.859  1.00  0.00     0.027 A 
ATOM     21  C   UNL     1       1.947  -1.556   4.492  1.00  0.00     0.016 A 
ATOM     22  C   UNL     1       0.624  -2.751   2.890  1.00  0.00     0.016 A 
BRANCH  18  23
ATOM     23  N   UNL     1       2.776  -0.231   1.149  1.00  0.00    -0.326 N 
ATOM     24  O   UNL     1       1.243  -0.406  -0.586  1.00  0.00    -0.274 OA
ATOM     25  C   UNL     1       2.333  -0.040  -0.148  1.00  0.00     0.228 C 
ATOM     26  H   UNL     1       3.605   0.233   1.406  1.00  0.00     0.169 HD
BRANCH  25  27
ATOM     27  C   UNL     1       3.353   0.603  -1.077  1.00  0.00     0.135 C 
BRANCH  27  28
ATOM     28  C   UNL     1       4.033   1.842  -0.546  1.00  0.00    -0.039 A 
ATOM     29  C   UNL     1       5.260   1.748   0.128  1.00  0.00     0.004 A 
ATOM     30  C   UNL     1       3.447   3.104  -0.719  1.00  0.00     0.004 A 
ATOM     31  C   UNL     1       5.881   2.892   0.630  1.00  0.00     0.000 A 
ATOM     32  C   UNL     1       4.080   4.248  -0.231  1.00  0.00     0.000 A 
ATOM     33  C   UNL     1       5.293   4.142   0.447  1.00  0.00     0.000 A 
ENDBRANCH  27  28
ENDBRANCH  25  27
ENDBRANCH  18  23
ENDBRANCH  14  17
ENDBRANCH  12  13
ENDBRANCH   7  12
ENDBRANCH   3   6
ENDBRANCH   1   2
BRANCH   1  34
ATOM     34  C   UNL     1       2.137 -10.188   2.974  1.00  0.00     0.023 C 
BRANCH  34  35
ATOM     35  C   UNL     1       2.591 -11.651   3.001  1.00  0.00     0.023 C 
BRANCH  35  36
ATOM     36  C   UNL     1       3.367 -12.115   1.773  1.00  0.00     0.116 C 
BRANCH  36  37
ATOM     37  N   UNL     1       4.567 -11.331   1.523  1.00  0.00    -0.352 N 
ATOM     38  C   UNL     1       5.755 -11.740   0.964  1.00  0.00     0.251 C 
ATOM     39  H   UNL     1       4.522 -10.384   1.787  1.00  0.00     0.163 HD
ATOM     40  O   UNL     1       6.710 -10.975   0.919  1.00  0.00    -0.269 OA
BRANCH  38  41
ATOM     41  C   UNL     1       5.881 -13.125   0.461  1.00  0.00     0.039 A 
ATOM     42  C   UNL     1       6.977 -13.890   0.866  1.00  0.00     0.014 A 
ATOM     43  C   UNL     1       4.908 -13.674  -0.380  1.00  0.00     0.014 A 
ATOM     44  C   UNL     1       7.062 -15.231   0.484  1.00  0.00     0.010 A 
ATOM     45  C   UNL     1       4.963 -15.025  -0.709  1.00  0.00     0.010 A 
ATOM     46  C   UNL     1       6.037 -15.818  -0.276  1.00  0.00    -0.014 A 
BRANCH  46  47
ATOM     47  C   UNL     1       6.061 -17.264  -0.614  1.00  0.00     0.031 A 
ATOM     48  C   UNL     1       6.181 -17.702  -2.048  1.00  0.00     0.074 A 
ATOM     49  C   UNL     1       5.903 -18.177   0.364  1.00  0.00     0.049 A 
ATOM     50  N   UNL     1       6.139 -18.910  -2.547  1.00  0.00    -0.248 NA
ATOM     51  C   UNL     1       6.344 -16.641  -3.056  1.00  0.00     0.031 C 
ATOM     52  C   UNL     1       5.725 -17.873   1.787  1.00  0.00     0.029 A 
ATOM     53  N   UNL     1       5.851 -19.548   0.312  1.00  0.00    -0.354 N 
ATOM     54  C   UNL     1       6.252 -18.756  -3.924  1.00  0.00     0.074 A 
ATOM     55  C   UNL     1       6.322 -17.334  -4.186  1.00  0.00     0.031 C 
ATOM     56  C   UNL     1       5.599 -19.022   2.471  1.00  0.00     0.029 A 
ATOM     57  C   UNL     1       5.653 -20.142   1.536  1.00  0.00     0.049 A 
ATOM     58  H   UNL     1       5.945 -20.058  -0.525  1.00  0.00     0.167 HD
ATOM     59  C   UNL     1       6.312 -19.713  -4.880  1.00  0.00     0.037 A 
ATOM     60  C   UNL     1       5.523 -21.441   1.867  1.00  0.00     0.037 A 
ATOM     61  C   UNL     1       6.279 -21.127  -4.609  1.00  0.00     0.049 A 
ATOM     62  C   UNL     1       5.608 -22.485   0.786  1.00  0.00     0.074 A 
ATOM     63  C   UNL     1       6.404 -22.176  -5.503  1.00  0.00     0.029 A 
ATOM     64  N   UNL     1       6.112 -21.690  -3.353  1.00  0.00    -0.354 N 
ATOM     65  N   UNL     1       5.782 -22.322  -0.504  1.00  0.00    -0.248 NA
ATOM     66  C   UNL     1       5.485 -23.888   1.205  1.00  0.00     0.031 C 
ATOM     67  C   UNL     1       6.277 -23.374  -4.792  1.00  0.00     0.029 A 
ATOM     68  C   UNL     1       6.114 -23.071  -3.450  1.00  0.00     0.049 A 
ATOM     69  H   UNL     1       6.007 -21.182  -2.516  1.00  0.00     0.167 HD
ATOM     70  C   UNL     1       5.817 -23.602  -1.046  1.00  0.00     0.074 A 
ATOM     71  C   UNL     1       5.658 -24.528   0.057  1.00  0.00     0.031 C 
ATOM     72  C   UNL     1       5.968 -23.978  -2.339  1.00  0.00     0.037 A 
BRANCH  59  73
ATOM     73  C   UNL     1       6.433 -19.269  -6.310  1.00  0.00     0.058 A 
ATOM     74  C   UNL     1       7.625 -18.724  -6.811  1.00  0.00     0.135 A 
ATOM     75  C   UNL     1       5.364 -19.442  -7.205  1.00  0.00     0.135 A 
ATOM     76  F   UNL     1       8.672 -18.522  -5.995  1.00  0.00    -0.206 F 
ATOM     77  C   UNL     1       7.749 -18.350  -8.145  1.00  0.00     0.059 A 
ATOM     78  C   UNL     1       5.474 -19.097  -8.549  1.00  0.00     0.059 A 
ATOM     79  F   UNL     1       4.201 -19.956  -6.777  1.00  0.00    -0.206 F 
ATOM     80  C   UNL     1       6.668 -18.543  -9.007  1.00  0.00     0.060 A 
BRANCH  80  81
ATOM     81  S   UNL     1       6.854 -18.075 -10.741  1.00  0.00     0.124 S 
ATOM     82  O   UNL     1       6.795 -16.619 -10.657  1.00  0.00    -0.237 OA
ATOM     83  O   UNL     1       8.159 -18.636 -11.078  1.00  0.00    -0.237 OA
ATOM     84  O   UNL     1       5.714 -18.713 -11.390  1.00  0.00    -0.744 OA
ENDBRANCH  80  81
ENDBRANCH  59  73
BRANCH  60  85
ATOM     85  C   UNL     1       5.315 -21.835   3.286  1.00  0.00     0.058 A 
ATOM     86  C   UNL     1       6.326 -22.488   4.007  1.00  0.00     0.135 A 
ATOM     87  C   UNL     1       4.103 -21.580   3.945  1.00  0.00     0.135 A 
ATOM     88  F   UNL     1       7.501 -22.758   3.418  1.00  0.00    -0.206 F 
ATOM     89  C   UNL     1       6.135 -22.897   5.322  1.00  0.00     0.059 A 
ATOM     90  C   UNL     1       3.897 -21.958   5.268  1.00  0.00     0.059 A 
ATOM     91  F   UNL     1       3.110 -20.942   3.305  1.00  0.00    -0.206 F 
ATOM     92  C   UNL     1       4.914 -22.630   5.944  1.00  0.00     0.060 A 
BRANCH  92  93
ATOM     93  S   UNL     1       4.684 -23.142   7.660  1.00  0.00     0.124 S 
ATOM     94  O   UNL     1       4.480 -24.578   7.512  1.00  0.00    -0.237 OA
ATOM     95  O   UNL     1       5.944 -22.735   8.275  1.00  0.00    -0.237 OA
ATOM     96  O   UNL     1       3.514 -22.377   8.082  1.00  0.00    -0.744 OA
ENDBRANCH  92  93
ENDBRANCH  60  85
BRANCH  72  97
ATOM     97  C   UNL     1       6.005 -25.451  -2.631  1.00  0.00     0.058 A 
ATOM     98  C   UNL     1       4.845 -26.239  -2.594  1.00  0.00     0.135 A 
ATOM     99  C   UNL     1       7.209 -26.071  -3.003  1.00  0.00     0.135 A 
ATOM    100  F   UNL     1       3.670 -25.695  -2.237  1.00  0.00    -0.206 F 
ATOM    101  C   UNL     1       4.880 -27.596  -2.895  1.00  0.00     0.059 A 
ATOM    102  C   UNL     1       7.263 -27.421  -3.333  1.00  0.00     0.059 A 
ATOM    103  F   UNL     1       8.346 -25.359  -3.064  1.00  0.00    -0.206 F 
ATOM    104  C   UNL     1       6.094 -28.178  -3.265  1.00  0.00     0.060 A 
BRANCH 104 105
ATOM    105  S   UNL     1       6.121 -29.933  -3.688  1.00  0.00     0.124 S 
ATOM    106  O   UNL     1       6.042 -30.554  -2.371  1.00  0.00    -0.237 OA
ATOM    107  O   UNL     1       4.934 -30.072  -4.527  1.00  0.00    -0.237 OA
ATOM    108  O   UNL     1       7.394 -30.094  -4.384  1.00  0.00    -0.744 OA
ENDBRANCH 104 105
ENDBRANCH  72  97
ENDBRANCH  46  47
ENDBRANCH  38  41
ENDBRANCH  36  37
ENDBRANCH  35  36
ENDBRANCH  34  35
ENDBRANCH   1  34
TORSDOF 20
