REMARK SMILES NS(=O)(=O)c1ccc(N2N=C(C(=O)NCCCCNC(=O)c3ccc(-c4c5nc(c(-c6c(F)cc(S(=O)(=O)[O-])cc6F)c6ccc([nH]6)c(-c6c(F)cc(S(=O)(=O)[O-])cc6F)c6nc(c(-c7c(F)cc(S(=O)(=O)[O-])cc7F)c7ccc4[nH]7)C=C6)C=C5)cc3)C[C@H]2c2ccco2)cc1
REMARK SMILES IDX 16 1 15 2 14 3 12 4 13 5 11 7 9 8 10 9 89 10 88 11 8 12 5 13
REMARK SMILES IDX 6 14 96 15 7 16 95 17 2 18 3 19 4 20 1 21 90 24 91 25 94 26
REMARK SMILES IDX 92 27 93 28 17 29 18 30 19 31 20 32 21 34 22 35 23 36 87 37
REMARK SMILES IDX 24 38 86 39 25 40 26 41 27 42 80 43 28 44 85 45 79 46 81 47
REMARK SMILES IDX 29 48 84 49 78 50 77 51 30 53 64 54 43 55 63 56 44 57 47 58
REMARK SMILES IDX 62 59 82 60 45 61 46 62 61 64 83 65 48 66 31 67 32 68 41 69
REMARK SMILES IDX 33 70 34 71 40 72 42 73 35 74 36 75 37 76 38 77 39 78 65 79
REMARK SMILES IDX 66 80 75 81 67 82 68 83 74 84 76 85 69 86 70 87 71 88 72 89
REMARK SMILES IDX 73 90 49 91 50 92 59 93 51 94 52 95 58 96 60 97 53 98 54 99
REMARK SMILES IDX 55 100 56 101 57 102
REMARK H PARENT 14 6 1 22 1 23 19 33 81 52 47 63
REMARK Flexibility Score: inf
ROOT
ATOM      1  C   UNL     1       2.480   2.427  12.084  1.00  0.00     0.023 C 
ENDROOT
BRANCH   1   2
ATOM      2  C   UNL     1       3.084   3.360  11.039  1.00  0.00     0.116 C 
BRANCH   2   3
ATOM      3  N   UNL     1       4.022   2.661  10.182  1.00  0.00    -0.351 N 
ATOM      4  C   UNL     1       4.035   2.304   8.857  1.00  0.00     0.267 C 
ATOM      5  O   UNL     1       4.981   1.627   8.460  1.00  0.00    -0.268 OA
ATOM      6  H   UNL     1       4.835   2.377  10.660  1.00  0.00     0.163 HD
BRANCH   4   7
ATOM      7  C   UNL     1       2.976   2.723   7.846  1.00  0.00     0.128 C 
ATOM      8  N   UNL     1       2.081   3.043   5.930  1.00  0.00    -0.254 N 
ATOM      9  N   UNL     1       3.076   2.390   6.593  1.00  0.00    -0.171 NA
ATOM     10  C   UNL     1       1.128   3.713   6.821  1.00  0.00     0.180 C 
ATOM     11  C   UNL     1       1.780   3.538   8.194  1.00  0.00     0.099 C 
BRANCH   8  12
ATOM     12  C   UNL     1       1.715   2.649   4.646  1.00  0.00     0.060 A 
ATOM     13  C   UNL     1       0.908   1.894   2.062  1.00  0.00     0.082 A 
ATOM     14  C   UNL     1       1.170   0.913   3.020  1.00  0.00     0.024 A 
ATOM     15  C   UNL     1       1.075   3.244   2.368  1.00  0.00     0.024 A 
ATOM     16  C   UNL     1       1.585   1.296   4.301  1.00  0.00     0.029 A 
ATOM     17  C   UNL     1       1.473   3.610   3.654  1.00  0.00     0.029 A 
BRANCH  13  18
ATOM     18  S   UNL     1       0.401   1.450   0.430  1.00  0.00     0.238 S 
ATOM     19  O   UNL     1       0.939   2.413  -0.508  1.00  0.00    -0.207 OA
ATOM     20  O   UNL     1      -0.996   1.101   0.464  1.00  0.00    -0.207 OA
BRANCH  18  21
ATOM     21  N   UNL     1       1.236   0.028   0.116  1.00  0.00    -0.225 NA
ATOM     22  H   UNL     1       1.001  -0.305  -0.819  1.00  0.00     0.137 HD
ATOM     23  H   UNL     1       0.976  -0.678   0.805  1.00  0.00     0.137 HD
ENDBRANCH  18  21
ENDBRANCH  13  18
ENDBRANCH   8  12
BRANCH  10  24
ATOM     24  C   UNL     1       0.791   5.146   6.532  1.00  0.00     0.128 A 
ATOM     25  C   UNL     1      -0.208   5.743   5.785  1.00  0.00     0.048 A 
ATOM     26  O   UNL     1       1.576   6.114   7.094  1.00  0.00    -0.467 OA
ATOM     27  C   UNL     1      -0.016   7.141   5.896  1.00  0.00     0.042 A 
ATOM     28  C   UNL     1       1.073   7.315   6.715  1.00  0.00     0.195 A 
ENDBRANCH  10  24
ENDBRANCH   4   7
ENDBRANCH   2   3
ENDBRANCH   1   2
BRANCH   1  29
ATOM     29  C   UNL     1       3.411   2.099  13.252  1.00  0.00     0.023 C 
BRANCH  29  30
ATOM     30  C   UNL     1       3.952   3.305  14.016  1.00  0.00     0.116 C 
BRANCH  30  31
ATOM     31  N   UNL     1       2.913   4.215  14.475  1.00  0.00    -0.352 N 
ATOM     32  C   UNL     1       2.822   4.884  15.673  1.00  0.00     0.251 C 
ATOM     33  H   UNL     1       2.176   4.374  13.842  1.00  0.00     0.163 HD
ATOM     34  O   UNL     1       1.819   5.538  15.937  1.00  0.00    -0.269 OA
BRANCH  32  35
ATOM     35  C   UNL     1       3.924   4.772  16.650  1.00  0.00     0.039 A 
ATOM     36  C   UNL     1       3.622   4.434  17.971  1.00  0.00     0.014 A 
ATOM     37  C   UNL     1       5.251   4.955  16.251  1.00  0.00     0.014 A 
ATOM     38  C   UNL     1       4.660   4.204  18.876  1.00  0.00     0.010 A 
ATOM     39  C   UNL     1       6.283   4.658  17.135  1.00  0.00     0.010 A 
ATOM     40  C   UNL     1       5.998   4.274  18.454  1.00  0.00    -0.014 A 
BRANCH  40  41
ATOM     41  C   UNL     1       7.113   3.935  19.374  1.00  0.00     0.031 A 
ATOM     42  C   UNL     1       8.112   4.987  19.768  1.00  0.00     0.074 A 
ATOM     43  C   UNL     1       7.264   2.664  19.796  1.00  0.00     0.049 A 
ATOM     44  N   UNL     1       9.190   4.869  20.498  1.00  0.00    -0.248 NA
ATOM     45  C   UNL     1       7.884   6.345  19.248  1.00  0.00     0.031 C 
ATOM     46  C   UNL     1       6.391   1.543  19.438  1.00  0.00     0.029 A 
ATOM     47  N   UNL     1       8.212   2.097  20.610  1.00  0.00    -0.354 N 
ATOM     48  C   UNL     1       9.776   6.129  20.515  1.00  0.00     0.074 A 
ATOM     49  C   UNL     1       8.962   6.984  19.679  1.00  0.00     0.031 C 
ATOM     50  C   UNL     1       6.831   0.430  20.048  1.00  0.00     0.029 A 
ATOM     51  C   UNL     1       8.033   0.749  20.811  1.00  0.00     0.049 A 
ATOM     52  H   UNL     1       8.951   2.608  21.012  1.00  0.00     0.167 HD
ATOM     53  C   UNL     1      10.878   6.542  21.186  1.00  0.00     0.037 A 
ATOM     54  C   UNL     1       8.758  -0.132  21.528  1.00  0.00     0.037 A 
ATOM     55  C   UNL     1      11.668   5.693  22.039  1.00  0.00     0.049 A 
ATOM     56  C   UNL     1       9.970   0.353  22.276  1.00  0.00     0.074 A 
ATOM     57  C   UNL     1      12.770   6.028  22.805  1.00  0.00     0.029 A 
ATOM     58  N   UNL     1      11.437   4.340  22.241  1.00  0.00    -0.354 N 
ATOM     59  N   UNL     1      10.477   1.562  22.327  1.00  0.00    -0.248 NA
ATOM     60  C   UNL     1      10.703  -0.642  23.070  1.00  0.00     0.031 C 
ATOM     61  C   UNL     1      13.226   4.871  23.446  1.00  0.00     0.029 A 
ATOM     62  C   UNL     1      12.383   3.823  23.111  1.00  0.00     0.049 A 
ATOM     63  H   UNL     1      10.709   3.823  21.828  1.00  0.00     0.167 HD
ATOM     64  C   UNL     1      11.573   1.478  23.177  1.00  0.00     0.074 A 
ATOM     65  C   UNL     1      11.649   0.103  23.626  1.00  0.00     0.031 C 
ATOM     66  C   UNL     1      12.439   2.452  23.553  1.00  0.00     0.037 A 
BRANCH  53  67
ATOM     67  C   UNL     1      11.285   7.981  21.030  1.00  0.00     0.058 A 
ATOM     68  C   UNL     1      10.533   9.021  21.601  1.00  0.00     0.135 A 
ATOM     69  C   UNL     1      12.448   8.325  20.323  1.00  0.00     0.135 A 
ATOM     70  F   UNL     1       9.404   8.749  22.273  1.00  0.00    -0.206 F 
ATOM     71  C   UNL     1      10.902  10.353  21.449  1.00  0.00     0.059 A 
ATOM     72  C   UNL     1      12.850   9.650  20.181  1.00  0.00     0.059 A 
ATOM     73  F   UNL     1      13.202   7.370  19.757  1.00  0.00    -0.206 F 
ATOM     74  C   UNL     1      12.061  10.658  20.734  1.00  0.00     0.060 A 
BRANCH  74  75
ATOM     75  S   UNL     1      12.525  12.392  20.542  1.00  0.00     0.124 S 
ATOM     76  O   UNL     1      11.561  12.840  19.542  1.00  0.00    -0.237 OA
ATOM     77  O   UNL     1      12.331  12.919  21.889  1.00  0.00    -0.237 OA
ATOM     78  O   UNL     1      13.912  12.325  20.092  1.00  0.00    -0.744 OA
ENDBRANCH  74  75
ENDBRANCH  53  67
BRANCH  54  79
ATOM     79  C   UNL     1       8.337  -1.556  21.600  1.00  0.00     0.058 A 
ATOM     80  C   UNL     1       7.785  -2.083  22.777  1.00  0.00     0.135 A 
ATOM     81  C   UNL     1       8.461  -2.411  20.495  1.00  0.00     0.135 A 
ATOM     82  F   UNL     1       7.652  -1.304  23.861  1.00  0.00    -0.206 F 
ATOM     83  C   UNL     1       7.383  -3.412  22.862  1.00  0.00     0.059 A 
ATOM     84  C   UNL     1       8.046  -3.738  20.548  1.00  0.00     0.059 A 
ATOM     85  F   UNL     1       8.967  -1.950  19.340  1.00  0.00    -0.206 F 
ATOM     86  C   UNL     1       7.516  -4.232  21.740  1.00  0.00     0.060 A 
BRANCH  86  87
ATOM     87  S   UNL     1       6.942  -5.941  21.843  1.00  0.00     0.124 S 
ATOM     88  O   UNL     1       7.998  -6.558  22.637  1.00  0.00    -0.237 OA
ATOM     89  O   UNL     1       5.649  -5.792  22.505  1.00  0.00    -0.237 OA
ATOM     90  O   UNL     1       6.876  -6.356  20.445  1.00  0.00    -0.744 OA
ENDBRANCH  86  87
ENDBRANCH  54  79
BRANCH  66  91
ATOM     91  C   UNL     1      13.524   2.074  24.521  1.00  0.00     0.058 A 
ATOM     92  C   UNL     1      14.633   1.312  24.123  1.00  0.00     0.135 A 
ATOM     93  C   UNL     1      13.475   2.519  25.852  1.00  0.00     0.135 A 
ATOM     94  F   UNL     1      14.723   0.857  22.864  1.00  0.00    -0.206 F 
ATOM     95  C   UNL     1      15.647   0.986  25.018  1.00  0.00     0.059 A 
ATOM     96  C   UNL     1      14.489   2.225  26.757  1.00  0.00     0.059 A 
ATOM     97  F   UNL     1      12.440   3.259  26.279  1.00  0.00    -0.206 F 
ATOM     98  C   UNL     1      15.566   1.447  26.333  1.00  0.00     0.060 A 
BRANCH  98  99
ATOM     99  S   UNL     1      16.903   1.045  27.477  1.00  0.00     0.124 S 
ATOM    100  O   UNL     1      16.616  -0.353  27.784  1.00  0.00    -0.237 OA
ATOM    101  O   UNL     1      18.093   1.285  26.667  1.00  0.00    -0.237 OA
ATOM    102  O   UNL     1      16.702   1.984  28.577  1.00  0.00    -0.744 OA
ENDBRANCH  98  99
ENDBRANCH  66  91
ENDBRANCH  40  41
ENDBRANCH  32  35
ENDBRANCH  30  31
ENDBRANCH  29  30
ENDBRANCH   1  29
TORSDOF 18
