REMARK SMILES O=C(NCCCCNC(=O)c1ccccc1-c1ccc(/C=C2/SC(=S)N(Cc3ccccc3)C2=O)o1)c1ccc(-c2c3nc(c(-c4c(F)cc(S(=O)(=O)[O-])cc4F)c4ccc([nH]4)c(-c4c(F)cc(S(=O)(=O)[O-])cc4F)c4nc(c(-c5c(F)cc(S(=O)(=O)[O-])cc5F)c5ccc2[nH]5)C=C4)C=C3)cc1
REMARK SMILES IDX 6 1 5 2 4 3 3 4 1 5 2 6 37 8 38 9 102 10 39 11 101 12 40 13
REMARK SMILES IDX 41 14 42 15 95 16 43 17 100 18 94 19 96 20 44 21 99 22 93 23
REMARK SMILES IDX 92 24 45 26 79 27 58 28 78 29 59 30 62 31 77 32 97 33 60 34
REMARK SMILES IDX 61 35 76 37 98 38 63 39 46 40 47 41 56 42 48 43 49 44 55 45
REMARK SMILES IDX 57 46 50 47 51 48 52 49 53 50 54 51 80 52 81 53 90 54 82 55
REMARK SMILES IDX 83 56 89 57 91 58 84 59 85 60 86 61 87 62 88 63 64 64 65 65
REMARK SMILES IDX 74 66 66 67 67 68 73 69 75 70 68 71 69 72 70 73 71 74 72 75
REMARK SMILES IDX 7 76 8 77 9 78 10 80 11 81 12 82 16 83 13 84 15 85 14 86
REMARK SMILES IDX 17 87 18 88 36 89 19 90 20 91 21 92 22 93 23 94 34 95 24 96
REMARK SMILES IDX 26 97 35 98 25 99 27 100 28 101 29 102 33 103 30 104 32 105
REMARK SMILES IDX 31 106
REMARK H PARENT 3 7 96 25 62 36 8 79
REMARK Flexibility Score: inf
ROOT
ATOM      1  C   UNL     1       4.602  -3.750   1.246  1.00  0.00     0.023 C 
ENDROOT
BRANCH   1   2
ATOM      2  C   UNL     1       5.032  -2.291   1.394  1.00  0.00     0.023 C 
BRANCH   2   3
ATOM      3  C   UNL     1       4.611  -1.349   0.271  1.00  0.00     0.116 C 
BRANCH   3   4
ATOM      4  N   UNL     1       3.167  -1.226   0.122  1.00  0.00    -0.352 N 
ATOM      5  O   UNL     1       1.154  -0.214   0.056  1.00  0.00    -0.269 OA
ATOM      6  C   UNL     1       2.372  -0.102   0.157  1.00  0.00     0.251 C 
ATOM      7  H   UNL     1       2.688  -2.073  -0.025  1.00  0.00     0.163 HD
BRANCH   6   8
ATOM      8  C   UNL     1       2.986   1.227   0.371  1.00  0.00     0.039 A 
ATOM      9  C   UNL     1       4.098   1.629  -0.371  1.00  0.00     0.014 A 
ATOM     10  C   UNL     1       2.473   2.056   1.372  1.00  0.00     0.014 A 
ATOM     11  C   UNL     1       4.805   2.763   0.013  1.00  0.00     0.010 A 
ATOM     12  C   UNL     1       3.134   3.246   1.693  1.00  0.00     0.010 A 
ATOM     13  C   UNL     1       4.335   3.584   1.052  1.00  0.00    -0.014 A 
BRANCH  13  14
ATOM     14  C   UNL     1       5.099   4.804   1.429  1.00  0.00     0.031 A 
ATOM     15  C   UNL     1       5.710   4.952   2.798  1.00  0.00     0.074 A 
ATOM     16  C   UNL     1       5.259   5.778   0.512  1.00  0.00     0.049 A 
ATOM     17  N   UNL     1       6.416   5.943   3.283  1.00  0.00    -0.248 NA
ATOM     18  C   UNL     1       5.496   3.851   3.749  1.00  0.00     0.031 C 
ATOM     19  C   UNL     1       4.709   5.751  -0.846  1.00  0.00     0.029 A 
ATOM     20  N   UNL     1       5.937   6.968   0.572  1.00  0.00    -0.354 N 
ATOM     21  C   UNL     1       6.711   5.599   4.599  1.00  0.00     0.074 A 
ATOM     22  C   UNL     1       6.082   4.318   4.844  1.00  0.00     0.031 C 
ATOM     23  C   UNL     1       5.111   6.846  -1.505  1.00  0.00     0.029 A 
ATOM     24  C   UNL     1       5.888   7.686  -0.600  1.00  0.00     0.049 A 
ATOM     25  H   UNL     1       6.413   7.278   1.375  1.00  0.00     0.167 HD
ATOM     26  C   UNL     1       7.442   6.284   5.513  1.00  0.00     0.037 A 
ATOM     27  C   UNL     1       6.396   8.893  -0.911  1.00  0.00     0.037 A 
ATOM     28  C   UNL     1       8.069   7.557   5.254  1.00  0.00     0.049 A 
ATOM     29  C   UNL     1       7.175   9.647   0.127  1.00  0.00     0.074 A 
ATOM     30  C   UNL     1       8.862   8.315   6.100  1.00  0.00     0.029 A 
ATOM     31  N   UNL     1       7.968   8.268   4.066  1.00  0.00    -0.354 N 
ATOM     32  N   UNL     1       7.471   9.291   1.354  1.00  0.00    -0.248 NA
ATOM     33  C   UNL     1       7.687  10.966  -0.260  1.00  0.00     0.031 C 
ATOM     34  C   UNL     1       9.192   9.506   5.444  1.00  0.00     0.029 A 
ATOM     35  C   UNL     1       8.658   9.466   4.166  1.00  0.00     0.049 A 
ATOM     36  H   UNL     1       7.476   7.965   3.268  1.00  0.00     0.167 HD
ATOM     37  C   UNL     1       8.227  10.332   1.879  1.00  0.00     0.074 A 
ATOM     38  C   UNL     1       8.350  11.326   0.831  1.00  0.00     0.031 C 
ATOM     39  C   UNL     1       8.773  10.450   3.115  1.00  0.00     0.037 A 
BRANCH  26  40
ATOM     40  C   UNL     1       7.575   5.688   6.892  1.00  0.00     0.058 A 
ATOM     41  C   UNL     1       8.321   4.522   7.132  1.00  0.00     0.135 A 
ATOM     42  C   UNL     1       6.957   6.301   7.995  1.00  0.00     0.135 A 
ATOM     43  F   UNL     1       8.928   3.887   6.117  1.00  0.00    -0.206 F 
ATOM     44  C   UNL     1       8.411   3.962   8.403  1.00  0.00     0.059 A 
ATOM     45  C   UNL     1       7.058   5.776   9.280  1.00  0.00     0.059 A 
ATOM     46  F   UNL     1       6.237   7.422   7.829  1.00  0.00    -0.206 F 
ATOM     47  C   UNL     1       7.768   4.592   9.470  1.00  0.00     0.060 A 
BRANCH  47  48
ATOM     48  S   UNL     1       7.862   3.833  11.106  1.00  0.00     0.124 S 
ATOM     49  O   UNL     1       6.977   2.683  10.942  1.00  0.00    -0.237 OA
ATOM     50  O   UNL     1       9.283   3.525  11.228  1.00  0.00    -0.237 OA
ATOM     51  O   UNL     1       7.371   4.879  11.997  1.00  0.00    -0.744 OA
ENDBRANCH  47  48
ENDBRANCH  26  40
BRANCH  27  52
ATOM     52  C   UNL     1       6.188   9.441  -2.276  1.00  0.00     0.058 A 
ATOM     53  C   UNL     1       7.252   9.530  -3.185  1.00  0.00     0.135 A 
ATOM     54  C   UNL     1       4.913   9.827  -2.719  1.00  0.00     0.135 A 
ATOM     55  F   UNL     1       8.489   9.177  -2.807  1.00  0.00    -0.206 F 
ATOM     56  C   UNL     1       7.060   9.983  -4.486  1.00  0.00     0.059 A 
ATOM     57  C   UNL     1       4.691  10.257  -4.022  1.00  0.00     0.059 A 
ATOM     58  F   UNL     1       3.860   9.742  -1.891  1.00  0.00    -0.206 F 
ATOM     59  C   UNL     1       5.773  10.335  -4.898  1.00  0.00     0.060 A 
BRANCH  59  60
ATOM     60  S   UNL     1       5.525  10.845  -6.612  1.00  0.00     0.124 S 
ATOM     61  O   UNL     1       6.149  12.163  -6.619  1.00  0.00    -0.237 OA
ATOM     62  O   UNL     1       6.229   9.799  -7.346  1.00  0.00    -0.237 OA
ATOM     63  O   UNL     1       4.072  10.834  -6.759  1.00  0.00    -0.744 OA
ENDBRANCH  59  60
ENDBRANCH  27  52
BRANCH  39  64
ATOM     64  C   UNL     1       9.589  11.684   3.392  1.00  0.00     0.058 A 
ATOM     65  C   UNL     1       8.997  12.947   3.545  1.00  0.00     0.135 A 
ATOM     66  C   UNL     1      10.983  11.591   3.540  1.00  0.00     0.135 A 
ATOM     67  F   UNL     1       7.670  13.094   3.404  1.00  0.00    -0.206 F 
ATOM     68  C   UNL     1       9.760  14.080   3.809  1.00  0.00     0.059 A 
ATOM     69  C   UNL     1      11.762  12.705   3.833  1.00  0.00     0.059 A 
ATOM     70  F   UNL     1      11.600  10.406   3.411  1.00  0.00    -0.206 F 
ATOM     71  C   UNL     1      11.143  13.948   3.953  1.00  0.00     0.060 A 
BRANCH  71  72
ATOM     72  S   UNL     1      12.120  15.421   4.322  1.00  0.00     0.124 S 
ATOM     73  O   UNL     1      12.105  16.114   3.038  1.00  0.00    -0.237 OA
ATOM     74  O   UNL     1      11.347  16.048   5.391  1.00  0.00    -0.237 OA
ATOM     75  O   UNL     1      13.413  14.879   4.728  1.00  0.00    -0.744 OA
ENDBRANCH  71  72
ENDBRANCH  39  64
ENDBRANCH  13  14
ENDBRANCH   6   8
ENDBRANCH   3   4
ENDBRANCH   2   3
ENDBRANCH   1   2
BRANCH   1  76
ATOM     76  C   UNL     1       4.953  -4.397  -0.086  1.00  0.00     0.116 C 
BRANCH  76  77
ATOM     77  N   UNL     1       6.376  -4.463  -0.367  1.00  0.00    -0.352 N 
ATOM     78  C   UNL     1       7.047  -5.406  -1.110  1.00  0.00     0.252 C 
ATOM     79  H   UNL     1       6.927  -3.746   0.022  1.00  0.00     0.163 HD
ATOM     80  O   UNL     1       8.254  -5.304  -1.308  1.00  0.00    -0.269 OA
BRANCH  78  81
ATOM     81  C   UNL     1       6.332  -6.595  -1.626  1.00  0.00     0.050 A 
ATOM     82  C   UNL     1       6.732  -7.834  -1.104  1.00  0.00     0.014 A 
ATOM     83  C   UNL     1       5.305  -6.519  -2.582  1.00  0.00     0.030 A 
ATOM     84  C   UNL     1       6.076  -9.000  -1.496  1.00  0.00     0.001 A 
ATOM     85  C   UNL     1       4.646  -7.700  -2.954  1.00  0.00     0.013 A 
ATOM     86  C   UNL     1       5.027  -8.931  -2.411  1.00  0.00     0.001 A 
BRANCH  83  87
ATOM     87  C   UNL     1       4.906  -5.259  -3.181  1.00  0.00     0.135 A 
ATOM     88  C   UNL     1       5.579  -4.266  -3.853  1.00  0.00     0.051 A 
ATOM     89  O   UNL     1       3.616  -4.879  -2.948  1.00  0.00    -0.457 OA
ATOM     90  C   UNL     1       4.656  -3.207  -4.004  1.00  0.00     0.051 A 
ATOM     91  C   UNL     1       3.452  -3.602  -3.427  1.00  0.00     0.128 A 
BRANCH  91  92
ATOM     92  C   UNL     1       2.264  -2.841  -3.267  1.00  0.00     0.068 C 
ATOM     93  C   UNL     1       1.539  -2.453  -4.321  1.00  0.00     0.084 C 
ATOM     94  S   UNL     1       0.359  -1.204  -4.294  1.00  0.00    -0.054 SA
ATOM     95  C   UNL     1       1.738  -2.901  -5.716  1.00  0.00     0.266 C 
ATOM     96  C   UNL     1       0.505  -0.944  -6.038  1.00  0.00     0.148 C 
ATOM     97  N   UNL     1       1.301  -1.927  -6.586  1.00  0.00    -0.288 N 
ATOM     98  O   UNL     1       2.167  -4.006  -6.027  1.00  0.00    -0.268 OA
ATOM     99  S   UNL     1      -0.266   0.313  -6.813  1.00  0.00    -0.052 S 
BRANCH  97 100
ATOM    100  C   UNL     1       1.646  -2.066  -7.997  1.00  0.00     0.163 C 
BRANCH 100 101
ATOM    101  C   UNL     1       3.051  -1.579  -8.310  1.00  0.00    -0.028 A 
ATOM    102  C   UNL     1       3.249  -0.490  -9.169  1.00  0.00     0.005 A 
ATOM    103  C   UNL     1       4.184  -2.229  -7.789  1.00  0.00     0.005 A 
ATOM    104  C   UNL     1       4.541  -0.069  -9.499  1.00  0.00     0.000 A 
ATOM    105  C   UNL     1       5.473  -1.795  -8.102  1.00  0.00     0.000 A 
ATOM    106  C   UNL     1       5.651  -0.718  -8.963  1.00  0.00     0.000 A 
ENDBRANCH 100 101
ENDBRANCH  97 100
ENDBRANCH  91  92
ENDBRANCH  83  87
ENDBRANCH  78  81
ENDBRANCH  76  77
ENDBRANCH   1  76
TORSDOF 18
