REMARK SMILES CC[C@H](C)[C@@H](C)NC(=O)c1ccncc1/C=C/C(=O)NCCCCNC(=O)c1ccc(-c2c3nc(c(-c4c(F)cc(S(=O)(=O)[O-])cc4F)c4ccc([nH]4)c(-c4c(F)cc(S(=O)(=O)[O-])cc4F)c4nc(c(-c5c(F)cc(S(=O)(=O)[O-])cc5F)c5ccc2[nH]5)C=C4)C=C3)cc1
REMARK SMILES IDX 21 1 20 2 18 3 19 4 17 6 16 7 15 8 10 9 11 10 12 11 14 12
REMARK SMILES IDX 13 13 8 14 7 15 9 17 5 18 6 19 3 20 4 21 2 22 1 23 22 24
REMARK SMILES IDX 23 25 24 26 25 27 26 28 27 30 28 31 29 32 93 33 30 34 92 35
REMARK SMILES IDX 31 36 32 37 33 38 86 39 34 40 91 41 85 42 87 43 35 44 90 45
REMARK SMILES IDX 84 46 83 47 36 49 70 50 49 51 69 52 50 53 53 54 68 55 88 56
REMARK SMILES IDX 51 57 52 58 67 60 89 61 54 62 37 63 38 64 47 65 39 66 40 67
REMARK SMILES IDX 46 68 48 69 41 70 42 71 43 72 44 73 45 74 71 75 72 76 81 77
REMARK SMILES IDX 73 78 74 79 80 80 82 81 75 82 76 83 77 84 78 85 79 86 55 87
REMARK SMILES IDX 56 88 65 89 57 90 58 91 64 92 66 93 59 94 60 95 61 96 62 97
REMARK SMILES IDX 63 98
REMARK H PARENT 20 5 7 16 25 29 87 48 53 59
REMARK Flexibility Score: inf
ROOT
ATOM      1  C   UNL     1       0.136   4.494   7.284  1.00  0.00     0.116 C 
ENDROOT
BRANCH   1   2
ATOM      2  N   UNL     1      -0.995   5.386   7.104  1.00  0.00    -0.353 N 
ATOM      3  C   UNL     1      -2.286   5.099   6.792  1.00  0.00     0.244 C 
ATOM      4  O   UNL     1      -3.129   5.993   6.760  1.00  0.00    -0.270 OA
ATOM      5  H   UNL     1      -0.797   6.343   7.225  1.00  0.00     0.163 HD
BRANCH   3   6
ATOM      6  C   UNL     1      -2.719   3.698   6.583  1.00  0.00     0.072 C 
ATOM      7  C   UNL     1      -2.128   2.826   5.750  1.00  0.00     0.016 C 
BRANCH   7   8
ATOM      8  C   UNL     1      -2.602   1.442   5.589  1.00  0.00     0.006 A 
ATOM      9  C   UNL     1      -1.756   0.321   5.613  1.00  0.00     0.050 A 
ATOM     10  C   UNL     1      -2.290  -0.968   5.513  1.00  0.00     0.034 A 
ATOM     11  C   UNL     1      -3.649  -1.098   5.304  1.00  0.00     0.112 A 
ATOM     12  C   UNL     1      -3.952   1.184   5.361  1.00  0.00     0.119 A 
ATOM     13  N   UNL     1      -4.490  -0.051   5.208  1.00  0.00    -0.264 NA
BRANCH   9  14
ATOM     14  C   UNL     1      -0.299   0.457   5.838  1.00  0.00     0.252 C 
ATOM     15  N   UNL     1       0.600  -0.098   4.962  1.00  0.00    -0.349 N 
ATOM     16  H   UNL     1       1.541  -0.006   5.234  1.00  0.00     0.164 HD
ATOM     17  O   UNL     1       0.114   1.070   6.817  1.00  0.00    -0.269 OA
BRANCH  15  18
ATOM     18  C   UNL     1       0.401  -0.805   3.692  1.00  0.00     0.082 C 
ATOM     19  C   UNL     1       1.056  -2.183   3.820  1.00  0.00     0.031 C 
BRANCH  18  20
ATOM     20  C   UNL     1       0.972   0.028   2.511  1.00  0.00     0.008 C 
ATOM     21  C   UNL     1       0.945  -0.747   1.187  1.00  0.00     0.010 C 
BRANCH  20  22
ATOM     22  C   UNL     1       0.269   1.398   2.354  1.00  0.00     0.002 C 
ATOM     23  C   UNL     1      -1.171   1.336   1.858  1.00  0.00     0.004 C 
ENDBRANCH  20  22
ENDBRANCH  18  20
ENDBRANCH  15  18
ENDBRANCH   9  14
ENDBRANCH   7   8
ENDBRANCH   3   6
ENDBRANCH   1   2
BRANCH   1  24
ATOM     24  C   UNL     1       1.085   4.570   6.088  1.00  0.00     0.023 C 
BRANCH  24  25
ATOM     25  C   UNL     1       1.989   5.807   6.087  1.00  0.00     0.023 C 
BRANCH  25  26
ATOM     26  C   UNL     1       2.952   5.899   7.267  1.00  0.00     0.116 C 
BRANCH  26  27
ATOM     27  N   UNL     1       3.840   4.753   7.372  1.00  0.00    -0.352 N 
ATOM     28  C   UNL     1       5.135   4.713   7.833  1.00  0.00     0.251 C 
ATOM     29  H   UNL     1       3.465   3.893   7.073  1.00  0.00     0.163 HD
ATOM     30  O   UNL     1       5.792   3.686   7.734  1.00  0.00    -0.269 OA
BRANCH  28  31
ATOM     31  C   UNL     1       5.733   5.933   8.419  1.00  0.00     0.039 A 
ATOM     32  C   UNL     1       7.014   6.316   8.014  1.00  0.00     0.014 A 
ATOM     33  C   UNL     1       5.033   6.697   9.356  1.00  0.00     0.014 A 
ATOM     34  C   UNL     1       7.573   7.494   8.515  1.00  0.00     0.010 A 
ATOM     35  C   UNL     1       5.560   7.906   9.798  1.00  0.00     0.010 A 
ATOM     36  C   UNL     1       6.841   8.310   9.393  1.00  0.00    -0.014 A 
BRANCH  36  37
ATOM     37  C   UNL     1       7.414   9.571   9.928  1.00  0.00     0.031 A 
ATOM     38  C   UNL     1       7.679   9.705  11.404  1.00  0.00     0.074 A 
ATOM     39  C   UNL     1       7.642  10.609   9.100  1.00  0.00     0.049 A 
ATOM     40  N   UNL     1       8.119  10.739  12.074  1.00  0.00    -0.248 NA
ATOM     41  C   UNL     1       7.381   8.531  12.241  1.00  0.00     0.031 C 
ATOM     42  C   UNL     1       7.371  10.619   7.661  1.00  0.00     0.029 A 
ATOM     43  N   UNL     1       8.145  11.860   9.352  1.00  0.00    -0.354 N 
ATOM     44  C   UNL     1       8.134  10.346  13.408  1.00  0.00     0.074 A 
ATOM     45  C   UNL     1       7.604   9.002  13.459  1.00  0.00     0.031 C 
ATOM     46  C   UNL     1       7.730  11.811   7.155  1.00  0.00     0.029 A 
ATOM     47  C   UNL     1       8.229  12.657   8.235  1.00  0.00     0.049 A 
ATOM     48  H   UNL     1       8.420  12.159  10.249  1.00  0.00     0.167 HD
ATOM     49  C   UNL     1       8.576  11.032  14.489  1.00  0.00     0.037 A 
ATOM     50  C   UNL     1       8.662  13.925   8.098  1.00  0.00     0.037 A 
ATOM     51  C   UNL     1       9.131  12.359  14.427  1.00  0.00     0.049 A 
ATOM     52  C   UNL     1       9.184  14.655   9.306  1.00  0.00     0.074 A 
ATOM     53  C   UNL     1       9.647  13.127  15.456  1.00  0.00     0.029 A 
ATOM     54  N   UNL     1       9.251  13.112  13.268  1.00  0.00    -0.354 N 
ATOM     55  N   UNL     1       9.241  14.250  10.553  1.00  0.00    -0.248 NA
ATOM     56  C   UNL     1       9.718  16.006   9.087  1.00  0.00     0.031 C 
ATOM     57  C   UNL     1      10.053  14.355  14.924  1.00  0.00     0.029 A 
ATOM     58  C   UNL     1       9.831  14.336  13.556  1.00  0.00     0.049 A 
ATOM     59  H   UNL     1       8.965  12.819  12.373  1.00  0.00     0.167 HD
ATOM     60  C   UNL     1       9.847  15.281  11.261  1.00  0.00     0.074 A 
ATOM     61  C   UNL     1      10.145  16.326  10.302  1.00  0.00     0.031 C 
ATOM     62  C   UNL     1      10.136  15.356  12.584  1.00  0.00     0.037 A 
BRANCH  49  63
ATOM     63  C   UNL     1       8.485  10.349  15.827  1.00  0.00     0.058 A 
ATOM     64  C   UNL     1       9.302   9.253  16.149  1.00  0.00     0.135 A 
ATOM     65  C   UNL     1       7.583  10.801  16.803  1.00  0.00     0.135 A 
ATOM     66  F   UNL     1      10.171   8.769  15.247  1.00  0.00    -0.206 F 
ATOM     67  C   UNL     1       9.201   8.605  17.375  1.00  0.00     0.059 A 
ATOM     68  C   UNL     1       7.486  10.186  18.048  1.00  0.00     0.059 A 
ATOM     69  F   UNL     1       6.779  11.845  16.550  1.00  0.00    -0.206 F 
ATOM     70  C   UNL     1       8.287   9.077  18.318  1.00  0.00     0.060 A 
BRANCH  70  71
ATOM     71  S   UNL     1       8.164   8.222  19.903  1.00  0.00     0.124 S 
ATOM     72  O   UNL     1       7.443   7.010  19.524  1.00  0.00    -0.237 OA
ATOM     73  O   UNL     1       9.564   8.037  20.269  1.00  0.00    -0.237 OA
ATOM     74  O   UNL     1       7.420   9.160  20.738  1.00  0.00    -0.744 OA
ENDBRANCH  70  71
ENDBRANCH  49  63
BRANCH  50  75
ATOM     75  C   UNL     1       8.662  14.568   6.757  1.00  0.00     0.058 A 
ATOM     76  C   UNL     1       9.861  14.801   6.068  1.00  0.00     0.135 A 
ATOM     77  C   UNL     1       7.464  14.944   6.129  1.00  0.00     0.135 A 
ATOM     78  F   UNL     1      11.032  14.461   6.628  1.00  0.00    -0.206 F 
ATOM     79  C   UNL     1       9.877  15.400   4.812  1.00  0.00     0.059 A 
ATOM     80  C   UNL     1       7.452  15.523   4.864  1.00  0.00     0.059 A 
ATOM     81  F   UNL     1       6.288  14.725   6.738  1.00  0.00    -0.206 F 
ATOM     82  C   UNL     1       8.666  15.757   4.218  1.00  0.00     0.060 A 
BRANCH  82  83
ATOM     83  S   UNL     1       8.694  16.487   2.566  1.00  0.00     0.124 S 
ATOM     84  O   UNL     1       9.171  17.835   2.849  1.00  0.00    -0.237 OA
ATOM     85  O   UNL     1       9.626  15.614   1.859  1.00  0.00    -0.237 OA
ATOM     86  O   UNL     1       7.303  16.386   2.132  1.00  0.00    -0.744 OA
ENDBRANCH  82  83
ENDBRANCH  50  75
BRANCH  62  87
ATOM     87  C   UNL     1      10.857  16.584  13.065  1.00  0.00     0.058 A 
ATOM     88  C   UNL     1      10.215  17.827  13.174  1.00  0.00     0.135 A 
ATOM     89  C   UNL     1      12.202  16.502  13.462  1.00  0.00     0.135 A 
ATOM     90  F   UNL     1       8.931  17.959  12.804  1.00  0.00    -0.206 F 
ATOM     91  C   UNL     1      10.890  18.954  13.631  1.00  0.00     0.059 A 
ATOM     92  C   UNL     1      12.889  17.610  13.947  1.00  0.00     0.059 A 
ATOM     93  F   UNL     1      12.859  15.333  13.389  1.00  0.00    -0.206 F 
ATOM     94  C   UNL     1      12.228  18.836  14.013  1.00  0.00     0.060 A 
BRANCH  94  95
ATOM     95  S   UNL     1      13.090  20.300  14.623  1.00  0.00     0.124 S 
ATOM     96  O   UNL     1      13.341  21.029  13.384  1.00  0.00    -0.237 OA
ATOM     97  O   UNL     1      12.103  20.895  15.520  1.00  0.00    -0.237 OA
ATOM     98  O   UNL     1      14.272  19.750  15.279  1.00  0.00    -0.744 OA
ENDBRANCH  94  95
ENDBRANCH  62  87
ENDBRANCH  36  37
ENDBRANCH  28  31
ENDBRANCH  26  27
ENDBRANCH  25  26
ENDBRANCH  24  25
ENDBRANCH   1  24
TORSDOF 19
