REMARK SMILES O=C(N[C@]1(C(=O)NCCCCNC(=O)c2ccc(-c3c4nc(c(-c5c(F)cc(S(=O)(=O)[O-])cc5F)c5ccc([nH]5)c(-c5c(F)cc(S(=O)(=O)[O-])cc5F)c5nc(c(-c6c(F)cc(S(=O)(=O)[O-])cc6F)c6ccc3[nH]6)C=C5)C=C4)cc2)CC[C@H](c2ccccc2)CC1)OCC1c2ccccc2-c2ccccc21
REMARK SMILES IDX 9 1 8 2 7 3 5 4 6 5 4 7 81 8 91 9 82 10 90 11 83 12 3 13
REMARK SMILES IDX 1 14 2 15 92 17 93 18 94 19 95 20 106 21 96 22 100 23 101 24
REMARK SMILES IDX 105 25 97 26 99 27 102 28 104 29 98 30 103 31 84 32 85 33
REMARK SMILES IDX 89 34 86 35 88 36 87 37 10 38 11 39 12 40 13 41 14 43 15 44
REMARK SMILES IDX 16 45 80 46 17 47 79 48 18 49 19 50 20 51 73 52 21 53 78 54
REMARK SMILES IDX 72 55 74 56 22 57 77 58 71 59 70 60 23 62 57 63 36 64 56 65
REMARK SMILES IDX 37 66 40 67 55 68 75 69 38 70 39 71 54 73 76 74 41 75 24 76
REMARK SMILES IDX 25 77 34 78 26 79 27 80 33 81 35 82 28 83 29 84 30 85 31 86
REMARK SMILES IDX 32 87 58 88 59 89 68 90 60 91 61 92 67 93 69 94 62 95 63 96
REMARK SMILES IDX 64 97 65 98 66 99 42 100 43 101 52 102 44 103 45 104 51 105
REMARK SMILES IDX 53 106 46 107 47 108 48 109 49 110 50 111
REMARK H PARENT 7 6 3 16 12 42 74 61 40 72
REMARK Flexibility Score: inf
ROOT
ATOM      1  C   UNL     1       7.393   0.363  -4.000  1.00  0.00     0.023 C 
ENDROOT
BRANCH   1   2
ATOM      2  C   UNL     1       6.123   1.292  -3.858  1.00  0.00     0.116 C 
BRANCH   2   3
ATOM      3  N   UNL     1       5.057   0.749  -2.902  1.00  0.00    -0.354 N 
ATOM      4  C   UNL     1       4.205   1.467  -2.047  1.00  0.00     0.245 C 
ATOM      5  O   UNL     1       3.690   2.502  -2.504  1.00  0.00    -0.272 OA
ATOM      6  H   UNL     1       4.956  -0.231  -2.884  1.00  0.00     0.163 HD
BRANCH   4   7
ATOM      7  C   UNL     1       3.767   0.984  -0.395  1.00  0.00     0.122 C 
ATOM      8  C   UNL     1       3.686   2.305   0.476  1.00  0.00     0.039 C 
ATOM      9  C   UNL     1       3.815  -0.022   0.797  1.00  0.00     0.039 C 
ATOM     10  C   UNL     1       4.607   2.386   1.812  1.00  0.00     0.011 C 
ATOM     11  C   UNL     1       4.992  -0.127   1.713  1.00  0.00     0.011 C 
ATOM     12  C   UNL     1       5.541   1.196   2.210  1.00  0.00     0.019 C 
BRANCH   7  13
ATOM     13  N   UNL     1       2.577   0.390  -0.974  1.00  0.00    -0.307 N 
ATOM     14  O   UNL     1       1.717  -1.431  -2.012  1.00  0.00    -0.225 OA
ATOM     15  C   UNL     1       2.696  -0.844  -1.609  1.00  0.00     0.408 C 
ATOM     16  H   UNL     1       1.707   0.847  -0.920  1.00  0.00     0.168 HD
BRANCH  15  17
ATOM     17  O   UNL     1       3.988  -1.272  -1.895  1.00  0.00    -0.449 OA
BRANCH  17  18
ATOM     18  C   UNL     1       5.189  -1.538  -1.036  1.00  0.00     0.248 C 
BRANCH  18  19
ATOM     19  C   UNL     1       6.539  -0.615  -1.025  1.00  0.00     0.088 C 
ATOM     20  C   UNL     1       7.744  -1.404  -0.455  1.00  0.00    -0.029 A 
ATOM     21  C   UNL     1       7.034   0.892  -0.661  1.00  0.00    -0.029 A 
ATOM     22  C   UNL     1       7.979  -2.769  -0.470  1.00  0.00     0.005 A 
ATOM     23  C   UNL     1       8.747  -0.528   0.001  1.00  0.00    -0.014 A 
ATOM     24  C   UNL     1       8.343   0.838  -0.151  1.00  0.00    -0.014 A 
ATOM     25  C   UNL     1       6.618   2.216  -0.890  1.00  0.00     0.005 A 
ATOM     26  C   UNL     1       9.216  -3.238  -0.021  1.00  0.00     0.000 A 
ATOM     27  C   UNL     1       9.970  -0.990   0.451  1.00  0.00     0.009 A 
ATOM     28  C   UNL     1       9.146   1.981   0.076  1.00  0.00     0.009 A 
ATOM     29  C   UNL     1       7.393   3.372  -0.674  1.00  0.00     0.000 A 
ATOM     30  C   UNL     1      10.204  -2.356   0.434  1.00  0.00     0.001 A 
ATOM     31  C   UNL     1       8.672   3.255  -0.201  1.00  0.00     0.001 A 
ENDBRANCH  18  19
ENDBRANCH  17  18
ENDBRANCH  15  17
ENDBRANCH   7  13
BRANCH  12  32
ATOM     32  C   UNL     1       5.963   0.834   3.649  1.00  0.00    -0.045 A 
ATOM     33  C   UNL     1       5.194   1.148   4.769  1.00  0.00     0.004 A 
ATOM     34  C   UNL     1       6.974  -0.159   3.793  1.00  0.00     0.004 A 
ATOM     35  C   UNL     1       5.343   0.406   5.951  1.00  0.00     0.000 A 
ATOM     36  C   UNL     1       7.093  -0.917   4.959  1.00  0.00     0.000 A 
ATOM     37  C   UNL     1       6.256  -0.648   6.033  1.00  0.00     0.000 A 
ENDBRANCH  12  32
ENDBRANCH   4   7
ENDBRANCH   2   3
ENDBRANCH   1   2
BRANCH   1  38
ATOM     38  C   UNL     1       8.671   0.790  -4.737  1.00  0.00     0.023 C 
BRANCH  38  39
ATOM     39  C   UNL     1       9.658   1.663  -3.933  1.00  0.00     0.116 C 
BRANCH  39  40
ATOM     40  N   UNL     1      10.430   0.993  -2.870  1.00  0.00    -0.352 N 
ATOM     41  C   UNL     1      11.742   1.192  -2.464  1.00  0.00     0.251 C 
ATOM     42  H   UNL     1       9.939   0.300  -2.372  1.00  0.00     0.163 HD
ATOM     43  O   UNL     1      12.187   0.664  -1.448  1.00  0.00    -0.269 OA
BRANCH  41  44
ATOM     44  C   UNL     1      12.647   1.985  -3.320  1.00  0.00     0.039 A 
ATOM     45  C   UNL     1      13.789   1.366  -3.841  1.00  0.00     0.014 A 
ATOM     46  C   UNL     1      12.274   3.257  -3.744  1.00  0.00     0.014 A 
ATOM     47  C   UNL     1      14.437   1.938  -4.938  1.00  0.00     0.010 A 
ATOM     48  C   UNL     1      12.862   3.778  -4.890  1.00  0.00     0.010 A 
ATOM     49  C   UNL     1      13.905   3.090  -5.536  1.00  0.00    -0.014 A 
BRANCH  49  50
ATOM     50  C   UNL     1      14.317   3.534  -6.895  1.00  0.00     0.031 A 
ATOM     51  C   UNL     1      14.840   4.924  -7.107  1.00  0.00     0.074 A 
ATOM     52  C   UNL     1      14.052   2.744  -7.957  1.00  0.00     0.049 A 
ATOM     53  N   UNL     1      15.049   5.567  -8.225  1.00  0.00    -0.248 NA
ATOM     54  C   UNL     1      15.121   5.710  -5.896  1.00  0.00     0.031 C 
ATOM     55  C   UNL     1      13.469   1.400  -7.893  1.00  0.00     0.029 A 
ATOM     56  N   UNL     1      14.202   2.968  -9.305  1.00  0.00    -0.354 N 
ATOM     57  C   UNL     1      15.444   6.846  -7.856  1.00  0.00     0.074 A 
ATOM     58  C   UNL     1      15.408   6.897  -6.409  1.00  0.00     0.031 C 
ATOM     59  C   UNL     1      13.316   0.921  -9.137  1.00  0.00     0.029 A 
ATOM     60  C   UNL     1      13.742   1.937 -10.093  1.00  0.00     0.049 A 
ATOM     61  H   UNL     1      14.600   3.790  -9.673  1.00  0.00     0.167 HD
ATOM     62  C   UNL     1      15.815   7.879  -8.650  1.00  0.00     0.037 A 
ATOM     63  C   UNL     1      13.649   1.826 -11.434  1.00  0.00     0.037 A 
ATOM     64  C   UNL     1      15.884   7.806 -10.085  1.00  0.00     0.049 A 
ATOM     65  C   UNL     1      14.115   2.964 -12.297  1.00  0.00     0.074 A 
ATOM     66  C   UNL     1      16.334   8.765 -10.974  1.00  0.00     0.029 A 
ATOM     67  N   UNL     1      15.491   6.712 -10.842  1.00  0.00    -0.354 N 
ATOM     68  N   UNL     1      14.566   4.140 -11.931  1.00  0.00    -0.248 NA
ATOM     69  C   UNL     1      14.067   2.765 -13.752  1.00  0.00     0.031 C 
ATOM     70  C   UNL     1      16.179   8.265 -12.271  1.00  0.00     0.029 A 
ATOM     71  C   UNL     1      15.673   6.978 -12.189  1.00  0.00     0.049 A 
ATOM     72  H   UNL     1      15.134   5.870 -10.476  1.00  0.00     0.167 HD
ATOM     73  C   UNL     1      14.876   4.812 -13.106  1.00  0.00     0.074 A 
ATOM     74  C   UNL     1      14.568   3.911 -14.197  1.00  0.00     0.031 C 
ATOM     75  C   UNL     1      15.375   6.063 -13.264  1.00  0.00     0.037 A 
BRANCH  62  76
ATOM     76  C   UNL     1      16.167   9.175  -7.973  1.00  0.00     0.058 A 
ATOM     77  C   UNL     1      17.324   9.308  -7.189  1.00  0.00     0.135 A 
ATOM     78  C   UNL     1      15.332  10.296  -8.103  1.00  0.00     0.135 A 
ATOM     79  F   UNL     1      18.151   8.264  -7.021  1.00  0.00    -0.206 F 
ATOM     80  C   UNL     1      17.612  10.488  -6.511  1.00  0.00     0.059 A 
ATOM     81  C   UNL     1      15.617  11.497  -7.460  1.00  0.00     0.059 A 
ATOM     82  F   UNL     1      14.216  10.227  -8.846  1.00  0.00    -0.206 F 
ATOM     83  C   UNL     1      16.746  11.574  -6.645  1.00  0.00     0.060 A 
BRANCH  83  84
ATOM     84  S   UNL     1      17.108  13.085  -5.727  1.00  0.00     0.124 S 
ATOM     85  O   UNL     1      16.699  12.707  -4.377  1.00  0.00    -0.237 OA
ATOM     86  O   UNL     1      18.544  13.241  -5.932  1.00  0.00    -0.237 OA
ATOM     87  O   UNL     1      16.272  14.087  -6.379  1.00  0.00    -0.744 OA
ENDBRANCH  83  84
ENDBRANCH  62  76
BRANCH  63  88
ATOM     88  C   UNL     1      13.105   0.577 -12.032  1.00  0.00     0.058 A 
ATOM     89  C   UNL     1      13.952  -0.349 -12.659  1.00  0.00     0.135 A 
ATOM     90  C   UNL     1      11.741   0.258 -11.943  1.00  0.00     0.135 A 
ATOM     91  F   UNL     1      15.262  -0.086 -12.776  1.00  0.00    -0.206 F 
ATOM     92  C   UNL     1      13.468  -1.546 -13.178  1.00  0.00     0.059 A 
ATOM     93  C   UNL     1      11.236  -0.942 -12.435  1.00  0.00     0.059 A 
ATOM     94  F   UNL     1      10.892   1.102 -11.336  1.00  0.00    -0.206 F 
ATOM     95  C   UNL     1      12.108  -1.837 -13.054  1.00  0.00     0.060 A 
BRANCH  95  96
ATOM     96  S   UNL     1      11.505  -3.431 -13.655  1.00  0.00     0.124 S 
ATOM     97  O   UNL     1      11.530  -3.230 -15.099  1.00  0.00    -0.237 OA
ATOM     98  O   UNL     1      12.501  -4.356 -13.122  1.00  0.00    -0.237 OA
ATOM     99  O   UNL     1      10.179  -3.536 -13.053  1.00  0.00    -0.744 OA
ENDBRANCH  95  96
ENDBRANCH  63  88
BRANCH  75 100
ATOM    100  C   UNL     1      15.657   6.533 -14.663  1.00  0.00     0.058 A 
ATOM    101  C   UNL     1      14.629   6.942 -15.524  1.00  0.00     0.135 A 
ATOM    102  C   UNL     1      16.983   6.673 -15.107  1.00  0.00     0.135 A 
ATOM    103  F   UNL     1      13.345   6.819 -15.150  1.00  0.00    -0.206 F 
ATOM    104  C   UNL     1      14.904   7.479 -16.777  1.00  0.00     0.059 A 
ATOM    105  C   UNL     1      17.281   7.228 -16.346  1.00  0.00     0.059 A 
ATOM    106  F   UNL     1      18.002   6.301 -14.317  1.00  0.00    -0.206 F 
ATOM    107  C   UNL     1      16.234   7.628 -17.176  1.00  0.00     0.060 A 
BRANCH 107 108
ATOM    108  S   UNL     1      16.581   8.403 -18.769  1.00  0.00     0.124 S 
ATOM    109  O   UNL     1      16.228   7.336 -19.699  1.00  0.00    -0.237 OA
ATOM    110  O   UNL     1      15.685   9.556 -18.757  1.00  0.00    -0.237 OA
ATOM    111  O   UNL     1      18.003   8.723 -18.690  1.00  0.00    -0.744 OA
ENDBRANCH 107 108
ENDBRANCH  75 100
ENDBRANCH  49  50
ENDBRANCH  41  44
ENDBRANCH  39  40
ENDBRANCH  38  39
ENDBRANCH   1  38
TORSDOF 19
