REMARK SMILES CO[C@@H]1C[NH2+][C@@H](O[C@@H]2C[C@@H](C(=O)NCCCCNC(=O)c3ccc(-c4c5nc(c(-c6c(F)cc(S(=O)(=O)[O-])cc6F)c6ccc([nH]6)c(-c6c(F)cc(S(=O)(=O)[O-])cc6F)c6nc(c(-c7c(F)cc(S(=O)(=O)[O-])cc7F)c7ccc4[nH]7)C=C6)C=C5)cc3)N(C(=O)OC(C)(C)C)C2)c2cc(Cl)ccc21
REMARK SMILES IDX 15 1 14 2 13 3 11 4 12 5 10 7 8 8 9 9 95 10 87 11 7 12 6 13
REMARK SMILES IDX 3 14 4 15 102 16 5 17 96 18 101 19 97 22 100 23 98 24 99 25
REMARK SMILES IDX 2 26 1 27 88 28 89 29 90 30 91 31 92 32 93 33 94 34 16 35
REMARK SMILES IDX 17 36 18 37 19 38 20 40 21 41 22 42 86 43 23 44 85 45 24 46
REMARK SMILES IDX 25 47 26 48 79 49 27 50 84 51 78 52 80 53 28 54 83 55 77 56
REMARK SMILES IDX 76 57 29 59 63 60 42 61 62 62 43 63 46 64 61 65 81 66 44 67
REMARK SMILES IDX 45 68 60 70 82 71 47 72 30 73 31 74 40 75 32 76 33 77 39 78
REMARK SMILES IDX 41 79 34 80 35 81 36 82 37 83 38 84 64 85 65 86 74 87 66 88
REMARK SMILES IDX 67 89 73 90 75 91 68 92 69 93 70 94 71 95 72 96 48 97 49 98
REMARK SMILES IDX 58 99 50 100 51 101 57 102 59 103 52 104 53 105 54 106
REMARK SMILES IDX 55 107 56 108
REMARK H PARENT 13 6 5 20 5 21 18 39 80 58 46 69
REMARK Flexibility Score: inf
ROOT
ATOM      1  C   UNL     1      -1.312  -4.231   3.572  1.00  0.00     0.023 C 
ENDROOT
BRANCH   1   2
ATOM      2  C   UNL     1      -0.679  -2.810   3.627  1.00  0.00     0.116 C 
BRANCH   2   3
ATOM      3  N   UNL     1       0.652  -2.732   4.297  1.00  0.00    -0.354 N 
ATOM      4  C   UNL     1       1.984  -2.546   3.924  1.00  0.00     0.243 C 
ATOM      5  O   UNL     1       2.783  -2.308   4.835  1.00  0.00    -0.273 OA
ATOM      6  H   UNL     1       0.567  -2.842   5.272  1.00  0.00     0.163 HD
BRANCH   4   7
ATOM      7  C   UNL     1       2.480  -2.594   2.433  1.00  0.00     0.180 C 
ATOM      8  C   UNL     1       4.019  -3.394   0.662  1.00  0.00     0.147 C 
ATOM      9  C   UNL     1       3.404  -3.770   2.040  1.00  0.00     0.069 C 
ATOM     10  C   UNL     1       4.114  -1.867   0.759  1.00  0.00     0.156 C 
ATOM     11  N   UNL     1       3.150  -1.453   1.783  1.00  0.00    -0.293 N 
BRANCH   8  12
ATOM     12  O   UNL     1       3.719  -3.990  -0.607  1.00  0.00    -0.320 OA
BRANCH  12  13
ATOM     13  C   UNL     1       2.550  -4.204  -1.407  1.00  0.00     0.354 C 
ATOM     14  C   UNL     1       0.364  -2.745  -0.193  1.00  0.00     0.203 C 
ATOM     15  C   UNL     1       1.284  -2.135  -1.286  1.00  0.00     0.300 C 
ATOM     16  C   UNL     1       0.626  -4.239   0.071  1.00  0.00    -0.002 A 
ATOM     17  N   UNL     1       2.043  -3.052  -2.116  1.00  0.00    -0.315 N 
ATOM     18  C   UNL     1       1.461  -4.981  -0.733  1.00  0.00     0.046 A 
ATOM     19  C   UNL     1       0.434  -4.883   1.276  1.00  0.00     0.009 A 
ATOM     20  H   UNL     1       2.834  -2.545  -2.513  1.00  0.00     0.349 HD
ATOM     21  H   UNL     1       1.403  -3.402  -2.830  1.00  0.00     0.349 HD
ATOM     22  C   UNL     1       1.547  -6.396  -0.632  1.00  0.00     0.033 A 
ATOM     23  C   UNL     1       0.678  -6.243   1.545  1.00  0.00     0.021 A 
ATOM     24  C   UNL     1       1.115  -7.034   0.517  1.00  0.00     0.041 A 
ATOM     25  Cl  UNL     1       1.341  -8.716   0.753  1.00  0.00    -0.084 Cl
BRANCH  14  26
ATOM     26  O   UNL     1      -1.019  -2.383  -0.360  1.00  0.00    -0.371 OA
ATOM     27  C   UNL     1      -1.205  -0.956  -0.258  1.00  0.00     0.196 C 
ENDBRANCH  14  26
ENDBRANCH  12  13
ENDBRANCH   8  12
BRANCH  11  28
ATOM     28  C   UNL     1       2.753  -0.136   1.854  1.00  0.00     0.411 C 
ATOM     29  O   UNL     1       3.256   0.755   1.204  1.00  0.00    -0.224 OA
BRANCH  28  30
ATOM     30  O   UNL     1       1.734   0.016   2.735  1.00  0.00    -0.444 OA
BRANCH  30  31
ATOM     31  C   UNL     1       1.315   1.327   3.186  1.00  0.00     0.106 C 
ATOM     32  C   UNL     1       2.471   2.091   3.841  1.00  0.00     0.056 C 
ATOM     33  C   UNL     1       0.664   2.141   2.064  1.00  0.00     0.056 C 
ATOM     34  C   UNL     1       0.257   1.022   4.256  1.00  0.00     0.056 C 
ENDBRANCH  30  31
ENDBRANCH  28  30
ENDBRANCH  11  28
ENDBRANCH   4   7
ENDBRANCH   2   3
ENDBRANCH   1   2
BRANCH   1  35
ATOM     35  C   UNL     1      -2.056  -4.808   4.748  1.00  0.00     0.023 C 
BRANCH  35  36
ATOM     36  C   UNL     1      -3.531  -4.503   4.758  1.00  0.00     0.116 C 
BRANCH  36  37
ATOM     37  N   UNL     1      -4.336  -5.171   3.729  1.00  0.00    -0.352 N 
ATOM     38  C   UNL     1      -5.615  -5.691   3.878  1.00  0.00     0.251 C 
ATOM     39  H   UNL     1      -3.926  -5.261   2.839  1.00  0.00     0.163 HD
ATOM     40  O   UNL     1      -6.195  -6.254   2.958  1.00  0.00    -0.269 OA
BRANCH  38  41
ATOM     41  C   UNL     1      -6.232  -5.598   5.221  1.00  0.00     0.039 A 
ATOM     42  C   UNL     1      -6.144  -4.387   5.900  1.00  0.00     0.014 A 
ATOM     43  C   UNL     1      -6.630  -6.761   5.884  1.00  0.00     0.014 A 
ATOM     44  C   UNL     1      -6.116  -4.411   7.282  1.00  0.00     0.010 A 
ATOM     45  C   UNL     1      -6.803  -6.728   7.271  1.00  0.00     0.010 A 
ATOM     46  C   UNL     1      -6.468  -5.571   7.992  1.00  0.00    -0.014 A 
BRANCH  46  47
ATOM     47  C   UNL     1      -6.490  -5.520   9.479  1.00  0.00     0.031 A 
ATOM     48  C   UNL     1      -5.683  -6.479  10.318  1.00  0.00     0.074 A 
ATOM     49  C   UNL     1      -7.209  -4.543  10.070  1.00  0.00     0.049 A 
ATOM     50  N   UNL     1      -5.637  -6.589  11.622  1.00  0.00    -0.248 NA
ATOM     51  C   UNL     1      -4.823  -7.444   9.612  1.00  0.00     0.031 C 
ATOM     52  C   UNL     1      -8.009  -3.540   9.357  1.00  0.00     0.029 A 
ATOM     53  N   UNL     1      -7.359  -4.201  11.387  1.00  0.00    -0.354 N 
ATOM     54  C   UNL     1      -4.782  -7.653  11.892  1.00  0.00     0.074 A 
ATOM     55  C   UNL     1      -4.344  -8.171  10.614  1.00  0.00     0.031 C 
ATOM     56  C   UNL     1      -8.486  -2.648  10.232  1.00  0.00     0.029 A 
ATOM     57  C   UNL     1      -8.143  -3.087  11.576  1.00  0.00     0.049 A 
ATOM     58  H   UNL     1      -6.947  -4.704  12.127  1.00  0.00     0.167 HD
ATOM     59  C   UNL     1      -4.396  -8.144  13.096  1.00  0.00     0.037 A 
ATOM     60  C   UNL     1      -8.581  -2.500  12.703  1.00  0.00     0.037 A 
ATOM     61  C   UNL     1      -4.824  -7.594  14.359  1.00  0.00     0.049 A 
ATOM     62  C   UNL     1      -8.192  -3.099  14.018  1.00  0.00     0.074 A 
ATOM     63  C   UNL     1      -4.487  -8.008  15.636  1.00  0.00     0.029 A 
ATOM     64  N   UNL     1      -5.678  -6.508  14.505  1.00  0.00    -0.354 N 
ATOM     65  N   UNL     1      -7.407  -4.124  14.251  1.00  0.00    -0.248 NA
ATOM     66  C   UNL     1      -8.760  -2.481  15.219  1.00  0.00     0.031 C 
ATOM     67  C   UNL     1      -5.178  -7.208  16.552  1.00  0.00     0.029 A 
ATOM     68  C   UNL     1      -5.899  -6.255  15.850  1.00  0.00     0.049 A 
ATOM     69  H   UNL     1      -6.069  -5.994  13.763  1.00  0.00     0.167 HD
ATOM     70  C   UNL     1      -7.379  -4.270  15.631  1.00  0.00     0.074 A 
ATOM     71  C   UNL     1      -8.207  -3.213  16.177  1.00  0.00     0.031 C 
ATOM     72  C   UNL     1      -6.732  -5.200  16.375  1.00  0.00     0.037 A 
BRANCH  59  73
ATOM     73  C   UNL     1      -3.487  -9.347  13.116  1.00  0.00     0.058 A 
ATOM     74  C   UNL     1      -2.142  -9.271  12.721  1.00  0.00     0.135 A 
ATOM     75  C   UNL     1      -3.954 -10.586  13.590  1.00  0.00     0.135 A 
ATOM     76  F   UNL     1      -1.641  -8.119  12.248  1.00  0.00    -0.206 F 
ATOM     77  C   UNL     1      -1.303 -10.381  12.769  1.00  0.00     0.059 A 
ATOM     78  C   UNL     1      -3.126 -11.702  13.675  1.00  0.00     0.059 A 
ATOM     79  F   UNL     1      -5.230 -10.720  13.985  1.00  0.00    -0.206 F 
ATOM     80  C   UNL     1      -1.803 -11.593  13.249  1.00  0.00     0.060 A 
BRANCH  80  81
ATOM     81  S   UNL     1      -0.699 -13.020  13.302  1.00  0.00     0.124 S 
ATOM     82  O   UNL     1      -0.502 -13.289  11.881  1.00  0.00    -0.237 OA
ATOM     83  O   UNL     1       0.460 -12.489  14.012  1.00  0.00    -0.237 OA
ATOM     84  O   UNL     1      -1.470 -14.024  14.027  1.00  0.00    -0.744 OA
ENDBRANCH  80  81
ENDBRANCH  59  73
BRANCH  60  85
ATOM     85  C   UNL     1      -9.452  -1.300  12.608  1.00  0.00     0.058 A 
ATOM     86  C   UNL     1      -8.982  -0.040  13.000  1.00  0.00     0.135 A 
ATOM     87  C   UNL     1     -10.740  -1.374  12.049  1.00  0.00     0.135 A 
ATOM     88  F   UNL     1      -7.759   0.082  13.540  1.00  0.00    -0.206 F 
ATOM     89  C   UNL     1      -9.753   1.106  12.838  1.00  0.00     0.059 A 
ATOM     90  C   UNL     1     -11.516  -0.239  11.846  1.00  0.00     0.059 A 
ATOM     91  F   UNL     1     -11.228  -2.555  11.637  1.00  0.00    -0.206 F 
ATOM     92  C   UNL     1     -11.014   0.997  12.248  1.00  0.00     0.060 A 
BRANCH  92  93
ATOM     93  S   UNL     1     -11.970   2.503  11.974  1.00  0.00     0.124 S 
ATOM     94  O   UNL     1     -12.303   2.892  13.340  1.00  0.00    -0.237 OA
ATOM     95  O   UNL     1     -11.005   3.352  11.284  1.00  0.00    -0.237 OA
ATOM     96  O   UNL     1     -13.091   2.047  11.156  1.00  0.00    -0.744 OA
ENDBRANCH  92  93
ENDBRANCH  60  85
BRANCH  72  97
ATOM     97  C   UNL     1      -6.880  -5.106  17.867  1.00  0.00     0.058 A 
ATOM     98  C   UNL     1      -8.081  -5.450  18.508  1.00  0.00     0.135 A 
ATOM     99  C   UNL     1      -5.792  -4.725  18.668  1.00  0.00     0.135 A 
ATOM    100  F   UNL     1      -9.154  -5.808  17.786  1.00  0.00    -0.206 F 
ATOM    101  C   UNL     1      -8.202  -5.404  19.892  1.00  0.00     0.059 A 
ATOM    102  C   UNL     1      -5.881  -4.702  20.055  1.00  0.00     0.059 A 
ATOM    103  F   UNL     1      -4.620  -4.392  18.103  1.00  0.00    -0.206 F 
ATOM    104  C   UNL     1      -7.093  -5.036  20.657  1.00  0.00     0.060 A 
BRANCH 104 105
ATOM    105  S   UNL     1      -7.256  -5.025  22.454  1.00  0.00     0.124 S 
ATOM    106  O   UNL     1      -8.152  -3.893  22.662  1.00  0.00    -0.237 OA
ATOM    107  O   UNL     1      -7.825  -6.342  22.720  1.00  0.00    -0.237 OA
ATOM    108  O   UNL     1      -5.886  -4.834  22.920  1.00  0.00    -0.744 OA
ENDBRANCH 104 105
ENDBRANCH  72  97
ENDBRANCH  46  47
ENDBRANCH  38  41
ENDBRANCH  36  37
ENDBRANCH  35  36
ENDBRANCH   1  35
TORSDOF 20
