REMARK SMILES CC(=O)Oc1ccccc1SCCCCCC(=O)NCCCCNC(=O)c1ccc(-c2c3nc(c(-c4c(F)cc(S(=O)(=O)[O-])cc4F)c4ccc([nH]4)c(-c4c(F)cc(S(=O)(=O)[O-])cc4F)c4nc(c(-c5c(F)cc(S(=O)(=O)[O-])cc5F)c5ccc2[nH]5)C=C4)C=C3)cc1
REMARK SMILES IDX 17 1 18 2 19 3 16 5 15 6 14 7 13 8 12 9 11 10 10 11 5 12
REMARK SMILES IDX 6 13 7 14 9 15 8 16 4 17 2 18 1 19 3 20 20 21 21 22 22 23
REMARK SMILES IDX 23 24 24 25 25 26 26 28 27 29 28 30 92 31 29 32 91 33 30 34
REMARK SMILES IDX 31 35 32 36 85 37 33 38 90 39 84 40 86 41 34 42 89 43 83 44
REMARK SMILES IDX 82 45 35 47 69 48 48 49 68 50 49 51 52 52 67 53 87 54 50 55
REMARK SMILES IDX 51 56 66 58 88 59 53 60 36 61 37 62 46 63 38 64 39 65 45 66
REMARK SMILES IDX 47 67 40 68 41 69 42 70 43 71 44 72 70 73 71 74 80 75 72 76
REMARK SMILES IDX 73 77 79 78 81 79 74 80 75 81 76 82 77 83 78 84 54 85 55 86
REMARK SMILES IDX 64 87 56 88 57 89 63 90 65 91 58 92 59 93 60 94 61 95 62 96
REMARK H PARENT 19 4 24 27 86 46 52 57
REMARK Flexibility Score: inf
ROOT
ATOM      1  C   UNL     1       4.169  -0.927   0.478  1.00  0.00     0.219 C 
ATOM      2  O   UNL     1       5.226  -1.084  -0.133  1.00  0.00    -0.275 OA
ATOM      3  N   UNL     1       4.193  -0.834   1.835  1.00  0.00    -0.356 N 
ATOM      4  H   UNL     1       5.085  -0.800   2.251  1.00  0.00     0.163 HD
ENDROOT
BRANCH   1   5
ATOM      5  C   UNL     1       2.849  -0.805  -0.256  1.00  0.00     0.100 C 
BRANCH   5   6
ATOM      6  C   UNL     1       2.083  -2.122  -0.404  1.00  0.00     0.010 C 
BRANCH   6   7
ATOM      7  C   UNL     1       0.921  -2.465   0.554  1.00  0.00     0.001 C 
BRANCH   7   8
ATOM      8  C   UNL     1      -0.057  -1.377   0.998  1.00  0.00     0.011 C 
BRANCH   8   9
ATOM      9  C   UNL     1      -1.559  -1.365   0.657  1.00  0.00     0.075 C 
BRANCH   9  10
ATOM     10  S   UNL     1      -2.663  -2.743   0.196  1.00  0.00    -0.122 SA
BRANCH  10  11
ATOM     11  C   UNL     1      -1.731  -3.887  -0.788  1.00  0.00     0.050 A 
ATOM     12  C   UNL     1      -0.837  -3.638  -1.836  1.00  0.00     0.144 A 
ATOM     13  C   UNL     1       0.025  -4.654  -2.293  1.00  0.00     0.048 A 
ATOM     14  C   UNL     1      -0.035  -5.935  -1.746  1.00  0.00     0.004 A 
ATOM     15  C   UNL     1      -1.835  -5.214  -0.321  1.00  0.00     0.019 A 
ATOM     16  C   UNL     1      -0.986  -6.224  -0.778  1.00  0.00     0.001 A 
BRANCH  12  17
ATOM     17  O   UNL     1      -0.450  -2.347  -2.301  1.00  0.00    -0.426 OA
BRANCH  17  18
ATOM     18  C   UNL     1      -1.191  -1.196  -2.546  1.00  0.00     0.308 C 
ATOM     19  C   UNL     1      -0.226  -0.049  -2.690  1.00  0.00     0.139 C 
ATOM     20  O   UNL     1      -2.409  -1.113  -2.638  1.00  0.00    -0.252 OA
ENDBRANCH  17  18
ENDBRANCH  12  17
ENDBRANCH  10  11
ENDBRANCH   9  10
ENDBRANCH   8   9
ENDBRANCH   7   8
ENDBRANCH   6   7
ENDBRANCH   5   6
ENDBRANCH   1   5
BRANCH   3  21
ATOM     21  C   UNL     1       3.069  -0.780   2.739  1.00  0.00     0.116 C 
BRANCH  21  22
ATOM     22  C   UNL     1       2.725  -2.180   3.240  1.00  0.00     0.023 C 
BRANCH  22  23
ATOM     23  C   UNL     1       3.337  -2.570   4.563  1.00  0.00     0.023 C 
BRANCH  23  24
ATOM     24  C   UNL     1       2.892  -1.681   5.702  1.00  0.00     0.116 C 
BRANCH  24  25
ATOM     25  N   UNL     1       1.447  -1.637   5.926  1.00  0.00    -0.352 N 
ATOM     26  C   UNL     1       0.817  -1.497   7.147  1.00  0.00     0.251 C 
ATOM     27  H   UNL     1       0.870  -1.713   5.133  1.00  0.00     0.163 HD
ATOM     28  O   UNL     1      -0.402  -1.516   7.253  1.00  0.00    -0.269 OA
BRANCH  26  29
ATOM     29  C   UNL     1       1.696  -1.382   8.325  1.00  0.00     0.039 A 
ATOM     30  C   UNL     1       1.693  -2.409   9.269  1.00  0.00     0.014 A 
ATOM     31  C   UNL     1       2.708  -0.421   8.300  1.00  0.00     0.014 A 
ATOM     32  C   UNL     1       2.773  -2.522  10.143  1.00  0.00     0.010 A 
ATOM     33  C   UNL     1       3.844  -0.632   9.064  1.00  0.00     0.010 A 
ATOM     34  C   UNL     1       3.884  -1.672  10.007  1.00  0.00    -0.014 A 
BRANCH  34  35
ATOM     35  C   UNL     1       5.089  -1.817  10.863  1.00  0.00     0.031 A 
ATOM     36  C   UNL     1       5.531  -0.647  11.703  1.00  0.00     0.074 A 
ATOM     37  C   UNL     1       5.817  -2.953  10.838  1.00  0.00     0.049 A 
ATOM     38  N   UNL     1       6.587  -0.527  12.463  1.00  0.00    -0.248 NA
ATOM     39  C   UNL     1       4.702   0.569  11.639  1.00  0.00     0.031 C 
ATOM     40  C   UNL     1       5.532  -4.132  10.014  1.00  0.00     0.029 A 
ATOM     41  N   UNL     1       6.950  -3.304  11.528  1.00  0.00    -0.354 N 
ATOM     42  C   UNL     1       6.559   0.780  12.936  1.00  0.00     0.074 A 
ATOM     43  C   UNL     1       5.439   1.438  12.309  1.00  0.00     0.031 C 
ATOM     44  C   UNL     1       6.432  -5.091  10.289  1.00  0.00     0.029 A 
ATOM     45  C   UNL     1       7.383  -4.585  11.275  1.00  0.00     0.049 A 
ATOM     46  H   UNL     1       7.411  -2.694  12.149  1.00  0.00     0.167 HD
ATOM     47  C   UNL     1       7.365   1.370  13.849  1.00  0.00     0.037 A 
ATOM     48  C   UNL     1       8.422  -5.273  11.787  1.00  0.00     0.037 A 
ATOM     49  C   UNL     1       8.443   0.690  14.511  1.00  0.00     0.049 A 
ATOM     50  C   UNL     1       9.301  -4.603  12.812  1.00  0.00     0.074 A 
ATOM     51  C   UNL     1       9.274   1.162  15.509  1.00  0.00     0.029 A 
ATOM     52  N   UNL     1       8.837  -0.613  14.241  1.00  0.00    -0.354 N 
ATOM     53  N   UNL     1       9.212  -3.391  13.310  1.00  0.00    -0.248 NA
ATOM     54  C   UNL     1      10.419  -5.392  13.346  1.00  0.00     0.031 C 
ATOM     55  C   UNL     1      10.203   0.161  15.809  1.00  0.00     0.029 A 
ATOM     56  C   UNL     1       9.916  -0.954  15.036  1.00  0.00     0.049 A 
ATOM     57  H   UNL     1       8.411  -1.207  13.581  1.00  0.00     0.167 HD
ATOM     58  C   UNL     1      10.240  -3.286  14.241  1.00  0.00     0.074 A 
ATOM     59  C   UNL     1      10.932  -4.559  14.242  1.00  0.00     0.031 C 
ATOM     60  C   UNL     1      10.580  -2.234  15.027  1.00  0.00     0.037 A 
BRANCH  47  61
ATOM     61  C   UNL     1       7.095   2.812  14.180  1.00  0.00     0.058 A 
ATOM     62  C   UNL     1       5.924   3.213  14.847  1.00  0.00     0.135 A 
ATOM     63  C   UNL     1       8.011   3.810  13.812  1.00  0.00     0.135 A 
ATOM     64  F   UNL     1       5.002   2.304  15.203  1.00  0.00    -0.206 F 
ATOM     65  C   UNL     1       5.649   4.554  15.092  1.00  0.00     0.059 A 
ATOM     66  C   UNL     1       7.773   5.154  14.080  1.00  0.00     0.059 A 
ATOM     67  F   UNL     1       9.144   3.485  13.170  1.00  0.00    -0.206 F 
ATOM     68  C   UNL     1       6.578   5.518  14.701  1.00  0.00     0.060 A 
BRANCH  68  69
ATOM     69  S   UNL     1       6.198   7.254  15.010  1.00  0.00     0.124 S 
ATOM     70  O   UNL     1       5.172   7.510  14.004  1.00  0.00    -0.237 OA
ATOM     71  O   UNL     1       5.736   7.231  16.394  1.00  0.00    -0.237 OA
ATOM     72  O   UNL     1       7.475   7.926  14.790  1.00  0.00    -0.744 OA
ENDBRANCH  68  69
ENDBRANCH  47  61
BRANCH  48  73
ATOM     73  C   UNL     1       8.660  -6.687  11.386  1.00  0.00     0.058 A 
ATOM     74  C   UNL     1       8.442  -7.736  12.293  1.00  0.00     0.135 A 
ATOM     75  C   UNL     1       9.100  -7.023  10.097  1.00  0.00     0.135 A 
ATOM     76  F   UNL     1       8.028  -7.467  13.541  1.00  0.00    -0.206 F 
ATOM     77  C   UNL     1       8.666  -9.064  11.944  1.00  0.00     0.059 A 
ATOM     78  C   UNL     1       9.307  -8.347   9.715  1.00  0.00     0.059 A 
ATOM     79  F   UNL     1       9.310  -6.061   9.185  1.00  0.00    -0.206 F 
ATOM     80  C   UNL     1       9.095  -9.360  10.649  1.00  0.00     0.060 A 
BRANCH  80  81
ATOM     81  S   UNL     1       9.334 -11.092  10.193  1.00  0.00     0.124 S 
ATOM     82  O   UNL     1      10.542 -11.429  10.937  1.00  0.00    -0.237 OA
ATOM     83  O   UNL     1       8.098 -11.706  10.668  1.00  0.00    -0.237 OA
ATOM     84  O   UNL     1       9.480 -11.038   8.741  1.00  0.00    -0.744 OA
ENDBRANCH  80  81
ENDBRANCH  48  73
BRANCH  60  85
ATOM     85  C   UNL     1      11.725  -2.424  15.982  1.00  0.00     0.058 A 
ATOM     86  C   UNL     1      13.055  -2.488  15.538  1.00  0.00     0.135 A 
ATOM     87  C   UNL     1      11.490  -2.476  17.365  1.00  0.00     0.135 A 
ATOM     88  F   UNL     1      13.332  -2.447  14.225  1.00  0.00    -0.206 F 
ATOM     89  C   UNL     1      14.111  -2.622  16.433  1.00  0.00     0.059 A 
ATOM     90  C   UNL     1      12.533  -2.578  18.279  1.00  0.00     0.059 A 
ATOM     91  F   UNL     1      10.237  -2.404  17.842  1.00  0.00    -0.206 F 
ATOM     92  C   UNL     1      13.840  -2.662  17.802  1.00  0.00     0.060 A 
BRANCH  92  93
ATOM     93  S   UNL     1      15.223  -2.795  18.953  1.00  0.00     0.124 S 
ATOM     94  O   UNL     1      15.622  -4.187  18.772  1.00  0.00    -0.237 OA
ATOM     95  O   UNL     1      16.155  -1.796  18.439  1.00  0.00    -0.237 OA
ATOM     96  O   UNL     1      14.622  -2.477  20.245  1.00  0.00    -0.744 OA
ENDBRANCH  92  93
ENDBRANCH  60  85
ENDBRANCH  34  35
ENDBRANCH  26  29
ENDBRANCH  24  25
ENDBRANCH  23  24
ENDBRANCH  22  23
ENDBRANCH  21  22
ENDBRANCH   3  21
TORSDOF 22
