REMARK SMILES Cn1cc([C@@H]2CC(NCCCCNC(=O)c3ccc(-c4c5nc(c(-c6c(F)cc(S(=O)(=O)[O-])cc6F)c6ccc([nH]6)c(-c6c(F)cc(S(=O)(=O)[O-])cc6F)c6nc(c(-c7c(F)cc(S(=O)(=O)[O-])cc7F)c7ccc4[nH]7)C=C6)C=C5)cc3)=[NH+]c3c2sc(C(=O)[O-])c3-c2ccc(Cl)cc2)cn1
REMARK SMILES IDX 12 1 11 2 10 3 9 4 8 5 5 6 6 7 84 8 7 9 83 10 85 11 82 12
REMARK SMILES IDX 90 13 86 14 4 17 1 18 2 19 3 20 99 21 98 22 91 23 92 24
REMARK SMILES IDX 97 25 93 26 96 27 94 28 95 29 87 30 88 31 89 32 13 33 14 34
REMARK SMILES IDX 15 36 16 37 17 38 81 39 18 40 80 41 19 42 20 43 21 44 74 45
REMARK SMILES IDX 22 46 79 47 73 48 75 49 23 50 78 51 72 52 71 53 24 55 58 56
REMARK SMILES IDX 37 57 57 58 38 59 41 60 56 61 76 62 39 63 40 64 55 66 77 67
REMARK SMILES IDX 42 68 25 69 26 70 35 71 27 72 28 73 34 74 36 75 29 76 30 77
REMARK SMILES IDX 31 78 32 79 33 80 59 81 60 82 69 83 61 84 62 85 68 86 70 87
REMARK SMILES IDX 63 88 64 89 65 90 66 91 67 92 43 93 44 94 53 95 45 96 46 97
REMARK SMILES IDX 52 98 54 99 47 100 48 101 49 102 50 103 51 104
REMARK H PARENT 8 15 82 16 13 35 75 54 41 65
REMARK Flexibility Score: inf
ROOT
ATOM      1  C   UNL     1       3.284  -7.119  -4.600  1.00  0.00     0.116 C 
ENDROOT
BRANCH   1   2
ATOM      2  C   UNL     1       2.080  -6.716  -3.762  1.00  0.00     0.025 C 
BRANCH   2   3
ATOM      3  C   UNL     1       2.266  -6.882  -2.247  1.00  0.00     0.048 C 
BRANCH   3   4
ATOM      4  C   UNL     1       3.428  -6.105  -1.619  1.00  0.00     0.233 C 
BRANCH   4   5
ATOM      5  N   UNL     1       3.238  -4.669  -1.748  1.00  0.00    -0.278 N 
ATOM      6  C   UNL     1       2.657  -1.367   0.154  1.00  0.00     0.079 C 
ATOM      7  C   UNL     1       2.967  -2.326  -1.008  1.00  0.00     0.142 C 
ATOM      8  C   UNL     1       2.660  -2.099   1.452  1.00  0.00     0.061 A 
ATOM      9  C   UNL     1       3.033  -3.822  -0.673  1.00  0.00     0.248 C 
ATOM     10  C   UNL     1       2.792  -3.448   1.590  1.00  0.00     0.147 A 
ATOM     11  S   UNL     1       2.492  -1.339   2.964  1.00  0.00    -0.133 S 
ATOM     12  N   UNL     1       2.940  -4.329   0.522  1.00  0.00    -0.243 N 
ATOM     13  C   UNL     1       2.768  -3.903   2.946  1.00  0.00     0.049 A 
ATOM     14  C   UNL     1       2.571  -2.838   3.824  1.00  0.00     0.062 A 
ATOM     15  H   UNL     1       3.256  -4.277  -2.651  1.00  0.00     0.304 HD
ATOM     16  H   UNL     1       2.975  -5.302   0.667  1.00  0.00     0.312 HD
BRANCH   6  17
ATOM     17  C   UNL     1       1.368  -0.615  -0.042  1.00  0.00    -0.001 A 
ATOM     18  C   UNL     1      -2.184  -0.017  -0.134  1.00  0.00     0.173 C 
ATOM     19  N   UNL     1      -0.743  -0.020  -0.163  1.00  0.00    -0.276 N 
ATOM     20  C   UNL     1       0.076  -1.106  -0.087  1.00  0.00     0.112 A 
ATOM     21  N   UNL     1      -0.082   1.148  -0.228  1.00  0.00    -0.182 NA
ATOM     22  C   UNL     1       1.201   0.788  -0.142  1.00  0.00     0.139 A 
ENDBRANCH   6  17
BRANCH  13  23
ATOM     23  C   UNL     1       2.969  -5.287   3.363  1.00  0.00    -0.012 A 
ATOM     24  C   UNL     1       1.957  -6.011   4.005  1.00  0.00     0.010 A 
ATOM     25  C   UNL     1       4.197  -5.910   3.095  1.00  0.00     0.010 A 
ATOM     26  C   UNL     1       2.195  -7.321   4.430  1.00  0.00     0.021 A 
ATOM     27  C   UNL     1       4.430  -7.223   3.507  1.00  0.00     0.021 A 
ATOM     28  C   UNL     1       3.433  -7.917   4.187  1.00  0.00     0.041 A 
ATOM     29  Cl  UNL     1       3.731  -9.519   4.739  1.00  0.00    -0.084 Cl
ENDBRANCH  13  23
BRANCH  14  30
ATOM     30  C   UNL     1       2.449  -2.757   5.263  1.00  0.00     0.082 C 
ATOM     31  O   UNL     1       2.102  -1.796   5.946  1.00  0.00    -0.544 OA
ATOM     32  O   UNL     1       2.758  -3.907   5.896  1.00  0.00    -0.544 OA
ENDBRANCH  14  30
ENDBRANCH   4   5
ENDBRANCH   3   4
ENDBRANCH   2   3
ENDBRANCH   1   2
BRANCH   1  33
ATOM     33  N   UNL     1       3.582  -8.552  -4.547  1.00  0.00    -0.352 N 
ATOM     34  C   UNL     1       4.598  -9.221  -5.211  1.00  0.00     0.251 C 
ATOM     35  H   UNL     1       2.996  -9.100  -3.976  1.00  0.00     0.163 HD
ATOM     36  O   UNL     1       4.519 -10.424  -5.435  1.00  0.00    -0.269 OA
BRANCH  34  37
ATOM     37  C   UNL     1       5.786  -8.453  -5.629  1.00  0.00     0.039 A 
ATOM     38  C   UNL     1       6.411  -8.651  -6.863  1.00  0.00     0.014 A 
ATOM     39  C   UNL     1       6.242  -7.474  -4.752  1.00  0.00     0.014 A 
ATOM     40  C   UNL     1       7.448  -7.793  -7.231  1.00  0.00     0.010 A 
ATOM     41  C   UNL     1       7.124  -6.524  -5.190  1.00  0.00     0.010 A 
ATOM     42  C   UNL     1       7.785  -6.714  -6.395  1.00  0.00    -0.014 A 
BRANCH  42  43
ATOM     43  C   UNL     1       8.722  -5.676  -6.823  1.00  0.00     0.031 A 
ATOM     44  C   UNL     1       8.360  -5.069  -8.133  1.00  0.00     0.074 A 
ATOM     45  C   UNL     1       9.666  -5.151  -6.006  1.00  0.00     0.049 A 
ATOM     46  N   UNL     1       8.962  -5.220  -9.266  1.00  0.00    -0.248 NA
ATOM     47  C   UNL     1       7.063  -4.373  -8.245  1.00  0.00     0.031 C 
ATOM     48  C   UNL     1       9.902  -5.452  -4.585  1.00  0.00     0.029 A 
ATOM     49  N   UNL     1      10.564  -4.153  -6.237  1.00  0.00    -0.354 N 
ATOM     50  C   UNL     1       8.283  -4.397 -10.161  1.00  0.00     0.074 A 
ATOM     51  C   UNL     1       7.010  -4.114  -9.554  1.00  0.00     0.031 C 
ATOM     52  C   UNL     1      10.692  -4.503  -4.036  1.00  0.00     0.029 A 
ATOM     53  C   UNL     1      11.173  -3.634  -5.092  1.00  0.00     0.049 A 
ATOM     54  H   UNL     1      10.769  -3.823  -7.142  1.00  0.00     0.167 HD
ATOM     55  C   UNL     1       8.951  -3.767 -11.166  1.00  0.00     0.037 A 
ATOM     56  C   UNL     1      12.015  -2.569  -5.015  1.00  0.00     0.037 A 
ATOM     57  C   UNL     1      10.248  -4.369 -11.371  1.00  0.00     0.049 A 
ATOM     58  C   UNL     1      12.552  -2.354  -6.380  1.00  0.00     0.074 A 
ATOM     59  C   UNL     1      10.701  -5.632 -11.693  1.00  0.00     0.029 A 
ATOM     60  N   UNL     1      11.322  -3.705 -10.831  1.00  0.00    -0.354 N 
ATOM     61  N   UNL     1      13.323  -3.206  -6.998  1.00  0.00    -0.248 NA
ATOM     62  C   UNL     1      11.851  -1.412  -7.236  1.00  0.00     0.031 C 
ATOM     63  C   UNL     1      11.886  -5.810 -10.918  1.00  0.00     0.029 A 
ATOM     64  C   UNL     1      12.147  -4.621 -10.233  1.00  0.00     0.049 A 
ATOM     65  H   UNL     1      11.474  -2.733 -10.868  1.00  0.00     0.167 HD
ATOM     66  C   UNL     1      12.870  -3.206  -8.309  1.00  0.00     0.074 A 
ATOM     67  C   UNL     1      12.032  -2.012  -8.415  1.00  0.00     0.031 C 
ATOM     68  C   UNL     1      12.983  -4.324  -9.087  1.00  0.00     0.037 A 
BRANCH  55  69
ATOM     69  C   UNL     1       8.639  -2.362 -11.646  1.00  0.00     0.058 A 
ATOM     70  C   UNL     1       9.322  -1.853 -12.771  1.00  0.00     0.135 A 
ATOM     71  C   UNL     1       7.924  -1.404 -10.891  1.00  0.00     0.135 A 
ATOM     72  F   UNL     1      10.049  -2.667 -13.553  1.00  0.00    -0.206 F 
ATOM     73  C   UNL     1       9.349  -0.492 -13.080  1.00  0.00     0.059 A 
ATOM     74  C   UNL     1       7.892  -0.052 -11.213  1.00  0.00     0.059 A 
ATOM     75  F   UNL     1       7.300  -1.704  -9.747  1.00  0.00    -0.206 F 
ATOM     76  C   UNL     1       8.636   0.402 -12.287  1.00  0.00     0.060 A 
BRANCH  76  77
ATOM     77  S   UNL     1       8.721   2.166 -12.636  1.00  0.00     0.124 S 
ATOM     78  O   UNL     1      10.105   2.465 -12.290  1.00  0.00    -0.237 OA
ATOM     79  O   UNL     1       8.390   2.206 -14.056  1.00  0.00    -0.237 OA
ATOM     80  O   UNL     1       7.710   2.732 -11.747  1.00  0.00    -0.744 OA
ENDBRANCH  76  77
ENDBRANCH  55  69
BRANCH  56  81
ATOM     81  C   UNL     1      12.134  -1.541  -3.943  1.00  0.00     0.058 A 
ATOM     82  C   UNL     1      13.239  -0.670  -3.869  1.00  0.00     0.135 A 
ATOM     83  C   UNL     1      11.025  -1.196  -3.145  1.00  0.00     0.135 A 
ATOM     84  F   UNL     1      14.329  -0.901  -4.617  1.00  0.00    -0.206 F 
ATOM     85  C   UNL     1      13.230   0.491  -3.082  1.00  0.00     0.059 A 
ATOM     86  C   UNL     1      10.994  -0.047  -2.352  1.00  0.00     0.059 A 
ATOM     87  F   UNL     1       9.898  -1.923  -3.187  1.00  0.00    -0.206 F 
ATOM     88  C   UNL     1      12.093   0.804  -2.339  1.00  0.00     0.060 A 
BRANCH  88  89
ATOM     89  S   UNL     1      12.014   2.374  -1.438  1.00  0.00     0.124 S 
ATOM     90  O   UNL     1      12.999   2.167  -0.382  1.00  0.00    -0.237 OA
ATOM     91  O   UNL     1      12.377   3.342  -2.468  1.00  0.00    -0.237 OA
ATOM     92  O   UNL     1      10.625   2.437  -0.989  1.00  0.00    -0.744 OA
ENDBRANCH  88  89
ENDBRANCH  56  81
BRANCH  68  93
ATOM     93  C   UNL     1      13.923  -5.415  -8.634  1.00  0.00     0.058 A 
ATOM     94  C   UNL     1      13.772  -6.194  -7.472  1.00  0.00     0.135 A 
ATOM     95  C   UNL     1      14.962  -5.772  -9.508  1.00  0.00     0.135 A 
ATOM     96  F   UNL     1      12.752  -5.984  -6.627  1.00  0.00    -0.206 F 
ATOM     97  C   UNL     1      14.637  -7.252  -7.177  1.00  0.00     0.059 A 
ATOM     98  C   UNL     1      15.814  -6.841  -9.251  1.00  0.00     0.059 A 
ATOM     99  F   UNL     1      15.128  -5.104 -10.661  1.00  0.00    -0.206 F 
ATOM    100  C   UNL     1      15.656  -7.569  -8.076  1.00  0.00     0.060 A 
BRANCH 100 101
ATOM    101  S   UNL     1      16.741  -8.973  -7.732  1.00  0.00     0.124 S 
ATOM    102  O   UNL     1      17.521  -8.488  -6.599  1.00  0.00    -0.237 OA
ATOM    103  O   UNL     1      15.792 -10.043  -7.437  1.00  0.00    -0.237 OA
ATOM    104  O   UNL     1      17.487  -9.140  -8.977  1.00  0.00    -0.744 OA
ENDBRANCH 100 101
ENDBRANCH  68  93
ENDBRANCH  42  43
ENDBRANCH  34  37
ENDBRANCH   1  33
TORSDOF 16
