REMARK SMILES CSC[C@H](C(=O)NCCCCNC(=O)c1ccc(-c2c3nc(c(-c4c(F)cc(S(=O)(=O)[O-])cc4F)c4ccc([nH]4)c(-c4c(F)cc(S(=O)(=O)[O-])cc4F)c4nc(c(-c5c(F)cc(S(=O)(=O)[O-])cc5F)c5ccc2[nH]5)C=C4)C=C3)cc1)c1ccccc1
REMARK SMILES IDX 10 1 9 2 8 3 7 4 5 5 6 6 4 8 3 9 2 10 1 11 81 12 82 13 86 14
REMARK SMILES IDX 83 15 85 16 84 17 11 18 12 19 13 20 14 22 15 23 16 24 80 25
REMARK SMILES IDX 17 26 79 27 18 28 19 29 20 30 73 31 21 32 78 33 72 34 74 35
REMARK SMILES IDX 22 36 77 37 71 38 70 39 23 41 57 42 36 43 56 44 37 45 40 46
REMARK SMILES IDX 55 47 75 48 38 49 39 50 54 52 76 53 41 54 24 55 25 56 34 57
REMARK SMILES IDX 26 58 27 59 33 60 35 61 28 62 29 63 30 64 31 65 32 66 58 67
REMARK SMILES IDX 59 68 68 69 60 70 61 71 67 72 69 73 62 74 63 75 64 76 65 77
REMARK SMILES IDX 66 78 42 79 43 80 52 81 44 82 45 83 51 84 53 85 46 86 47 87
REMARK SMILES IDX 48 88 49 89 50 90
REMARK H PARENT 7 7 12 21 74 40 40 51
REMARK Flexibility Score: inf
ROOT
ATOM      1  C   UNL     1       2.159   1.209  -1.368  1.00  0.00     0.023 C 
ENDROOT
BRANCH   1   2
ATOM      2  C   UNL     1       1.617   0.074  -0.500  1.00  0.00     0.023 C 
BRANCH   2   3
ATOM      3  C   UNL     1       2.285  -0.077   0.871  1.00  0.00     0.116 C 
BRANCH   3   4
ATOM      4  N   UNL     1       1.729   0.883   1.799  1.00  0.00    -0.356 N 
ATOM      5  C   UNL     1       0.669   0.816   2.639  1.00  0.00     0.228 C 
ATOM      6  O   UNL     1       0.176   1.914   2.942  1.00  0.00    -0.274 OA
ATOM      7  H   UNL     1       2.208   1.743   1.824  1.00  0.00     0.163 HD
BRANCH   5   8
ATOM      8  C   UNL     1       0.118  -0.459   3.319  1.00  0.00     0.118 C 
BRANCH   8   9
ATOM      9  C   UNL     1      -0.050  -1.757   2.509  1.00  0.00     0.087 C 
BRANCH   9  10
ATOM     10  S   UNL     1      -0.846  -1.809   0.863  1.00  0.00    -0.164 SA
ATOM     11  C   UNL     1      -2.067  -0.484   0.991  1.00  0.00     0.085 C 
ENDBRANCH   9  10
ENDBRANCH   8   9
BRANCH   8  12
ATOM     12  C   UNL     1       0.765  -0.682   4.713  1.00  0.00    -0.035 A 
ATOM     13  C   UNL     1       1.029  -1.962   5.236  1.00  0.00     0.004 A 
ATOM     14  C   UNL     1       1.007   0.416   5.562  1.00  0.00     0.004 A 
ATOM     15  C   UNL     1       1.517  -2.133   6.537  1.00  0.00     0.000 A 
ATOM     16  C   UNL     1       1.507   0.246   6.857  1.00  0.00     0.000 A 
ATOM     17  C   UNL     1       1.758  -1.030   7.347  1.00  0.00     0.000 A 
ENDBRANCH   8  12
ENDBRANCH   5   8
ENDBRANCH   3   4
ENDBRANCH   2   3
ENDBRANCH   1   2
BRANCH   1  18
ATOM     18  C   UNL     1       3.604   1.049  -1.816  1.00  0.00     0.116 C 
BRANCH  18  19
ATOM     19  N   UNL     1       3.864  -0.207  -2.514  1.00  0.00    -0.352 N 
ATOM     20  C   UNL     1       4.686  -0.431  -3.590  1.00  0.00     0.251 C 
ATOM     21  H   UNL     1       3.388  -0.996  -2.167  1.00  0.00     0.163 HD
ATOM     22  O   UNL     1       4.743  -1.539  -4.115  1.00  0.00    -0.269 OA
BRANCH  20  23
ATOM     23  C   UNL     1       5.460   0.699  -4.138  1.00  0.00     0.039 A 
ATOM     24  C   UNL     1       5.313   1.023  -5.489  1.00  0.00     0.014 A 
ATOM     25  C   UNL     1       6.240   1.493  -3.292  1.00  0.00     0.014 A 
ATOM     26  C   UNL     1       5.867   2.209  -5.971  1.00  0.00     0.010 A 
ATOM     27  C   UNL     1       6.735   2.704  -3.760  1.00  0.00     0.010 A 
ATOM     28  C   UNL     1       6.531   3.084  -5.096  1.00  0.00    -0.014 A 
BRANCH  28  29
ATOM     29  C   UNL     1       6.969   4.431  -5.533  1.00  0.00     0.031 A 
ATOM     30  C   UNL     1       8.428   4.783  -5.540  1.00  0.00     0.074 A 
ATOM     31  C   UNL     1       6.040   5.366  -5.816  1.00  0.00     0.049 A 
ATOM     32  N   UNL     1       8.994   5.940  -5.761  1.00  0.00    -0.248 NA
ATOM     33  C   UNL     1       9.371   3.698  -5.228  1.00  0.00     0.031 C 
ATOM     34  C   UNL     1       4.589   5.158  -5.784  1.00  0.00     0.029 A 
ATOM     35  N   UNL     1       6.175   6.687  -6.164  1.00  0.00    -0.354 N 
ATOM     36  C   UNL     1      10.356   5.731  -5.591  1.00  0.00     0.074 A 
ATOM     37  C   UNL     1      10.528   4.344  -5.214  1.00  0.00     0.031 C 
ATOM     38  C   UNL     1       3.971   6.305  -6.109  1.00  0.00     0.029 A 
ATOM     39  C   UNL     1       4.976   7.338  -6.336  1.00  0.00     0.049 A 
ATOM     40  H   UNL     1       7.048   7.127  -6.279  1.00  0.00     0.167 HD
ATOM     41  C   UNL     1      11.372   6.612  -5.752  1.00  0.00     0.037 A 
ATOM     42  C   UNL     1       4.716   8.626  -6.629  1.00  0.00     0.037 A 
ATOM     43  C   UNL     1      11.196   7.979  -6.164  1.00  0.00     0.049 A 
ATOM     44  C   UNL     1       5.860   9.581  -6.817  1.00  0.00     0.074 A 
ATOM     45  C   UNL     1      12.166   8.925  -6.444  1.00  0.00     0.029 A 
ATOM     46  N   UNL     1       9.968   8.595  -6.355  1.00  0.00    -0.354 N 
ATOM     47  N   UNL     1       7.148   9.350  -6.719  1.00  0.00    -0.248 NA
ATOM     48  C   UNL     1       5.520  10.972  -7.148  1.00  0.00     0.031 C 
ATOM     49  C   UNL     1      11.524  10.123  -6.776  1.00  0.00     0.029 A 
ATOM     50  C   UNL     1      10.154   9.915  -6.728  1.00  0.00     0.049 A 
ATOM     51  H   UNL     1       9.093   8.158  -6.242  1.00  0.00     0.167 HD
ATOM     52  C   UNL     1       7.772  10.562  -6.984  1.00  0.00     0.074 A 
ATOM     53  C   UNL     1       6.722  11.522  -7.262  1.00  0.00     0.031 C 
ATOM     54  C   UNL     1       9.095  10.856  -6.993  1.00  0.00     0.037 A 
BRANCH  41  55
ATOM     55  C   UNL     1      12.764   6.116  -5.489  1.00  0.00     0.058 A 
ATOM     56  C   UNL     1      13.414   5.250  -6.383  1.00  0.00     0.135 A 
ATOM     57  C   UNL     1      13.463   6.523  -4.342  1.00  0.00     0.135 A 
ATOM     58  F   UNL     1      12.781   4.819  -7.486  1.00  0.00    -0.206 F 
ATOM     59  C   UNL     1      14.699   4.782  -6.135  1.00  0.00     0.059 A 
ATOM     60  C   UNL     1      14.758   6.083  -4.085  1.00  0.00     0.059 A 
ATOM     61  F   UNL     1      12.885   7.347  -3.454  1.00  0.00    -0.206 F 
ATOM     62  C   UNL     1      15.361   5.200  -4.979  1.00  0.00     0.060 A 
BRANCH  62  63
ATOM     63  S   UNL     1      17.027   4.579  -4.665  1.00  0.00     0.124 S 
ATOM     64  O   UNL     1      16.747   3.231  -4.183  1.00  0.00    -0.237 OA
ATOM     65  O   UNL     1      17.649   4.664  -5.983  1.00  0.00    -0.237 OA
ATOM     66  O   UNL     1      17.551   5.508  -3.668  1.00  0.00    -0.744 OA
ENDBRANCH  62  63
ENDBRANCH  41  55
BRANCH  42  67
ATOM     67  C   UNL     1       3.310   9.084  -6.770  1.00  0.00     0.058 A 
ATOM     68  C   UNL     1       2.767   9.351  -8.034  1.00  0.00     0.135 A 
ATOM     69  C   UNL     1       2.477   9.238  -5.651  1.00  0.00     0.135 A 
ATOM     70  F   UNL     1       3.529   9.223  -9.131  1.00  0.00    -0.206 F 
ATOM     71  C   UNL     1       1.448   9.765  -8.187  1.00  0.00     0.059 A 
ATOM     72  C   UNL     1       1.149   9.633  -5.780  1.00  0.00     0.059 A 
ATOM     73  F   UNL     1       2.948   8.977  -4.422  1.00  0.00    -0.206 F 
ATOM     74  C   UNL     1       0.646   9.902  -7.053  1.00  0.00     0.060 A 
BRANCH  74  75
ATOM     75  S   UNL     1      -1.083  10.380  -7.262  1.00  0.00     0.124 S 
ATOM     76  O   UNL     1      -0.964  11.816  -7.488  1.00  0.00    -0.237 OA
ATOM     77  O   UNL     1      -1.488   9.584  -8.417  1.00  0.00    -0.237 OA
ATOM     78  O   UNL     1      -1.693   9.986  -5.996  1.00  0.00    -0.744 OA
ENDBRANCH  74  75
ENDBRANCH  42  67
BRANCH  54  79
ATOM     79  C   UNL     1       9.482  12.269  -7.313  1.00  0.00     0.058 A 
ATOM     80  C   UNL     1       9.364  13.289  -6.357  1.00  0.00     0.135 A 
ATOM     81  C   UNL     1      10.028  12.596  -8.564  1.00  0.00     0.135 A 
ATOM     82  F   UNL     1       8.839  13.027  -5.151  1.00  0.00    -0.206 F 
ATOM     83  C   UNL     1       9.768  14.591  -6.634  1.00  0.00     0.059 A 
ATOM     84  C   UNL     1      10.456  13.887  -8.856  1.00  0.00     0.059 A 
ATOM     85  F   UNL     1      10.166  11.652  -9.509  1.00  0.00    -0.206 F 
ATOM     86  C   UNL     1      10.315  14.879  -7.886  1.00  0.00     0.060 A 
BRANCH  86  87
ATOM     87  S   UNL     1      10.882  16.561  -8.219  1.00  0.00     0.124 S 
ATOM     88  O   UNL     1       9.622  17.249  -8.480  1.00  0.00    -0.237 OA
ATOM     89  O   UNL     1      11.554  16.920  -6.974  1.00  0.00    -0.237 OA
ATOM     90  O   UNL     1      11.761  16.398  -9.373  1.00  0.00    -0.744 OA
ENDBRANCH  86  87
ENDBRANCH  54  79
ENDBRANCH  28  29
ENDBRANCH  20  23
ENDBRANCH  18  19
ENDBRANCH   1  18
TORSDOF 17
