REMARK SMILES CCOC(=O)c1c(NC(=O)[C@H]2[C@@H]3CC[C@@H](C3)[C@@H]2C(=O)NCCCCNC(=O)c2ccc(-c3c4nc(c(-c5c(F)cc(S(=O)(=O)[O-])cc5F)c5ccc([nH]5)c(-c5c(F)cc(S(=O)(=O)[O-])cc5F)c5nc(c(-c6c(F)cc(S(=O)(=O)[O-])cc6F)c6ccc3[nH]6)C=C5)C=C4)cc2)sc2c1CCCC2
REMARK SMILES IDX 21 1 20 2 18 3 19 4 17 6 11 7 12 8 13 9 16 10 15 11 14 12
REMARK SMILES IDX 9 13 8 14 10 16 7 17 6 18 96 19 94 20 95 21 97 22 100 23
REMARK SMILES IDX 98 24 99 25 4 26 5 27 3 28 2 29 1 30 22 31 23 32 24 33 25 34
REMARK SMILES IDX 26 35 27 37 28 38 29 39 93 40 30 41 92 42 31 43 32 44 33 45
REMARK SMILES IDX 86 46 34 47 91 48 85 49 87 50 35 51 90 52 84 53 83 54 36 56
REMARK SMILES IDX 70 57 49 58 69 59 50 60 53 61 68 62 88 63 51 64 52 65 67 67
REMARK SMILES IDX 89 68 54 69 37 70 38 71 47 72 39 73 40 74 46 75 48 76 41 77
REMARK SMILES IDX 42 78 43 79 44 80 45 81 71 82 72 83 81 84 73 85 74 86 80 87
REMARK SMILES IDX 82 88 75 89 76 90 77 91 78 92 79 93 55 94 56 95 65 96 57 97
REMARK SMILES IDX 58 98 64 99 66 100 59 101 60 102 61 103 62 104 63 105
REMARK H PARENT 20 5 8 15 25 36 87 55 53 66
REMARK Flexibility Score: inf
ROOT
ATOM      1  C   UNL     1       5.617  -0.008   3.452  1.00  0.00     0.116 C 
ENDROOT
BRANCH   1   2
ATOM      2  N   UNL     1       5.016  -1.270   3.070  1.00  0.00    -0.356 N 
ATOM      3  C   UNL     1       4.452  -1.650   1.888  1.00  0.00     0.224 C 
ATOM      4  O   UNL     1       4.067  -2.816   1.805  1.00  0.00    -0.275 OA
ATOM      5  H   UNL     1       5.015  -1.960   3.773  1.00  0.00     0.163 HD
BRANCH   3   6
ATOM      6  C   UNL     1       4.378  -0.666   0.717  1.00  0.00     0.094 C 
ATOM      7  C   UNL     1       3.260   0.412   0.793  1.00  0.00     0.094 C 
ATOM      8  C   UNL     1       2.650   0.364  -0.641  1.00  0.00     0.002 C 
ATOM      9  C   UNL     1       1.705  -0.833  -0.729  1.00  0.00     0.005 C 
ATOM     10  C   UNL     1       3.816  -0.125  -1.513  1.00  0.00     0.009 C 
ATOM     11  C   UNL     1       4.066  -1.355  -0.643  1.00  0.00     0.002 C 
ATOM     12  C   UNL     1       2.670  -2.020  -0.690  1.00  0.00     0.005 C 
BRANCH   7  13
ATOM     13  C   UNL     1       3.754   1.831   0.985  1.00  0.00     0.229 C 
ATOM     14  N   UNL     1       3.076   2.792   1.667  1.00  0.00    -0.317 N 
ATOM     15  H   UNL     1       3.295   3.703   1.366  1.00  0.00     0.170 HD
ATOM     16  O   UNL     1       4.807   2.197   0.445  1.00  0.00    -0.274 OA
BRANCH  14  17
ATOM     17  C   UNL     1       2.150   2.773   2.689  1.00  0.00     0.110 A 
ATOM     18  C   UNL     1       1.221   1.944   3.296  1.00  0.00     0.098 A 
ATOM     19  C   UNL     1       0.916   2.423   4.635  1.00  0.00    -0.017 A 
ATOM     20  S   UNL     1       2.326   4.253   3.562  1.00  0.00    -0.122 S 
ATOM     21  C   UNL     1       1.515   3.633   4.908  1.00  0.00     0.011 A 
ATOM     22  C   UNL     1       0.125   1.677   5.679  1.00  0.00     0.038 C 
ATOM     23  C   UNL     1       1.462   4.347   6.223  1.00  0.00     0.047 C 
ATOM     24  C   UNL     1      -0.143   2.521   6.934  1.00  0.00     0.005 C 
ATOM     25  C   UNL     1       1.077   3.360   7.337  1.00  0.00     0.006 C 
BRANCH  18  26
ATOM     26  C   UNL     1       0.650   0.695   2.826  1.00  0.00     0.341 C 
ATOM     27  O   UNL     1       0.843  -0.370   3.398  1.00  0.00    -0.246 OA
BRANCH  26  28
ATOM     28  O   UNL     1      -0.256   0.883   1.823  1.00  0.00    -0.462 OA
BRANCH  28  29
ATOM     29  C   UNL     1      -1.191  -0.200   1.703  1.00  0.00     0.230 C 
ATOM     30  C   UNL     1      -1.956  -0.058   0.403  1.00  0.00     0.049 C 
ENDBRANCH  28  29
ENDBRANCH  26  28
ENDBRANCH  18  26
ENDBRANCH  14  17
ENDBRANCH   7  13
ENDBRANCH   3   6
ENDBRANCH   1   2
BRANCH   1  31
ATOM     31  C   UNL     1       4.574   0.913   4.066  1.00  0.00     0.023 C 
BRANCH  31  32
ATOM     32  C   UNL     1       4.320   0.718   5.556  1.00  0.00     0.023 C 
BRANCH  32  33
ATOM     33  C   UNL     1       5.372   1.344   6.461  1.00  0.00     0.116 C 
BRANCH  33  34
ATOM     34  N   UNL     1       5.463   2.792   6.317  1.00  0.00    -0.352 N 
ATOM     35  C   UNL     1       5.521   3.781   7.269  1.00  0.00     0.251 C 
ATOM     36  H   UNL     1       5.487   3.113   5.387  1.00  0.00     0.163 HD
ATOM     37  O   UNL     1       5.477   4.958   6.916  1.00  0.00    -0.269 OA
BRANCH  35  38
ATOM     38  C   UNL     1       5.589   3.446   8.709  1.00  0.00     0.039 A 
ATOM     39  C   UNL     1       4.865   4.229   9.616  1.00  0.00     0.014 A 
ATOM     40  C   UNL     1       6.354   2.376   9.176  1.00  0.00     0.014 A 
ATOM     41  C   UNL     1       4.840   3.887  10.971  1.00  0.00     0.010 A 
ATOM     42  C   UNL     1       6.261   1.986  10.508  1.00  0.00     0.010 A 
ATOM     43  C   UNL     1       5.499   2.733  11.419  1.00  0.00    -0.014 A 
BRANCH  43  44
ATOM     44  C   UNL     1       5.423   2.273  12.830  1.00  0.00     0.031 A 
ATOM     45  C   UNL     1       6.688   2.120  13.630  1.00  0.00     0.074 A 
ATOM     46  C   UNL     1       4.245   1.874  13.349  1.00  0.00     0.049 A 
ATOM     47  N   UNL     1       6.880   1.494  14.762  1.00  0.00    -0.248 NA
ATOM     48  C   UNL     1       7.909   2.705  13.052  1.00  0.00     0.031 C 
ATOM     49  C   UNL     1       2.950   1.918  12.665  1.00  0.00     0.029 A 
ATOM     50  N   UNL     1       3.952   1.326  14.573  1.00  0.00    -0.354 N 
ATOM     51  C   UNL     1       8.251   1.529  14.984  1.00  0.00     0.074 A 
ATOM     52  C   UNL     1       8.842   2.255  13.880  1.00  0.00     0.031 C 
ATOM     53  C   UNL     1       2.000   1.438  13.485  1.00  0.00     0.029 A 
ATOM     54  C   UNL     1       2.623   1.012  14.734  1.00  0.00     0.049 A 
ATOM     55  H   UNL     1       4.630   1.172  15.270  1.00  0.00     0.167 HD
ATOM     56  C   UNL     1       8.953   0.997  16.012  1.00  0.00     0.037 A 
ATOM     57  C   UNL     1       1.983   0.431  15.766  1.00  0.00     0.037 A 
ATOM     58  C   UNL     1       8.354   0.371  17.160  1.00  0.00     0.049 A 
ATOM     59  C   UNL     1       2.767   0.003  16.973  1.00  0.00     0.074 A 
ATOM     60  C   UNL     1       8.973  -0.137  18.289  1.00  0.00     0.029 A 
ATOM     61  N   UNL     1       6.990   0.201  17.340  1.00  0.00    -0.354 N 
ATOM     62  N   UNL     1       4.063   0.037  17.163  1.00  0.00    -0.248 NA
ATOM     63  C   UNL     1       2.003  -0.543  18.104  1.00  0.00     0.031 C 
ATOM     64  C   UNL     1       7.980  -0.605  19.158  1.00  0.00     0.029 A 
ATOM     65  C   UNL     1       6.746  -0.380  18.571  1.00  0.00     0.049 A 
ATOM     66  H   UNL     1       6.298   0.457  16.688  1.00  0.00     0.167 HD
ATOM     67  C   UNL     1       4.271  -0.473  18.439  1.00  0.00     0.074 A 
ATOM     68  C   UNL     1       2.967  -0.797  18.980  1.00  0.00     0.031 C 
ATOM     69  C   UNL     1       5.438  -0.665  19.099  1.00  0.00     0.037 A 
BRANCH  56  70
ATOM     70  C   UNL     1      10.449   1.062  15.933  1.00  0.00     0.058 A 
ATOM     71  C   UNL     1      11.154   2.244  16.203  1.00  0.00     0.135 A 
ATOM     72  C   UNL     1      11.187  -0.083  15.590  1.00  0.00     0.135 A 
ATOM     73  F   UNL     1      10.492   3.368  16.515  1.00  0.00    -0.206 F 
ATOM     74  C   UNL     1      12.541   2.297  16.108  1.00  0.00     0.059 A 
ATOM     75  C   UNL     1      12.575  -0.056  15.507  1.00  0.00     0.059 A 
ATOM     76  F   UNL     1      10.557  -1.237  15.319  1.00  0.00    -0.206 F 
ATOM     77  C   UNL     1      13.242   1.144  15.750  1.00  0.00     0.060 A 
BRANCH  77  78
ATOM     78  S   UNL     1      15.041   1.214  15.617  1.00  0.00     0.124 S 
ATOM     79  O   UNL     1      15.210   1.698  14.250  1.00  0.00    -0.237 OA
ATOM     80  O   UNL     1      15.407   2.157  16.669  1.00  0.00    -0.237 OA
ATOM     81  O   UNL     1      15.447  -0.168  15.851  1.00  0.00    -0.744 OA
ENDBRANCH  77  78
ENDBRANCH  56  70
BRANCH  57  82
ATOM     82  C   UNL     1       0.513   0.241  15.715  1.00  0.00     0.058 A 
ATOM     83  C   UNL     1      -0.340   1.113  16.408  1.00  0.00     0.135 A 
ATOM     84  C   UNL     1      -0.066  -0.800  14.977  1.00  0.00     0.135 A 
ATOM     85  F   UNL     1       0.175   2.121  17.128  1.00  0.00    -0.206 F 
ATOM     86  C   UNL     1      -1.720   0.950  16.385  1.00  0.00     0.059 A 
ATOM     87  C   UNL     1      -1.445  -0.975  14.928  1.00  0.00     0.059 A 
ATOM     88  F   UNL     1       0.711  -1.646  14.284  1.00  0.00    -0.206 F 
ATOM     89  C   UNL     1      -2.264  -0.101  15.645  1.00  0.00     0.060 A 
BRANCH  89  90
ATOM     90  S   UNL     1      -4.059  -0.288  15.573  1.00  0.00     0.124 S 
ATOM     91  O   UNL     1      -4.317  -1.078  16.771  1.00  0.00    -0.237 OA
ATOM     92  O   UNL     1      -4.524   1.095  15.607  1.00  0.00    -0.237 OA
ATOM     93  O   UNL     1      -4.264  -0.976  14.302  1.00  0.00    -0.744 OA
ENDBRANCH  89  90
ENDBRANCH  57  82
BRANCH  69  94
ATOM     94  C   UNL     1       5.353  -1.212  20.490  1.00  0.00     0.058 A 
ATOM     95  C   UNL     1       5.224  -2.588  20.724  1.00  0.00     0.135 A 
ATOM     96  C   UNL     1       5.448  -0.355  21.596  1.00  0.00     0.135 A 
ATOM     97  F   UNL     1       5.123  -3.442  19.694  1.00  0.00    -0.206 F 
ATOM     98  C   UNL     1       5.184  -3.100  22.016  1.00  0.00     0.059 A 
ATOM     99  C   UNL     1       5.421  -0.846  22.897  1.00  0.00     0.059 A 
ATOM    100  F   UNL     1       5.575   0.969  21.417  1.00  0.00    -0.206 F 
ATOM    101  C   UNL     1       5.280  -2.220  23.097  1.00  0.00     0.060 A 
BRANCH 101 102
ATOM    102  S   UNL     1       5.271  -2.886  24.775  1.00  0.00     0.124 S 
ATOM    103  O   UNL     1       3.840  -3.003  25.035  1.00  0.00    -0.237 OA
ATOM    104  O   UNL     1       5.993  -4.146  24.625  1.00  0.00    -0.237 OA
ATOM    105  O   UNL     1       5.970  -1.860  25.544  1.00  0.00    -0.744 OA
ENDBRANCH 101 102
ENDBRANCH  69  94
ENDBRANCH  43  44
ENDBRANCH  35  38
ENDBRANCH  33  34
ENDBRANCH  32  33
ENDBRANCH  31  32
ENDBRANCH   1  31
TORSDOF 19
