REMARK SMILES O=C(NCCCCNC(=O)[C@@]1(Cc2cn3ccccc3n2)CCC[NH2+]C1)c1ccc(-c2c3nc(c(-c4c(F)cc(S(=O)(=O)[O-])cc4F)c4ccc([nH]4)c(-c4c(F)cc(S(=O)(=O)[O-])cc4F)c4nc(c(-c5c(F)cc(S(=O)(=O)[O-])cc5F)c5ccc2[nH]5)C=C4)C=C3)cc1
REMARK SMILES IDX 5 1 4 2 3 3 1 4 2 5 27 7 28 8 92 9 29 10 91 11 30 12 31 13
REMARK SMILES IDX 32 14 85 15 33 16 90 17 84 18 86 19 34 20 89 21 83 22 82 23
REMARK SMILES IDX 35 25 69 26 48 27 68 28 49 29 52 30 67 31 87 32 50 33 51 34
REMARK SMILES IDX 66 36 88 37 53 38 36 39 37 40 46 41 38 42 39 43 45 44 47 45
REMARK SMILES IDX 40 46 41 47 42 48 43 49 44 50 70 51 71 52 80 53 72 54 73 55
REMARK SMILES IDX 79 56 81 57 74 58 75 59 76 60 77 61 78 62 54 63 55 64 64 65
REMARK SMILES IDX 56 66 57 67 63 68 65 69 58 70 59 71 60 72 61 73 62 74 6 75
REMARK SMILES IDX 7 76 8 77 9 78 10 80 11 81 22 82 26 83 23 84 25 85 24 86
REMARK SMILES IDX 12 89 13 90 14 91 21 92 15 93 20 94 16 95 19 96 17 97 18 98
REMARK H PARENT 3 6 86 24 52 35 8 79 25 87 25 88
REMARK Flexibility Score: inf
ROOT
ATOM      1  C   UNL     1       7.596  -6.017   9.406  1.00  0.00     0.023 C 
ENDROOT
BRANCH   1   2
ATOM      2  C   UNL     1       6.637  -6.663  10.395  1.00  0.00     0.116 C 
BRANCH   2   3
ATOM      3  N   UNL     1       6.683  -8.117  10.374  1.00  0.00    -0.352 N 
ATOM      4  O   UNL     1       6.706 -10.192  11.263  1.00  0.00    -0.269 OA
ATOM      5  C   UNL     1       6.546  -8.986  11.427  1.00  0.00     0.251 C 
ATOM      6  H   UNL     1       6.830  -8.530   9.492  1.00  0.00     0.163 HD
BRANCH   5   7
ATOM      7  C   UNL     1       6.243  -8.441  12.762  1.00  0.00     0.039 A 
ATOM      8  C   UNL     1       5.184  -7.543  12.936  1.00  0.00     0.014 A 
ATOM      9  C   UNL     1       7.061  -8.798  13.835  1.00  0.00     0.014 A 
ATOM     10  C   UNL     1       5.013  -6.913  14.162  1.00  0.00     0.010 A 
ATOM     11  C   UNL     1       6.847  -8.211  15.081  1.00  0.00     0.010 A 
ATOM     12  C   UNL     1       5.840  -7.246  15.245  1.00  0.00    -0.014 A 
BRANCH  12  13
ATOM     13  C   UNL     1       5.621  -6.619  16.568  1.00  0.00     0.031 A 
ATOM     14  C   UNL     1       6.653  -5.704  17.160  1.00  0.00     0.074 A 
ATOM     15  C   UNL     1       4.497  -6.916  17.246  1.00  0.00     0.049 A 
ATOM     16  N   UNL     1       6.683  -5.156  18.347  1.00  0.00    -0.248 NA
ATOM     17  C   UNL     1       7.807  -5.370  16.312  1.00  0.00     0.031 C 
ATOM     18  C   UNL     1       3.430  -7.793  16.760  1.00  0.00     0.029 A 
ATOM     19  N   UNL     1       4.074  -6.530  18.490  1.00  0.00    -0.354 N 
ATOM     20  C   UNL     1       7.870  -4.437  18.403  1.00  0.00     0.074 A 
ATOM     21  C   UNL     1       8.538  -4.628  17.132  1.00  0.00     0.031 C 
ATOM     22  C   UNL     1       2.475  -7.880  17.695  1.00  0.00     0.029 A 
ATOM     23  C   UNL     1       2.889  -7.115  18.866  1.00  0.00     0.049 A 
ATOM     24  H   UNL     1       4.569  -5.897  19.058  1.00  0.00     0.167 HD
ATOM     25  C   UNL     1       8.354  -3.690  19.424  1.00  0.00     0.037 A 
ATOM     26  C   UNL     1       2.228  -7.074  20.038  1.00  0.00     0.037 A 
ATOM     27  C   UNL     1       7.670  -3.505  20.678  1.00  0.00     0.049 A 
ATOM     28  C   UNL     1       2.788  -6.257  21.163  1.00  0.00     0.074 A 
ATOM     29  C   UNL     1       8.055  -2.740  21.765  1.00  0.00     0.029 A 
ATOM     30  N   UNL     1       6.462  -4.100  21.016  1.00  0.00    -0.354 N 
ATOM     31  N   UNL     1       3.899  -5.560  21.194  1.00  0.00    -0.248 NA
ATOM     32  C   UNL     1       2.013  -6.216  22.408  1.00  0.00     0.031 C 
ATOM     33  C   UNL     1       7.099  -2.904  22.774  1.00  0.00     0.029 A 
ATOM     34  C   UNL     1       6.096  -3.736  22.301  1.00  0.00     0.049 A 
ATOM     35  H   UNL     1       5.942  -4.695  20.428  1.00  0.00     0.167 HD
ATOM     36  C   UNL     1       3.949  -4.981  22.455  1.00  0.00     0.074 A 
ATOM     37  C   UNL     1       2.754  -5.408  23.157  1.00  0.00     0.031 C 
ATOM     38  C   UNL     1       4.896  -4.166  22.979  1.00  0.00     0.037 A 
BRANCH  25  39
ATOM     39  C   UNL     1       9.703  -3.053  19.237  1.00  0.00     0.058 A 
ATOM     40  C   UNL     1       9.897  -1.966  18.370  1.00  0.00     0.135 A 
ATOM     41  C   UNL     1      10.821  -3.540  19.935  1.00  0.00     0.135 A 
ATOM     42  F   UNL     1       8.866  -1.468  17.669  1.00  0.00    -0.206 F 
ATOM     43  C   UNL     1      11.159  -1.413  18.167  1.00  0.00     0.059 A 
ATOM     44  C   UNL     1      12.087  -2.987  19.766  1.00  0.00     0.059 A 
ATOM     45  F   UNL     1      10.691  -4.574  20.780  1.00  0.00    -0.206 F 
ATOM     46  C   UNL     1      12.250  -1.939  18.862  1.00  0.00     0.060 A 
BRANCH  46  47
ATOM     47  S   UNL     1      13.889  -1.245  18.557  1.00  0.00     0.124 S 
ATOM     48  O   UNL     1      14.220  -1.845  17.268  1.00  0.00    -0.237 OA
ATOM     49  O   UNL     1      13.626   0.190  18.538  1.00  0.00    -0.237 OA
ATOM     50  O   UNL     1      14.674  -1.720  19.692  1.00  0.00    -0.744 OA
ENDBRANCH  46  47
ENDBRANCH  25  39
BRANCH  26  51
ATOM     51  C   UNL     1       0.970  -7.851  20.176  1.00  0.00     0.058 A 
ATOM     52  C   UNL     1      -0.277  -7.214  20.145  1.00  0.00     0.135 A 
ATOM     53  C   UNL     1       0.993  -9.254  20.226  1.00  0.00     0.135 A 
ATOM     54  F   UNL     1      -0.346  -5.875  20.099  1.00  0.00    -0.206 F 
ATOM     55  C   UNL     1      -1.462  -7.942  20.145  1.00  0.00     0.059 A 
ATOM     56  C   UNL     1      -0.178 -10.004  20.204  1.00  0.00     0.059 A 
ATOM     57  F   UNL     1       2.165  -9.908  20.234  1.00  0.00    -0.206 F 
ATOM     58  C   UNL     1      -1.402  -9.337  20.160  1.00  0.00     0.060 A 
BRANCH  58  59
ATOM     59  S   UNL     1      -2.942 -10.273  20.041  1.00  0.00     0.124 S 
ATOM     60  O   UNL     1      -3.485 -10.117  21.385  1.00  0.00    -0.237 OA
ATOM     61  O   UNL     1      -3.651  -9.565  18.979  1.00  0.00    -0.237 OA
ATOM     62  O   UNL     1      -2.491 -11.617  19.692  1.00  0.00    -0.744 OA
ENDBRANCH  58  59
ENDBRANCH  26  51
BRANCH  38  63
ATOM     63  C   UNL     1       4.671  -3.648  24.370  1.00  0.00     0.058 A 
ATOM     64  C   UNL     1       4.900  -4.448  25.499  1.00  0.00     0.135 A 
ATOM     65  C   UNL     1       4.310  -2.306  24.573  1.00  0.00     0.135 A 
ATOM     66  F   UNL     1       5.236  -5.740  25.355  1.00  0.00    -0.206 F 
ATOM     67  C   UNL     1       4.780  -3.935  26.786  1.00  0.00     0.059 A 
ATOM     68  C   UNL     1       4.204  -1.767  25.851  1.00  0.00     0.059 A 
ATOM     69  F   UNL     1       4.085  -1.500  23.524  1.00  0.00    -0.206 F 
ATOM     70  C   UNL     1       4.439  -2.590  26.951  1.00  0.00     0.060 A 
BRANCH  70  71
ATOM     71  S   UNL     1       4.361  -1.915  28.624  1.00  0.00     0.124 S 
ATOM     72  O   UNL     1       3.094  -2.459  29.102  1.00  0.00    -0.237 OA
ATOM     73  O   UNL     1       5.562  -2.467  29.242  1.00  0.00    -0.237 OA
ATOM     74  O   UNL     1       4.382  -0.471  28.408  1.00  0.00    -0.744 OA
ENDBRANCH  70  71
ENDBRANCH  38  63
ENDBRANCH  12  13
ENDBRANCH   5   7
ENDBRANCH   2   3
ENDBRANCH   1   2
BRANCH   1  75
ATOM     75  C   UNL     1       7.462  -6.505   7.966  1.00  0.00     0.023 C 
BRANCH  75  76
ATOM     76  C   UNL     1       6.099  -6.236   7.319  1.00  0.00     0.116 C 
BRANCH  76  77
ATOM     77  N   UNL     1       6.025  -4.875   6.829  1.00  0.00    -0.355 N 
ATOM     78  C   UNL     1       6.355  -4.303   5.641  1.00  0.00     0.232 C 
ATOM     79  H   UNL     1       5.663  -4.238   7.487  1.00  0.00     0.163 HD
ATOM     80  O   UNL     1       6.227  -3.072   5.619  1.00  0.00    -0.274 OA
BRANCH  78  81
ATOM     81  C   UNL     1       6.724  -5.091   4.349  1.00  0.00     0.104 C 
ATOM     82  C   UNL     1       7.782  -6.206   4.554  1.00  0.00     0.029 C 
ATOM     83  C   UNL     1       5.382  -5.681   3.844  1.00  0.00     0.277 C 
ATOM     84  C   UNL     1       7.743  -7.354   3.541  1.00  0.00     0.063 C 
ATOM     85  N   UNL     1       5.495  -6.678   2.775  1.00  0.00    -0.345 N 
ATOM     86  C   UNL     1       6.329  -7.799   3.193  1.00  0.00     0.260 C 
ATOM     87  H   UNL     1       4.564  -7.023   2.540  1.00  0.00     0.346 HD
ATOM     88  H   UNL     1       5.927  -6.236   1.963  1.00  0.00     0.346 HD
BRANCH  81  89
ATOM     89  C   UNL     1       7.283  -3.994   3.370  1.00  0.00     0.080 C 
BRANCH  89  90
ATOM     90  C   UNL     1       7.850  -4.474   2.080  1.00  0.00     0.061 A 
ATOM     91  C   UNL     1       7.189  -4.801   0.915  1.00  0.00     0.116 A 
ATOM     92  N   UNL     1       9.203  -4.706   1.951  1.00  0.00    -0.234 NA
ATOM     93  N   UNL     1       8.120  -5.435   0.139  1.00  0.00    -0.307 N 
ATOM     94  C   UNL     1       9.342  -5.305   0.787  1.00  0.00     0.136 A 
ATOM     95  C   UNL     1       7.944  -6.155  -1.040  1.00  0.00     0.093 A 
ATOM     96  C   UNL     1      10.473  -5.904   0.165  1.00  0.00     0.048 A 
ATOM     97  C   UNL     1       9.007  -6.758  -1.601  1.00  0.00     0.018 A 
ATOM     98  C   UNL     1      10.313  -6.609  -0.973  1.00  0.00     0.005 A 
ENDBRANCH  89  90
ENDBRANCH  81  89
ENDBRANCH  78  81
ENDBRANCH  76  77
ENDBRANCH  75  76
ENDBRANCH   1  75
TORSDOF 16
