REMARK SMILES C[C@H](C(=O)NCCCCNC(=O)c1ccc(-c2c3nc(c(-c4c(F)cc(S(=O)(=O)[O-])cc4F)c4ccc([nH]4)c(-c4c(F)cc(S(=O)(=O)[O-])cc4F)c4nc(c(-c5c(F)cc(S(=O)(=O)[O-])cc5F)c5ccc2[nH]5)C=C4)C=C3)cc1)c1ccc(C[C@H]2CCC[C@@H]2O)cc1
REMARK SMILES IDX 7 1 6 2 5 3 3 4 4 5 2 7 1 8 79 9 80 10 91 11 81 12 90 13
REMARK SMILES IDX 82 14 83 15 84 16 85 17 88 18 86 19 87 20 89 21 8 23 9 24
REMARK SMILES IDX 10 25 11 26 12 28 13 29 14 30 78 31 15 32 77 33 16 34 17 35
REMARK SMILES IDX 18 36 71 37 19 38 76 39 70 40 72 41 20 42 75 43 69 44 68 45
REMARK SMILES IDX 21 47 55 48 34 49 54 50 35 51 38 52 53 53 73 54 36 55 37 56
REMARK SMILES IDX 52 58 74 59 39 60 22 61 23 62 32 63 24 64 25 65 31 66 33 67
REMARK SMILES IDX 26 68 27 69 28 70 29 71 30 72 56 73 57 74 66 75 58 76 59 77
REMARK SMILES IDX 65 78 67 79 60 80 61 81 62 82 63 83 64 84 40 85 41 86 50 87
REMARK SMILES IDX 42 88 43 89 49 90 51 91 44 92 45 93 46 94 47 95 48 96
REMARK H PARENT 5 6 89 22 10 27 72 46 38 57
REMARK Flexibility Score: inf
ROOT
ATOM      1  C   UNL     1      -1.568   0.905   1.817  1.00  0.00     0.023 C 
ENDROOT
BRANCH   1   2
ATOM      2  C   UNL     1      -0.226   1.473   1.357  1.00  0.00     0.116 C 
BRANCH   2   3
ATOM      3  N   UNL     1       0.735   0.426   1.074  1.00  0.00    -0.356 N 
ATOM      4  C   UNL     1       1.083  -0.147  -0.118  1.00  0.00     0.227 C 
ATOM      5  O   UNL     1       1.919  -1.054  -0.078  1.00  0.00    -0.274 OA
ATOM      6  H   UNL     1       1.211   0.073   1.860  1.00  0.00     0.163 HD
BRANCH   4   7
ATOM      7  C   UNL     1       0.520   0.384  -1.451  1.00  0.00     0.105 C 
ATOM      8  C   UNL     1       1.137  -0.364  -2.638  1.00  0.00     0.023 C 
BRANCH   7   9
ATOM      9  C   UNL     1      -0.997   0.351  -1.550  1.00  0.00    -0.036 A 
ATOM     10  C   UNL     1      -1.689   1.532  -1.863  1.00  0.00     0.005 A 
ATOM     11  C   UNL     1      -1.737  -0.810  -1.292  1.00  0.00     0.005 A 
ATOM     12  C   UNL     1      -3.081   1.581  -1.799  1.00  0.00     0.004 A 
ATOM     13  C   UNL     1      -3.134  -0.754  -1.217  1.00  0.00     0.004 A 
ATOM     14  C   UNL     1      -3.816   0.453  -1.421  1.00  0.00    -0.048 A 
BRANCH  14  15
ATOM     15  C   UNL     1      -5.311   0.553  -1.226  1.00  0.00     0.041 C 
BRANCH  15  16
ATOM     16  C   UNL     1      -5.804   1.160   0.102  1.00  0.00     0.022 C 
ATOM     17  C   UNL     1      -5.447   0.374   1.369  1.00  0.00     0.007 C 
ATOM     18  C   UNL     1      -5.333   2.579   0.428  1.00  0.00     0.117 C 
ATOM     19  C   UNL     1      -5.469   1.395   2.513  1.00  0.00     0.003 C 
ATOM     20  C   UNL     1      -5.767   2.748   1.879  1.00  0.00     0.032 C 
BRANCH  18  21
ATOM     21  O   UNL     1      -5.920   3.544  -0.426  1.00  0.00    -0.393 OA
ATOM     22  H   UNL     1      -6.886   3.489  -0.361  1.00  0.00     0.210 HD
ENDBRANCH  18  21
ENDBRANCH  15  16
ENDBRANCH  14  15
ENDBRANCH   7   9
ENDBRANCH   4   7
ENDBRANCH   2   3
ENDBRANCH   1   2
BRANCH   1  23
ATOM     23  C   UNL     1      -1.582   0.341   3.237  1.00  0.00     0.023 C 
BRANCH  23  24
ATOM     24  C   UNL     1      -1.324   1.363   4.336  1.00  0.00     0.116 C 
BRANCH  24  25
ATOM     25  N   UNL     1      -2.292   2.452   4.340  1.00  0.00    -0.352 N 
ATOM     26  C   UNL     1      -3.025   2.951   5.392  1.00  0.00     0.251 C 
ATOM     27  H   UNL     1      -2.443   2.891   3.472  1.00  0.00     0.163 HD
ATOM     28  O   UNL     1      -3.928   3.758   5.191  1.00  0.00    -0.269 OA
BRANCH  26  29
ATOM     29  C   UNL     1      -2.733   2.475   6.760  1.00  0.00     0.039 A 
ATOM     30  C   UNL     1      -3.782   2.026   7.566  1.00  0.00     0.014 A 
ATOM     31  C   UNL     1      -1.414   2.415   7.215  1.00  0.00     0.014 A 
ATOM     32  C   UNL     1      -3.495   1.419   8.792  1.00  0.00     0.010 A 
ATOM     33  C   UNL     1      -1.127   1.749   8.401  1.00  0.00     0.010 A 
ATOM     34  C   UNL     1      -2.163   1.226   9.191  1.00  0.00    -0.014 A 
BRANCH  34  35
ATOM     35  C   UNL     1      -1.809   0.431  10.395  1.00  0.00     0.031 A 
ATOM     36  C   UNL     1      -1.059   1.075  11.528  1.00  0.00     0.074 A 
ATOM     37  C   UNL     1      -2.044  -0.897  10.402  1.00  0.00     0.049 A 
ATOM     38  N   UNL     1      -0.509   0.517  12.574  1.00  0.00    -0.248 NA
ATOM     39  C   UNL     1      -0.875   2.535  11.459  1.00  0.00     0.031 C 
ATOM     40  C   UNL     1      -2.709  -1.647   9.333  1.00  0.00     0.029 A 
ATOM     41  N   UNL     1      -1.716  -1.862  11.323  1.00  0.00    -0.354 N 
ATOM     42  C   UNL     1       0.112   1.547  13.270  1.00  0.00     0.074 A 
ATOM     43  C   UNL     1      -0.108   2.762  12.517  1.00  0.00     0.031 C 
ATOM     44  C   UNL     1      -2.733  -2.951   9.655  1.00  0.00     0.029 A 
ATOM     45  C   UNL     1      -2.047  -3.138  10.929  1.00  0.00     0.049 A 
ATOM     46  H   UNL     1      -1.285  -1.659  12.185  1.00  0.00     0.167 HD
ATOM     47  C   UNL     1       0.791   1.482  14.439  1.00  0.00     0.037 A 
ATOM     48  C   UNL     1      -1.797  -4.329  11.508  1.00  0.00     0.037 A 
ATOM     49  C   UNL     1       0.961   0.277  15.208  1.00  0.00     0.049 A 
ATOM     50  C   UNL     1      -1.047  -4.367  12.813  1.00  0.00     0.074 A 
ATOM     51  C   UNL     1       1.530   0.134  16.461  1.00  0.00     0.029 A 
ATOM     52  N   UNL     1       0.573  -0.988  14.796  1.00  0.00    -0.354 N 
ATOM     53  N   UNL     1      -0.555  -3.370  13.508  1.00  0.00    -0.248 NA
ATOM     54  C   UNL     1      -0.814  -5.689  13.411  1.00  0.00     0.031 C 
ATOM     55  C   UNL     1       1.530  -1.225  16.788  1.00  0.00     0.029 A 
ATOM     56  C   UNL     1       0.923  -1.923  15.756  1.00  0.00     0.049 A 
ATOM     57  H   UNL     1       0.116  -1.192  13.948  1.00  0.00     0.167 HD
ATOM     58  C   UNL     1       0.033  -3.943  14.630  1.00  0.00     0.074 A 
ATOM     59  C   UNL     1      -0.182  -5.371  14.533  1.00  0.00     0.031 C 
ATOM     60  C   UNL     1       0.696  -3.341  15.647  1.00  0.00     0.037 A 
BRANCH  47  61
ATOM     61  C   UNL     1       1.401   2.744  14.979  1.00  0.00     0.058 A 
ATOM     62  C   UNL     1       0.615   3.750  15.562  1.00  0.00     0.135 A 
ATOM     63  C   UNL     1       2.796   2.904  15.000  1.00  0.00     0.135 A 
ATOM     64  F   UNL     1      -0.724   3.652  15.553  1.00  0.00    -0.206 F 
ATOM     65  C   UNL     1       1.192   4.872  16.146  1.00  0.00     0.059 A 
ATOM     66  C   UNL     1       3.395   4.008  15.599  1.00  0.00     0.059 A 
ATOM     67  F   UNL     1       3.591   1.973  14.450  1.00  0.00    -0.206 F 
ATOM     68  C   UNL     1       2.583   4.989  16.167  1.00  0.00     0.060 A 
BRANCH  68  69
ATOM     69  S   UNL     1       3.314   6.426  16.979  1.00  0.00     0.124 S 
ATOM     70  O   UNL     1       3.012   7.486  16.023  1.00  0.00    -0.237 OA
ATOM     71  O   UNL     1       2.579   6.480  18.238  1.00  0.00    -0.237 OA
ATOM     72  O   UNL     1       4.725   6.070  17.096  1.00  0.00    -0.744 OA
ENDBRANCH  68  69
ENDBRANCH  47  61
BRANCH  48  73
ATOM     73  C   UNL     1      -2.232  -5.591  10.851  1.00  0.00     0.058 A 
ATOM     74  C   UNL     1      -3.256  -6.376  11.400  1.00  0.00     0.135 A 
ATOM     75  C   UNL     1      -1.615  -6.049   9.677  1.00  0.00     0.135 A 
ATOM     76  F   UNL     1      -3.871  -5.983  12.526  1.00  0.00    -0.206 F 
ATOM     77  C   UNL     1      -3.635  -7.585  10.827  1.00  0.00     0.059 A 
ATOM     78  C   UNL     1      -1.994  -7.242   9.069  1.00  0.00     0.059 A 
ATOM     79  F   UNL     1      -0.642  -5.327   9.101  1.00  0.00    -0.206 F 
ATOM     80  C   UNL     1      -2.993  -8.013   9.663  1.00  0.00     0.060 A 
BRANCH  80  81
ATOM     81  S   UNL     1      -3.501  -9.576   8.914  1.00  0.00     0.124 S 
ATOM     82  O   UNL     1      -2.870 -10.544   9.803  1.00  0.00    -0.237 OA
ATOM     83  O   UNL     1      -4.957  -9.495   8.988  1.00  0.00    -0.237 OA
ATOM     84  O   UNL     1      -2.945  -9.496   7.567  1.00  0.00    -0.744 OA
ENDBRANCH  80  81
ENDBRANCH  48  73
BRANCH  60  85
ATOM     85  C   UNL     1       1.227  -4.218  16.745  1.00  0.00     0.058 A 
ATOM     86  C   UNL     1       2.365  -5.016  16.556  1.00  0.00     0.135 A 
ATOM     87  C   UNL     1       0.634  -4.206  18.017  1.00  0.00     0.135 A 
ATOM     88  F   UNL     1       2.962  -5.070  15.355  1.00  0.00    -0.206 F 
ATOM     89  C   UNL     1       2.893  -5.782  17.590  1.00  0.00     0.059 A 
ATOM     90  C   UNL     1       1.159  -4.944  19.073  1.00  0.00     0.059 A 
ATOM     91  F   UNL     1      -0.452  -3.452  18.250  1.00  0.00    -0.206 F 
ATOM     92  C   UNL     1       2.285  -5.735  18.847  1.00  0.00     0.060 A 
BRANCH  92  93
ATOM     93  S   UNL     1       3.013  -6.691  20.195  1.00  0.00     0.124 S 
ATOM     94  O   UNL     1       2.611  -8.048  19.843  1.00  0.00    -0.237 OA
ATOM     95  O   UNL     1       4.435  -6.394  20.058  1.00  0.00    -0.237 OA
ATOM     96  O   UNL     1       2.376  -6.136  21.386  1.00  0.00    -0.744 OA
ENDBRANCH  92  93
ENDBRANCH  60  85
ENDBRANCH  34  35
ENDBRANCH  26  29
ENDBRANCH  24  25
ENDBRANCH  23  24
ENDBRANCH   1  23
TORSDOF 18
