REMARK SMILES C[C@@H]1[C@@H](C(=O)NCCCCNC(=O)c2ccc(-c3c4nc(c(-c5c(F)cc(S(=O)(=O)[O-])cc5F)c5ccc([nH]5)c(-c5c(F)cc(S(=O)(=O)[O-])cc5F)c5nc(c(-c6c(F)cc(S(=O)(=O)[O-])cc6F)c6ccc3[nH]6)C=C5)C=C4)cc2)CCN1C(=O)N(C)Cc1ccsc1
REMARK SMILES IDX 8 1 7 2 6 3 4 4 5 5 3 7 1 8 2 9 82 10 80 11 81 12 83 13
REMARK SMILES IDX 84 14 85 15 86 16 87 17 88 18 89 19 92 20 90 21 91 22 9 23
REMARK SMILES IDX 10 24 11 25 12 26 13 28 14 29 15 30 79 31 16 32 78 33 17 34
REMARK SMILES IDX 18 35 19 36 72 37 20 38 77 39 71 40 73 41 21 42 76 43 70 44
REMARK SMILES IDX 69 45 22 47 56 48 35 49 55 50 36 51 39 52 54 53 74 54 37 55
REMARK SMILES IDX 38 56 53 58 75 59 40 60 23 61 24 62 33 63 25 64 26 65 32 66
REMARK SMILES IDX 34 67 27 68 28 69 29 70 30 71 31 72 57 73 58 74 67 75 59 76
REMARK SMILES IDX 60 77 66 78 68 79 61 80 62 81 63 82 64 83 65 84 41 85 42 86
REMARK SMILES IDX 51 87 43 88 44 89 50 90 52 91 45 92 46 93 47 94 48 95 49 96
REMARK H PARENT 6 6 11 27 73 46 39 57
REMARK Flexibility Score: inf
ROOT
ATOM      1  C   UNL     1      -2.869   4.440  -1.149  1.00  0.00     0.023 C 
ENDROOT
BRANCH   1   2
ATOM      2  C   UNL     1      -2.505   3.014  -0.759  1.00  0.00     0.116 C 
BRANCH   2   3
ATOM      3  N   UNL     1      -1.785   2.307  -1.798  1.00  0.00    -0.356 N 
ATOM      4  C   UNL     1      -0.773   1.401  -1.686  1.00  0.00     0.225 C 
ATOM      5  O   UNL     1      -0.308   0.939  -2.728  1.00  0.00    -0.275 OA
ATOM      6  H   UNL     1      -2.068   2.510  -2.719  1.00  0.00     0.163 HD
BRANCH   4   7
ATOM      7  C   UNL     1      -0.208   1.067  -0.306  1.00  0.00     0.102 C 
ATOM      8  C   UNL     1       1.871   0.095   0.752  1.00  0.00     0.032 C 
ATOM      9  C   UNL     1       0.858  -0.054  -0.392  1.00  0.00     0.096 C 
ATOM     10  N   UNL     1       0.085  -1.298  -0.270  1.00  0.00    -0.321 N 
ATOM     11  C   UNL     1      -1.235   0.452   0.642  1.00  0.00     0.037 C 
ATOM     12  C   UNL     1      -1.252  -1.002   0.226  1.00  0.00     0.122 C 
BRANCH  10  13
ATOM     13  C   UNL     1       0.297  -2.596  -0.649  1.00  0.00     0.320 C 
ATOM     14  O   UNL     1      -0.659  -3.382  -0.568  1.00  0.00    -0.248 OA
BRANCH  13  15
ATOM     15  N   UNL     1       1.523  -3.079  -1.042  1.00  0.00    -0.323 N 
ATOM     16  C   UNL     1       2.762  -2.399  -1.378  1.00  0.00     0.149 C 
BRANCH  15  17
ATOM     17  C   UNL     1       1.591  -4.534  -1.202  1.00  0.00     0.157 C 
BRANCH  17  18
ATOM     18  C   UNL     1       1.678  -5.255   0.126  1.00  0.00    -0.018 A 
ATOM     19  C   UNL     1       1.692  -6.689   0.234  1.00  0.00     0.017 A 
ATOM     20  C   UNL     1       1.702  -4.685   1.390  1.00  0.00     0.070 A 
ATOM     21  C   UNL     1       1.706  -7.130   1.538  1.00  0.00     0.065 A 
ATOM     22  S   UNL     1       1.725  -5.837   2.652  1.00  0.00    -0.152 S 
ENDBRANCH  17  18
ENDBRANCH  15  17
ENDBRANCH  13  15
ENDBRANCH  10  13
ENDBRANCH   4   7
ENDBRANCH   2   3
ENDBRANCH   1   2
BRANCH   1  23
ATOM     23  C   UNL     1      -3.732   4.576  -2.403  1.00  0.00     0.023 C 
BRANCH  23  24
ATOM     24  C   UNL     1      -4.985   3.708  -2.436  1.00  0.00     0.116 C 
BRANCH  24  25
ATOM     25  N   UNL     1      -5.897   3.990  -1.338  1.00  0.00    -0.352 N 
ATOM     26  C   UNL     1      -7.197   4.443  -1.369  1.00  0.00     0.251 C 
ATOM     27  H   UNL     1      -5.530   3.832  -0.438  1.00  0.00     0.163 HD
ATOM     28  O   UNL     1      -7.750   4.772  -0.329  1.00  0.00    -0.269 OA
BRANCH  26  29
ATOM     29  C   UNL     1      -7.906   4.560  -2.663  1.00  0.00     0.039 A 
ATOM     30  C   UNL     1      -8.634   5.721  -2.934  1.00  0.00     0.014 A 
ATOM     31  C   UNL     1      -7.843   3.535  -3.610  1.00  0.00     0.014 A 
ATOM     32  C   UNL     1      -9.235   5.884  -4.185  1.00  0.00     0.010 A 
ATOM     33  C   UNL     1      -8.364   3.738  -4.884  1.00  0.00     0.010 A 
ATOM     34  C   UNL     1      -9.072   4.911  -5.185  1.00  0.00    -0.014 A 
BRANCH  34  35
ATOM     35  C   UNL     1      -9.643   5.091  -6.546  1.00  0.00     0.031 A 
ATOM     36  C   UNL     1     -10.672   4.120  -7.063  1.00  0.00     0.074 A 
ATOM     37  C   UNL     1      -9.190   6.082  -7.340  1.00  0.00     0.049 A 
ATOM     38  N   UNL     1     -11.229   4.057  -8.245  1.00  0.00    -0.248 NA
ATOM     39  C   UNL     1     -11.110   3.062  -6.138  1.00  0.00     0.031 C 
ATOM     40  C   UNL     1      -8.161   7.058  -6.974  1.00  0.00     0.029 A 
ATOM     41  N   UNL     1      -9.529   6.426  -8.625  1.00  0.00    -0.354 N 
ATOM     42  C   UNL     1     -12.065   2.947  -8.212  1.00  0.00     0.074 A 
ATOM     43  C   UNL     1     -11.896   2.331  -6.914  1.00  0.00     0.031 C 
ATOM     44  C   UNL     1      -7.972   7.904  -8.000  1.00  0.00     0.029 A 
ATOM     45  C   UNL     1      -8.834   7.510  -9.110  1.00  0.00     0.049 A 
ATOM     46  H   UNL     1     -10.207   5.943  -9.151  1.00  0.00     0.167 HD
ATOM     47  C   UNL     1     -12.916   2.495  -9.164  1.00  0.00     0.037 A 
ATOM     48  C   UNL     1      -8.880   8.113 -10.314  1.00  0.00     0.037 A 
ATOM     49  C   UNL     1     -13.098   3.128 -10.444  1.00  0.00     0.049 A 
ATOM     50  C   UNL     1      -9.834   7.595 -11.357  1.00  0.00     0.074 A 
ATOM     51  C   UNL     1     -13.972   2.780 -11.459  1.00  0.00     0.029 A 
ATOM     52  N   UNL     1     -12.394   4.239 -10.887  1.00  0.00    -0.354 N 
ATOM     53  N   UNL     1     -10.659   6.578 -11.287  1.00  0.00    -0.248 NA
ATOM     54  C   UNL     1      -9.870   8.312 -12.639  1.00  0.00     0.031 C 
ATOM     55  C   UNL     1     -13.766   3.653 -12.532  1.00  0.00     0.029 A 
ATOM     56  C   UNL     1     -12.803   4.580 -12.165  1.00  0.00     0.049 A 
ATOM     57  H   UNL     1     -11.706   4.714 -10.368  1.00  0.00     0.167 HD
ATOM     58  C   UNL     1     -11.338   6.555 -12.501  1.00  0.00     0.074 A 
ATOM     59  C   UNL     1     -10.831   7.664 -13.283  1.00  0.00     0.031 C 
ATOM     60  C   UNL     1     -12.298   5.696 -12.927  1.00  0.00     0.037 A 
BRANCH  47  61
ATOM     61  C   UNL     1     -13.717   1.260  -8.851  1.00  0.00     0.058 A 
ATOM     62  C   UNL     1     -14.734   1.265  -7.881  1.00  0.00     0.135 A 
ATOM     63  C   UNL     1     -13.481   0.060  -9.541  1.00  0.00     0.135 A 
ATOM     64  F   UNL     1     -14.994   2.380  -7.180  1.00  0.00    -0.206 F 
ATOM     65  C   UNL     1     -15.460   0.118  -7.580  1.00  0.00     0.059 A 
ATOM     66  C   UNL     1     -14.217  -1.092  -9.279  1.00  0.00     0.059 A 
ATOM     67  F   UNL     1     -12.522  -0.004 -10.479  1.00  0.00    -0.206 F 
ATOM     68  C   UNL     1     -15.193  -1.058  -8.284  1.00  0.00     0.060 A 
BRANCH  68  69
ATOM     69  S   UNL     1     -16.141  -2.538  -7.877  1.00  0.00     0.124 S 
ATOM     70  O   UNL     1     -15.570  -2.904  -6.585  1.00  0.00    -0.237 OA
ATOM     71  O   UNL     1     -17.510  -2.033  -7.845  1.00  0.00    -0.237 OA
ATOM     72  O   UNL     1     -15.838  -3.449  -8.977  1.00  0.00    -0.744 OA
ENDBRANCH  68  69
ENDBRANCH  47  61
BRANCH  48  73
ATOM     73  C   UNL     1      -8.019   9.296 -10.586  1.00  0.00     0.058 A 
ATOM     74  C   UNL     1      -8.575  10.578 -10.711  1.00  0.00     0.135 A 
ATOM     75  C   UNL     1      -6.626   9.174 -10.711  1.00  0.00     0.135 A 
ATOM     76  F   UNL     1      -9.902  10.746 -10.607  1.00  0.00    -0.206 F 
ATOM     77  C   UNL     1      -7.785  11.695 -10.966  1.00  0.00     0.059 A 
ATOM     78  C   UNL     1      -5.812  10.280 -10.940  1.00  0.00     0.059 A 
ATOM     79  F   UNL     1      -6.042   7.973 -10.583  1.00  0.00    -0.206 F 
ATOM     80  C   UNL     1      -6.403  11.536 -11.075  1.00  0.00     0.060 A 
BRANCH  80  81
ATOM     81  S   UNL     1      -5.383  13.000 -11.352  1.00  0.00     0.124 S 
ATOM     82  O   UNL     1      -5.691  13.314 -12.742  1.00  0.00    -0.237 OA
ATOM     83  O   UNL     1      -5.905  13.930 -10.356  1.00  0.00    -0.237 OA
ATOM     84  O   UNL     1      -4.028  12.518 -11.099  1.00  0.00    -0.744 OA
ENDBRANCH  80  81
ENDBRANCH  48  73
BRANCH  60  85
ATOM     85  C   UNL     1     -12.905   5.948 -14.280  1.00  0.00     0.058 A 
ATOM     86  C   UNL     1     -12.198   5.709 -15.468  1.00  0.00     0.135 A 
ATOM     87  C   UNL     1     -14.235   6.388 -14.386  1.00  0.00     0.135 A 
ATOM     88  F   UNL     1     -10.922   5.293 -15.424  1.00  0.00    -0.206 F 
ATOM     89  C   UNL     1     -12.779   5.921 -16.715  1.00  0.00     0.059 A 
ATOM     90  C   UNL     1     -14.846   6.577 -15.621  1.00  0.00     0.059 A 
ATOM     91  F   UNL     1     -14.961   6.621 -13.281  1.00  0.00    -0.206 F 
ATOM     92  C   UNL     1     -14.105   6.354 -16.781  1.00  0.00     0.060 A 
BRANCH  92  93
ATOM     93  S   UNL     1     -14.858   6.596 -18.404  1.00  0.00     0.124 S 
ATOM     94  O   UNL     1     -14.213   7.828 -18.846  1.00  0.00    -0.237 OA
ATOM     95  O   UNL     1     -14.464   5.384 -19.115  1.00  0.00    -0.237 OA
ATOM     96  O   UNL     1     -16.283   6.705 -18.105  1.00  0.00    -0.744 OA
ENDBRANCH  92  93
ENDBRANCH  60  85
ENDBRANCH  34  35
ENDBRANCH  26  29
ENDBRANCH  24  25
ENDBRANCH  23  24
ENDBRANCH   1  23
TORSDOF 18
