REMARK SMILES CC(=O)c1cc2c(cc1NC(=O)/C=C/C(=O)NCCCCNC(=O)c1ccc(-c3c4nc(c(-c5c(F)cc(S(=O)(=O)[O-])cc5F)c5ccc([nH]5)c(-c5c(F)cc(S(=O)(=O)[O-])cc5F)c5nc(c(-c6c(F)cc(S(=O)(=O)[O-])cc6F)c6ccc3[nH]6)C=C5)C=C4)cc1)OCO2
REMARK SMILES IDX 19 1 18 2 17 3 15 4 16 5 14 7 13 8 11 9 10 10 12 12 9 13
REMARK SMILES IDX 4 14 5 15 6 16 8 17 7 18 93 19 91 20 92 21 2 22 1 23 3 24
REMARK SMILES IDX 20 25 21 26 22 27 23 28 24 30 25 31 26 32 90 33 27 34 89 35
REMARK SMILES IDX 28 36 29 37 30 38 83 39 31 40 88 41 82 42 84 43 32 44 87 45
REMARK SMILES IDX 81 46 80 47 33 49 67 50 46 51 66 52 47 53 50 54 65 55 85 56
REMARK SMILES IDX 48 57 49 58 64 60 86 61 51 62 34 63 35 64 44 65 36 66 37 67
REMARK SMILES IDX 43 68 45 69 38 70 39 71 40 72 41 73 42 74 68 75 69 76 78 77
REMARK SMILES IDX 70 78 71 79 77 80 79 81 72 82 73 83 74 84 75 85 76 86 52 87
REMARK SMILES IDX 53 88 62 89 54 90 55 91 61 92 63 93 56 94 57 95 58 96 59 97
REMARK SMILES IDX 60 98
REMARK H PARENT 17 6 10 11 22 29 84 48 50 59
REMARK Flexibility Score: inf
ROOT
ATOM      1  C   UNL     1      -4.049  -7.725   3.611  1.00  0.00     0.023 C 
ENDROOT
BRANCH   1   2
ATOM      2  C   UNL     1      -3.344  -6.978   4.740  1.00  0.00     0.116 C 
BRANCH   2   3
ATOM      3  N   UNL     1      -1.904  -7.115   4.654  1.00  0.00    -0.353 N 
ATOM      4  C   UNL     1      -0.958  -6.145   4.570  1.00  0.00     0.244 C 
ATOM      5  O   UNL     1       0.231  -6.418   4.706  1.00  0.00    -0.270 OA
ATOM      6  H   UNL     1      -1.565  -8.040   4.658  1.00  0.00     0.163 HD
BRANCH   4   7
ATOM      7  C   UNL     1      -1.352  -4.746   4.316  1.00  0.00     0.077 C 
ATOM      8  C   UNL     1      -2.109  -4.436   3.253  1.00  0.00     0.077 C 
BRANCH   8   9
ATOM      9  C   UNL     1      -2.270  -3.031   2.856  1.00  0.00     0.248 C 
ATOM     10  N   UNL     1      -1.220  -2.350   2.304  1.00  0.00    -0.322 N 
ATOM     11  H   UNL     1      -1.425  -1.409   2.102  1.00  0.00     0.170 HD
ATOM     12  O   UNL     1      -3.358  -2.487   3.030  1.00  0.00    -0.270 OA
BRANCH  10  13
ATOM     13  C   UNL     1       0.104  -2.729   1.966  1.00  0.00     0.056 A 
ATOM     14  C   UNL     1       1.063  -1.714   1.705  1.00  0.00     0.045 A 
ATOM     15  C   UNL     1       2.436  -2.001   1.624  1.00  0.00     0.064 A 
ATOM     16  C   UNL     1       2.814  -3.317   1.748  1.00  0.00     0.166 A 
ATOM     17  C   UNL     1       0.532  -4.059   1.907  1.00  0.00     0.077 A 
ATOM     18  C   UNL     1       1.884  -4.318   1.843  1.00  0.00     0.167 A 
ATOM     19  O   UNL     1       4.086  -3.796   1.767  1.00  0.00    -0.454 OA
ATOM     20  O   UNL     1       2.449  -5.553   1.892  1.00  0.00    -0.454 OA
ATOM     21  C   UNL     1       3.837  -5.198   2.031  1.00  0.00     0.468 C 
BRANCH  14  22
ATOM     22  C   UNL     1       0.618  -0.322   1.454  1.00  0.00     0.162 C 
ATOM     23  C   UNL     1       1.083   0.319   0.172  1.00  0.00     0.093 C 
ATOM     24  O   UNL     1      -0.183   0.215   2.212  1.00  0.00    -0.294 OA
ENDBRANCH  14  22
ENDBRANCH  10  13
ENDBRANCH   8   9
ENDBRANCH   4   7
ENDBRANCH   2   3
ENDBRANCH   1   2
BRANCH   1  25
ATOM     25  C   UNL     1      -4.017  -9.252   3.734  1.00  0.00     0.023 C 
BRANCH  25  26
ATOM     26  C   UNL     1      -4.440  -9.806   5.091  1.00  0.00     0.116 C 
BRANCH  26  27
ATOM     27  N   UNL     1      -5.702  -9.260   5.569  1.00  0.00    -0.352 N 
ATOM     28  C   UNL     1      -6.646  -9.855   6.369  1.00  0.00     0.251 C 
ATOM     29  H   UNL     1      -5.906  -8.342   5.280  1.00  0.00     0.163 HD
ATOM     30  O   UNL     1      -7.699  -9.275   6.613  1.00  0.00    -0.269 OA
BRANCH  28  31
ATOM     31  C   UNL     1      -6.401 -11.214   6.888  1.00  0.00     0.039 A 
ATOM     32  C   UNL     1      -7.390 -12.182   6.707  1.00  0.00     0.014 A 
ATOM     33  C   UNL     1      -5.191 -11.540   7.508  1.00  0.00     0.014 A 
ATOM     34  C   UNL     1      -7.138 -13.499   7.092  1.00  0.00     0.010 A 
ATOM     35  C   UNL     1      -4.917 -12.866   7.829  1.00  0.00     0.010 A 
ATOM     36  C   UNL     1      -5.887 -13.857   7.622  1.00  0.00    -0.014 A 
BRANCH  36  37
ATOM     37  C   UNL     1      -5.581 -15.273   7.937  1.00  0.00     0.031 A 
ATOM     38  C   UNL     1      -5.340 -15.703   9.356  1.00  0.00     0.074 A 
ATOM     39  C   UNL     1      -5.476 -16.162   6.930  1.00  0.00     0.049 A 
ATOM     40  N   UNL     1      -5.070 -16.895   9.822  1.00  0.00    -0.248 NA
ATOM     41  C   UNL     1      -5.382 -14.651  10.385  1.00  0.00     0.031 C 
ATOM     42  C   UNL     1      -5.617 -15.846   5.506  1.00  0.00     0.029 A 
ATOM     43  N   UNL     1      -5.226 -17.511   6.946  1.00  0.00    -0.354 N 
ATOM     44  C   UNL     1      -4.906 -16.738  11.192  1.00  0.00     0.074 A 
ATOM     45  C   UNL     1      -5.046 -15.326  11.475  1.00  0.00     0.031 C 
ATOM     46  C   UNL     1      -5.481 -16.973   4.790  1.00  0.00     0.029 A 
ATOM     47  C   UNL     1      -5.221 -18.085   5.698  1.00  0.00     0.049 A 
ATOM     48  H   UNL     1      -5.066 -18.019   7.774  1.00  0.00     0.167 HD
ATOM     49  C   UNL     1      -4.686 -17.688  12.132  1.00  0.00     0.037 A 
ATOM     50  C   UNL     1      -5.035 -19.367   5.327  1.00  0.00     0.037 A 
ATOM     51  C   UNL     1      -4.562 -19.093  11.842  1.00  0.00     0.049 A 
ATOM     52  C   UNL     1      -4.824 -20.409   6.389  1.00  0.00     0.074 A 
ATOM     53  C   UNL     1      -4.391 -20.145  12.725  1.00  0.00     0.029 A 
ATOM     54  N   UNL     1      -4.595 -19.643  10.568  1.00  0.00    -0.354 N 
ATOM     55  N   UNL     1      -4.747 -20.255   7.689  1.00  0.00    -0.248 NA
ATOM     56  C   UNL     1      -4.693 -21.800   5.937  1.00  0.00     0.031 C 
ATOM     57  C   UNL     1      -4.285 -21.327  11.982  1.00  0.00     0.029 A 
ATOM     58  C   UNL     1      -4.434 -21.017  10.639  1.00  0.00     0.049 A 
ATOM     59  H   UNL     1      -4.716 -19.132   9.735  1.00  0.00     0.167 HD
ATOM     60  C   UNL     1      -4.579 -21.532   8.214  1.00  0.00     0.074 A 
ATOM     61  C   UNL     1      -4.581 -22.447   7.089  1.00  0.00     0.031 C 
ATOM     62  C   UNL     1      -4.436 -21.912   9.508  1.00  0.00     0.037 A 
BRANCH  49  63
ATOM     63  C   UNL     1      -4.573 -17.232  13.562  1.00  0.00     0.058 A 
ATOM     64  C   UNL     1      -5.685 -16.742  14.267  1.00  0.00     0.135 A 
ATOM     65  C   UNL     1      -3.345 -17.292  14.239  1.00  0.00     0.135 A 
ATOM     66  F   UNL     1      -6.880 -16.649  13.663  1.00  0.00    -0.206 F 
ATOM     67  C   UNL     1      -5.576 -16.291  15.578  1.00  0.00     0.059 A 
ATOM     68  C   UNL     1      -3.218 -16.873  15.561  1.00  0.00     0.059 A 
ATOM     69  F   UNL     1      -2.249 -17.752  13.615  1.00  0.00    -0.206 F 
ATOM     70  C   UNL     1      -4.336 -16.356  16.215  1.00  0.00     0.060 A 
BRANCH  70  71
ATOM     71  S   UNL     1      -4.206 -15.754  17.912  1.00  0.00     0.124 S 
ATOM     72  O   UNL     1      -4.246 -14.309  17.711  1.00  0.00    -0.237 OA
ATOM     73  O   UNL     1      -5.386 -16.338  18.544  1.00  0.00    -0.237 OA
ATOM     74  O   UNL     1      -2.927 -16.290  18.366  1.00  0.00    -0.744 OA
ENDBRANCH  70  71
ENDBRANCH  49  63
BRANCH  50  75
ATOM     75  C   UNL     1      -5.089 -19.730   3.887  1.00  0.00     0.058 A 
ATOM     76  C   UNL     1      -6.186 -20.426   3.359  1.00  0.00     0.135 A 
ATOM     77  C   UNL     1      -4.067 -19.351   3.002  1.00  0.00     0.135 A 
ATOM     78  F   UNL     1      -7.186 -20.813   4.166  1.00  0.00    -0.206 F 
ATOM     79  C   UNL     1      -6.267 -20.741   2.006  1.00  0.00     0.059 A 
ATOM     80  C   UNL     1      -4.136 -19.634   1.642  1.00  0.00     0.059 A 
ATOM     81  F   UNL     1      -3.006 -18.666   3.455  1.00  0.00    -0.206 F 
ATOM     82  C   UNL     1      -5.238 -20.335   1.154  1.00  0.00     0.060 A 
BRANCH  82  83
ATOM     83  S   UNL     1      -5.387 -20.684  -0.612  1.00  0.00     0.124 S 
ATOM     84  O   UNL     1      -5.109 -22.115  -0.653  1.00  0.00    -0.237 OA
ATOM     85  O   UNL     1      -6.766 -20.293  -0.887  1.00  0.00    -0.237 OA
ATOM     86  O   UNL     1      -4.369 -19.825  -1.209  1.00  0.00    -0.744 OA
ENDBRANCH  82  83
ENDBRANCH  50  75
BRANCH  62  87
ATOM     87  C   UNL     1      -4.296 -23.384   9.778  1.00  0.00     0.058 A 
ATOM     88  C   UNL     1      -3.116 -24.080   9.472  1.00  0.00     0.135 A 
ATOM     89  C   UNL     1      -5.342 -24.098  10.384  1.00  0.00     0.135 A 
ATOM     90  F   UNL     1      -2.089 -23.445   8.887  1.00  0.00    -0.206 F 
ATOM     91  C   UNL     1      -2.990 -25.442   9.728  1.00  0.00     0.059 A 
ATOM     92  C   UNL     1      -5.228 -25.454  10.674  1.00  0.00     0.059 A 
ATOM     93  F   UNL     1      -6.487 -23.477  10.708  1.00  0.00    -0.206 F 
ATOM     94  C   UNL     1      -4.053 -26.120  10.328  1.00  0.00     0.060 A 
BRANCH  94  95
ATOM     95  S   UNL     1      -3.872 -27.883  10.671  1.00  0.00     0.124 S 
ATOM     96  O   UNL     1      -4.038 -28.460   9.341  1.00  0.00    -0.237 OA
ATOM     97  O   UNL     1      -2.526 -27.958  11.231  1.00  0.00    -0.237 OA
ATOM     98  O   UNL     1      -4.952 -28.157  11.615  1.00  0.00    -0.744 OA
ENDBRANCH  94  95
ENDBRANCH  62  87
ENDBRANCH  36  37
ENDBRANCH  28  31
ENDBRANCH  26  27
ENDBRANCH  25  26
ENDBRANCH   1  25
TORSDOF 17
