REMARK SMILES [NH3+][C@]1(C(=O)NCCCCNC(=O)c2ccc(-c3c4nc(c(-c5c(F)cc(S(=O)(=O)[O-])cc5F)c5ccc([nH]5)c(-c5c(F)cc(S(=O)(=O)[O-])cc5F)c5nc(c(-c6c(F)cc(S(=O)(=O)[O-])cc6F)c6ccc3[nH]6)C=C5)C=C4)cc2)CC[C@@H]([NH+]2CCC(C(F)(F)F)CC2)C1
REMARK SMILES IDX 8 1 7 2 6 3 5 4 3 5 4 6 2 8 79 9 92 10 80 11 81 12 1 13
REMARK SMILES IDX 82 17 83 18 91 19 84 21 90 22 85 23 86 24 87 25 88 26 89 27
REMARK SMILES IDX 9 28 10 29 11 30 12 32 13 33 14 34 78 35 15 36 77 37 16 38
REMARK SMILES IDX 17 39 18 40 71 41 19 42 76 43 70 44 72 45 20 46 75 47 69 48
REMARK SMILES IDX 68 49 21 51 55 52 34 53 54 54 35 55 38 56 53 57 73 58 36 59
REMARK SMILES IDX 37 60 52 62 74 63 39 64 22 65 23 66 32 67 24 68 25 69 31 70
REMARK SMILES IDX 33 71 26 72 27 73 28 74 29 75 30 76 56 77 57 78 66 79 58 80
REMARK SMILES IDX 59 81 65 82 67 83 60 84 61 85 62 86 63 87 64 88 40 89 41 90
REMARK SMILES IDX 50 91 42 92 43 93 49 94 51 95 44 96 45 97 46 98 47 99 48 100
REMARK H PARENT 5 7 1 14 1 15 1 16 82 20 10 31 72 50 38 61
REMARK Flexibility Score: inf
ROOT
ATOM      1  C   UNL     1       4.668   1.210   2.103  1.00  0.00     0.023 C 
ENDROOT
BRANCH   1   2
ATOM      2  C   UNL     1       3.590   1.735   1.166  1.00  0.00     0.023 C 
BRANCH   2   3
ATOM      3  C   UNL     1       3.323   0.897  -0.092  1.00  0.00     0.116 C 
BRANCH   3   4
ATOM      4  N   UNL     1       2.159   0.051   0.085  1.00  0.00    -0.351 N 
ATOM      5  C   UNL     1       0.832   0.273  -0.116  1.00  0.00     0.281 C 
ATOM      6  O   UNL     1       0.083  -0.678   0.153  1.00  0.00    -0.268 OA
ATOM      7  H   UNL     1       2.368  -0.854   0.411  1.00  0.00     0.163 HD
BRANCH   5   8
ATOM      8  C   UNL     1       0.227   1.567  -0.763  1.00  0.00     0.179 C 
ATOM      9  C   UNL     1      -1.153   1.816  -0.113  1.00  0.00     0.085 C 
ATOM     10  C   UNL     1       0.951   2.902  -0.572  1.00  0.00     0.144 C 
ATOM     11  C   UNL     1      -1.423   3.305  -0.267  1.00  0.00     0.072 C 
ATOM     12  C   UNL     1      -0.056   3.982  -0.132  1.00  0.00     0.191 C 
BRANCH   8  13
ATOM     13  N   UNL     1       0.072   1.308  -2.215  1.00  0.00    -0.345 N 
ATOM     14  H   UNL     1      -0.321   2.133  -2.667  1.00  0.00     0.345 HD
ATOM     15  H   UNL     1      -0.552   0.513  -2.354  1.00  0.00     0.345 HD
ATOM     16  H   UNL     1       0.984   1.099  -2.621  1.00  0.00     0.345 HD
ENDBRANCH   8  13
BRANCH  12  17
ATOM     17  N   UNL     1       0.236   4.605   1.188  1.00  0.00    -0.332 N 
ATOM     18  C   UNL     1       0.112   3.694   2.333  1.00  0.00     0.263 C 
ATOM     19  C   UNL     1       1.528   5.320   1.157  1.00  0.00     0.263 C 
ATOM     20  H   UNL     1      -0.500   5.293   1.346  1.00  0.00     0.348 HD
ATOM     21  C   UNL     1       0.442   4.363   3.668  1.00  0.00     0.074 C 
ATOM     22  C   UNL     1       1.880   6.000   2.479  1.00  0.00     0.074 C 
ATOM     23  C   UNL     1       1.829   5.002   3.636  1.00  0.00     0.106 C 
BRANCH  23  24
ATOM     24  C   UNL     1       2.160   5.674   4.955  1.00  0.00     0.392 C 
ATOM     25  F   UNL     1       2.119   4.787   5.973  1.00  0.00    -0.171 F 
ATOM     26  F   UNL     1       3.404   6.202   4.927  1.00  0.00    -0.171 F 
ATOM     27  F   UNL     1       1.296   6.671   5.241  1.00  0.00    -0.171 F 
ENDBRANCH  23  24
ENDBRANCH  12  17
ENDBRANCH   5   8
ENDBRANCH   3   4
ENDBRANCH   2   3
ENDBRANCH   1   2
BRANCH   1  28
ATOM     28  C   UNL     1       6.072   1.237   1.520  1.00  0.00     0.116 C 
BRANCH  28  29
ATOM     29  N   UNL     1       6.519   2.562   1.105  1.00  0.00    -0.352 N 
ATOM     30  C   UNL     1       7.817   3.014   1.019  1.00  0.00     0.251 C 
ATOM     31  H   UNL     1       5.815   3.204   0.858  1.00  0.00     0.163 HD
ATOM     32  O   UNL     1       8.061   4.174   0.708  1.00  0.00    -0.269 OA
BRANCH  30  33
ATOM     33  C   UNL     1       8.900   2.077   1.373  1.00  0.00     0.039 A 
ATOM     34  C   UNL     1       9.773   2.414   2.409  1.00  0.00     0.014 A 
ATOM     35  C   UNL     1       8.949   0.814   0.777  1.00  0.00     0.014 A 
ATOM     36  C   UNL     1      10.637   1.443   2.915  1.00  0.00     0.010 A 
ATOM     37  C   UNL     1       9.751  -0.171   1.336  1.00  0.00     0.010 A 
ATOM     38  C   UNL     1      10.593   0.131   2.418  1.00  0.00    -0.014 A 
BRANCH  38  39
ATOM     39  C   UNL     1      11.405  -0.956   3.015  1.00  0.00     0.031 A 
ATOM     40  C   UNL     1      12.441  -1.653   2.179  1.00  0.00     0.074 A 
ATOM     41  C   UNL     1      11.139  -1.381   4.266  1.00  0.00     0.049 A 
ATOM     42  N   UNL     1      13.155  -2.710   2.461  1.00  0.00    -0.248 NA
ATOM     43  C   UNL     1      12.675  -1.110   0.831  1.00  0.00     0.031 C 
ATOM     44  C   UNL     1      10.111  -0.828   5.152  1.00  0.00     0.029 A 
ATOM     45  N   UNL     1      11.700  -2.392   5.005  1.00  0.00    -0.354 N 
ATOM     46  C   UNL     1      13.893  -2.981   1.316  1.00  0.00     0.074 A 
ATOM     47  C   UNL     1      13.511  -2.002   0.323  1.00  0.00     0.031 C 
ATOM     48  C   UNL     1      10.131  -1.492   6.320  1.00  0.00     0.029 A 
ATOM     49  C   UNL     1      11.147  -2.537   6.255  1.00  0.00     0.049 A 
ATOM     50  H   UNL     1      12.430  -2.962   4.670  1.00  0.00     0.167 HD
ATOM     51  C   UNL     1      14.821  -3.947   1.118  1.00  0.00     0.037 A 
ATOM     52  C   UNL     1      11.429  -3.415   7.237  1.00  0.00     0.037 A 
ATOM     53  C   UNL     1      15.236  -4.881   2.128  1.00  0.00     0.049 A 
ATOM     54  C   UNL     1      12.512  -4.434   7.018  1.00  0.00     0.074 A 
ATOM     55  C   UNL     1      16.216  -5.855   2.051  1.00  0.00     0.029 A 
ATOM     56  N   UNL     1      14.704  -4.947   3.408  1.00  0.00    -0.354 N 
ATOM     57  N   UNL     1      13.235  -4.646   5.945  1.00  0.00    -0.248 NA
ATOM     58  C   UNL     1      12.823  -5.328   8.142  1.00  0.00     0.031 C 
ATOM     59  C   UNL     1      16.267  -6.520   3.282  1.00  0.00     0.029 A 
ATOM     60  C   UNL     1      15.336  -5.943   4.131  1.00  0.00     0.049 A 
ATOM     61  H   UNL     1      13.984  -4.370   3.750  1.00  0.00     0.167 HD
ATOM     62  C   UNL     1      14.102  -5.682   6.271  1.00  0.00     0.074 A 
ATOM     63  C   UNL     1      13.818  -6.050   7.643  1.00  0.00     0.031 C 
ATOM     64  C   UNL     1      15.048  -6.277   5.503  1.00  0.00     0.037 A 
BRANCH  51  65
ATOM     65  C   UNL     1      15.454  -4.022  -0.241  1.00  0.00     0.058 A 
ATOM     66  C   UNL     1      16.379  -3.058  -0.673  1.00  0.00     0.135 A 
ATOM     67  C   UNL     1      15.131  -5.065  -1.123  1.00  0.00     0.135 A 
ATOM     68  F   UNL     1      16.705  -2.030   0.126  1.00  0.00    -0.206 F 
ATOM     69  C   UNL     1      16.935  -3.104  -1.946  1.00  0.00     0.059 A 
ATOM     70  C   UNL     1      15.694  -5.144  -2.394  1.00  0.00     0.059 A 
ATOM     71  F   UNL     1      14.250  -6.010  -0.760  1.00  0.00    -0.206 F 
ATOM     72  C   UNL     1      16.580  -4.147  -2.803  1.00  0.00     0.060 A 
BRANCH  72  73
ATOM     73  S   UNL     1      17.293  -4.189  -4.460  1.00  0.00     0.124 S 
ATOM     74  O   UNL     1      16.470  -3.202  -5.153  1.00  0.00    -0.237 OA
ATOM     75  O   UNL     1      18.679  -3.800  -4.219  1.00  0.00    -0.237 OA
ATOM     76  O   UNL     1      17.098  -5.574  -4.877  1.00  0.00    -0.744 OA
ENDBRANCH  72  73
ENDBRANCH  51  65
BRANCH  52  77
ATOM     77  C   UNL     1      10.701  -3.341   8.530  1.00  0.00     0.058 A 
ATOM     78  C   UNL     1      11.325  -2.818   9.672  1.00  0.00     0.135 A 
ATOM     79  C   UNL     1       9.371  -3.770   8.647  1.00  0.00     0.135 A 
ATOM     80  F   UNL     1      12.598  -2.399   9.608  1.00  0.00    -0.206 F 
ATOM     81  C   UNL     1      10.660  -2.734  10.891  1.00  0.00     0.059 A 
ATOM     82  C   UNL     1       8.679  -3.680   9.851  1.00  0.00     0.059 A 
ATOM     83  F   UNL     1       8.726  -4.260   7.577  1.00  0.00    -0.206 F 
ATOM     84  C   UNL     1       9.336  -3.168  10.971  1.00  0.00     0.060 A 
BRANCH  84  85
ATOM     85  S   UNL     1       8.461  -3.007  12.543  1.00  0.00     0.124 S 
ATOM     86  O   UNL     1       8.993  -4.139  13.291  1.00  0.00    -0.237 OA
ATOM     87  O   UNL     1       8.883  -1.685  12.998  1.00  0.00    -0.237 OA
ATOM     88  O   UNL     1       7.058  -3.107  12.154  1.00  0.00    -0.744 OA
ENDBRANCH  84  85
ENDBRANCH  52  77
BRANCH  64  89
ATOM     89  C   UNL     1      15.868  -7.360   6.136  1.00  0.00     0.058 A 
ATOM     90  C   UNL     1      15.363  -8.657   6.305  1.00  0.00     0.135 A 
ATOM     91  C   UNL     1      17.198  -7.113   6.514  1.00  0.00     0.135 A 
ATOM     92  F   UNL     1      14.095  -8.938   5.964  1.00  0.00    -0.206 F 
ATOM     93  C   UNL     1      16.146  -9.675   6.837  1.00  0.00     0.059 A 
ATOM     94  C   UNL     1      18.005  -8.120   7.032  1.00  0.00     0.059 A 
ATOM     95  F   UNL     1      17.727  -5.889   6.365  1.00  0.00    -0.206 F 
ATOM     96  C   UNL     1      17.468  -9.397   7.195  1.00  0.00     0.060 A 
BRANCH  96  97
ATOM     97  S   UNL     1      18.495 -10.737   7.834  1.00  0.00     0.124 S 
ATOM     98  O   UNL     1      18.038 -10.823   9.217  1.00  0.00    -0.237 OA
ATOM     99  O   UNL     1      18.127 -11.857   6.974  1.00  0.00    -0.237 OA
ATOM    100  O   UNL     1      19.854 -10.236   7.650  1.00  0.00    -0.744 OA
ENDBRANCH  96  97
ENDBRANCH  64  89
ENDBRANCH  38  39
ENDBRANCH  30  33
ENDBRANCH  28  29
ENDBRANCH   1  28
TORSDOF 17
