REMARK SMILES COc1ccc2c(c1)c(CC(=O)NCCCCNC(=O)c1ccc(-c3c4nc(c(-c5c(F)cc(S(=O)(=O)[O-])cc5F)c5ccc([nH]5)c(-c5c(F)cc(S(=O)(=O)[O-])cc5F)c5nc(c(-c6c(F)cc(S(=O)(=O)[O-])cc6F)c6ccc3[nH]6)C=C5)C=C4)cc1)c(C)n2Cc1ccc(Br)cc1
REMARK SMILES IDX 15 1 14 2 13 3 11 4 12 5 10 7 9 8 3 9 4 10 8 11 5 12 7 13
REMARK SMILES IDX 6 14 89 15 87 16 88 17 2 18 1 19 90 20 91 21 92 22 97 23
REMARK SMILES IDX 93 24 96 25 94 26 95 27 16 28 17 29 18 30 19 31 20 33 21 34
REMARK SMILES IDX 22 35 86 36 23 37 85 38 24 39 25 40 26 41 79 42 27 43 84 44
REMARK SMILES IDX 78 45 80 46 28 47 83 48 77 49 76 50 29 52 63 53 42 54 62 55
REMARK SMILES IDX 43 56 46 57 61 58 81 59 44 60 45 61 60 63 82 64 47 65 30 66
REMARK SMILES IDX 31 67 40 68 32 69 33 70 39 71 41 72 34 73 35 74 36 75 37 76
REMARK SMILES IDX 38 77 64 78 65 79 74 80 66 81 67 82 73 83 75 84 68 85 69 86
REMARK SMILES IDX 70 87 71 88 72 89 48 90 49 91 58 92 50 93 51 94 57 95 59 96
REMARK SMILES IDX 52 97 53 98 54 99 55 100 56 101
REMARK H PARENT 13 6 18 32 80 51 46 62
REMARK Flexibility Score: inf
ROOT
ATOM      1  C   UNL     1       0.715   5.790   5.400  1.00  0.00     0.023 C 
ENDROOT
BRANCH   1   2
ATOM      2  C   UNL     1      -0.659   5.391   5.937  1.00  0.00     0.116 C 
BRANCH   2   3
ATOM      3  N   UNL     1      -1.597   5.055   4.881  1.00  0.00    -0.356 N 
ATOM      4  C   UNL     1      -2.192   3.858   4.596  1.00  0.00     0.224 C 
ATOM      5  O   UNL     1      -3.007   3.822   3.668  1.00  0.00    -0.275 OA
ATOM      6  H   UNL     1      -1.839   5.798   4.282  1.00  0.00     0.163 HD
BRANCH   4   7
ATOM      7  C   UNL     1      -1.935   2.628   5.457  1.00  0.00     0.138 C 
BRANCH   7   8
ATOM      8  C   UNL     1      -0.497   2.213   5.486  1.00  0.00    -0.010 A 
ATOM      9  C   UNL     1       1.062   1.409   2.103  1.00  0.00     0.119 A 
ATOM     10  C   UNL     1       2.359   1.232   2.572  1.00  0.00     0.048 A 
ATOM     11  C   UNL     1       0.048   1.793   2.980  1.00  0.00     0.057 A 
ATOM     12  C   UNL     1       2.664   1.395   3.934  1.00  0.00     0.031 A 
ATOM     13  C   UNL     1       0.318   1.912   4.359  1.00  0.00     0.007 A 
ATOM     14  C   UNL     1       1.621   1.714   4.824  1.00  0.00     0.049 A 
ATOM     15  N   UNL     1       1.595   1.924   6.199  1.00  0.00    -0.340 N 
ATOM     16  C   UNL     1       0.272   1.968   6.615  1.00  0.00     0.020 A 
ATOM     17  C   UNL     1      -0.200   1.839   8.021  1.00  0.00     0.065 C 
BRANCH   9  18
ATOM     18  O   UNL     1       0.693   1.292   0.789  1.00  0.00    -0.497 OA
ATOM     19  C   UNL     1       1.213   0.136   0.140  1.00  0.00     0.278 C 
ENDBRANCH   9  18
BRANCH  15  20
ATOM     20  C   UNL     1       2.777   1.951   7.069  1.00  0.00     0.157 C 
BRANCH  20  21
ATOM     21  C   UNL     1       3.136   3.330   7.600  1.00  0.00    -0.028 A 
ATOM     22  C   UNL     1       2.367   3.973   8.584  1.00  0.00     0.007 A 
ATOM     23  C   UNL     1       4.309   3.973   7.170  1.00  0.00     0.007 A 
ATOM     24  C   UNL     1       2.731   5.219   9.104  1.00  0.00     0.016 A 
ATOM     25  C   UNL     1       4.693   5.210   7.706  1.00  0.00     0.016 A 
ATOM     26  C   UNL     1       3.900   5.830   8.668  1.00  0.00     0.017 A 
ATOM     27  Br  UNL     1       4.427   7.484   9.412  1.00  0.00    -0.051 Br
ENDBRANCH  20  21
ENDBRANCH  15  20
ENDBRANCH   7   8
ENDBRANCH   4   7
ENDBRANCH   2   3
ENDBRANCH   1   2
BRANCH   1  28
ATOM     28  C   UNL     1       0.754   7.117   4.630  1.00  0.00     0.023 C 
BRANCH  28  29
ATOM     29  C   UNL     1       0.170   8.321   5.372  1.00  0.00     0.116 C 
BRANCH  29  30
ATOM     30  N   UNL     1       0.786   8.596   6.655  1.00  0.00    -0.352 N 
ATOM     31  C   UNL     1       1.750   9.473   7.078  1.00  0.00     0.251 C 
ATOM     32  H   UNL     1       0.435   8.030   7.380  1.00  0.00     0.163 HD
ATOM     33  O   UNL     1       1.785   9.685   8.294  1.00  0.00    -0.269 OA
BRANCH  31  34
ATOM     34  C   UNL     1       2.770  10.118   6.202  1.00  0.00     0.039 A 
ATOM     35  C   UNL     1       2.812  10.028   4.814  1.00  0.00     0.014 A 
ATOM     36  C   UNL     1       3.811  10.810   6.857  1.00  0.00     0.014 A 
ATOM     37  C   UNL     1       3.893  10.547   4.107  1.00  0.00     0.010 A 
ATOM     38  C   UNL     1       4.891  11.343   6.151  1.00  0.00     0.010 A 
ATOM     39  C   UNL     1       4.950  11.181   4.772  1.00  0.00    -0.014 A 
BRANCH  39  40
ATOM     40  C   UNL     1       6.027  11.723   3.942  1.00  0.00     0.031 A 
ATOM     41  C   UNL     1       5.576  12.682   2.893  1.00  0.00     0.074 A 
ATOM     42  C   UNL     1       7.340  11.444   4.077  1.00  0.00     0.049 A 
ATOM     43  N   UNL     1       5.525  12.493   1.614  1.00  0.00    -0.248 NA
ATOM     44  C   UNL     1       4.982  13.952   3.332  1.00  0.00     0.031 C 
ATOM     45  C   UNL     1       8.020  10.751   5.173  1.00  0.00     0.029 A 
ATOM     46  N   UNL     1       8.370  11.793   3.248  1.00  0.00    -0.354 N 
ATOM     47  C   UNL     1       5.072  13.689   1.061  1.00  0.00     0.074 A 
ATOM     48  C   UNL     1       4.625  14.496   2.167  1.00  0.00     0.031 C 
ATOM     49  C   UNL     1       9.359  10.908   5.041  1.00  0.00     0.029 A 
ATOM     50  C   UNL     1       9.635  11.569   3.776  1.00  0.00     0.049 A 
ATOM     51  H   UNL     1       8.226  12.173   2.351  1.00  0.00     0.167 HD
ATOM     52  C   UNL     1       5.279  13.995  -0.250  1.00  0.00     0.037 A 
ATOM     53  C   UNL     1      10.819  11.922   3.217  1.00  0.00     0.037 A 
ATOM     54  C   UNL     1       5.663  12.830  -1.004  1.00  0.00     0.049 A 
ATOM     55  C   UNL     1      10.596  12.058   1.759  1.00  0.00     0.074 A 
ATOM     56  C   UNL     1       5.059  11.655  -1.399  1.00  0.00     0.029 A 
ATOM     57  N   UNL     1       7.008  12.665  -1.212  1.00  0.00    -0.354 N 
ATOM     58  N   UNL     1      10.333  11.061   0.962  1.00  0.00    -0.248 NA
ATOM     59  C   UNL     1      10.346  13.381   1.206  1.00  0.00     0.031 C 
ATOM     60  C   UNL     1       6.109  10.691  -1.465  1.00  0.00     0.029 A 
ATOM     61  C   UNL     1       7.304  11.331  -1.132  1.00  0.00     0.049 A 
ATOM     62  H   UNL     1       7.654  13.386  -1.389  1.00  0.00     0.167 HD
ATOM     63  C   UNL     1       9.507  11.596  -0.009  1.00  0.00     0.074 A 
ATOM     64  C   UNL     1       9.675  13.039   0.105  1.00  0.00     0.031 C 
ATOM     65  C   UNL     1       8.561  10.827  -0.621  1.00  0.00     0.037 A 
BRANCH  52  66
ATOM     66  C   UNL     1       5.532  15.389  -0.789  1.00  0.00     0.058 A 
ATOM     67  C   UNL     1       5.650  15.576  -2.186  1.00  0.00     0.135 A 
ATOM     68  C   UNL     1       5.983  16.466   0.004  1.00  0.00     0.135 A 
ATOM     69  F   UNL     1       5.241  14.625  -3.041  1.00  0.00    -0.206 F 
ATOM     70  C   UNL     1       6.266  16.697  -2.743  1.00  0.00     0.059 A 
ATOM     71  C   UNL     1       6.555  17.615  -0.534  1.00  0.00     0.059 A 
ATOM     72  F   UNL     1       5.985  16.417   1.341  1.00  0.00    -0.206 F 
ATOM     73  C   UNL     1       6.739  17.700  -1.904  1.00  0.00     0.060 A 
BRANCH  73  74
ATOM     74  S   UNL     1       7.664  19.078  -2.608  1.00  0.00     0.124 S 
ATOM     75  O   UNL     1       8.881  18.411  -3.056  1.00  0.00    -0.237 OA
ATOM     76  O   UNL     1       6.764  19.542  -3.658  1.00  0.00    -0.237 OA
ATOM     77  O   UNL     1       7.822  19.987  -1.477  1.00  0.00    -0.744 OA
ENDBRANCH  73  74
ENDBRANCH  52  66
BRANCH  53  78
ATOM     78  C   UNL     1      12.060  12.429   3.859  1.00  0.00     0.058 A 
ATOM     79  C   UNL     1      13.255  12.541   3.123  1.00  0.00     0.135 A 
ATOM     80  C   UNL     1      12.013  13.126   5.081  1.00  0.00     0.135 A 
ATOM     81  F   UNL     1      13.386  11.911   1.945  1.00  0.00    -0.206 F 
ATOM     82  C   UNL     1      14.305  13.370   3.527  1.00  0.00     0.059 A 
ATOM     83  C   UNL     1      13.052  13.952   5.510  1.00  0.00     0.059 A 
ATOM     84  F   UNL     1      10.910  13.105   5.844  1.00  0.00    -0.206 F 
ATOM     85  C   UNL     1      14.179  14.100   4.708  1.00  0.00     0.060 A 
BRANCH  85  86
ATOM     86  S   UNL     1      15.433  15.338   5.114  1.00  0.00     0.124 S 
ATOM     87  O   UNL     1      16.601  14.508   5.387  1.00  0.00    -0.237 OA
ATOM     88  O   UNL     1      15.487  16.132   3.891  1.00  0.00    -0.237 OA
ATOM     89  O   UNL     1      14.869  16.024   6.274  1.00  0.00    -0.744 OA
ENDBRANCH  85  86
ENDBRANCH  53  78
BRANCH  65  90
ATOM     90  C   UNL     1       8.739   9.335  -0.575  1.00  0.00     0.058 A 
ATOM     91  C   UNL     1       8.683   8.553   0.592  1.00  0.00     0.135 A 
ATOM     92  C   UNL     1       8.873   8.659  -1.798  1.00  0.00     0.135 A 
ATOM     93  F   UNL     1       8.465   9.114   1.790  1.00  0.00    -0.206 F 
ATOM     94  C   UNL     1       8.797   7.162   0.544  1.00  0.00     0.059 A 
ATOM     95  C   UNL     1       8.957   7.273  -1.871  1.00  0.00     0.059 A 
ATOM     96  F   UNL     1       8.881   9.350  -2.950  1.00  0.00    -0.206 F 
ATOM     97  C   UNL     1       8.932   6.530  -0.693  1.00  0.00     0.060 A 
BRANCH  97  98
ATOM     98  S   UNL     1       9.008   4.727  -0.763  1.00  0.00     0.124 S 
ATOM     99  O   UNL     1      10.324   4.452  -0.184  1.00  0.00    -0.237 OA
ATOM    100  O   UNL     1       7.866   4.330   0.062  1.00  0.00    -0.237 OA
ATOM    101  O   UNL     1       8.876   4.429  -2.180  1.00  0.00    -0.744 OA
ENDBRANCH  97  98
ENDBRANCH  65  90
ENDBRANCH  39  40
ENDBRANCH  31  34
ENDBRANCH  29  30
ENDBRANCH  28  29
ENDBRANCH   1  28
TORSDOF 18
