REMARK SMILES Nc1ccc(N2CC3(CCC3)C2)c(C(=O)NCCCCNC(=O)c2ccc(-c3c4nc(c(-c5c(F)cc(S(=O)(=O)[O-])cc5F)c5ccc([nH]5)c(-c5c(F)cc(S(=O)(=O)[O-])cc5F)c5nc(c(-c6c(F)cc(S(=O)(=O)[O-])cc6F)c6ccc3[nH]6)C=C5)C=C4)cc2)c1
REMARK SMILES IDX 19 1 18 2 17 3 16 4 14 5 15 6 13 8 2 9 3 10 90 11 4 12 5 13
REMARK SMILES IDX 1 14 6 17 7 18 12 19 8 20 9 21 11 22 10 23 20 24 21 25 22 26
REMARK SMILES IDX 23 28 24 29 25 30 89 31 26 32 88 33 27 34 28 35 29 36 82 37
REMARK SMILES IDX 30 38 87 39 81 40 83 41 31 42 86 43 80 44 79 45 32 47 66 48
REMARK SMILES IDX 45 49 65 50 46 51 49 52 64 53 84 54 47 55 48 56 63 58 85 59
REMARK SMILES IDX 50 60 33 61 34 62 43 63 35 64 36 65 42 66 44 67 37 68 38 69
REMARK SMILES IDX 39 70 40 71 41 72 67 73 68 74 77 75 69 76 70 77 76 78 78 79
REMARK SMILES IDX 71 80 72 81 73 82 74 83 75 84 51 85 52 86 61 87 53 88 54 89
REMARK SMILES IDX 60 90 62 91 55 92 56 93 57 94 58 95 59 96
REMARK H PARENT 16 7 1 15 1 16 21 27 83 46 49 57
REMARK Flexibility Score: inf
ROOT
ATOM      1  C   UNL     1       0.542   5.760  -1.437  1.00  0.00     0.023 C 
ENDROOT
BRANCH   1   2
ATOM      2  C   UNL     1       1.010   4.362  -1.008  1.00  0.00     0.023 C 
BRANCH   2   3
ATOM      3  C   UNL     1       0.436   3.894   0.331  1.00  0.00     0.116 C 
BRANCH   3   4
ATOM      4  N   UNL     1      -0.974   3.610   0.190  1.00  0.00    -0.352 N 
ATOM      5  C   UNL     1      -1.730   2.501  -0.096  1.00  0.00     0.253 C 
ATOM      6  O   UNL     1      -2.927   2.762  -0.183  1.00  0.00    -0.269 OA
ATOM      7  H   UNL     1      -1.530   4.410   0.334  1.00  0.00     0.163 HD
BRANCH   5   8
ATOM      8  C   UNL     1      -1.199   1.094  -0.217  1.00  0.00     0.065 A 
ATOM      9  C   UNL     1       0.768  -0.387  -0.238  1.00  0.00     0.032 A 
ATOM     10  C   UNL     1      -0.049  -1.473   0.032  1.00  0.00     0.027 A 
ATOM     11  C   UNL     1       0.173   0.864  -0.429  1.00  0.00     0.041 A 
ATOM     12  C   UNL     1      -1.429  -1.299   0.134  1.00  0.00     0.029 A 
ATOM     13  C   UNL     1      -2.034  -0.033  -0.014  1.00  0.00     0.050 A 
BRANCH   9  14
ATOM     14  N   UNL     1       2.131  -0.554  -0.430  1.00  0.00    -0.399 N 
ATOM     15  H   UNL     1       2.542  -1.438  -0.293  1.00  0.00     0.156 HD
ATOM     16  H   UNL     1       2.687   0.211  -0.702  1.00  0.00     0.156 HD
ENDBRANCH   9  14
BRANCH  13  17
ATOM     17  N   UNL     1      -3.435  -0.013   0.038  1.00  0.00    -0.370 N 
ATOM     18  C   UNL     1      -4.338  -0.383   1.085  1.00  0.00     0.125 C 
ATOM     19  C   UNL     1      -4.452   0.497  -0.833  1.00  0.00     0.125 C 
ATOM     20  C   UNL     1      -5.346   0.474   0.377  1.00  0.00     0.005 C 
ATOM     21  C   UNL     1      -6.784   0.057   0.229  1.00  0.00     0.011 C 
ATOM     22  C   UNL     1      -5.758   1.781   1.021  1.00  0.00     0.011 C 
ATOM     23  C   UNL     1      -7.140   1.562   0.362  1.00  0.00     0.001 C 
ENDBRANCH  13  17
ENDBRANCH   5   8
ENDBRANCH   3   4
ENDBRANCH   2   3
ENDBRANCH   1   2
BRANCH   1  24
ATOM     24  C   UNL     1       0.878   6.883  -0.461  1.00  0.00     0.116 C 
BRANCH  24  25
ATOM     25  N   UNL     1       2.296   6.953  -0.145  1.00  0.00    -0.352 N 
ATOM     26  C   UNL     1       3.056   8.058   0.152  1.00  0.00     0.251 C 
ATOM     27  H   UNL     1       2.775   6.093  -0.143  1.00  0.00     0.163 HD
ATOM     28  O   UNL     1       4.269   7.953   0.281  1.00  0.00    -0.269 OA
BRANCH  26  29
ATOM     29  C   UNL     1       2.399   9.376   0.272  1.00  0.00     0.039 A 
ATOM     30  C   UNL     1       2.929  10.456  -0.436  1.00  0.00     0.014 A 
ATOM     31  C   UNL     1       1.254   9.535   1.058  1.00  0.00     0.014 A 
ATOM     32  C   UNL     1       2.272  11.688  -0.405  1.00  0.00     0.010 A 
ATOM     33  C   UNL     1       0.569  10.745   1.039  1.00  0.00     0.010 A 
ATOM     34  C   UNL     1       1.070  11.832   0.305  1.00  0.00    -0.014 A 
BRANCH  34  35
ATOM     35  C   UNL     1       0.315  13.109   0.285  1.00  0.00     0.031 A 
ATOM     36  C   UNL     1       0.149  13.908   1.547  1.00  0.00     0.074 A 
ATOM     37  C   UNL     1      -0.280  13.509  -0.856  1.00  0.00     0.049 A 
ATOM     38  N   UNL     1      -0.533  15.006   1.744  1.00  0.00    -0.248 NA
ATOM     39  C   UNL     1       0.814  13.387   2.752  1.00  0.00     0.031 C 
ATOM     40  C   UNL     1      -0.235  12.789  -2.131  1.00  0.00     0.029 A 
ATOM     41  N   UNL     1      -1.051  14.611  -1.126  1.00  0.00    -0.354 N 
ATOM     42  C   UNL     1      -0.394  15.300   3.095  1.00  0.00     0.074 A 
ATOM     43  C   UNL     1       0.397  14.238   3.679  1.00  0.00     0.031 C 
ATOM     44  C   UNL     1      -0.931  13.477  -3.050  1.00  0.00     0.029 A 
ATOM     45  C   UNL     1      -1.499  14.667  -2.424  1.00  0.00     0.049 A 
ATOM     46  H   UNL     1      -1.263  15.297  -0.453  1.00  0.00     0.167 HD
ATOM     47  C   UNL     1      -0.866  16.368   3.782  1.00  0.00     0.037 A 
ATOM     48  C   UNL     1      -2.282  15.574  -3.040  1.00  0.00     0.037 A 
ATOM     49  C   UNL     1      -1.629  17.433   3.188  1.00  0.00     0.049 A 
ATOM     50  C   UNL     1      -2.778  16.761  -2.262  1.00  0.00     0.074 A 
ATOM     51  C   UNL     1      -2.101  18.590   3.784  1.00  0.00     0.029 A 
ATOM     52  N   UNL     1      -2.034  17.473   1.862  1.00  0.00    -0.354 N 
ATOM     53  N   UNL     1      -2.584  17.058  -0.999  1.00  0.00    -0.248 NA
ATOM     54  C   UNL     1      -3.593  17.742  -2.993  1.00  0.00     0.031 C 
ATOM     55  C   UNL     1      -2.820  19.313   2.825  1.00  0.00     0.029 A 
ATOM     56  C   UNL     1      -2.762  18.627   1.622  1.00  0.00     0.049 A 
ATOM     57  H   UNL     1      -1.833  16.782   1.189  1.00  0.00     0.167 HD
ATOM     58  C   UNL     1      -3.230  18.270  -0.789  1.00  0.00     0.074 A 
ATOM     59  C   UNL     1      -3.814  18.657  -2.058  1.00  0.00     0.031 C 
ATOM     60  C   UNL     1      -3.329  18.999   0.350  1.00  0.00     0.037 A 
BRANCH  47  61
ATOM     61  C   UNL     1      -0.562  16.433   5.253  1.00  0.00     0.058 A 
ATOM     62  C   UNL     1       0.736  16.685   5.726  1.00  0.00     0.135 A 
ATOM     63  C   UNL     1      -1.582  16.258   6.203  1.00  0.00     0.135 A 
ATOM     64  F   UNL     1       1.751  16.846   4.862  1.00  0.00    -0.206 F 
ATOM     65  C   UNL     1       1.020  16.723   7.087  1.00  0.00     0.059 A 
ATOM     66  C   UNL     1      -1.325  16.318   7.570  1.00  0.00     0.059 A 
ATOM     67  F   UNL     1      -2.841  16.015   5.807  1.00  0.00    -0.206 F 
ATOM     68  C   UNL     1      -0.017  16.533   8.002  1.00  0.00     0.060 A 
BRANCH  68  69
ATOM     69  S   UNL     1       0.369  16.573   9.765  1.00  0.00     0.124 S 
ATOM     70  O   UNL     1       1.014  15.276   9.950  1.00  0.00    -0.237 OA
ATOM     71  O   UNL     1       1.246  17.735   9.869  1.00  0.00    -0.237 OA
ATOM     72  O   UNL     1      -0.939  16.720  10.396  1.00  0.00    -0.744 OA
ENDBRANCH  68  69
ENDBRANCH  47  61
BRANCH  48  73
ATOM     73  C   UNL     1      -2.615  15.406  -4.479  1.00  0.00     0.058 A 
ATOM     74  C   UNL     1      -2.032  16.230  -5.452  1.00  0.00     0.135 A 
ATOM     75  C   UNL     1      -3.495  14.402  -4.912  1.00  0.00     0.135 A 
ATOM     76  F   UNL     1      -1.188  17.206  -5.085  1.00  0.00    -0.206 F 
ATOM     77  C   UNL     1      -2.317  16.074  -6.804  1.00  0.00     0.059 A 
ATOM     78  C   UNL     1      -3.779  14.212  -6.261  1.00  0.00     0.059 A 
ATOM     79  F   UNL     1      -4.065  13.577  -4.020  1.00  0.00    -0.206 F 
ATOM     80  C   UNL     1      -3.189  15.059  -7.199  1.00  0.00     0.060 A 
BRANCH  80  81
ATOM     81  S   UNL     1      -3.504  14.825  -8.963  1.00  0.00     0.124 S 
ATOM     82  O   UNL     1      -4.388  15.947  -9.255  1.00  0.00    -0.237 OA
ATOM     83  O   UNL     1      -2.160  14.906  -9.528  1.00  0.00    -0.237 OA
ATOM     84  O   UNL     1      -4.120  13.502  -9.020  1.00  0.00    -0.744 OA
ENDBRANCH  80  81
ENDBRANCH  48  73
BRANCH  60  85
ATOM     85  C   UNL     1      -4.070  20.304   0.273  1.00  0.00     0.058 A 
ATOM     86  C   UNL     1      -5.469  20.353   0.189  1.00  0.00     0.135 A 
ATOM     87  C   UNL     1      -3.372  21.521   0.339  1.00  0.00     0.135 A 
ATOM     88  F   UNL     1      -6.182  19.218   0.116  1.00  0.00    -0.206 F 
ATOM     89  C   UNL     1      -6.152  21.565   0.157  1.00  0.00     0.059 A 
ATOM     90  C   UNL     1      -4.035  22.743   0.332  1.00  0.00     0.059 A 
ATOM     91  F   UNL     1      -2.032  21.528   0.429  1.00  0.00    -0.206 F 
ATOM     92  C   UNL     1      -5.425  22.755   0.230  1.00  0.00     0.060 A 
BRANCH  92  93
ATOM     93  S   UNL     1      -6.324  24.321   0.227  1.00  0.00     0.124 S 
ATOM     94  O   UNL     1      -6.692  24.445  -1.179  1.00  0.00    -0.237 OA
ATOM     95  O   UNL     1      -7.423  24.055   1.149  1.00  0.00    -0.237 OA
ATOM     96  O   UNL     1      -5.333  25.281   0.705  1.00  0.00    -0.744 OA
ENDBRANCH  92  93
ENDBRANCH  60  85
ENDBRANCH  34  35
ENDBRANCH  26  29
ENDBRANCH  24  25
ENDBRANCH   1  24
TORSDOF 16
