REMARK SMILES CN1C(=O)C[C@H](C(=O)Nc2ccc(C(=O)NCCCCNC(=O)c3ccc(-c4c5nc(c(-c6c(F)cc(S(=O)(=O)[O-])cc6F)c6ccc([nH]6)c(-c6c(F)cc(S(=O)(=O)[O-])cc6F)c6nc(c(-c7c(F)cc(S(=O)(=O)[O-])cc7F)c7ccc4[nH]7)C=C6)C=C5)cc3)cc2)S/C1=[NH+]\c1cccc(C(F)(F)F)c1
REMARK SMILES IDX 18 1 17 2 16 3 14 4 15 5 13 7 10 8 11 9 91 10 12 11 90 12
REMARK SMILES IDX 9 13 7 14 8 15 6 17 1 18 2 19 3 20 93 21 4 22 5 23 92 24
REMARK SMILES IDX 94 25 95 27 96 28 104 29 97 30 99 31 98 32 100 33 101 34
REMARK SMILES IDX 102 35 103 36 19 37 20 38 21 39 22 40 23 42 24 43 25 44
REMARK SMILES IDX 89 45 26 46 88 47 27 48 28 49 29 50 82 51 30 52 87 53 81 54
REMARK SMILES IDX 83 55 31 56 86 57 80 58 79 59 32 61 66 62 45 63 65 64 46 65
REMARK SMILES IDX 49 66 64 67 84 68 47 69 48 70 63 72 85 73 50 74 33 75 34 76
REMARK SMILES IDX 43 77 35 78 36 79 42 80 44 81 37 82 38 83 39 84 40 85 41 86
REMARK SMILES IDX 67 87 68 88 77 89 69 90 70 91 76 92 78 93 71 94 72 95 73 96
REMARK SMILES IDX 74 97 75 98 51 99 52 100 61 101 53 102 54 103 60 104 62 105
REMARK SMILES IDX 55 106 56 107 57 108 58 109 59 110
REMARK H PARENT 16 6 9 16 94 26 21 41 83 60 49 71
REMARK Flexibility Score: inf
ROOT
ATOM      1  C   UNL     1       0.912   8.706  -0.729  1.00  0.00     0.023 C 
ENDROOT
BRANCH   1   2
ATOM      2  C   UNL     1       0.694   7.479   0.159  1.00  0.00     0.116 C 
BRANCH   2   3
ATOM      3  N   UNL     1      -0.621   7.523   0.770  1.00  0.00    -0.352 N 
ATOM      4  C   UNL     1      -1.806   6.926   0.425  1.00  0.00     0.251 C 
ATOM      5  O   UNL     1      -2.791   7.122   1.136  1.00  0.00    -0.269 OA
ATOM      6  H   UNL     1      -0.671   8.082   1.578  1.00  0.00     0.163 HD
BRANCH   4   7
ATOM      7  C   UNL     1      -1.922   5.986  -0.720  1.00  0.00     0.039 A 
ATOM      8  C   UNL     1      -1.996   3.936  -2.610  1.00  0.00     0.041 A 
ATOM      9  C   UNL     1      -2.853   3.891  -1.513  1.00  0.00     0.027 A 
ATOM     10  C   UNL     1      -1.239   5.078  -2.862  1.00  0.00     0.027 A 
ATOM     11  C   UNL     1      -2.791   4.899  -0.555  1.00  0.00     0.016 A 
ATOM     12  C   UNL     1      -1.223   6.112  -1.924  1.00  0.00     0.016 A 
BRANCH   8  13
ATOM     13  N   UNL     1      -1.918   2.796  -3.401  1.00  0.00    -0.325 N 
ATOM     14  C   UNL     1      -0.830   2.145  -3.897  1.00  0.00     0.238 C 
ATOM     15  O   UNL     1      -1.076   1.245  -4.709  1.00  0.00    -0.273 OA
ATOM     16  H   UNL     1      -2.786   2.397  -3.640  1.00  0.00     0.169 HD
BRANCH  14  17
ATOM     17  C   UNL     1       0.617   2.489  -3.466  1.00  0.00     0.160 C 
ATOM     18  C   UNL     1       0.529  -0.539  -0.299  1.00  0.00     0.301 C 
ATOM     19  N   UNL     1       0.710   0.435  -1.370  1.00  0.00    -0.194 N 
ATOM     20  C   UNL     1       0.487   1.767  -1.041  1.00  0.00     0.311 C 
ATOM     21  C   UNL     1       1.011  -0.068  -2.640  1.00  0.00     0.319 C 
ATOM     22  O   UNL     1      -0.031   2.125   0.019  1.00  0.00    -0.247 OA
ATOM     23  C   UNL     1       0.940   2.811  -2.022  1.00  0.00     0.153 C 
ATOM     24  S   UNL     1       1.692   1.061  -3.805  1.00  0.00    -0.024 SA
ATOM     25  N   UNL     1       0.803  -1.327  -2.874  1.00  0.00    -0.235 N 
ATOM     26  H   UNL     1       0.517  -1.917  -2.140  1.00  0.00     0.313 HD
BRANCH  25  27
ATOM     27  C   UNL     1       0.980  -1.858  -4.155  1.00  0.00     0.126 A 
ATOM     28  C   UNL     1      -0.136  -2.111  -4.957  1.00  0.00     0.052 A 
ATOM     29  C   UNL     1       2.254  -2.150  -4.638  1.00  0.00     0.064 A 
ATOM     30  C   UNL     1       0.021  -2.612  -6.248  1.00  0.00     0.005 A 
ATOM     31  C   UNL     1       2.432  -2.613  -5.948  1.00  0.00     0.060 A 
ATOM     32  C   UNL     1       1.301  -2.854  -6.746  1.00  0.00     0.013 A 
BRANCH  31  33
ATOM     33  C   UNL     1       3.816  -2.832  -6.494  1.00  0.00     0.416 C 
ATOM     34  F   UNL     1       4.104  -4.152  -6.665  1.00  0.00    -0.166 F 
ATOM     35  F   UNL     1       3.997  -2.250  -7.713  1.00  0.00    -0.166 F 
ATOM     36  F   UNL     1       4.803  -2.335  -5.697  1.00  0.00    -0.166 F 
ENDBRANCH  31  33
ENDBRANCH  25  27
ENDBRANCH  14  17
ENDBRANCH   8  13
ENDBRANCH   4   7
ENDBRANCH   2   3
ENDBRANCH   1   2
BRANCH   1  37
ATOM     37  C   UNL     1       1.141  10.008   0.042  1.00  0.00     0.023 C 
BRANCH  37  38
ATOM     38  C   UNL     1       2.397  10.034   0.904  1.00  0.00     0.116 C 
BRANCH  38  39
ATOM     39  N   UNL     1       3.610   9.775   0.146  1.00  0.00    -0.352 N 
ATOM     40  C   UNL     1       4.861  10.329   0.289  1.00  0.00     0.251 C 
ATOM     41  H   UNL     1       3.523   9.107  -0.572  1.00  0.00     0.163 HD
ATOM     42  O   UNL     1       5.731  10.073  -0.529  1.00  0.00    -0.269 OA
BRANCH  40  43
ATOM     43  C   UNL     1       5.131  11.258   1.409  1.00  0.00     0.039 A 
ATOM     44  C   UNL     1       5.843  12.430   1.143  1.00  0.00     0.014 A 
ATOM     45  C   UNL     1       4.687  10.986   2.707  1.00  0.00     0.014 A 
ATOM     46  C   UNL     1       6.059  13.354   2.166  1.00  0.00     0.010 A 
ATOM     47  C   UNL     1       4.838  11.943   3.708  1.00  0.00     0.010 A 
ATOM     48  C   UNL     1       5.529  13.134   3.450  1.00  0.00    -0.014 A 
BRANCH  48  49
ATOM     49  C   UNL     1       5.685  14.160   4.513  1.00  0.00     0.031 A 
ATOM     50  C   UNL     1       6.488  13.868   5.751  1.00  0.00     0.074 A 
ATOM     51  C   UNL     1       5.072  15.352   4.369  1.00  0.00     0.049 A 
ATOM     52  N   UNL     1       6.762  14.655   6.759  1.00  0.00    -0.248 NA
ATOM     53  C   UNL     1       7.033  12.508   5.888  1.00  0.00     0.031 C 
ATOM     54  C   UNL     1       4.204  15.726   3.249  1.00  0.00     0.029 A 
ATOM     55  N   UNL     1       5.087  16.470   5.163  1.00  0.00    -0.354 N 
ATOM     56  C   UNL     1       7.507  13.890   7.649  1.00  0.00     0.074 A 
ATOM     57  C   UNL     1       7.589  12.558   7.090  1.00  0.00     0.031 C 
ATOM     58  C   UNL     1       3.804  16.998   3.408  1.00  0.00     0.029 A 
ATOM     59  C   UNL     1       4.363  17.520   4.651  1.00  0.00     0.049 A 
ATOM     60  H   UNL     1       5.570  16.516   6.020  1.00  0.00     0.167 HD
ATOM     61  C   UNL     1       8.093  14.269   8.810  1.00  0.00     0.037 A 
ATOM     62  C   UNL     1       4.180  18.768   5.122  1.00  0.00     0.037 A 
ATOM     63  C   UNL     1       8.020  15.602   9.352  1.00  0.00     0.049 A 
ATOM     64  C   UNL     1       4.866  19.175   6.397  1.00  0.00     0.074 A 
ATOM     65  C   UNL     1       8.625  16.104  10.492  1.00  0.00     0.029 A 
ATOM     66  N   UNL     1       7.295  16.646   8.795  1.00  0.00    -0.354 N 
ATOM     67  N   UNL     1       5.633  18.459   7.186  1.00  0.00    -0.248 NA
ATOM     68  C   UNL     1       4.675  20.562   6.837  1.00  0.00     0.031 C 
ATOM     69  C   UNL     1       8.232  17.439  10.646  1.00  0.00     0.029 A 
ATOM     70  C   UNL     1       7.423  17.784   9.575  1.00  0.00     0.049 A 
ATOM     71  H   UNL     1       6.767  16.587   7.966  1.00  0.00     0.167 HD
ATOM     72  C   UNL     1       6.034  19.317   8.204  1.00  0.00     0.074 A 
ATOM     73  C   UNL     1       5.443  20.608   7.916  1.00  0.00     0.031 C 
ATOM     74  C   UNL     1       6.819  19.059   9.281  1.00  0.00     0.037 A 
BRANCH  61  75
ATOM     75  C   UNL     1       8.873  13.228   9.568  1.00  0.00     0.058 A 
ATOM     76  C   UNL     1      10.091  12.722   9.083  1.00  0.00     0.135 A 
ATOM     77  C   UNL     1       8.416  12.750  10.807  1.00  0.00     0.135 A 
ATOM     78  F   UNL     1      10.568  13.132   7.897  1.00  0.00    -0.206 F 
ATOM     79  C   UNL     1      10.810  11.759   9.782  1.00  0.00     0.059 A 
ATOM     80  C   UNL     1       9.134  11.807  11.537  1.00  0.00     0.059 A 
ATOM     81  F   UNL     1       7.258  13.197  11.319  1.00  0.00    -0.206 F 
ATOM     82  C   UNL     1      10.323  11.306  11.009  1.00  0.00     0.060 A 
BRANCH  82  83
ATOM     83  S   UNL     1      11.270  10.057  11.904  1.00  0.00     0.124 S 
ATOM     84  O   UNL     1      11.008   8.864  11.104  1.00  0.00    -0.237 OA
ATOM     85  O   UNL     1      12.629  10.583  11.830  1.00  0.00    -0.237 OA
ATOM     86  O   UNL     1      10.670  10.063  13.234  1.00  0.00    -0.744 OA
ENDBRANCH  82  83
ENDBRANCH  61  75
BRANCH  62  87
ATOM     87  C   UNL     1       3.346  19.735   4.359  1.00  0.00     0.058 A 
ATOM     88  C   UNL     1       3.929  20.824   3.694  1.00  0.00     0.135 A 
ATOM     89  C   UNL     1       1.955  19.582   4.266  1.00  0.00     0.135 A 
ATOM     90  F   UNL     1       5.256  21.015   3.756  1.00  0.00    -0.206 F 
ATOM     91  C   UNL     1       3.162  21.738   2.980  1.00  0.00     0.059 A 
ATOM     92  C   UNL     1       1.169  20.468   3.535  1.00  0.00     0.059 A 
ATOM     93  F   UNL     1       1.351  18.545   4.867  1.00  0.00    -0.206 F 
ATOM     94  C   UNL     1       1.781  21.549   2.904  1.00  0.00     0.060 A 
BRANCH  94  95
ATOM     95  S   UNL     1       0.800  22.712   1.931  1.00  0.00     0.124 S 
ATOM     96  O   UNL     1       0.791  23.885   2.796  1.00  0.00    -0.237 OA
ATOM     97  O   UNL     1       1.585  22.826   0.706  1.00  0.00    -0.237 OA
ATOM     98  O   UNL     1      -0.480  22.025   1.782  1.00  0.00    -0.744 OA
ENDBRANCH  94  95
ENDBRANCH  62  87
BRANCH  74  99
ATOM     99  C   UNL     1       7.095  20.209  10.211  1.00  0.00     0.058 A 
ATOM    100  C   UNL     1       6.096  20.747  11.039  1.00  0.00     0.135 A 
ATOM    101  C   UNL     1       8.375  20.785  10.272  1.00  0.00     0.135 A 
ATOM    102  F   UNL     1       4.854  20.235  11.019  1.00  0.00    -0.206 F 
ATOM    103  C   UNL     1       6.342  21.846  11.855  1.00  0.00     0.059 A 
ATOM    104  C   UNL     1       8.651  21.865  11.104  1.00  0.00     0.059 A 
ATOM    105  F   UNL     1       9.371  20.300   9.514  1.00  0.00    -0.206 F 
ATOM    106  C   UNL     1       7.621  22.404  11.873  1.00  0.00     0.060 A 
BRANCH 106 107
ATOM    107  S   UNL     1       7.925  23.844  12.919  1.00  0.00     0.124 S 
ATOM    108  O   UNL     1       7.297  24.907  12.142  1.00  0.00    -0.237 OA
ATOM    109  O   UNL     1       7.248  23.480  14.160  1.00  0.00    -0.237 OA
ATOM    110  O   UNL     1       9.381  23.901  13.001  1.00  0.00    -0.744 OA
ENDBRANCH 106 107
ENDBRANCH  74  99
ENDBRANCH  48  49
ENDBRANCH  40  43
ENDBRANCH  38  39
ENDBRANCH  37  38
ENDBRANCH   1  37
TORSDOF 18
