REMARK SMILES Cc1ccccc1C(=O)Nc1cc(C(=O)NCCCCNC(=O)c2ccc(-c3c4nc(c(-c5c(F)cc(S(=O)(=O)[O-])cc5F)c5ccc([nH]5)c(-c5c(F)cc(S(=O)(=O)[O-])cc5F)c5nc(c(-c6c(F)cc(S(=O)(=O)[O-])cc6F)c6ccc3[nH]6)C=C5)C=C4)cc2)ccc1N1CC[NH+](CC(=O)Nc2ccc(F)cc2)CC1
REMARK SMILES IDX 18 1 17 2 16 3 14 4 15 5 13 7 11 8 12 9 92 10 91 11 90 12
REMARK SMILES IDX 10 13 8 14 9 15 7 17 1 18 2 19 3 20 4 21 6 22 5 23 93 24
REMARK SMILES IDX 94 25 109 26 95 27 108 28 96 29 97 31 98 32 99 33 100 34
REMARK SMILES IDX 101 36 102 37 107 38 103 39 106 40 104 41 105 42 19 43 20 44
REMARK SMILES IDX 21 45 22 46 23 48 24 49 25 50 89 51 26 52 88 53 27 54 28 55
REMARK SMILES IDX 29 56 82 57 30 58 87 59 81 60 83 61 31 62 86 63 80 64 79 65
REMARK SMILES IDX 32 67 66 68 45 69 65 70 46 71 49 72 64 73 84 74 47 75 48 76
REMARK SMILES IDX 63 78 85 79 50 80 33 81 34 82 43 83 35 84 36 85 42 86 44 87
REMARK SMILES IDX 37 88 38 89 39 90 40 91 41 92 67 93 68 94 77 95 69 96 70 97
REMARK SMILES IDX 76 98 78 99 71 100 72 101 73 102 74 103 75 104 51 105 52 106
REMARK SMILES IDX 61 107 53 108 54 109 60 110 62 111 55 112 56 113 57 114
REMARK SMILES IDX 58 115 59 116
REMARK H PARENT 16 6 10 16 96 30 100 35 21 47 83 66 49 77
REMARK Flexibility Score: inf
ROOT
ATOM      1  C   UNL     1       1.490  -0.114  -4.252  1.00  0.00     0.023 C 
ENDROOT
BRANCH   1   2
ATOM      2  C   UNL     1       1.397  -1.226  -3.189  1.00  0.00     0.116 C 
BRANCH   2   3
ATOM      3  N   UNL     1       2.596  -2.053  -3.106  1.00  0.00    -0.352 N 
ATOM      4  C   UNL     1       3.795  -1.934  -2.439  1.00  0.00     0.251 C 
ATOM      5  O   UNL     1       4.573  -2.888  -2.509  1.00  0.00    -0.269 OA
ATOM      6  H   UNL     1       2.534  -2.876  -3.643  1.00  0.00     0.163 HD
BRANCH   4   7
ATOM      7  C   UNL     1       4.208  -0.746  -1.632  1.00  0.00     0.042 A 
ATOM      8  C   UNL     1       3.835   1.451  -0.681  1.00  0.00     0.065 A 
ATOM      9  C   UNL     1       3.466   0.413  -1.534  1.00  0.00     0.042 A 
ATOM     10  C   UNL     1       5.047   1.445   0.058  1.00  0.00     0.061 A 
ATOM     11  C   UNL     1       5.832   0.294  -0.104  1.00  0.00     0.029 A 
ATOM     12  C   UNL     1       5.410  -0.790  -0.908  1.00  0.00     0.016 A 
BRANCH   8  13
ATOM     13  N   UNL     1       2.932   2.518  -0.578  1.00  0.00    -0.320 N 
ATOM     14  C   UNL     1       1.638   2.464  -0.079  1.00  0.00     0.255 C 
ATOM     15  O   UNL     1       1.108   3.521   0.276  1.00  0.00    -0.269 OA
ATOM     16  H   UNL     1       3.248   3.396  -0.891  1.00  0.00     0.170 HD
BRANCH  14  17
ATOM     17  C   UNL     1       0.861   1.200   0.051  1.00  0.00     0.043 A 
ATOM     18  C   UNL     1       2.379  -0.109   1.702  1.00  0.00     0.045 C 
ATOM     19  C   UNL     1       1.189   0.047   0.802  1.00  0.00    -0.038 A 
ATOM     20  C   UNL     1       0.339  -1.077   0.723  1.00  0.00     0.004 A 
ATOM     21  C   UNL     1      -0.837  -1.037  -0.018  1.00  0.00     0.000 A 
ATOM     22  C   UNL     1      -0.349   1.237  -0.655  1.00  0.00     0.014 A 
ATOM     23  C   UNL     1      -1.184   0.127  -0.690  1.00  0.00     0.001 A 
ENDBRANCH  14  17
ENDBRANCH   8  13
BRANCH  10  24
ATOM     24  N   UNL     1       5.402   2.466   0.934  1.00  0.00    -0.359 N 
ATOM     25  C   UNL     1       6.743   2.627   1.548  1.00  0.00     0.178 C 
ATOM     26  C   UNL     1       4.377   3.095   1.763  1.00  0.00     0.178 C 
ATOM     27  C   UNL     1       6.960   4.068   2.179  1.00  0.00     0.284 C 
ATOM     28  C   UNL     1       4.662   4.595   1.770  1.00  0.00     0.284 C 
ATOM     29  N   UNL     1       5.799   4.872   2.642  1.00  0.00    -0.324 N 
ATOM     30  H   UNL     1       6.106   5.841   2.562  1.00  0.00     0.348 HD
BRANCH  29  31
ATOM     31  C   UNL     1       5.444   4.850   4.082  1.00  0.00     0.364 C 
BRANCH  31  32
ATOM     32  C   UNL     1       5.278   3.494   4.767  1.00  0.00     0.279 C 
ATOM     33  O   UNL     1       6.281   2.790   4.966  1.00  0.00    -0.268 OA
ATOM     34  N   UNL     1       4.098   3.000   5.255  1.00  0.00    -0.321 N 
ATOM     35  H   UNL     1       4.258   2.281   5.908  1.00  0.00     0.170 HD
BRANCH  34  36
ATOM     36  C   UNL     1       2.713   3.231   5.085  1.00  0.00     0.041 A 
ATOM     37  C   UNL     1       1.852   2.439   5.867  1.00  0.00     0.029 A 
ATOM     38  C   UNL     1       2.127   4.075   4.146  1.00  0.00     0.029 A 
ATOM     39  C   UNL     1       0.462   2.465   5.686  1.00  0.00     0.041 A 
ATOM     40  C   UNL     1       0.741   4.064   3.918  1.00  0.00     0.041 A 
ATOM     41  C   UNL     1      -0.081   3.262   4.692  1.00  0.00     0.123 A 
ATOM     42  F   UNL     1      -1.404   3.264   4.489  1.00  0.00    -0.207 F 
ENDBRANCH  34  36
ENDBRANCH  31  32
ENDBRANCH  29  31
ENDBRANCH  10  24
ENDBRANCH   4   7
ENDBRANCH   2   3
ENDBRANCH   1   2
BRANCH   1  43
ATOM     43  C   UNL     1       1.334  -0.604  -5.692  1.00  0.00     0.023 C 
BRANCH  43  44
ATOM     44  C   UNL     1      -0.074  -1.087  -5.995  1.00  0.00     0.116 C 
BRANCH  44  45
ATOM     45  N   UNL     1      -0.918  -0.154  -6.721  1.00  0.00    -0.352 N 
ATOM     46  C   UNL     1      -2.065  -0.577  -7.403  1.00  0.00     0.251 C 
ATOM     47  H   UNL     1      -0.677   0.801  -6.733  1.00  0.00     0.163 HD
ATOM     48  O   UNL     1      -2.306  -0.318  -8.553  1.00  0.00    -0.269 OA
BRANCH  46  49
ATOM     49  C   UNL     1      -3.037  -1.322  -6.559  1.00  0.00     0.039 A 
ATOM     50  C   UNL     1      -4.224  -0.695  -6.165  1.00  0.00     0.014 A 
ATOM     51  C   UNL     1      -2.645  -2.532  -5.995  1.00  0.00     0.014 A 
ATOM     52  C   UNL     1      -4.934  -1.201  -5.075  1.00  0.00     0.010 A 
ATOM     53  C   UNL     1      -3.277  -2.963  -4.853  1.00  0.00     0.010 A 
ATOM     54  C   UNL     1      -4.402  -2.280  -4.372  1.00  0.00    -0.014 A 
BRANCH  54  55
ATOM     55  C   UNL     1      -4.885  -2.778  -3.093  1.00  0.00     0.031 A 
ATOM     56  C   UNL     1      -5.554  -4.094  -3.032  1.00  0.00     0.074 A 
ATOM     57  C   UNL     1      -4.506  -2.146  -1.962  1.00  0.00     0.049 A 
ATOM     58  N   UNL     1      -6.112  -4.580  -1.978  1.00  0.00    -0.248 NA
ATOM     59  C   UNL     1      -5.712  -4.949  -4.205  1.00  0.00     0.031 C 
ATOM     60  C   UNL     1      -4.458  -2.689  -0.609  1.00  0.00     0.029 A 
ATOM     61  N   UNL     1      -4.288  -0.782  -1.786  1.00  0.00    -0.354 N 
ATOM     62  C   UNL     1      -6.413  -5.899  -2.233  1.00  0.00     0.074 A 
ATOM     63  C   UNL     1      -6.282  -6.027  -3.660  1.00  0.00     0.031 C 
ATOM     64  C   UNL     1      -4.522  -1.672   0.264  1.00  0.00     0.029 A 
ATOM     65  C   UNL     1      -4.770  -0.465  -0.508  1.00  0.00     0.049 A 
ATOM     66  H   UNL     1      -3.876  -0.163  -2.431  1.00  0.00     0.167 HD
ATOM     67  C   UNL     1      -6.590  -6.739  -1.172  1.00  0.00     0.037 A 
ATOM     68  C   UNL     1      -5.768   0.431  -0.264  1.00  0.00     0.037 A 
ATOM     69  C   UNL     1      -6.766  -5.956   0.060  1.00  0.00     0.049 A 
ATOM     70  C   UNL     1      -6.931  -0.226   0.444  1.00  0.00     0.074 A 
ATOM     71  C   UNL     1      -5.943  -5.681   1.139  1.00  0.00     0.029 A 
ATOM     72  N   UNL     1      -7.840  -5.067   0.152  1.00  0.00    -0.354 N 
ATOM     73  N   UNL     1      -7.126  -1.519   0.450  1.00  0.00    -0.248 NA
ATOM     74  C   UNL     1      -7.940   0.490   1.216  1.00  0.00     0.031 C 
ATOM     75  C   UNL     1      -6.467  -4.537   1.804  1.00  0.00     0.029 A 
ATOM     76  C   UNL     1      -7.635  -4.150   1.165  1.00  0.00     0.049 A 
ATOM     77  H   UNL     1      -8.636  -5.091  -0.427  1.00  0.00     0.167 HD
ATOM     78  C   UNL     1      -8.212  -1.820   1.224  1.00  0.00     0.074 A 
ATOM     79  C   UNL     1      -8.698  -0.526   1.671  1.00  0.00     0.031 C 
ATOM     80  C   UNL     1      -8.617  -3.106   1.447  1.00  0.00     0.037 A 
BRANCH  67  81
ATOM     81  C   UNL     1      -6.373  -8.252  -1.195  1.00  0.00     0.058 A 
ATOM     82  C   UNL     1      -6.380  -8.994   0.012  1.00  0.00     0.135 A 
ATOM     83  C   UNL     1      -6.032  -9.025  -2.329  1.00  0.00     0.135 A 
ATOM     84  F   UNL     1      -6.689  -8.415   1.181  1.00  0.00    -0.206 F 
ATOM     85  C   UNL     1      -6.042 -10.354   0.086  1.00  0.00     0.059 A 
ATOM     86  C   UNL     1      -5.716 -10.386  -2.284  1.00  0.00     0.059 A 
ATOM     87  F   UNL     1      -5.944  -8.512  -3.557  1.00  0.00    -0.206 F 
ATOM     88  C   UNL     1      -5.701 -11.043  -1.070  1.00  0.00     0.060 A 
BRANCH  88  89
ATOM     89  S   UNL     1      -5.228 -12.779  -0.983  1.00  0.00     0.124 S 
ATOM     90  O   UNL     1      -3.979 -12.715  -0.231  1.00  0.00    -0.237 OA
ATOM     91  O   UNL     1      -6.362 -13.376  -0.288  1.00  0.00    -0.237 OA
ATOM     92  O   UNL     1      -5.087 -13.165  -2.385  1.00  0.00    -0.744 OA
ENDBRANCH  88  89
ENDBRANCH  67  81
BRANCH  68  93
ATOM     93  C   UNL     1      -5.813   1.558  -1.239  1.00  0.00     0.058 A 
ATOM     94  C   UNL     1      -4.738   2.470  -1.184  1.00  0.00     0.135 A 
ATOM     95  C   UNL     1      -6.489   1.428  -2.462  1.00  0.00     0.135 A 
ATOM     96  F   UNL     1      -4.084   2.662  -0.028  1.00  0.00    -0.206 F 
ATOM     97  C   UNL     1      -4.207   3.042  -2.336  1.00  0.00     0.059 A 
ATOM     98  C   UNL     1      -5.978   2.005  -3.629  1.00  0.00     0.059 A 
ATOM     99  F   UNL     1      -7.514   0.573  -2.578  1.00  0.00    -0.206 F 
ATOM    100  C   UNL     1      -4.784   2.727  -3.563  1.00  0.00     0.060 A 
BRANCH 100 101
ATOM    101  S   UNL     1      -3.836   3.088  -5.067  1.00  0.00     0.124 S 
ATOM    102  O   UNL     1      -3.538   4.506  -4.910  1.00  0.00    -0.237 OA
ATOM    103  O   UNL     1      -2.699   2.177  -4.926  1.00  0.00    -0.237 OA
ATOM    104  O   UNL     1      -4.773   2.752  -6.132  1.00  0.00    -0.744 OA
ENDBRANCH 100 101
ENDBRANCH  68  93
BRANCH  80 105
ATOM    105  C   UNL     1      -9.946  -3.500   2.044  1.00  0.00     0.058 A 
ATOM    106  C   UNL     1     -11.123  -2.749   1.879  1.00  0.00     0.135 A 
ATOM    107  C   UNL     1     -10.106  -4.760   2.670  1.00  0.00     0.135 A 
ATOM    108  F   UNL     1     -11.123  -1.588   1.208  1.00  0.00    -0.206 F 
ATOM    109  C   UNL     1     -12.361  -3.187   2.353  1.00  0.00     0.059 A 
ATOM    110  C   UNL     1     -11.340  -5.240   3.098  1.00  0.00     0.059 A 
ATOM    111  F   UNL     1      -9.063  -5.579   2.870  1.00  0.00    -0.206 F 
ATOM    112  C   UNL     1     -12.461  -4.436   2.956  1.00  0.00     0.060 A 
BRANCH 112 113
ATOM    113  S   UNL     1     -14.069  -5.046   3.493  1.00  0.00     0.124 S 
ATOM    114  O   UNL     1     -14.099  -4.602   4.882  1.00  0.00    -0.237 OA
ATOM    115  O   UNL     1     -14.994  -4.362   2.593  1.00  0.00    -0.237 OA
ATOM    116  O   UNL     1     -13.961  -6.487   3.288  1.00  0.00    -0.744 OA
ENDBRANCH 112 113
ENDBRANCH  80 105
ENDBRANCH  54  55
ENDBRANCH  46  49
ENDBRANCH  44  45
ENDBRANCH  43  44
ENDBRANCH   1  43
TORSDOF 20
