REMARK SMILES O=Cc1c(OCc2ccc(C(=O)NCCCCNC(=O)c3ccc(-c4c5nc(c(-c6c(F)cc(S(=O)(=O)[O-])cc6F)c6ccc([nH]6)c(-c6c(F)cc(S(=O)(=O)[O-])cc6F)c6nc(c(-c7c(F)cc(S(=O)(=O)[O-])cc7F)c7ccc4[nH]7)C=C6)C=C5)cc3)cc2)ccc2ccccc12
REMARK SMILES IDX 15 1 14 2 13 3 11 4 12 5 10 7 7 8 8 9 88 10 9 11 87 12 6 13
REMARK SMILES IDX 5 14 4 15 3 16 96 17 89 18 91 19 95 20 90 21 92 22 94 23
REMARK SMILES IDX 93 24 2 25 1 26 16 27 17 28 18 29 19 30 20 32 21 33 22 34
REMARK SMILES IDX 86 35 23 36 85 37 24 38 25 39 26 40 79 41 27 42 84 43 78 44
REMARK SMILES IDX 80 45 28 46 83 47 77 48 76 49 29 51 63 52 42 53 62 54 43 55
REMARK SMILES IDX 46 56 61 57 81 58 44 59 45 60 60 62 82 63 47 64 30 65 31 66
REMARK SMILES IDX 40 67 32 68 33 69 39 70 41 71 34 72 35 73 36 74 37 75 38 76
REMARK SMILES IDX 64 77 65 78 74 79 66 80 67 81 73 82 75 83 68 84 69 85 70 86
REMARK SMILES IDX 71 87 72 88 48 89 49 90 58 91 50 92 51 93 57 94 59 95 52 96
REMARK SMILES IDX 53 97 54 98 55 99 56 100
REMARK H PARENT 13 6 18 31 80 50 46 61
REMARK Flexibility Score: inf
ROOT
ATOM      1  C   UNL     1       4.879   6.454   7.719  1.00  0.00     0.023 C 
ENDROOT
BRANCH   1   2
ATOM      2  C   UNL     1       5.686   5.554   6.781  1.00  0.00     0.116 C 
BRANCH   2   3
ATOM      3  N   UNL     1       5.898   4.248   7.374  1.00  0.00    -0.352 N 
ATOM      4  C   UNL     1       5.269   3.044   7.176  1.00  0.00     0.251 C 
ATOM      5  O   UNL     1       5.696   2.058   7.777  1.00  0.00    -0.269 OA
ATOM      6  H   UNL     1       6.624   4.219   8.039  1.00  0.00     0.163 HD
BRANCH   4   7
ATOM      7  C   UNL     1       4.143   2.872   6.219  1.00  0.00     0.039 A 
ATOM      8  C   UNL     1       2.161   2.445   4.260  1.00  0.00    -0.011 A 
ATOM      9  C   UNL     1       3.070   1.430   4.582  1.00  0.00     0.008 A 
ATOM     10  C   UNL     1       2.184   3.631   5.003  1.00  0.00     0.008 A 
ATOM     11  C   UNL     1       4.059   1.647   5.544  1.00  0.00     0.014 A 
ATOM     12  C   UNL     1       3.159   3.834   5.984  1.00  0.00     0.014 A 
BRANCH   8  13
ATOM     13  C   UNL     1       1.169   2.287   3.128  1.00  0.00     0.265 C 
BRANCH  13  14
ATOM     14  O   UNL     1       1.658   1.501   2.038  1.00  0.00    -0.488 OA
BRANCH  14  15
ATOM     15  C   UNL     1       2.639   1.992   1.215  1.00  0.00     0.130 A 
ATOM     16  C   UNL     1       3.079   1.147   0.178  1.00  0.00     0.064 A 
ATOM     17  C   UNL     1       4.182   1.488  -0.657  1.00  0.00    -0.004 A 
ATOM     18  C   UNL     1       3.274   3.220   1.387  1.00  0.00     0.048 A 
ATOM     19  C   UNL     1       4.832   2.722  -0.421  1.00  0.00    -0.017 A 
ATOM     20  C   UNL     1       4.673   0.684  -1.717  1.00  0.00     0.009 A 
ATOM     21  C   UNL     1       4.363   3.574   0.587  1.00  0.00     0.012 A 
ATOM     22  C   UNL     1       5.942   3.096  -1.195  1.00  0.00     0.009 A 
ATOM     23  C   UNL     1       5.776   1.072  -2.482  1.00  0.00     0.001 A 
ATOM     24  C   UNL     1       6.414   2.275  -2.216  1.00  0.00     0.001 A 
BRANCH  16  25
ATOM     25  C   UNL     1       2.399  -0.152  -0.025  1.00  0.00     0.264 C 
ATOM     26  O   UNL     1       1.182  -0.268  -0.099  1.00  0.00    -0.298 OA
ENDBRANCH  16  25
ENDBRANCH  14  15
ENDBRANCH  13  14
ENDBRANCH   8  13
ENDBRANCH   4   7
ENDBRANCH   2   3
ENDBRANCH   1   2
BRANCH   1  27
ATOM     27  C   UNL     1       5.674   7.013   8.902  1.00  0.00     0.023 C 
BRANCH  27  28
ATOM     28  C   UNL     1       6.811   7.957   8.528  1.00  0.00     0.116 C 
BRANCH  28  29
ATOM     29  N   UNL     1       6.365   9.117   7.771  1.00  0.00    -0.352 N 
ATOM     30  C   UNL     1       6.864  10.398   7.793  1.00  0.00     0.251 C 
ATOM     31  H   UNL     1       5.607   8.963   7.161  1.00  0.00     0.163 HD
ATOM     32  O   UNL     1       6.300  11.287   7.167  1.00  0.00    -0.269 OA
BRANCH  30  33
ATOM     33  C   UNL     1       8.058  10.697   8.611  1.00  0.00     0.039 A 
ATOM     34  C   UNL     1       8.021  11.790   9.480  1.00  0.00     0.014 A 
ATOM     35  C   UNL     1       9.194   9.886   8.543  1.00  0.00     0.014 A 
ATOM     36  C   UNL     1       9.100  12.030  10.333  1.00  0.00     0.010 A 
ATOM     37  C   UNL     1      10.241  10.089   9.438  1.00  0.00     0.010 A 
ATOM     38  C   UNL     1      10.203  11.160  10.343  1.00  0.00    -0.014 A 
BRANCH  38  39
ATOM     39  C   UNL     1      11.323  11.349  11.299  1.00  0.00     0.031 A 
ATOM     40  C   UNL     1      12.699  11.682  10.793  1.00  0.00     0.074 A 
ATOM     41  C   UNL     1      11.113  11.150  12.616  1.00  0.00     0.049 A 
ATOM     42  N   UNL     1      13.815  11.809  11.461  1.00  0.00    -0.248 NA
ATOM     43  C   UNL     1      12.844  11.868   9.340  1.00  0.00     0.031 C 
ATOM     44  C   UNL     1       9.835  10.769  13.222  1.00  0.00     0.029 A 
ATOM     45  N   UNL     1      11.974  11.226  13.681  1.00  0.00    -0.354 N 
ATOM     46  C   UNL     1      14.797  12.074  10.513  1.00  0.00     0.074 A 
ATOM     47  C   UNL     1      14.152  12.042   9.218  1.00  0.00     0.031 C 
ATOM     48  C   UNL     1       9.992  10.662  14.551  1.00  0.00     0.029 A 
ATOM     49  C   UNL     1      11.386  10.933  14.889  1.00  0.00     0.049 A 
ATOM     50  H   UNL     1      12.924  11.467  13.589  1.00  0.00     0.167 HD
ATOM     51  C   UNL     1      16.110  12.341  10.707  1.00  0.00     0.037 A 
ATOM     52  C   UNL     1      11.912  10.884  16.128  1.00  0.00     0.037 A 
ATOM     53  C   UNL     1      16.738  12.403  12.001  1.00  0.00     0.049 A 
ATOM     54  C   UNL     1      13.369  11.206  16.320  1.00  0.00     0.074 A 
ATOM     55  C   UNL     1      18.048  12.728  12.307  1.00  0.00     0.029 A 
ATOM     56  N   UNL     1      16.100  12.139  13.204  1.00  0.00    -0.354 N 
ATOM     57  N   UNL     1      14.268  11.517  15.417  1.00  0.00    -0.248 NA
ATOM     58  C   UNL     1      13.881  11.178  17.697  1.00  0.00     0.031 C 
ATOM     59  C   UNL     1      18.211  12.628  13.693  1.00  0.00     0.029 A 
ATOM     60  C   UNL     1      16.993  12.280  14.253  1.00  0.00     0.049 A 
ATOM     61  H   UNL     1      15.153  11.888  13.298  1.00  0.00     0.167 HD
ATOM     62  C   UNL     1      15.446  11.747  16.119  1.00  0.00     0.074 A 
ATOM     63  C   UNL     1      15.142  11.550  17.521  1.00  0.00     0.031 C 
ATOM     64  C   UNL     1      16.669  12.091  15.645  1.00  0.00     0.037 A 
BRANCH  51  65
ATOM     65  C   UNL     1      16.956  12.596   9.490  1.00  0.00     0.058 A 
ATOM     66  C   UNL     1      16.828  13.778   8.743  1.00  0.00     0.135 A 
ATOM     67  C   UNL     1      17.928  11.668   9.087  1.00  0.00     0.135 A 
ATOM     68  F   UNL     1      15.903  14.692   9.075  1.00  0.00    -0.206 F 
ATOM     69  C   UNL     1      17.617  14.019   7.623  1.00  0.00     0.059 A 
ATOM     70  C   UNL     1      18.746  11.899   7.985  1.00  0.00     0.059 A 
ATOM     71  F   UNL     1      18.091  10.521   9.765  1.00  0.00    -0.206 F 
ATOM     72  C   UNL     1      18.573  13.072   7.251  1.00  0.00     0.060 A 
BRANCH  72  73
ATOM     73  S   UNL     1      19.593  13.402   5.798  1.00  0.00     0.124 S 
ATOM     74  O   UNL     1      18.644  13.158   4.716  1.00  0.00    -0.237 OA
ATOM     75  O   UNL     1      19.981  14.795   5.998  1.00  0.00    -0.237 OA
ATOM     76  O   UNL     1      20.675  12.430   5.916  1.00  0.00    -0.744 OA
ENDBRANCH  72  73
ENDBRANCH  51  65
BRANCH  52  77
ATOM     77  C   UNL     1      11.049  10.541  17.290  1.00  0.00     0.058 A 
ATOM     78  C   UNL     1      10.684  11.518  18.228  1.00  0.00     0.135 A 
ATOM     79  C   UNL     1      10.566   9.237  17.480  1.00  0.00     0.135 A 
ATOM     80  F   UNL     1      11.124  12.777  18.090  1.00  0.00    -0.206 F 
ATOM     81  C   UNL     1       9.886  11.211  19.326  1.00  0.00     0.059 A 
ATOM     82  C   UNL     1       9.748   8.911  18.557  1.00  0.00     0.059 A 
ATOM     83  F   UNL     1      10.873   8.271  16.600  1.00  0.00    -0.206 F 
ATOM     84  C   UNL     1       9.423   9.904  19.482  1.00  0.00     0.060 A 
BRANCH  84  85
ATOM     85  S   UNL     1       8.352   9.525  20.886  1.00  0.00     0.124 S 
ATOM     86  O   UNL     1       9.310   9.496  21.985  1.00  0.00    -0.237 OA
ATOM     87  O   UNL     1       7.423  10.650  20.877  1.00  0.00    -0.237 OA
ATOM     88  O   UNL     1       7.768   8.237  20.522  1.00  0.00    -0.744 OA
ENDBRANCH  84  85
ENDBRANCH  52  77
BRANCH  64  89
ATOM     89  C   UNL     1      17.763  12.311  16.652  1.00  0.00     0.058 A 
ATOM     90  C   UNL     1      18.381  11.239  17.314  1.00  0.00     0.135 A 
ATOM     91  C   UNL     1      18.232  13.607  16.918  1.00  0.00     0.135 A 
ATOM     92  F   UNL     1      17.964   9.981  17.098  1.00  0.00    -0.206 F 
ATOM     93  C   UNL     1      19.414  11.446  18.221  1.00  0.00     0.059 A 
ATOM     94  C   UNL     1      19.280  13.836  17.803  1.00  0.00     0.059 A 
ATOM     95  F   UNL     1      17.680  14.665  16.303  1.00  0.00    -0.206 F 
ATOM     96  C   UNL     1      19.857  12.749  18.459  1.00  0.00     0.060 A 
BRANCH  96  97
ATOM     97  S   UNL     1      21.222  13.004  19.613  1.00  0.00     0.124 S 
ATOM     98  O   UNL     1      20.556  12.828  20.899  1.00  0.00    -0.237 OA
ATOM     99  O   UNL     1      22.156  11.948  19.233  1.00  0.00    -0.237 OA
ATOM    100  O   UNL     1      21.668  14.362  19.316  1.00  0.00    -0.744 OA
ENDBRANCH  96  97
ENDBRANCH  64  89
ENDBRANCH  38  39
ENDBRANCH  30  33
ENDBRANCH  28  29
ENDBRANCH  27  28
ENDBRANCH   1  27
TORSDOF 18
