REMARK SMILES C[C@H](C(=O)NCCCCNC(=O)c1ccc(-c2c3nc(c(-c4c(F)cc(S(=O)(=O)[O-])cc4F)c4ccc([nH]4)c(-c4c(F)cc(S(=O)(=O)[O-])cc4F)c4nc(c(-c5c(F)cc(S(=O)(=O)[O-])cc5F)c5ccc2[nH]5)C=C4)C=C3)cc1)N1C(=O)/C(=C/c2ccccc2F)SC1=S
REMARK SMILES IDX 8 1 7 2 6 3 5 4 3 5 4 6 2 8 1 9 79 10 80 11 92 12 81 13
REMARK SMILES IDX 82 14 91 15 93 16 83 17 84 18 85 19 89 20 86 21 88 22 90 23
REMARK SMILES IDX 87 24 9 25 10 26 11 27 12 29 13 30 14 31 78 32 15 33 77 34
REMARK SMILES IDX 16 35 17 36 18 37 71 38 19 39 76 40 70 41 72 42 20 43 75 44
REMARK SMILES IDX 69 45 68 46 21 48 55 49 34 50 54 51 35 52 38 53 53 54 73 55
REMARK SMILES IDX 36 56 37 57 52 59 74 60 39 61 22 62 23 63 32 64 24 65 25 66
REMARK SMILES IDX 31 67 33 68 26 69 27 70 28 71 29 72 30 73 56 74 57 75 66 76
REMARK SMILES IDX 58 77 59 78 65 79 67 80 60 81 61 82 62 83 63 84 64 85 40 86
REMARK SMILES IDX 41 87 50 88 42 89 43 90 49 91 51 92 44 93 45 94 46 95 47 96
REMARK SMILES IDX 48 97
REMARK H PARENT 5 7 10 28 72 47 38 58
REMARK Flexibility Score: inf
ROOT
ATOM      1  C   UNL     1      -1.956  -1.204   2.813  1.00  0.00     0.023 C 
ENDROOT
BRANCH   1   2
ATOM      2  C   UNL     1      -2.000  -0.328   1.562  1.00  0.00     0.023 C 
BRANCH   2   3
ATOM      3  C   UNL     1      -0.875   0.702   1.455  1.00  0.00     0.116 C 
BRANCH   3   4
ATOM      4  N   UNL     1       0.375   0.091   1.056  1.00  0.00    -0.354 N 
ATOM      5  C   UNL     1       1.003  -0.024  -0.147  1.00  0.00     0.242 C 
ATOM      6  O   UNL     1       2.118  -0.560  -0.113  1.00  0.00    -0.273 OA
ATOM      7  H   UNL     1       0.868  -0.324   1.801  1.00  0.00     0.163 HD
BRANCH   5   8
ATOM      8  C   UNL     1       0.513   0.676  -1.444  1.00  0.00     0.178 C 
ATOM      9  C   UNL     1       1.206   0.075  -2.673  1.00  0.00     0.042 C 
BRANCH   8  10
ATOM     10  N   UNL     1      -0.942   0.773  -1.645  1.00  0.00    -0.281 N 
ATOM     11  C   UNL     1      -1.681  -0.390  -1.783  1.00  0.00     0.266 C 
ATOM     12  C   UNL     1      -1.641   1.957  -1.788  1.00  0.00     0.149 C 
ATOM     13  O   UNL     1      -1.238  -1.528  -1.800  1.00  0.00    -0.268 OA
ATOM     14  C   UNL     1      -3.134  -0.074  -1.840  1.00  0.00     0.081 C 
ATOM     15  S   UNL     1      -3.364   1.624  -1.904  1.00  0.00    -0.054 SA
ATOM     16  S   UNL     1      -1.053   3.518  -1.835  1.00  0.00    -0.052 S 
ATOM     17  C   UNL     1      -4.061  -1.035  -1.728  1.00  0.00     0.032 C 
BRANCH  17  18
ATOM     18  C   UNL     1      -5.513  -0.832  -1.639  1.00  0.00     0.012 A 
ATOM     19  C   UNL     1      -6.189  -1.283  -0.497  1.00  0.00     0.011 A 
ATOM     20  C   UNL     1      -6.254  -0.230  -2.662  1.00  0.00     0.130 A 
ATOM     21  C   UNL     1      -7.572  -1.109  -0.378  1.00  0.00     0.001 A 
ATOM     22  C   UNL     1      -7.630  -0.050  -2.545  1.00  0.00     0.040 A 
ATOM     23  F   UNL     1      -5.649   0.179  -3.788  1.00  0.00    -0.206 F 
ATOM     24  C   UNL     1      -8.291  -0.489  -1.399  1.00  0.00     0.003 A 
ENDBRANCH  17  18
ENDBRANCH   8  10
ENDBRANCH   5   8
ENDBRANCH   3   4
ENDBRANCH   2   3
ENDBRANCH   1   2
BRANCH   1  25
ATOM     25  C   UNL     1      -2.104  -0.461   4.134  1.00  0.00     0.116 C 
BRANCH  25  26
ATOM     26  N   UNL     1      -3.331   0.319   4.226  1.00  0.00    -0.352 N 
ATOM     27  C   UNL     1      -4.170   0.469   5.306  1.00  0.00     0.251 C 
ATOM     28  H   UNL     1      -3.595   0.801   3.409  1.00  0.00     0.163 HD
ATOM     29  O   UNL     1      -5.224   1.085   5.194  1.00  0.00    -0.269 OA
BRANCH  27  30
ATOM     30  C   UNL     1      -3.803  -0.166   6.588  1.00  0.00     0.039 A 
ATOM     31  C   UNL     1      -4.717  -1.026   7.201  1.00  0.00     0.014 A 
ATOM     32  C   UNL     1      -2.529   0.021   7.129  1.00  0.00     0.014 A 
ATOM     33  C   UNL     1      -4.315  -1.783   8.304  1.00  0.00     0.010 A 
ATOM     34  C   UNL     1      -2.111  -0.778   8.188  1.00  0.00     0.010 A 
ATOM     35  C   UNL     1      -2.992  -1.705   8.768  1.00  0.00    -0.014 A 
BRANCH  35  36
ATOM     36  C   UNL     1      -2.479  -2.624   9.815  1.00  0.00     0.031 A 
ATOM     37  C   UNL     1      -1.999  -2.076  11.128  1.00  0.00     0.074 A 
ATOM     38  C   UNL     1      -2.328  -3.934   9.527  1.00  0.00     0.049 A 
ATOM     39  N   UNL     1      -1.375  -2.692  12.098  1.00  0.00    -0.248 NA
ATOM     40  C   UNL     1      -2.221  -0.641  11.370  1.00  0.00     0.031 C 
ATOM     41  C   UNL     1      -2.696  -4.572   8.259  1.00  0.00     0.029 A 
ATOM     42  N   UNL     1      -1.792  -4.958  10.267  1.00  0.00    -0.354 N 
ATOM     43  C   UNL     1      -1.099  -1.718  13.049  1.00  0.00     0.074 A 
ATOM     44  C   UNL     1      -1.604  -0.465  12.531  1.00  0.00     0.031 C 
ATOM     45  C   UNL     1      -2.370  -5.874   8.309  1.00  0.00     0.029 A 
ATOM     46  C   UNL     1      -1.737  -6.157   9.592  1.00  0.00     0.049 A 
ATOM     47  H   UNL     1      -1.477  -4.847  11.192  1.00  0.00     0.167 HD
ATOM     48  C   UNL     1      -0.491  -1.862  14.249  1.00  0.00     0.037 A 
ATOM     49  C   UNL     1      -1.210  -7.343   9.955  1.00  0.00     0.037 A 
ATOM     50  C   UNL     1      -0.043  -3.121  14.781  1.00  0.00     0.049 A 
ATOM     51  C   UNL     1      -0.564  -7.478  11.306  1.00  0.00     0.074 A 
ATOM     52  C   UNL     1       0.468  -3.387  16.040  1.00  0.00     0.029 A 
ATOM     53  N   UNL     1      -0.046  -4.321  14.088  1.00  0.00    -0.354 N 
ATOM     54  N   UNL     1      -0.401  -6.566  12.233  1.00  0.00    -0.248 NA
ATOM     55  C   UNL     1      -0.025  -8.800  11.659  1.00  0.00     0.031 C 
ATOM     56  C   UNL     1       0.809  -4.742  16.095  1.00  0.00     0.029 A 
ATOM     57  C   UNL     1       0.482  -5.325  14.881  1.00  0.00     0.049 A 
ATOM     58  H   UNL     1      -0.375  -4.441  13.168  1.00  0.00     0.167 HD
ATOM     59  C   UNL     1       0.247  -7.205  13.283  1.00  0.00     0.074 A 
ATOM     60  C   UNL     1       0.432  -8.585  12.885  1.00  0.00     0.031 C 
ATOM     61  C   UNL     1       0.656  -6.694  14.470  1.00  0.00     0.037 A 
BRANCH  48  62
ATOM     62  C   UNL     1      -0.282  -0.633  15.084  1.00  0.00     0.058 A 
ATOM     63  C   UNL     1      -1.340  -0.025  15.774  1.00  0.00     0.135 A 
ATOM     64  C   UNL     1       1.007  -0.102  15.255  1.00  0.00     0.135 A 
ATOM     65  F   UNL     1      -2.593  -0.485  15.632  1.00  0.00    -0.206 F 
ATOM     66  C   UNL     1      -1.131   1.075  16.600  1.00  0.00     0.059 A 
ATOM     67  C   UNL     1       1.243   0.985  16.091  1.00  0.00     0.059 A 
ATOM     68  F   UNL     1       2.053  -0.646  14.612  1.00  0.00    -0.206 F 
ATOM     69  C   UNL     1       0.165   1.570  16.755  1.00  0.00     0.060 A 
BRANCH  69  70
ATOM     70  S   UNL     1       0.426   2.975  17.858  1.00  0.00     0.124 S 
ATOM     71  O   UNL     1      -0.090   4.077  17.052  1.00  0.00    -0.237 OA
ATOM     72  O   UNL     1      -0.376   2.612  19.022  1.00  0.00    -0.237 OA
ATOM     73  O   UNL     1       1.870   2.976  18.071  1.00  0.00    -0.744 OA
ENDBRANCH  69  70
ENDBRANCH  48  62
BRANCH  49  74
ATOM     74  C   UNL     1      -1.253  -8.497   9.020  1.00  0.00     0.058 A 
ATOM     75  C   UNL     1      -2.102  -9.587   9.258  1.00  0.00     0.135 A 
ATOM     76  C   UNL     1      -0.438  -8.538   7.878  1.00  0.00     0.135 A 
ATOM     77  F   UNL     1      -2.896  -9.594  10.340  1.00  0.00    -0.206 F 
ATOM     78  C   UNL     1      -2.127 -10.690   8.411  1.00  0.00     0.059 A 
ATOM     79  C   UNL     1      -0.459  -9.621   7.005  1.00  0.00     0.059 A 
ATOM     80  F   UNL     1       0.379  -7.511   7.598  1.00  0.00    -0.206 F 
ATOM     81  C   UNL     1      -1.297 -10.699   7.288  1.00  0.00     0.060 A 
BRANCH  81  82
ATOM     82  S   UNL     1      -1.353 -12.120   6.175  1.00  0.00     0.124 S 
ATOM     83  O   UNL     1      -0.546 -13.093   6.903  1.00  0.00    -0.237 OA
ATOM     84  O   UNL     1      -2.783 -12.403   6.103  1.00  0.00    -0.237 OA
ATOM     85  O   UNL     1      -0.763 -11.601   4.945  1.00  0.00    -0.744 OA
ENDBRANCH  81  82
ENDBRANCH  49  74
BRANCH  61  86
ATOM     86  C   UNL     1       1.334  -7.628  15.429  1.00  0.00     0.058 A 
ATOM     87  C   UNL     1       2.669  -8.016  15.246  1.00  0.00     0.135 A 
ATOM     88  C   UNL     1       0.666  -8.081  16.577  1.00  0.00     0.135 A 
ATOM     89  F   UNL     1       3.346  -7.615  14.158  1.00  0.00    -0.206 F 
ATOM     90  C   UNL     1       3.320  -8.829  16.168  1.00  0.00     0.059 A 
ATOM     91  C   UNL     1       1.303  -8.878  17.522  1.00  0.00     0.059 A 
ATOM     92  F   UNL     1      -0.611  -7.730  16.799  1.00  0.00    -0.206 F 
ATOM     93  C   UNL     1       2.629  -9.251  17.305  1.00  0.00     0.060 A 
BRANCH  93  94
ATOM     94  S   UNL     1       3.500 -10.259  18.524  1.00  0.00     0.124 S 
ATOM     95  O   UNL     1       3.502 -11.566  17.877  1.00  0.00    -0.237 OA
ATOM     96  O   UNL     1       4.796  -9.594  18.615  1.00  0.00    -0.237 OA
ATOM     97  O   UNL     1       2.662 -10.148  19.715  1.00  0.00    -0.744 OA
ENDBRANCH  93  94
ENDBRANCH  61  86
ENDBRANCH  35  36
ENDBRANCH  27  30
ENDBRANCH  25  26
ENDBRANCH   1  25
TORSDOF 16
