REMARK SMILES Cc1nc([C@]2(C)CCCO2)nc(C)c1C(=O)NCCCCNC(=O)c1ccc(-c2c3nc(c(-c4c(F)cc(S(=O)(=O)[O-])cc4F)c4ccc([nH]4)c(-c4c(F)cc(S(=O)(=O)[O-])cc4F)c4nc(c(-c5c(F)cc(S(=O)(=O)[O-])cc5F)c5ccc2[nH]5)C=C4)C=C3)cc1
REMARK SMILES IDX 20 1 19 2 18 3 17 4 15 5 16 6 14 8 1 9 2 10 3 11 4 12 12 13
REMARK SMILES IDX 11 14 13 15 5 16 7 17 10 18 6 19 8 20 9 21 21 22 22 23 23 24
REMARK SMILES IDX 24 26 25 27 26 28 90 29 27 30 89 31 28 32 29 33 30 34 83 35
REMARK SMILES IDX 31 36 88 37 82 38 84 39 32 40 87 41 81 42 80 43 33 45 67 46
REMARK SMILES IDX 46 47 66 48 47 49 50 50 65 51 85 52 48 53 49 54 64 56 86 57
REMARK SMILES IDX 51 58 34 59 35 60 44 61 36 62 37 63 43 64 45 65 38 66 39 67
REMARK SMILES IDX 40 68 41 69 42 70 68 71 69 72 78 73 70 74 71 75 77 76 79 77
REMARK SMILES IDX 72 78 73 79 74 80 75 81 76 82 52 83 53 84 62 85 54 86 55 87
REMARK SMILES IDX 61 88 63 89 56 90 57 91 58 92 59 93 60 94
REMARK H PARENT 17 7 22 25 84 44 50 55
REMARK Flexibility Score: inf
ROOT
ATOM      1  C   UNL     1      -6.619  -6.801   4.347  1.00  0.00     0.023 C 
ENDROOT
BRANCH   1   2
ATOM      2  C   UNL     1      -5.574  -6.269   3.369  1.00  0.00     0.023 C 
BRANCH   2   3
ATOM      3  C   UNL     1      -6.109  -5.320   2.291  1.00  0.00     0.116 C 
BRANCH   3   4
ATOM      4  N   UNL     1      -5.835  -3.946   2.642  1.00  0.00    -0.352 N 
ATOM      5  C   UNL     1      -4.856  -3.009   2.475  1.00  0.00     0.254 C 
ATOM      6  O   UNL     1      -5.122  -1.979   3.107  1.00  0.00    -0.269 OA
ATOM      7  H   UNL     1      -6.582  -3.570   3.161  1.00  0.00     0.163 HD
BRANCH   5   8
ATOM      8  C   UNL     1      -3.580  -3.050   1.672  1.00  0.00     0.082 A 
ATOM      9  C   UNL     1      -3.188  -5.586   1.306  1.00  0.00     0.068 C 
ATOM     10  C   UNL     1      -2.867  -4.142   1.183  1.00  0.00     0.054 A 
ATOM     11  N   UNL     1      -1.678  -4.023   0.533  1.00  0.00    -0.234 NA
ATOM     12  C   UNL     1      -1.109  -2.824   0.391  1.00  0.00     0.160 A 
ATOM     13  C   UNL     1      -2.923  -1.821   1.419  1.00  0.00     0.054 A 
ATOM     14  N   UNL     1      -1.716  -1.707   0.789  1.00  0.00    -0.234 NA
ATOM     15  C   UNL     1      -3.446  -0.471   1.841  1.00  0.00     0.068 C 
BRANCH  12  16
ATOM     16  C   UNL     1       0.305  -2.778  -0.203  1.00  0.00     0.125 C 
ATOM     17  C   UNL     1       0.358  -3.384  -1.607  1.00  0.00     0.046 C 
ATOM     18  O   UNL     1       1.203  -3.616   0.573  1.00  0.00    -0.367 OA
ATOM     19  C   UNL     1       0.885  -1.362  -0.185  1.00  0.00     0.051 C 
ATOM     20  C   UNL     1       0.534  -4.866  -1.356  1.00  0.00     0.032 C 
ATOM     21  C   UNL     1       1.206  -4.933   0.003  1.00  0.00     0.161 C 
ENDBRANCH  12  16
ENDBRANCH   5   8
ENDBRANCH   3   4
ENDBRANCH   2   3
ENDBRANCH   1   2
BRANCH   1  22
ATOM     22  C   UNL     1      -7.705  -7.655   3.709  1.00  0.00     0.116 C 
BRANCH  22  23
ATOM     23  N   UNL     1      -7.197  -8.772   2.922  1.00  0.00    -0.352 N 
ATOM     24  C   UNL     1      -7.868  -9.923   2.582  1.00  0.00     0.251 C 
ATOM     25  H   UNL     1      -6.271  -8.693   2.599  1.00  0.00     0.163 HD
ATOM     26  O   UNL     1      -7.308 -10.822   1.964  1.00  0.00    -0.269 OA
BRANCH  24  27
ATOM     27  C   UNL     1      -9.263 -10.069   3.038  1.00  0.00     0.039 A 
ATOM     28  C   UNL     1      -9.586 -11.136   3.877  1.00  0.00     0.014 A 
ATOM     29  C   UNL     1     -10.202  -9.079   2.737  1.00  0.00     0.014 A 
ATOM     30  C   UNL     1     -10.841 -11.168   4.484  1.00  0.00     0.010 A 
ATOM     31  C   UNL     1     -11.423  -9.076   3.399  1.00  0.00     0.010 A 
ATOM     32  C   UNL     1     -11.750 -10.115   4.284  1.00  0.00    -0.014 A 
BRANCH  32  33
ATOM     33  C   UNL     1     -13.048 -10.077   4.999  1.00  0.00     0.031 A 
ATOM     34  C   UNL     1     -14.330 -10.165   4.221  1.00  0.00     0.074 A 
ATOM     35  C   UNL     1     -13.069  -9.884   6.332  1.00  0.00     0.049 A 
ATOM     36  N   UNL     1     -15.561 -10.073   4.649  1.00  0.00    -0.248 NA
ATOM     37  C   UNL     1     -14.210 -10.347   2.765  1.00  0.00     0.031 C 
ATOM     38  C   UNL     1     -11.889  -9.718   7.185  1.00  0.00     0.029 A 
ATOM     39  N   UNL     1     -14.123  -9.784   7.204  1.00  0.00    -0.354 N 
ATOM     40  C   UNL     1     -16.361 -10.165   3.517  1.00  0.00     0.074 A 
ATOM     41  C   UNL     1     -15.474 -10.269   2.378  1.00  0.00     0.031 C 
ATOM     42  C   UNL     1     -12.285  -9.560   8.459  1.00  0.00     0.029 A 
ATOM     43  C   UNL     1     -13.743  -9.584   8.510  1.00  0.00     0.049 A 
ATOM     44  H   UNL     1     -15.064  -9.848   6.921  1.00  0.00     0.167 HD
ATOM     45  C   UNL     1     -17.712 -10.187   3.436  1.00  0.00     0.037 A 
ATOM     46  C   UNL     1     -14.489  -9.437   9.623  1.00  0.00     0.037 A 
ATOM     47  C   UNL     1     -18.586 -10.128   4.576  1.00  0.00     0.049 A 
ATOM     48  C   UNL     1     -15.987  -9.498   9.512  1.00  0.00     0.074 A 
ATOM     49  C   UNL     1     -19.966 -10.225   4.609  1.00  0.00     0.029 A 
ATOM     50  N   UNL     1     -18.164  -9.960   5.886  1.00  0.00    -0.354 N 
ATOM     51  N   UNL     1     -16.727  -9.658   8.440  1.00  0.00    -0.248 NA
ATOM     52  C   UNL     1     -16.752  -9.362  10.759  1.00  0.00     0.031 C 
ATOM     53  C   UNL     1     -20.380 -10.088   5.939  1.00  0.00     0.029 A 
ATOM     54  C   UNL     1     -19.256  -9.936   6.736  1.00  0.00     0.049 A 
ATOM     55  H   UNL     1     -17.225  -9.871   6.170  1.00  0.00     0.167 HD
ATOM     56  C   UNL     1     -18.043  -9.656   8.884  1.00  0.00     0.074 A 
ATOM     57  C   UNL     1     -17.998  -9.495  10.324  1.00  0.00     0.031 C 
ATOM     58  C   UNL     1     -19.187  -9.774   8.166  1.00  0.00     0.037 A 
BRANCH  45  59
ATOM     59  C   UNL     1     -18.318 -10.296   2.066  1.00  0.00     0.058 A 
ATOM     60  C   UNL     1     -18.255 -11.491   1.331  1.00  0.00     0.135 A 
ATOM     61  C   UNL     1     -18.972  -9.200   1.484  1.00  0.00     0.135 A 
ATOM     62  F   UNL     1     -17.624 -12.563   1.836  1.00  0.00    -0.206 F 
ATOM     63  C   UNL     1     -18.790 -11.585   0.051  1.00  0.00     0.059 A 
ATOM     64  C   UNL     1     -19.537  -9.279   0.214  1.00  0.00     0.059 A 
ATOM     65  F   UNL     1     -19.057  -8.034   2.143  1.00  0.00    -0.206 F 
ATOM     66  C   UNL     1     -19.424 -10.471  -0.501  1.00  0.00     0.060 A 
BRANCH  66  67
ATOM     67  S   UNL     1     -20.104 -10.603  -2.168  1.00  0.00     0.124 S 
ATOM     68  O   UNL     1     -18.896 -10.504  -2.982  1.00  0.00    -0.237 OA
ATOM     69  O   UNL     1     -20.745 -11.914  -2.144  1.00  0.00    -0.237 OA
ATOM     70  O   UNL     1     -21.014  -9.465  -2.253  1.00  0.00    -0.744 OA
ENDBRANCH  66  67
ENDBRANCH  45  59
BRANCH  46  71
ATOM     71  C   UNL     1     -13.828  -9.250  10.940  1.00  0.00     0.058 A 
ATOM     72  C   UNL     1     -13.800 -10.288  11.882  1.00  0.00     0.135 A 
ATOM     73  C   UNL     1     -13.200  -8.041  11.277  1.00  0.00     0.135 A 
ATOM     74  F   UNL     1     -14.391 -11.460  11.605  1.00  0.00    -0.206 F 
ATOM     75  C   UNL     1     -13.182 -10.134  13.118  1.00  0.00     0.059 A 
ATOM     76  C   UNL     1     -12.559  -7.869  12.500  1.00  0.00     0.059 A 
ATOM     77  F   UNL     1     -13.186  -7.024  10.402  1.00  0.00    -0.206 F 
ATOM     78  C   UNL     1     -12.564  -8.919  13.418  1.00  0.00     0.060 A 
BRANCH  78  79
ATOM     79  S   UNL     1     -11.717  -8.744  15.004  1.00  0.00     0.124 S 
ATOM     80  O   UNL     1     -12.839  -8.559  15.917  1.00  0.00    -0.237 OA
ATOM     81  O   UNL     1     -11.005 -10.014  15.116  1.00  0.00    -0.237 OA
ATOM     82  O   UNL     1     -10.866  -7.575  14.800  1.00  0.00    -0.744 OA
ENDBRANCH  78  79
ENDBRANCH  46  71
BRANCH  58  83
ATOM     83  C   UNL     1     -20.481  -9.745   8.926  1.00  0.00     0.058 A 
ATOM     84  C   UNL     1     -21.011  -8.542   9.418  1.00  0.00     0.135 A 
ATOM     85  C   UNL     1     -21.227 -10.919   9.112  1.00  0.00     0.135 A 
ATOM     86  F   UNL     1     -20.330  -7.394   9.271  1.00  0.00    -0.206 F 
ATOM     87  C   UNL     1     -22.232  -8.507  10.082  1.00  0.00     0.059 A 
ATOM     88  C   UNL     1     -22.460 -10.904   9.755  1.00  0.00     0.059 A 
ATOM     89  F   UNL     1     -20.765 -12.093   8.651  1.00  0.00    -0.206 F 
ATOM     90  C   UNL     1     -22.950  -9.693  10.244  1.00  0.00     0.060 A 
BRANCH  90  91
ATOM     91  S   UNL     1     -24.555  -9.630  11.068  1.00  0.00     0.124 S 
ATOM     92  O   UNL     1     -24.161  -9.526  12.469  1.00  0.00    -0.237 OA
ATOM     93  O   UNL     1     -25.160  -8.434  10.489  1.00  0.00    -0.237 OA
ATOM     94  O   UNL     1     -25.183 -10.890  10.683  1.00  0.00    -0.744 OA
ENDBRANCH  90  91
ENDBRANCH  58  83
ENDBRANCH  32  33
ENDBRANCH  24  27
ENDBRANCH  22  23
ENDBRANCH   1  22
TORSDOF 15
