REMARK SMILES COc1ccccc1[C@@H]1CN(C(=O)c2cc(C(C)C)nc(N)n2)C[C@H]1C(=O)NCCCCNC(=O)c1ccc(-c2c3nc(c(-c4c(F)cc(S(=O)(=O)[O-])cc4F)c4ccc([nH]4)c(-c4c(F)cc(S(=O)(=O)[O-])cc4F)c4nc(c(-c5c(F)cc(S(=O)(=O)[O-])cc5F)c5ccc2[nH]5)C=C4)C=C3)cc1
REMARK SMILES IDX 30 1 29 2 28 3 26 4 27 5 25 7 9 8 10 9 11 10 24 11 8 12 3 13
REMARK SMILES IDX 4 14 5 15 7 16 6 17 2 18 1 19 12 20 13 21 14 22 15 23 23 24
REMARK SMILES IDX 16 25 21 26 20 27 17 28 18 29 19 30 22 31 31 34 32 35 33 36
REMARK SMILES IDX 34 37 35 39 36 40 37 41 101 42 38 43 100 44 39 45 40 46
REMARK SMILES IDX 41 47 94 48 42 49 99 50 93 51 95 52 43 53 98 54 92 55 91 56
REMARK SMILES IDX 44 58 78 59 57 60 77 61 58 62 61 63 76 64 96 65 59 66 60 67
REMARK SMILES IDX 75 69 97 70 62 71 45 72 46 73 55 74 47 75 48 76 54 77 56 78
REMARK SMILES IDX 49 79 50 80 51 81 52 82 53 83 79 84 80 85 89 86 81 87 82 88
REMARK SMILES IDX 88 89 90 90 83 91 84 92 85 93 86 94 87 95 63 96 64 97 73 98
REMARK SMILES IDX 65 99 66 100 72 101 74 102 67 103 68 104 69 105 70 106
REMARK SMILES IDX 71 107
REMARK H PARENT 28 6 22 32 22 33 33 38 95 57 61 68
REMARK Flexibility Score: inf
ROOT
ATOM      1  C   UNL     1       6.408   0.422  -3.045  1.00  0.00     0.023 C 
ENDROOT
BRANCH   1   2
ATOM      2  C   UNL     1       5.886   1.112  -1.788  1.00  0.00     0.116 C 
BRANCH   2   3
ATOM      3  N   UNL     1       4.713   1.921  -2.066  1.00  0.00    -0.356 N 
ATOM      4  C   UNL     1       3.421   1.798  -1.667  1.00  0.00     0.225 C 
ATOM      5  O   UNL     1       2.626   2.658  -2.057  1.00  0.00    -0.275 OA
ATOM      6  H   UNL     1       4.886   2.696  -2.647  1.00  0.00     0.163 HD
BRANCH   4   7
ATOM      7  C   UNL     1       2.935   0.675  -0.771  1.00  0.00     0.107 C 
ATOM      8  C   UNL     1       3.087  -0.739  -1.366  1.00  0.00     0.057 C 
ATOM      9  C   UNL     1       3.384  -1.617  -0.148  1.00  0.00     0.129 C 
ATOM     10  N   UNL     1       4.136  -0.727   0.724  1.00  0.00    -0.336 N 
ATOM     11  C   UNL     1       3.662   0.641   0.575  1.00  0.00     0.134 C 
BRANCH   8  12
ATOM     12  C   UNL     1       1.971  -1.201  -2.277  1.00  0.00    -0.000 A 
ATOM     13  C   UNL     1       0.704  -1.609  -1.836  1.00  0.00     0.122 A 
ATOM     14  C   UNL     1      -0.257  -2.077  -2.738  1.00  0.00     0.047 A 
ATOM     15  C   UNL     1       0.022  -2.119  -4.102  1.00  0.00     0.004 A 
ATOM     16  C   UNL     1       2.223  -1.234  -3.663  1.00  0.00     0.008 A 
ATOM     17  C   UNL     1       1.262  -1.694  -4.565  1.00  0.00     0.001 A 
BRANCH  13  18
ATOM     18  O   UNL     1       0.407  -1.675  -0.503  1.00  0.00    -0.496 OA
ATOM     19  C   UNL     1      -0.291  -0.516  -0.049  1.00  0.00     0.278 C 
ENDBRANCH  13  18
ENDBRANCH   8  12
BRANCH  10  20
ATOM     20  C   UNL     1       5.085  -1.055   1.678  1.00  0.00     0.272 C 
ATOM     21  O   UNL     1       5.568  -0.227   2.446  1.00  0.00    -0.267 OA
BRANCH  20  22
ATOM     22  C   UNL     1       5.574  -2.459   1.724  1.00  0.00     0.134 A 
ATOM     23  C   UNL     1       6.226  -2.978   0.626  1.00  0.00     0.058 A 
ATOM     24  N   UNL     1       5.333  -3.137   2.862  1.00  0.00    -0.208 NA
ATOM     25  C   UNL     1       6.575  -4.305   0.719  1.00  0.00     0.049 A 
ATOM     26  C   UNL     1       5.752  -4.396   2.872  1.00  0.00     0.220 A 
ATOM     27  N   UNL     1       6.346  -5.016   1.844  1.00  0.00    -0.218 NA
BRANCH  25  28
ATOM     28  C   UNL     1       7.181  -5.055  -0.450  1.00  0.00     0.032 C 
ATOM     29  C   UNL     1       6.184  -5.165  -1.608  1.00  0.00     0.014 C 
ATOM     30  C   UNL     1       8.496  -4.431  -0.919  1.00  0.00     0.014 C 
ENDBRANCH  25  28
BRANCH  26  31
ATOM     31  N   UNL     1       5.574  -5.110   4.021  1.00  0.00    -0.368 N 
ATOM     32  H   UNL     1       5.871  -6.047   4.069  1.00  0.00     0.159 HD
ATOM     33  H   UNL     1       5.147  -4.688   4.801  1.00  0.00     0.159 HD
ENDBRANCH  26  31
ENDBRANCH  20  22
ENDBRANCH  10  20
ENDBRANCH   4   7
ENDBRANCH   2   3
ENDBRANCH   1   2
BRANCH   1  34
ATOM     34  C   UNL     1       6.964   1.371  -4.106  1.00  0.00     0.023 C 
BRANCH  34  35
ATOM     35  C   UNL     1       8.020   2.349  -3.605  1.00  0.00     0.116 C 
BRANCH  35  36
ATOM     36  N   UNL     1       9.148   1.692  -2.959  1.00  0.00    -0.352 N 
ATOM     37  C   UNL     1      10.481   2.028  -3.038  1.00  0.00     0.251 C 
ATOM     38  H   UNL     1       8.931   0.913  -2.398  1.00  0.00     0.163 HD
ATOM     39  O   UNL     1      11.336   1.322  -2.529  1.00  0.00    -0.269 OA
BRANCH  37  40
ATOM     40  C   UNL     1      10.847   3.243  -3.793  1.00  0.00     0.039 A 
ATOM     41  C   UNL     1      11.736   3.133  -4.864  1.00  0.00     0.014 A 
ATOM     42  C   UNL     1      10.222   4.458  -3.499  1.00  0.00     0.014 A 
ATOM     43  C   UNL     1      11.940   4.234  -5.697  1.00  0.00     0.010 A 
ATOM     44  C   UNL     1      10.374   5.529  -4.370  1.00  0.00     0.010 A 
ATOM     45  C   UNL     1      11.227   5.424  -5.481  1.00  0.00    -0.014 A 
BRANCH  45  46
ATOM     46  C   UNL     1      11.335   6.576  -6.410  1.00  0.00     0.031 A 
ATOM     47  C   UNL     1      11.880   7.884  -5.912  1.00  0.00     0.074 A 
ATOM     48  C   UNL     1      10.834   6.478  -7.656  1.00  0.00     0.049 A 
ATOM     49  N   UNL     1      11.924   9.043  -6.514  1.00  0.00    -0.248 NA
ATOM     50  C   UNL     1      12.409   7.896  -4.540  1.00  0.00     0.031 C 
ATOM     51  C   UNL     1      10.220   5.279  -8.231  1.00  0.00     0.029 A 
ATOM     52  N   UNL     1      10.736   7.413  -8.656  1.00  0.00    -0.354 N 
ATOM     53  C   UNL     1      12.449   9.930  -5.583  1.00  0.00     0.074 A 
ATOM     54  C   UNL     1      12.671   9.182  -4.364  1.00  0.00     0.031 C 
ATOM     55  C   UNL     1       9.812   5.550  -9.481  1.00  0.00     0.029 A 
ATOM     56  C   UNL     1      10.103   6.948  -9.785  1.00  0.00     0.049 A 
ATOM     57  H   UNL     1      11.085   8.329  -8.573  1.00  0.00     0.167 HD
ATOM     58  C   UNL     1      12.735  11.245  -5.736  1.00  0.00     0.037 A 
ATOM     59  C   UNL     1       9.780   7.581 -10.930  1.00  0.00     0.037 A 
ATOM     60  C   UNL     1      12.546  11.971  -6.963  1.00  0.00     0.049 A 
ATOM     61  C   UNL     1      10.152   9.026 -11.099  1.00  0.00     0.074 A 
ATOM     62  C   UNL     1      12.883  13.282  -7.249  1.00  0.00     0.029 A 
ATOM     63  N   UNL     1      11.966  11.447  -8.110  1.00  0.00    -0.354 N 
ATOM     64  N   UNL     1      10.719   9.835 -10.236  1.00  0.00    -0.248 NA
ATOM     65  C   UNL     1       9.852   9.644 -12.398  1.00  0.00     0.031 C 
ATOM     66  C   UNL     1      12.477  13.560  -8.560  1.00  0.00     0.029 A 
ATOM     67  C   UNL     1      11.922  12.412  -9.102  1.00  0.00     0.049 A 
ATOM     68  H   UNL     1      11.634  10.525  -8.204  1.00  0.00     0.167 HD
ATOM     69  C   UNL     1      10.863  11.052 -10.891  1.00  0.00     0.074 A 
ATOM     70  C   UNL     1      10.330  10.871 -12.227  1.00  0.00     0.031 C 
ATOM     71  C   UNL     1      11.391  12.212 -10.429  1.00  0.00     0.037 A 
BRANCH  58  72
ATOM     72  C   UNL     1      13.273  11.973  -4.535  1.00  0.00     0.058 A 
ATOM     73  C   UNL     1      14.560  11.721  -4.033  1.00  0.00     0.135 A 
ATOM     74  C   UNL     1      12.484  12.923  -3.866  1.00  0.00     0.135 A 
ATOM     75  F   UNL     1      15.351  10.812  -4.626  1.00  0.00    -0.206 F 
ATOM     76  C   UNL     1      15.026  12.343  -2.880  1.00  0.00     0.059 A 
ATOM     77  C   UNL     1      12.941  13.579  -2.728  1.00  0.00     0.059 A 
ATOM     78  F   UNL     1      11.248  13.205  -4.305  1.00  0.00    -0.206 F 
ATOM     79  C   UNL     1      14.204  13.264  -2.228  1.00  0.00     0.060 A 
BRANCH  79  80
ATOM     80  S   UNL     1      14.803  14.036  -0.711  1.00  0.00     0.124 S 
ATOM     81  O   UNL     1      14.606  12.962   0.257  1.00  0.00    -0.237 OA
ATOM     82  O   UNL     1      16.191  14.345  -1.040  1.00  0.00    -0.237 OA
ATOM     83  O   UNL     1      13.928  15.194  -0.552  1.00  0.00    -0.744 OA
ENDBRANCH  79  80
ENDBRANCH  58  72
BRANCH  59  84
ATOM     84  C   UNL     1       9.090   6.826 -12.008  1.00  0.00     0.058 A 
ATOM     85  C   UNL     1       9.788   6.404 -13.149  1.00  0.00     0.135 A 
ATOM     86  C   UNL     1       7.743   6.451 -11.887  1.00  0.00     0.135 A 
ATOM     87  F   UNL     1      11.076   6.744 -13.310  1.00  0.00    -0.206 F 
ATOM     88  C   UNL     1       9.178   5.630 -14.130  1.00  0.00     0.059 A 
ATOM     89  C   UNL     1       7.116   5.661 -12.845  1.00  0.00     0.059 A 
ATOM     90  F   UNL     1       7.039   6.816 -10.804  1.00  0.00    -0.206 F 
ATOM     91  C   UNL     1       7.843   5.254 -13.964  1.00  0.00     0.060 A 
BRANCH  91  92
ATOM     92  S   UNL     1       7.092   4.162 -15.191  1.00  0.00     0.124 S 
ATOM     93  O   UNL     1       6.877   5.076 -16.307  1.00  0.00    -0.237 OA
ATOM     94  O   UNL     1       8.130   3.154 -15.381  1.00  0.00    -0.237 OA
ATOM     95  O   UNL     1       5.885   3.686 -14.521  1.00  0.00    -0.744 OA
ENDBRANCH  91  92
ENDBRANCH  59  84
BRANCH  71  96
ATOM     96  C   UNL     1      11.449  13.374 -11.380  1.00  0.00     0.058 A 
ATOM     97  C   UNL     1      10.303  14.115 -11.706  1.00  0.00     0.135 A 
ATOM     98  C   UNL     1      12.678  13.790 -11.917  1.00  0.00     0.135 A 
ATOM     99  F   UNL     1       9.104  13.754 -11.224  1.00  0.00    -0.206 F 
ATOM    100  C   UNL     1      10.372  15.224 -12.544  1.00  0.00     0.059 A 
ATOM    101  C   UNL     1      12.773  14.908 -12.738  1.00  0.00     0.059 A 
ATOM    102  F   UNL     1      13.803  13.118 -11.628  1.00  0.00    -0.206 F 
ATOM    103  C   UNL     1      11.612  15.614 -13.053  1.00  0.00     0.060 A 
BRANCH 103 104
ATOM    104  S   UNL     1      11.698  17.082 -14.101  1.00  0.00     0.124 S 
ATOM    105  O   UNL     1      11.169  16.573 -15.362  1.00  0.00    -0.237 OA
ATOM    106  O   UNL     1      10.842  18.027 -13.390  1.00  0.00    -0.237 OA
ATOM    107  O   UNL     1      13.120  17.414 -14.103  1.00  0.00    -0.744 OA
ENDBRANCH 103 104
ENDBRANCH  71  96
ENDBRANCH  45  46
ENDBRANCH  37  40
ENDBRANCH  35  36
ENDBRANCH  34  35
ENDBRANCH   1  34
TORSDOF 20
