REMARK SMILES COC(=O)[C@H]1CCN(C(=O)N2C[C@@H](C)[C@@H](C(=O)NCCCCNC(=O)c3ccc(-c4c5nc(c(-c6c(F)cc(S(=O)(=O)[O-])cc6F)c6ccc([nH]6)c(-c6c(F)cc(S(=O)(=O)[O-])cc6F)c6nc(c(-c7c(F)cc(S(=O)(=O)[O-])cc7F)c7ccc4[nH]7)C=C6)C=C5)cc3)C2)C1
REMARK SMILES IDX 20 1 19 2 18 3 16 4 17 5 15 7 11 8 12 9 92 10 13 11 14 12
REMARK SMILES IDX 9 13 10 14 8 15 5 16 6 17 93 18 7 19 3 20 4 21 2 22 1 23
REMARK SMILES IDX 21 24 22 25 23 26 24 27 25 29 26 30 27 31 91 32 28 33 90 34
REMARK SMILES IDX 29 35 30 36 31 37 84 38 32 39 89 40 83 41 85 42 33 43 88 44
REMARK SMILES IDX 82 45 81 46 34 48 68 49 47 50 67 51 48 52 51 53 66 54 86 55
REMARK SMILES IDX 49 56 50 57 65 59 87 60 52 61 35 62 36 63 45 64 37 65 38 66
REMARK SMILES IDX 44 67 46 68 39 69 40 70 41 71 42 72 43 73 69 74 70 75 79 76
REMARK SMILES IDX 71 77 72 78 78 79 80 80 73 81 74 82 75 83 76 84 77 85 53 86
REMARK SMILES IDX 54 87 63 88 55 89 56 90 62 91 64 92 57 93 58 94 59 95 60 96
REMARK SMILES IDX 61 97
REMARK H PARENT 18 6 23 28 85 47 51 58
REMARK Flexibility Score: inf
ROOT
ATOM      1  C   UNL     1       0.788  10.033  -5.609  1.00  0.00     0.023 C 
ENDROOT
BRANCH   1   2
ATOM      2  C   UNL     1       2.005   9.130  -5.758  1.00  0.00     0.116 C 
BRANCH   2   3
ATOM      3  N   UNL     1       3.265   9.823  -5.596  1.00  0.00    -0.356 N 
ATOM      4  C   UNL     1       4.431   9.432  -5.021  1.00  0.00     0.225 C 
ATOM      5  O   UNL     1       5.385  10.213  -5.112  1.00  0.00    -0.275 OA
ATOM      6  H   UNL     1       3.279  10.736  -5.966  1.00  0.00     0.163 HD
BRANCH   4   7
ATOM      7  C   UNL     1       4.634   8.096  -4.312  1.00  0.00     0.102 C 
ATOM      8  N   UNL     1       2.985   6.535  -3.551  1.00  0.00    -0.324 N 
ATOM      9  C   UNL     1       3.344   6.133  -4.905  1.00  0.00     0.125 C 
ATOM     10  C   UNL     1       3.631   7.801  -3.203  1.00  0.00     0.135 C 
ATOM     11  C   UNL     1       4.680   6.816  -5.160  1.00  0.00     0.020 C 
ATOM     12  C   UNL     1       5.019   6.972  -6.632  1.00  0.00     0.010 C 
BRANCH   8  13
ATOM     13  C   UNL     1       1.837   6.173  -2.887  1.00  0.00     0.320 C 
ATOM     14  O   UNL     1       1.181   7.008  -2.261  1.00  0.00    -0.248 OA
BRANCH  13  15
ATOM     15  N   UNL     1       1.447   4.860  -2.917  1.00  0.00    -0.324 N 
ATOM     16  C   UNL     1       0.149   2.964  -2.309  1.00  0.00     0.120 C 
ATOM     17  C   UNL     1       1.287   2.557  -3.242  1.00  0.00     0.039 C 
ATOM     18  C   UNL     1       0.137   4.488  -2.388  1.00  0.00     0.136 C 
ATOM     19  C   UNL     1       2.285   3.679  -3.027  1.00  0.00     0.122 C 
BRANCH  16  20
ATOM     20  C   UNL     1      -1.189   2.366  -2.652  1.00  0.00     0.310 C 
ATOM     21  O   UNL     1      -1.882   1.768  -1.838  1.00  0.00    -0.252 OA
BRANCH  20  22
ATOM     22  O   UNL     1      -1.524   2.578  -3.951  1.00  0.00    -0.469 OA
ATOM     23  C   UNL     1      -2.796   2.043  -4.322  1.00  0.00     0.282 C 
ENDBRANCH  20  22
ENDBRANCH  16  20
ENDBRANCH  13  15
ENDBRANCH   8  13
ENDBRANCH   4   7
ENDBRANCH   2   3
ENDBRANCH   1   2
BRANCH   1  24
ATOM     24  C   UNL     1       0.580  11.047  -6.728  1.00  0.00     0.023 C 
BRANCH  24  25
ATOM     25  C   UNL     1       0.579  10.478  -8.142  1.00  0.00     0.116 C 
BRANCH  25  26
ATOM     26  N   UNL     1      -0.403   9.421  -8.346  1.00  0.00    -0.352 N 
ATOM     27  C   UNL     1      -1.395   9.319  -9.298  1.00  0.00     0.251 C 
ATOM     28  H   UNL     1      -0.350   8.670  -7.712  1.00  0.00     0.163 HD
ATOM     29  O   UNL     1      -2.191   8.393  -9.263  1.00  0.00    -0.269 OA
BRANCH  27  30
ATOM     30  C   UNL     1      -1.510  10.367 -10.335  1.00  0.00     0.039 A 
ATOM     31  C   UNL     1      -2.748  10.977 -10.546  1.00  0.00     0.014 A 
ATOM     32  C   UNL     1      -0.384  10.788 -11.045  1.00  0.00     0.014 A 
ATOM     33  C   UNL     1      -2.836  12.078 -11.400  1.00  0.00     0.010 A 
ATOM     34  C   UNL     1      -0.456  11.937 -11.826  1.00  0.00     0.010 A 
ATOM     35  C   UNL     1      -1.680  12.599 -12.006  1.00  0.00    -0.014 A 
BRANCH  35  36
ATOM     36  C   UNL     1      -1.721  13.842 -12.818  1.00  0.00     0.031 A 
ATOM     37  C   UNL     1      -1.335  13.805 -14.271  1.00  0.00     0.074 A 
ATOM     38  C   UNL     1      -2.022  15.017 -12.229  1.00  0.00     0.049 A 
ATOM     39  N   UNL     1      -1.219  14.791 -15.121  1.00  0.00    -0.248 NA
ATOM     40  C   UNL     1      -1.002  12.486 -14.832  1.00  0.00     0.031 C 
ATOM     41  C   UNL     1      -2.357  15.196 -10.814  1.00  0.00     0.029 A 
ATOM     42  N   UNL     1      -2.083  16.288 -12.745  1.00  0.00    -0.354 N 
ATOM     43  C   UNL     1      -0.779  14.218 -16.308  1.00  0.00     0.074 A 
ATOM     44  C   UNL     1      -0.594  12.806 -16.050  1.00  0.00     0.031 C 
ATOM     45  C   UNL     1      -2.619  16.492 -10.584  1.00  0.00     0.029 A 
ATOM     46  C   UNL     1      -2.435  17.244 -11.821  1.00  0.00     0.049 A 
ATOM     47  H   UNL     1      -1.894  16.495 -13.689  1.00  0.00     0.167 HD
ATOM     48  C   UNL     1      -0.572  14.807 -17.510  1.00  0.00     0.037 A 
ATOM     49  C   UNL     1      -2.590  18.575 -11.956  1.00  0.00     0.037 A 
ATOM     50  C   UNL     1      -0.788  16.206 -17.769  1.00  0.00     0.049 A 
ATOM     51  C   UNL     1      -2.370  19.207 -13.302  1.00  0.00     0.074 A 
ATOM     52  C   UNL     1      -0.670  16.889 -18.966  1.00  0.00     0.029 A 
ATOM     53  N   UNL     1      -1.169  17.137 -16.813  1.00  0.00    -0.354 N 
ATOM     54  N   UNL     1      -2.012  18.640 -14.430  1.00  0.00    -0.248 NA
ATOM     55  C   UNL     1      -2.579  20.659 -13.397  1.00  0.00     0.031 C 
ATOM     56  C   UNL     1      -0.947  18.240 -18.727  1.00  0.00     0.029 A 
ATOM     57  C   UNL     1      -1.277  18.391 -17.390  1.00  0.00     0.049 A 
ATOM     58  H   UNL     1      -1.339  16.935 -15.864  1.00  0.00     0.167 HD
ATOM     59  C   UNL     1      -1.976  19.660 -15.374  1.00  0.00     0.074 A 
ATOM     60  C   UNL     1      -2.357  20.878 -14.686  1.00  0.00     0.031 C 
ATOM     61  C   UNL     1      -1.661  19.593 -16.691  1.00  0.00     0.037 A 
BRANCH  48  62
ATOM     62  C   UNL     1      -0.089  13.928 -18.631  1.00  0.00     0.058 A 
ATOM     63  C   UNL     1      -0.918  12.951 -19.209  1.00  0.00     0.135 A 
ATOM     64  C   UNL     1       1.219  14.051 -19.125  1.00  0.00     0.135 A 
ATOM     65  F   UNL     1      -2.173  12.780 -18.763  1.00  0.00    -0.206 F 
ATOM     66  C   UNL     1      -0.452  12.096 -20.201  1.00  0.00     0.059 A 
ATOM     67  C   UNL     1       1.697  13.225 -20.138  1.00  0.00     0.059 A 
ATOM     68  F   UNL     1       2.053  14.969 -18.611  1.00  0.00    -0.206 F 
ATOM     69  C   UNL     1       0.861  12.234 -20.652  1.00  0.00     0.060 A 
BRANCH  69  70
ATOM     70  S   UNL     1       1.465  11.095 -21.915  1.00  0.00     0.124 S 
ATOM     71  O   UNL     1       1.688   9.885 -21.130  1.00  0.00    -0.237 OA
ATOM     72  O   UNL     1       0.348  11.043 -22.853  1.00  0.00    -0.237 OA
ATOM     73  O   UNL     1       2.669  11.750 -22.415  1.00  0.00    -0.744 OA
ENDBRANCH  69  70
ENDBRANCH  48  62
BRANCH  49  74
ATOM     74  C   UNL     1      -3.021  19.389 -10.789  1.00  0.00     0.058 A 
ATOM     75  C   UNL     1      -4.327  19.894 -10.713  1.00  0.00     0.135 A 
ATOM     76  C   UNL     1      -2.157  19.644  -9.713  1.00  0.00     0.135 A 
ATOM     77  F   UNL     1      -5.186  19.681 -11.722  1.00  0.00    -0.206 F 
ATOM     78  C   UNL     1      -4.763  20.626  -9.615  1.00  0.00     0.059 A 
ATOM     79  C   UNL     1      -2.576  20.357  -8.593  1.00  0.00     0.059 A 
ATOM     80  F   UNL     1      -0.902  19.169  -9.730  1.00  0.00    -0.206 F 
ATOM     81  C   UNL     1      -3.881  20.848  -8.556  1.00  0.00     0.060 A 
BRANCH  81  82
ATOM     82  S   UNL     1      -4.482  21.736  -7.102  1.00  0.00     0.124 S 
ATOM     83  O   UNL     1      -4.542  23.105  -7.598  1.00  0.00    -0.237 OA
ATOM     84  O   UNL     1      -5.767  21.088  -6.856  1.00  0.00    -0.237 OA
ATOM     85  O   UNL     1      -3.454  21.471  -6.099  1.00  0.00    -0.744 OA
ENDBRANCH  81  82
ENDBRANCH  49  74
BRANCH  61  86
ATOM     86  C   UNL     1      -1.740  20.866 -17.485  1.00  0.00     0.058 A 
ATOM     87  C   UNL     1      -0.769  21.872 -17.363  1.00  0.00     0.135 A 
ATOM     88  C   UNL     1      -2.770  21.057 -18.420  1.00  0.00     0.135 A 
ATOM     89  F   UNL     1       0.232  21.741 -16.478  1.00  0.00    -0.206 F 
ATOM     90  C   UNL     1      -0.828  23.033 -18.127  1.00  0.00     0.059 A 
ATOM     91  C   UNL     1      -2.835  22.199 -19.212  1.00  0.00     0.059 A 
ATOM     92  F   UNL     1      -3.718  20.120 -18.582  1.00  0.00    -0.206 F 
ATOM     93  C   UNL     1      -1.864  23.186 -19.050  1.00  0.00     0.060 A 
BRANCH  93  94
ATOM     94  S   UNL     1      -1.908  24.679 -20.065  1.00  0.00     0.124 S 
ATOM     95  O   UNL     1      -2.394  25.669 -19.110  1.00  0.00    -0.237 OA
ATOM     96  O   UNL     1      -0.514  24.823 -20.473  1.00  0.00    -0.237 OA
ATOM     97  O   UNL     1      -2.835  24.332 -21.138  1.00  0.00    -0.744 OA
ENDBRANCH  93  94
ENDBRANCH  61  86
ENDBRANCH  35  36
ENDBRANCH  27  30
ENDBRANCH  25  26
ENDBRANCH  24  25
ENDBRANCH   1  24
TORSDOF 18
