REMARK SMILES Cc1ccccc1/C=C1\SC(=O)N(CC(=O)Nc2ccccc2C(=O)NCCCCNC(=O)c2ccc(-c3c4nc(c(-c5c(F)cc(S(=O)(=O)[O-])cc5F)c5ccc([nH]5)c(-c5c(F)cc(S(=O)(=O)[O-])cc5F)c5nc(c(-c6c(F)cc(S(=O)(=O)[O-])cc6F)c6ccc3[nH]6)C=C5)C=C4)cc2)C1=O
REMARK SMILES IDX 28 1 27 2 26 3 24 4 25 5 23 7 18 8 19 9 20 10 22 11 21 12
REMARK SMILES IDX 17 13 15 14 16 15 14 17 13 18 8 19 9 20 10 21 100 22 11 23
REMARK SMILES IDX 101 24 12 25 7 26 1 27 2 28 3 29 4 30 6 31 5 32 29 33 30 34
REMARK SMILES IDX 31 35 32 36 33 38 34 39 35 40 99 41 36 42 98 43 37 44 38 45
REMARK SMILES IDX 39 46 92 47 40 48 97 49 91 50 93 51 41 52 96 53 90 54 89 55
REMARK SMILES IDX 42 57 76 58 55 59 75 60 56 61 59 62 74 63 94 64 57 65 58 66
REMARK SMILES IDX 73 68 95 69 60 70 43 71 44 72 53 73 45 74 46 75 52 76 54 77
REMARK SMILES IDX 47 78 48 79 49 80 50 81 51 82 77 83 78 84 87 85 79 86 80 87
REMARK SMILES IDX 86 88 88 89 81 90 82 91 83 92 84 93 85 94 61 95 62 96 71 97
REMARK SMILES IDX 63 98 64 99 70 100 72 101 65 102 66 103 67 104 68 105 69 106
REMARK H PARENT 26 6 17 16 31 37 93 56 59 67
REMARK Flexibility Score: inf
ROOT
ATOM      1  C   UNL     1       3.435   0.268  -3.744  1.00  0.00     0.023 C 
ENDROOT
BRANCH   1   2
ATOM      2  C   UNL     1       2.066   0.974  -3.788  1.00  0.00     0.116 C 
BRANCH   2   3
ATOM      3  N   UNL     1       1.858   2.198  -2.999  1.00  0.00    -0.352 N 
ATOM      4  C   UNL     1       1.730   3.554  -3.275  1.00  0.00     0.253 C 
ATOM      5  O   UNL     1       1.360   4.289  -2.359  1.00  0.00    -0.269 OA
ATOM      6  H   UNL     1       1.794   2.009  -2.034  1.00  0.00     0.163 HD
BRANCH   4   7
ATOM      7  C   UNL     1       2.022   4.194  -4.586  1.00  0.00     0.063 A 
ATOM      8  C   UNL     1       2.500   5.525  -4.730  1.00  0.00     0.054 A 
ATOM      9  C   UNL     1       2.597   6.082  -6.026  1.00  0.00     0.027 A 
ATOM     10  C   UNL     1       2.245   5.364  -7.165  1.00  0.00     0.002 A 
ATOM     11  C   UNL     1       1.561   3.545  -5.746  1.00  0.00     0.016 A 
ATOM     12  C   UNL     1       1.703   4.099  -7.021  1.00  0.00     0.001 A 
BRANCH   8  13
ATOM     13  N   UNL     1       2.611   6.511  -3.726  1.00  0.00    -0.324 N 
ATOM     14  C   UNL     1       3.461   6.738  -2.692  1.00  0.00     0.244 C 
ATOM     15  O   UNL     1       3.381   7.856  -2.161  1.00  0.00    -0.273 OA
ATOM     16  H   UNL     1       1.905   7.195  -3.791  1.00  0.00     0.170 HD
BRANCH  14  17
ATOM     17  C   UNL     1       4.564   5.790  -2.267  1.00  0.00     0.230 C 
BRANCH  17  18
ATOM     18  N   UNL     1       4.116   4.701  -1.445  1.00  0.00    -0.259 N 
ATOM     19  C   UNL     1       1.699   3.450   0.708  1.00  0.00     0.029 C 
ATOM     20  C   UNL     1       2.929   3.564   0.192  1.00  0.00     0.083 C 
ATOM     21  S   UNL     1       3.969   2.368  -0.433  1.00  0.00    -0.022 SA
ATOM     22  C   UNL     1       3.402   4.893  -0.279  1.00  0.00     0.268 C 
ATOM     23  C   UNL     1       4.577   3.441  -1.665  1.00  0.00     0.294 C 
ATOM     24  O   UNL     1       3.185   5.949   0.289  1.00  0.00    -0.268 OA
ATOM     25  O   UNL     1       5.345   3.077  -2.551  1.00  0.00    -0.261 OA
BRANCH  19  26
ATOM     26  C   UNL     1       0.823   2.268   0.794  1.00  0.00    -0.021 A 
ATOM     27  C   UNL     1       2.456   0.618   1.921  1.00  0.00     0.045 C 
ATOM     28  C   UNL     1       1.112   1.034   1.400  1.00  0.00    -0.044 A 
ATOM     29  C   UNL     1       0.084   0.085   1.499  1.00  0.00     0.004 A 
ATOM     30  C   UNL     1      -1.186   0.328   0.981  1.00  0.00     0.000 A 
ATOM     31  C   UNL     1      -0.468   2.479   0.252  1.00  0.00     0.008 A 
ATOM     32  C   UNL     1      -1.462   1.513   0.331  1.00  0.00     0.001 A 
ENDBRANCH  19  26
ENDBRANCH  17  18
ENDBRANCH  14  17
ENDBRANCH   8  13
ENDBRANCH   4   7
ENDBRANCH   2   3
ENDBRANCH   1   2
BRANCH   1  33
ATOM     33  C   UNL     1       3.940  -0.533  -2.525  1.00  0.00     0.023 C 
BRANCH  33  34
ATOM     34  C   UNL     1       2.976  -1.434  -1.774  1.00  0.00     0.116 C 
BRANCH  34  35
ATOM     35  N   UNL     1       2.926  -2.827  -2.235  1.00  0.00    -0.352 N 
ATOM     36  C   UNL     1       2.593  -3.849  -1.329  1.00  0.00     0.251 C 
ATOM     37  H   UNL     1       3.125  -3.045  -3.174  1.00  0.00     0.163 HD
ATOM     38  O   UNL     1       3.395  -4.364  -0.558  1.00  0.00    -0.269 OA
BRANCH  36  39
ATOM     39  C   UNL     1       1.129  -4.029  -1.108  1.00  0.00     0.039 A 
ATOM     40  C   UNL     1       0.445  -5.067  -0.451  1.00  0.00     0.014 A 
ATOM     41  C   UNL     1       0.386  -2.919  -1.383  1.00  0.00     0.014 A 
ATOM     42  C   UNL     1      -0.930  -4.879  -0.144  1.00  0.00     0.010 A 
ATOM     43  C   UNL     1      -0.478  -2.595  -0.406  1.00  0.00     0.010 A 
ATOM     44  C   UNL     1      -1.417  -3.581  -0.236  1.00  0.00    -0.014 A 
BRANCH  44  45
ATOM     45  C   UNL     1      -2.720  -2.937  -0.145  1.00  0.00     0.031 A 
ATOM     46  C   UNL     1      -3.330  -2.636   1.159  1.00  0.00     0.074 A 
ATOM     47  C   UNL     1      -3.014  -2.164  -1.228  1.00  0.00     0.049 A 
ATOM     48  N   UNL     1      -4.481  -2.084   1.303  1.00  0.00    -0.248 NA
ATOM     49  C   UNL     1      -2.632  -2.834   2.422  1.00  0.00     0.031 C 
ATOM     50  C   UNL     1      -3.886  -1.006  -1.384  1.00  0.00     0.029 A 
ATOM     51  N   UNL     1      -2.538  -2.361  -2.535  1.00  0.00    -0.354 N 
ATOM     52  C   UNL     1      -4.570  -1.591   2.590  1.00  0.00     0.074 A 
ATOM     53  C   UNL     1      -3.428  -2.166   3.267  1.00  0.00     0.031 C 
ATOM     54  C   UNL     1      -4.171  -0.859  -2.694  1.00  0.00     0.029 A 
ATOM     55  C   UNL     1      -3.589  -1.998  -3.391  1.00  0.00     0.049 A 
ATOM     56  H   UNL     1      -1.647  -2.688  -2.798  1.00  0.00     0.167 HD
ATOM     57  C   UNL     1      -5.542  -0.665   2.861  1.00  0.00     0.037 A 
ATOM     58  C   UNL     1      -4.271  -3.042  -3.959  1.00  0.00     0.037 A 
ATOM     59  C   UNL     1      -6.367  -0.451   1.658  1.00  0.00     0.049 A 
ATOM     60  C   UNL     1      -5.633  -3.253  -3.324  1.00  0.00     0.074 A 
ATOM     61  C   UNL     1      -6.434   0.527   0.679  1.00  0.00     0.029 A 
ATOM     62  N   UNL     1      -7.081  -1.526   1.159  1.00  0.00    -0.354 N 
ATOM     63  N   UNL     1      -6.113  -2.521  -2.355  1.00  0.00    -0.248 NA
ATOM     64  C   UNL     1      -6.552  -4.320  -3.707  1.00  0.00     0.031 C 
ATOM     65  C   UNL     1      -7.080  -0.045  -0.466  1.00  0.00     0.029 A 
ATOM     66  C   UNL     1      -7.437  -1.350  -0.165  1.00  0.00     0.049 A 
ATOM     67  H   UNL     1      -7.309  -2.325   1.686  1.00  0.00     0.167 HD
ATOM     68  C   UNL     1      -7.311  -3.015  -1.934  1.00  0.00     0.074 A 
ATOM     69  C   UNL     1      -7.548  -4.147  -2.818  1.00  0.00     0.031 C 
ATOM     70  C   UNL     1      -8.016  -2.479  -0.890  1.00  0.00     0.037 A 
BRANCH  57  71
ATOM     71  C   UNL     1      -5.710   0.184   4.119  1.00  0.00     0.058 A 
ATOM     72  C   UNL     1      -6.642   1.251   4.130  1.00  0.00     0.135 A 
ATOM     73  C   UNL     1      -5.003   0.037   5.332  1.00  0.00     0.135 A 
ATOM     74  F   UNL     1      -7.438   1.496   3.079  1.00  0.00    -0.206 F 
ATOM     75  C   UNL     1      -6.813   2.120   5.213  1.00  0.00     0.059 A 
ATOM     76  C   UNL     1      -5.146   0.903   6.426  1.00  0.00     0.059 A 
ATOM     77  F   UNL     1      -4.157  -0.972   5.546  1.00  0.00    -0.206 F 
ATOM     78  C   UNL     1      -6.050   1.949   6.356  1.00  0.00     0.060 A 
BRANCH  78  79
ATOM     79  S   UNL     1      -6.274   3.088   7.735  1.00  0.00     0.124 S 
ATOM     80  O   UNL     1      -5.916   4.368   7.133  1.00  0.00    -0.237 OA
ATOM     81  O   UNL     1      -7.687   2.909   8.053  1.00  0.00    -0.237 OA
ATOM     82  O   UNL     1      -5.341   2.592   8.743  1.00  0.00    -0.744 OA
ENDBRANCH  78  79
ENDBRANCH  57  71
BRANCH  58  83
ATOM     83  C   UNL     1      -3.297  -4.104  -4.416  1.00  0.00     0.058 A 
ATOM     84  C   UNL     1      -2.390  -3.728  -5.433  1.00  0.00     0.135 A 
ATOM     85  C   UNL     1      -2.898  -5.155  -3.569  1.00  0.00     0.135 A 
ATOM     86  F   UNL     1      -2.699  -2.721  -6.268  1.00  0.00    -0.206 F 
ATOM     87  C   UNL     1      -1.097  -4.240  -5.499  1.00  0.00     0.059 A 
ATOM     88  C   UNL     1      -1.601  -5.690  -3.625  1.00  0.00     0.059 A 
ATOM     89  F   UNL     1      -3.703  -5.561  -2.575  1.00  0.00    -0.206 F 
ATOM     90  C   UNL     1      -0.693  -5.180  -4.554  1.00  0.00     0.060 A 
BRANCH  90  91
ATOM     91  S   UNL     1       1.078  -5.550  -4.461  1.00  0.00     0.124 S 
ATOM     92  O   UNL     1       1.311  -6.242  -5.722  1.00  0.00    -0.237 OA
ATOM     93  O   UNL     1       1.654  -4.205  -4.359  1.00  0.00    -0.237 OA
ATOM     94  O   UNL     1       1.197  -6.369  -3.261  1.00  0.00    -0.744 OA
ENDBRANCH  90  91
ENDBRANCH  58  83
BRANCH  70  95
ATOM     95  C   UNL     1      -9.352  -3.027  -0.479  1.00  0.00     0.058 A 
ATOM     96  C   UNL     1     -10.351  -3.300  -1.426  1.00  0.00     0.135 A 
ATOM     97  C   UNL     1      -9.711  -3.208   0.875  1.00  0.00     0.135 A 
ATOM     98  F   UNL     1     -10.140  -3.074  -2.733  1.00  0.00    -0.206 F 
ATOM     99  C   UNL     1     -11.592  -3.813  -1.063  1.00  0.00     0.059 A 
ATOM    100  C   UNL     1     -10.970  -3.643   1.265  1.00  0.00     0.059 A 
ATOM    101  F   UNL     1      -8.837  -3.009   1.871  1.00  0.00    -0.206 F 
ATOM    102  C   UNL     1     -11.890  -3.986   0.286  1.00  0.00     0.060 A 
BRANCH 102 103
ATOM    103  S   UNL     1     -13.488  -4.666   0.754  1.00  0.00     0.124 S 
ATOM    104  O   UNL     1     -14.395  -4.016  -0.186  1.00  0.00    -0.237 OA
ATOM    105  O   UNL     1     -13.265  -6.092   0.536  1.00  0.00    -0.237 OA
ATOM    106  O   UNL     1     -13.636  -4.256   2.147  1.00  0.00    -0.744 OA
ENDBRANCH 102 103
ENDBRANCH  70  95
ENDBRANCH  44  45
ENDBRANCH  36  39
ENDBRANCH  34  35
ENDBRANCH  33  34
ENDBRANCH   1  33
TORSDOF 18
