REMARK SMILES Cc1nsc(NC(=O)CC[C@H](C)CC[NH3+])c1C(=O)NCCCCNC(=O)c1ccc(-c2c3nc(c(-c4c(F)cc(S(=O)(=O)[O-])cc4F)c4ccc([nH]4)c(-c4c(F)cc(S(=O)(=O)[O-])cc4F)c4nc(c(-c5c(F)cc(S(=O)(=O)[O-])cc5F)c5ccc2[nH]5)C=C4)C=C3)cc1
REMARK SMILES IDX 17 1 18 2 19 3 16 5 1 6 2 7 3 8 4 9 5 10 6 11 7 12 8 14 9 15
REMARK SMILES IDX 10 16 11 17 12 18 13 19 14 20 15 21 20 25 21 26 22 27 23 28
REMARK SMILES IDX 24 29 25 30 26 32 27 33 28 34 92 35 29 36 91 37 30 38 31 39
REMARK SMILES IDX 32 40 85 41 33 42 90 43 84 44 86 45 34 46 89 47 83 48 82 49
REMARK SMILES IDX 35 51 69 52 48 53 68 54 49 55 52 56 67 57 87 58 50 59 51 60
REMARK SMILES IDX 66 62 88 63 53 64 36 65 37 66 46 67 38 68 39 69 45 70 47 71
REMARK SMILES IDX 40 72 41 73 42 74 43 75 44 76 70 77 71 78 80 79 72 80 73 81
REMARK SMILES IDX 79 82 81 83 74 84 75 85 76 86 77 87 78 88 54 89 55 90 64 91
REMARK SMILES IDX 56 92 57 93 63 94 65 95 58 96 59 97 60 98 61 99 62 100
REMARK H PARENT 19 4 6 13 15 22 15 23 15 24 24 31 86 50 52 61
REMARK Flexibility Score: inf
ROOT
ATOM      1  C   UNL     1      -0.273  -8.150  -3.704  1.00  0.00     0.256 C 
ATOM      2  O   UNL     1       0.385  -8.764  -2.855  1.00  0.00    -0.269 OA
ATOM      3  N   UNL     1       0.073  -8.464  -4.994  1.00  0.00    -0.352 N 
ATOM      4  H   UNL     1       0.892  -9.007  -5.035  1.00  0.00     0.163 HD
ENDROOT
BRANCH   1   5
ATOM      5  C   UNL     1      -1.298  -7.179  -3.276  1.00  0.00     0.097 A 
ATOM      6  C   UNL     1      -1.545  -5.373  -5.213  1.00  0.00     0.069 C 
ATOM      7  C   UNL     1      -1.931  -6.045  -3.939  1.00  0.00     0.066 A 
ATOM      8  N   UNL     1      -2.887  -5.411  -3.249  1.00  0.00    -0.195 NA
ATOM      9  S   UNL     1      -2.880  -5.960  -1.694  1.00  0.00    -0.017 S 
ATOM     10  C   UNL     1      -1.542  -6.975  -1.904  1.00  0.00     0.129 A 
BRANCH  10  11
ATOM     11  N   UNL     1      -0.841  -7.453  -0.805  1.00  0.00    -0.316 N 
ATOM     12  C   UNL     1      -0.074  -6.709   0.074  1.00  0.00     0.225 C 
ATOM     13  H   UNL     1      -0.894  -8.421  -0.633  1.00  0.00     0.170 HD
ATOM     14  O   UNL     1       0.733  -7.322   0.787  1.00  0.00    -0.275 OA
BRANCH  12  15
ATOM     15  C   UNL     1      -0.111  -5.174   0.182  1.00  0.00     0.101 C 
BRANCH  15  16
ATOM     16  C   UNL     1       1.176  -4.415  -0.275  1.00  0.00     0.013 C 
BRANCH  16  17
ATOM     17  C   UNL     1       1.263  -4.156  -1.803  1.00  0.00    -0.008 C 
ATOM     18  C   UNL     1       1.360  -5.478  -2.529  1.00  0.00     0.008 C 
BRANCH  17  19
ATOM     19  C   UNL     1       2.448  -3.283  -2.274  1.00  0.00     0.064 C 
BRANCH  19  20
ATOM     20  C   UNL     1       2.551  -3.157  -3.815  1.00  0.00     0.259 C 
BRANCH  20  21
ATOM     21  N   UNL     1       1.341  -2.621  -4.437  1.00  0.00    -0.358 N 
ATOM     22  H   UNL     1       0.560  -3.252  -4.261  1.00  0.00     0.344 HD
ATOM     23  H   UNL     1       1.487  -2.532  -5.443  1.00  0.00     0.344 HD
ATOM     24  H   UNL     1       1.133  -1.704  -4.042  1.00  0.00     0.344 HD
ENDBRANCH  20  21
ENDBRANCH  19  20
ENDBRANCH  17  19
ENDBRANCH  16  17
ENDBRANCH  15  16
ENDBRANCH  12  15
ENDBRANCH  10  11
ENDBRANCH   1   5
BRANCH   3  25
ATOM     25  C   UNL     1      -0.469  -8.193  -6.311  1.00  0.00     0.116 C 
BRANCH  25  26
ATOM     26  C   UNL     1       0.557  -7.485  -7.213  1.00  0.00     0.023 C 
BRANCH  26  27
ATOM     27  C   UNL     1       1.494  -8.409  -8.014  1.00  0.00     0.023 C 
BRANCH  27  28
ATOM     28  C   UNL     1       0.823  -9.228  -9.117  1.00  0.00     0.116 C 
BRANCH  28  29
ATOM     29  N   UNL     1       0.220  -8.402 -10.161  1.00  0.00    -0.352 N 
ATOM     30  C   UNL     1      -0.748  -8.770 -11.084  1.00  0.00     0.251 C 
ATOM     31  H   UNL     1       0.538  -7.472 -10.216  1.00  0.00     0.163 HD
ATOM     32  O   UNL     1      -0.878  -8.166 -12.132  1.00  0.00    -0.269 OA
BRANCH  30  33
ATOM     33  C   UNL     1      -1.626  -9.907 -10.750  1.00  0.00     0.039 A 
ATOM     34  C   UNL     1      -1.899 -10.915 -11.679  1.00  0.00     0.014 A 
ATOM     35  C   UNL     1      -2.127  -9.970  -9.452  1.00  0.00     0.014 A 
ATOM     36  C   UNL     1      -2.607 -12.039 -11.258  1.00  0.00     0.010 A 
ATOM     37  C   UNL     1      -2.708 -11.132  -9.008  1.00  0.00     0.010 A 
ATOM     38  C   UNL     1      -2.988 -12.155  -9.912  1.00  0.00    -0.014 A 
BRANCH  38  39
ATOM     39  C   UNL     1      -3.571 -13.396  -9.405  1.00  0.00     0.031 A 
ATOM     40  C   UNL     1      -2.749 -14.621  -9.633  1.00  0.00     0.074 A 
ATOM     41  C   UNL     1      -4.638 -13.412  -8.576  1.00  0.00     0.049 A 
ATOM     42  N   UNL     1      -3.033 -15.646 -10.367  1.00  0.00    -0.248 NA
ATOM     43  C   UNL     1      -1.384 -14.656  -9.079  1.00  0.00     0.031 C 
ATOM     44  C   UNL     1      -5.350 -12.265  -7.996  1.00  0.00     0.029 A 
ATOM     45  N   UNL     1      -5.239 -14.468  -7.965  1.00  0.00    -0.354 N 
ATOM     46  C   UNL     1      -1.994 -16.557 -10.180  1.00  0.00     0.074 A 
ATOM     47  C   UNL     1      -0.930 -15.820  -9.550  1.00  0.00     0.031 C 
ATOM     48  C   UNL     1      -6.091 -12.677  -6.945  1.00  0.00     0.029 A 
ATOM     49  C   UNL     1      -6.048 -14.126  -6.886  1.00  0.00     0.049 A 
ATOM     50  H   UNL     1      -5.111 -15.398  -8.261  1.00  0.00     0.167 HD
ATOM     51  C   UNL     1      -2.186 -17.898 -10.337  1.00  0.00     0.037 A 
ATOM     52  C   UNL     1      -6.611 -14.971  -5.985  1.00  0.00     0.037 A 
ATOM     53  C   UNL     1      -3.418 -18.165 -11.038  1.00  0.00     0.049 A 
ATOM     54  C   UNL     1      -6.637 -16.317  -6.614  1.00  0.00     0.074 A 
ATOM     55  C   UNL     1      -3.936 -17.805 -12.268  1.00  0.00     0.029 A 
ATOM     56  N   UNL     1      -4.493 -18.595 -10.297  1.00  0.00    -0.354 N 
ATOM     57  N   UNL     1      -7.353 -16.615  -7.664  1.00  0.00    -0.248 NA
ATOM     58  C   UNL     1      -5.516 -17.207  -6.356  1.00  0.00     0.031 C 
ATOM     59  C   UNL     1      -5.319 -17.556 -12.025  1.00  0.00     0.029 A 
ATOM     60  C   UNL     1      -5.580 -17.856 -10.687  1.00  0.00     0.049 A 
ATOM     61  H   UNL     1      -4.483 -19.303  -9.613  1.00  0.00     0.167 HD
ATOM     62  C   UNL     1      -6.534 -17.428  -8.433  1.00  0.00     0.074 A 
ATOM     63  C   UNL     1      -5.457 -17.836  -7.533  1.00  0.00     0.031 C 
ATOM     64  C   UNL     1      -6.648 -17.463  -9.794  1.00  0.00     0.037 A 
BRANCH  51  65
ATOM     65  C   UNL     1      -1.473 -18.977  -9.547  1.00  0.00     0.058 A 
ATOM     66  C   UNL     1      -1.671 -20.332  -9.895  1.00  0.00     0.135 A 
ATOM     67  C   UNL     1      -0.845 -18.762  -8.300  1.00  0.00     0.135 A 
ATOM     68  F   UNL     1      -2.256 -20.661 -11.058  1.00  0.00    -0.206 F 
ATOM     69  C   UNL     1      -1.354 -21.384  -9.033  1.00  0.00     0.059 A 
ATOM     70  C   UNL     1      -0.471 -19.798  -7.450  1.00  0.00     0.059 A 
ATOM     71  F   UNL     1      -0.652 -17.538  -7.795  1.00  0.00    -0.206 F 
ATOM     72  C   UNL     1      -0.771 -21.102  -7.803  1.00  0.00     0.060 A 
BRANCH  72  73
ATOM     73  S   UNL     1      -0.465 -22.443  -6.639  1.00  0.00     0.124 S 
ATOM     74  O   UNL     1      -1.823 -22.809  -6.256  1.00  0.00    -0.237 OA
ATOM     75  O   UNL     1       0.249 -23.407  -7.471  1.00  0.00    -0.237 OA
ATOM     76  O   UNL     1       0.337 -21.806  -5.599  1.00  0.00    -0.744 OA
ENDBRANCH  72  73
ENDBRANCH  51  65
BRANCH  52  77
ATOM     77  C   UNL     1      -6.791 -14.762  -4.523  1.00  0.00     0.058 A 
ATOM     78  C   UNL     1      -7.572 -15.645  -3.756  1.00  0.00     0.135 A 
ATOM     79  C   UNL     1      -5.971 -13.872  -3.799  1.00  0.00     0.135 A 
ATOM     80  F   UNL     1      -8.374 -16.535  -4.361  1.00  0.00    -0.206 F 
ATOM     81  C   UNL     1      -7.495 -15.691  -2.359  1.00  0.00     0.059 A 
ATOM     82  C   UNL     1      -5.886 -13.890  -2.407  1.00  0.00     0.059 A 
ATOM     83  F   UNL     1      -5.148 -13.018  -4.426  1.00  0.00    -0.206 F 
ATOM     84  C   UNL     1      -6.627 -14.825  -1.694  1.00  0.00     0.060 A 
BRANCH  84  85
ATOM     85  S   UNL     1      -6.365 -15.016   0.085  1.00  0.00     0.124 S 
ATOM     86  O   UNL     1      -7.628 -14.531   0.630  1.00  0.00    -0.237 OA
ATOM     87  O   UNL     1      -6.124 -16.450   0.209  1.00  0.00    -0.237 OA
ATOM     88  O   UNL     1      -5.204 -14.168   0.348  1.00  0.00    -0.744 OA
ENDBRANCH  84  85
ENDBRANCH  52  77
BRANCH  64  89
ATOM     89  C   UNL     1      -7.878 -16.860 -10.427  1.00  0.00     0.058 A 
ATOM     90  C   UNL     1      -8.252 -15.507 -10.336  1.00  0.00     0.135 A 
ATOM     91  C   UNL     1      -8.645 -17.676 -11.273  1.00  0.00     0.135 A 
ATOM     92  F   UNL     1      -7.513 -14.629  -9.645  1.00  0.00    -0.206 F 
ATOM     93  C   UNL     1      -9.370 -15.005 -11.006  1.00  0.00     0.059 A 
ATOM     94  C   UNL     1      -9.742 -17.190 -11.977  1.00  0.00     0.059 A 
ATOM     95  F   UNL     1      -8.304 -18.962 -11.457  1.00  0.00    -0.206 F 
ATOM     96  C   UNL     1     -10.113 -15.857 -11.822  1.00  0.00     0.060 A 
BRANCH  96  97
ATOM     97  S   UNL     1     -11.537 -15.202 -12.718  1.00  0.00     0.124 S 
ATOM     98  O   UNL     1     -12.496 -14.974 -11.643  1.00  0.00    -0.237 OA
ATOM     99  O   UNL     1     -10.992 -14.002 -13.347  1.00  0.00    -0.237 OA
ATOM    100  O   UNL     1     -11.882 -16.277 -13.644  1.00  0.00    -0.744 OA
ENDBRANCH  96  97
ENDBRANCH  64  89
ENDBRANCH  38  39
ENDBRANCH  30  33
ENDBRANCH  28  29
ENDBRANCH  27  28
ENDBRANCH  26  27
ENDBRANCH  25  26
ENDBRANCH   3  25
TORSDOF 21
