REMARK SMILES CS(=O)(=O)c1ccc(C2=NN(c3ccc(C(=O)NCCCCNC(=O)c4ccc(-c5c6nc(c(-c7c(F)cc(S(=O)(=O)[O-])cc7F)c7ccc([nH]7)c(-c7c(F)cc(S(=O)(=O)[O-])cc7F)c7nc(c(-c8c(F)cc(S(=O)(=O)[O-])cc8F)c8ccc5[nH]8)C=C7)C=C6)cc4)cc3)[C@H](c3ccc(F)cc3)C2)cc1
REMARK SMILES IDX 20 1 19 2 18 3 16 4 17 5 15 7 12 8 13 9 93 10 14 11 92 12
REMARK SMILES IDX 11 13 9 14 10 15 102 16 94 17 8 18 5 19 6 20 104 21 7 22
REMARK SMILES IDX 103 23 2 24 1 25 3 26 4 27 95 28 96 29 101 30 97 31 100 32
REMARK SMILES IDX 98 33 99 34 21 35 22 36 23 37 24 38 25 40 26 41 27 42 91 43
REMARK SMILES IDX 28 44 90 45 29 46 30 47 31 48 84 49 32 50 89 51 83 52 85 53
REMARK SMILES IDX 33 54 88 55 82 56 81 57 34 59 68 60 47 61 67 62 48 63 51 64
REMARK SMILES IDX 66 65 86 66 49 67 50 68 65 70 87 71 52 72 35 73 36 74 45 75
REMARK SMILES IDX 37 76 38 77 44 78 46 79 39 80 40 81 41 82 42 83 43 84 69 85
REMARK SMILES IDX 70 86 79 87 71 88 72 89 78 90 80 91 73 92 74 93 75 94 76 95
REMARK SMILES IDX 77 96 53 97 54 98 63 99 55 100 56 101 62 102 64 103 57 104
REMARK SMILES IDX 58 105 59 106 60 107 61 108
REMARK H PARENT 18 6 23 39 85 58 51 69
REMARK Flexibility Score: inf
ROOT
ATOM      1  C   UNL     1       4.956  -0.864 -14.749  1.00  0.00     0.023 C 
ENDROOT
BRANCH   1   2
ATOM      2  C   UNL     1       4.250   0.492 -14.783  1.00  0.00     0.116 C 
BRANCH   2   3
ATOM      3  N   UNL     1       2.821   0.338 -14.988  1.00  0.00    -0.352 N 
ATOM      4  C   UNL     1       1.777   0.439 -14.101  1.00  0.00     0.251 C 
ATOM      5  O   UNL     1       0.624   0.386 -14.526  1.00  0.00    -0.269 OA
ATOM      6  H   UNL     1       2.557   0.127 -15.913  1.00  0.00     0.163 HD
BRANCH   4   7
ATOM      7  C   UNL     1       2.004   0.677 -12.654  1.00  0.00     0.039 A 
ATOM      8  C   UNL     1       2.403   1.285  -9.936  1.00  0.00     0.060 A 
ATOM      9  C   UNL     1       1.345   1.863 -10.644  1.00  0.00     0.029 A 
ATOM     10  C   UNL     1       3.211   0.349 -10.583  1.00  0.00     0.029 A 
ATOM     11  C   UNL     1       1.139   1.556 -11.992  1.00  0.00     0.016 A 
ATOM     12  C   UNL     1       3.009   0.038 -11.927  1.00  0.00     0.016 A 
BRANCH   8  13
ATOM     13  N   UNL     1       2.667   1.623  -8.624  1.00  0.00    -0.257 N 
ATOM     14  C   UNL     1       2.333   1.514  -6.540  1.00  0.00     0.071 C 
ATOM     15  N   UNL     1       2.257   0.813  -7.627  1.00  0.00    -0.176 NA
ATOM     16  C   UNL     1       2.796   2.938  -6.719  1.00  0.00     0.091 C 
ATOM     17  C   UNL     1       3.244   2.891  -8.191  1.00  0.00     0.144 C 
BRANCH  14  18
ATOM     18  C   UNL     1       1.932   0.958  -5.236  1.00  0.00    -0.002 A 
ATOM     19  C   UNL     1       1.012  -0.227  -2.893  1.00  0.00     0.067 A 
ATOM     20  C   UNL     1       1.677  -1.007  -3.840  1.00  0.00     0.021 A 
ATOM     21  C   UNL     1       0.805   1.141  -3.107  1.00  0.00     0.021 A 
ATOM     22  C   UNL     1       2.128  -0.412  -5.018  1.00  0.00     0.011 A 
ATOM     23  C   UNL     1       1.279   1.740  -4.279  1.00  0.00     0.011 A 
BRANCH  19  24
ATOM     24  S   UNL     1       0.374  -0.994  -1.422  1.00  0.00     0.175 S 
ATOM     25  C   UNL     1       1.139  -0.101  -0.097  1.00  0.00     0.163 C 
ATOM     26  O   UNL     1       0.879  -2.350  -1.372  1.00  0.00    -0.224 OA
ATOM     27  O   UNL     1      -1.052  -0.719  -1.390  1.00  0.00    -0.224 OA
ENDBRANCH  19  24
ENDBRANCH  14  18
BRANCH  17  28
ATOM     28  C   UNL     1       4.745   2.896  -8.483  1.00  0.00    -0.023 A 
ATOM     29  C   UNL     1       5.728   2.556  -7.537  1.00  0.00     0.009 A 
ATOM     30  C   UNL     1       5.169   3.183  -9.800  1.00  0.00     0.009 A 
ATOM     31  C   UNL     1       7.082   2.523  -7.892  1.00  0.00     0.039 A 
ATOM     32  C   UNL     1       6.518   3.127 -10.159  1.00  0.00     0.039 A 
ATOM     33  C   UNL     1       7.463   2.803  -9.198  1.00  0.00     0.123 A 
ATOM     34  F   UNL     1       8.758   2.747  -9.535  1.00  0.00    -0.207 F 
ENDBRANCH  17  28
ENDBRANCH   8  13
ENDBRANCH   4   7
ENDBRANCH   2   3
ENDBRANCH   1   2
BRANCH   1  35
ATOM     35  C   UNL     1       5.139  -1.520 -16.118  1.00  0.00     0.023 C 
BRANCH  35  36
ATOM     36  C   UNL     1       6.044  -0.760 -17.079  1.00  0.00     0.116 C 
BRANCH  36  37
ATOM     37  N   UNL     1       7.393  -0.566 -16.566  1.00  0.00    -0.352 N 
ATOM     38  C   UNL     1       8.576  -0.562 -17.266  1.00  0.00     0.251 C 
ATOM     39  H   UNL     1       7.466  -0.419 -15.596  1.00  0.00     0.163 HD
ATOM     40  O   UNL     1       9.648  -0.488 -16.674  1.00  0.00    -0.269 OA
BRANCH  38  41
ATOM     41  C   UNL     1       8.539  -0.692 -18.737  1.00  0.00     0.039 A 
ATOM     42  C   UNL     1       9.320  -1.676 -19.347  1.00  0.00     0.014 A 
ATOM     43  C   UNL     1       7.692   0.117 -19.499  1.00  0.00     0.014 A 
ATOM     44  C   UNL     1       9.194  -1.901 -20.720  1.00  0.00     0.010 A 
ATOM     45  C   UNL     1       7.521  -0.152 -20.853  1.00  0.00     0.010 A 
ATOM     46  C   UNL     1       8.264  -1.167 -21.474  1.00  0.00    -0.014 A 
BRANCH  46  47
ATOM     47  C   UNL     1       8.037  -1.452 -22.913  1.00  0.00     0.031 A 
ATOM     48  C   UNL     1       8.355  -0.405 -23.944  1.00  0.00     0.074 A 
ATOM     49  C   UNL     1       7.457  -2.613 -23.279  1.00  0.00     0.049 A 
ATOM     50  N   UNL     1       8.121  -0.416 -25.230  1.00  0.00    -0.248 NA
ATOM     51  C   UNL     1       8.994   0.829 -23.459  1.00  0.00     0.031 C 
ATOM     52  C   UNL     1       7.051  -3.683 -22.364  1.00  0.00     0.029 A 
ATOM     53  N   UNL     1       7.085  -3.078 -24.516  1.00  0.00    -0.354 N 
ATOM     54  C   UNL     1       8.559   0.815 -25.704  1.00  0.00     0.074 A 
ATOM     55  C   UNL     1       9.037   1.563 -24.562  1.00  0.00     0.031 C 
ATOM     56  C   UNL     1       6.496  -4.680 -23.071  1.00  0.00     0.029 A 
ATOM     57  C   UNL     1       6.471  -4.308 -24.482  1.00  0.00     0.049 A 
ATOM     58  H   UNL     1       7.244  -2.578 -25.349  1.00  0.00     0.167 HD
ATOM     59  C   UNL     1       8.576   1.272 -26.979  1.00  0.00     0.037 A 
ATOM     60  C   UNL     1       5.935  -5.045 -25.474  1.00  0.00     0.037 A 
ATOM     61  C   UNL     1       8.135   0.506 -28.115  1.00  0.00     0.049 A 
ATOM     62  C   UNL     1       5.987  -4.525 -26.885  1.00  0.00     0.074 A 
ATOM     63  C   UNL     1       8.187   0.848 -29.454  1.00  0.00     0.029 A 
ATOM     64  N   UNL     1       7.561  -0.755 -28.046  1.00  0.00    -0.354 N 
ATOM     65  N   UNL     1       6.472  -3.389 -27.325  1.00  0.00    -0.248 NA
ATOM     66  C   UNL     1       5.425  -5.387 -27.934  1.00  0.00     0.031 C 
ATOM     67  C   UNL     1       7.610  -0.190 -30.193  1.00  0.00     0.029 A 
ATOM     68  C   UNL     1       7.237  -1.198 -29.317  1.00  0.00     0.049 A 
ATOM     69  H   UNL     1       7.408  -1.261 -27.215  1.00  0.00     0.167 HD
ATOM     70  C   UNL     1       6.296  -3.410 -28.704  1.00  0.00     0.074 A 
ATOM     71  C   UNL     1       5.669  -4.675 -29.027  1.00  0.00     0.031 C 
ATOM     72  C   UNL     1       6.625  -2.467 -29.621  1.00  0.00     0.037 A 
BRANCH  59  73
ATOM     73  C   UNL     1       9.093   2.663 -27.215  1.00  0.00     0.058 A 
ATOM     74  C   UNL     1      10.457   2.971 -27.095  1.00  0.00     0.135 A 
ATOM     75  C   UNL     1       8.220   3.691 -27.605  1.00  0.00     0.135 A 
ATOM     76  F   UNL     1      11.333   2.029 -26.709  1.00  0.00    -0.206 F 
ATOM     77  C   UNL     1      10.935   4.257 -27.326  1.00  0.00     0.059 A 
ATOM     78  C   UNL     1       8.680   4.979 -27.867  1.00  0.00     0.059 A 
ATOM     79  F   UNL     1       6.906   3.450 -27.734  1.00  0.00    -0.206 F 
ATOM     80  C   UNL     1      10.037   5.255 -27.711  1.00  0.00     0.060 A 
BRANCH  80  81
ATOM     81  S   UNL     1      10.674   6.917 -28.015  1.00  0.00     0.124 S 
ATOM     82  O   UNL     1      10.917   7.388 -26.655  1.00  0.00    -0.237 OA
ATOM     83  O   UNL     1      11.865   6.654 -28.817  1.00  0.00    -0.237 OA
ATOM     84  O   UNL     1       9.579   7.575 -28.721  1.00  0.00    -0.744 OA
ENDBRANCH  80  81
ENDBRANCH  59  73
BRANCH  60  85
ATOM     85  C   UNL     1       5.314  -6.361 -25.169  1.00  0.00     0.058 A 
ATOM     86  C   UNL     1       5.937  -7.558 -25.552  1.00  0.00     0.135 A 
ATOM     87  C   UNL     1       4.093  -6.450 -24.483  1.00  0.00     0.135 A 
ATOM     88  F   UNL     1       7.103  -7.524 -26.215  1.00  0.00    -0.206 F 
ATOM     89  C   UNL     1       5.365  -8.797 -25.281  1.00  0.00     0.059 A 
ATOM     90  C   UNL     1       3.512  -7.678 -24.181  1.00  0.00     0.059 A 
ATOM     91  F   UNL     1       3.465  -5.334 -24.080  1.00  0.00    -0.206 F 
ATOM     92  C   UNL     1       4.151  -8.846 -24.594  1.00  0.00     0.060 A 
BRANCH  92  93
ATOM     93  S   UNL     1       3.437 -10.460 -24.209  1.00  0.00     0.124 S 
ATOM     94  O   UNL     1       2.917 -10.868 -25.509  1.00  0.00    -0.237 OA
ATOM     95  O   UNL     1       4.597 -11.202 -23.724  1.00  0.00    -0.237 OA
ATOM     96  O   UNL     1       2.434 -10.148 -23.195  1.00  0.00    -0.744 OA
ENDBRANCH  92  93
ENDBRANCH  60  85
BRANCH  72  97
ATOM     97  C   UNL     1       6.349  -2.776 -31.065  1.00  0.00     0.058 A 
ATOM     98  C   UNL     1       5.049  -2.732 -31.591  1.00  0.00     0.135 A 
ATOM     99  C   UNL     1       7.407  -3.049 -31.947  1.00  0.00     0.135 A 
ATOM    100  F   UNL     1       4.003  -2.482 -30.787  1.00  0.00    -0.206 F 
ATOM    101  C   UNL     1       4.806  -2.961 -32.941  1.00  0.00     0.059 A 
ATOM    102  C   UNL     1       7.189  -3.258 -33.304  1.00  0.00     0.059 A 
ATOM    103  F   UNL     1       8.670  -3.093 -31.494  1.00  0.00    -0.206 F 
ATOM    104  C   UNL     1       5.883  -3.219 -33.791  1.00  0.00     0.060 A 
BRANCH 104 105
ATOM    105  S   UNL     1       5.560  -3.462 -35.551  1.00  0.00     0.124 S 
ATOM    106  O   UNL     1       5.009  -4.813 -35.564  1.00  0.00    -0.237 OA
ATOM    107  O   UNL     1       4.617  -2.389 -35.848  1.00  0.00    -0.237 OA
ATOM    108  O   UNL     1       6.879  -3.315 -36.161  1.00  0.00    -0.744 OA
ENDBRANCH 104 105
ENDBRANCH  72  97
ENDBRANCH  46  47
ENDBRANCH  38  41
ENDBRANCH  36  37
ENDBRANCH  35  36
ENDBRANCH   1  35
TORSDOF 18
