REMARK SMILES CCCc1cc(OC(F)(F)F)cc2c1O[C@@H](C(F)(F)F)C(C(=O)NCCCCNC(=O)c1ccc(-c3c4nc(c(-c5c(F)cc(S(=O)(=O)[O-])cc5F)c5ccc([nH]5)c(-c5c(F)cc(S(=O)(=O)[O-])cc5F)c5nc(c(-c6c(F)cc(S(=O)(=O)[O-])cc6F)c6ccc3[nH]6)C=C5)C=C4)cc1)=C2
REMARK SMILES IDX 27 1 26 2 25 3 24 4 22 5 23 6 21 8 4 9 5 10 14 11 6 12 13 13
REMARK SMILES IDX 15 14 12 15 98 16 16 17 3 18 2 19 1 20 7 21 8 22 9 23 10 24
REMARK SMILES IDX 11 25 17 26 18 27 19 28 20 29 28 30 29 31 30 32 31 34 32 35
REMARK SMILES IDX 33 36 97 37 34 38 96 39 35 40 36 41 37 42 90 43 38 44 95 45
REMARK SMILES IDX 89 46 91 47 39 48 94 49 88 50 87 51 40 53 74 54 53 55 73 56
REMARK SMILES IDX 54 57 57 58 72 59 92 60 55 61 56 62 71 64 93 65 58 66 41 67
REMARK SMILES IDX 42 68 51 69 43 70 44 71 50 72 52 73 45 74 46 75 47 76 48 77
REMARK SMILES IDX 49 78 75 79 76 80 85 81 77 82 78 83 84 84 86 85 79 86 80 87
REMARK SMILES IDX 81 88 82 89 83 90 59 91 60 92 69 93 61 94 62 95 68 96 70 97
REMARK SMILES IDX 63 98 64 99 65 100 66 101 67 102
REMARK H PARENT 24 7 29 33 91 52 57 63
REMARK Flexibility Score: inf
ROOT
ATOM      1  C   UNL     1      -0.918  -3.003  -8.179  1.00  0.00     0.023 C 
ENDROOT
BRANCH   1   2
ATOM      2  C   UNL     1      -0.983  -1.866  -7.157  1.00  0.00     0.023 C 
BRANCH   2   3
ATOM      3  C   UNL     1      -1.591  -2.270  -5.807  1.00  0.00     0.116 C 
BRANCH   3   4
ATOM      4  N   UNL     1      -0.631  -3.063  -5.060  1.00  0.00    -0.352 N 
ATOM      5  C   UNL     1       0.427  -2.706  -4.285  1.00  0.00     0.251 C 
ATOM      6  O   UNL     1       1.272  -3.559  -4.031  1.00  0.00    -0.270 OA
ATOM      7  H   UNL     1      -0.772  -4.035  -5.127  1.00  0.00     0.163 HD
BRANCH   5   8
ATOM      8  C   UNL     1       0.561  -1.355  -3.677  1.00  0.00     0.067 C 
ATOM      9  C   UNL     1       0.756   2.345  -1.660  1.00  0.00    -0.002 A 
ATOM     10  C   UNL     1       0.367   3.508  -2.368  1.00  0.00     0.054 A 
ATOM     11  C   UNL     1       0.740   1.108  -2.325  1.00  0.00     0.131 A 
ATOM     12  C   UNL     1      -0.018   3.447  -3.706  1.00  0.00     0.130 A 
ATOM     13  C   UNL     1       0.338   1.047  -3.657  1.00  0.00     0.021 A 
ATOM     14  O   UNL     1       1.098  -0.009  -1.629  1.00  0.00    -0.475 OA
ATOM     15  C   UNL     1      -0.031   2.210  -4.343  1.00  0.00     0.058 A 
ATOM     16  C   UNL     1       0.232  -0.234  -4.329  1.00  0.00     0.025 C 
ATOM     17  C   UNL     1       1.254  -1.288  -2.322  1.00  0.00     0.314 C 
BRANCH   9  18
ATOM     18  C   UNL     1       1.250   2.509  -0.236  1.00  0.00     0.039 C 
BRANCH  18  19
ATOM     19  C   UNL     1       0.398   1.883   0.874  1.00  0.00     0.001 C 
ATOM     20  C   UNL     1       0.839   0.485   1.283  1.00  0.00     0.004 C 
ENDBRANCH  18  19
ENDBRANCH   9  18
BRANCH  12  21
ATOM     21  O   UNL     1      -0.402   4.487  -4.501  1.00  0.00    -0.406 OA
BRANCH  21  22
ATOM     22  C   UNL     1      -0.364   5.794  -3.958  1.00  0.00     0.573 C 
ATOM     23  F   UNL     1      -1.216   5.914  -2.918  1.00  0.00    -0.132 F 
ATOM     24  F   UNL     1       0.884   6.120  -3.558  1.00  0.00    -0.132 F 
ATOM     25  F   UNL     1      -0.740   6.672  -4.914  1.00  0.00    -0.132 F 
ENDBRANCH  21  22
ENDBRANCH  12  21
BRANCH  17  26
ATOM     26  C   UNL     1       0.887  -2.405  -1.315  1.00  0.00     0.429 C 
ATOM     27  F   UNL     1       1.438  -3.602  -1.599  1.00  0.00    -0.167 F 
ATOM     28  F   UNL     1       1.344  -2.098  -0.071  1.00  0.00    -0.167 F 
ATOM     29  F   UNL     1      -0.452  -2.574  -1.211  1.00  0.00    -0.167 F 
ENDBRANCH  17  26
ENDBRANCH   5   8
ENDBRANCH   3   4
ENDBRANCH   2   3
ENDBRANCH   1   2
BRANCH   1  30
ATOM     30  C   UNL     1      -2.277  -3.496  -8.652  1.00  0.00     0.116 C 
BRANCH  30  31
ATOM     31  N   UNL     1      -3.075  -2.448  -9.273  1.00  0.00    -0.352 N 
ATOM     32  C   UNL     1      -4.053  -2.594 -10.225  1.00  0.00     0.251 C 
ATOM     33  H   UNL     1      -2.892  -1.528  -8.975  1.00  0.00     0.163 HD
ATOM     34  O   UNL     1      -4.573  -1.611 -10.744  1.00  0.00    -0.269 OA
BRANCH  32  35
ATOM     35  C   UNL     1      -4.427  -3.957 -10.643  1.00  0.00     0.039 A 
ATOM     36  C   UNL     1      -4.353  -4.294 -11.995  1.00  0.00     0.014 A 
ATOM     37  C   UNL     1      -4.772  -4.913  -9.684  1.00  0.00     0.014 A 
ATOM     38  C   UNL     1      -4.566  -5.617 -12.383  1.00  0.00     0.010 A 
ATOM     39  C   UNL     1      -4.919  -6.240 -10.065  1.00  0.00     0.010 A 
ATOM     40  C   UNL     1      -4.817  -6.604 -11.417  1.00  0.00    -0.014 A 
BRANCH  40  41
ATOM     41  C   UNL     1      -4.996  -8.028 -11.788  1.00  0.00     0.031 A 
ATOM     42  C   UNL     1      -6.323  -8.691 -11.551  1.00  0.00     0.074 A 
ATOM     43  C   UNL     1      -3.947  -8.738 -12.247  1.00  0.00     0.049 A 
ATOM     44  N   UNL     1      -6.650  -9.951 -11.668  1.00  0.00    -0.248 NA
ATOM     45  C   UNL     1      -7.419  -7.825 -11.086  1.00  0.00     0.031 C 
ATOM     46  C   UNL     1      -2.600  -8.210 -12.477  1.00  0.00     0.029 A 
ATOM     47  N   UNL     1      -3.845 -10.064 -12.583  1.00  0.00    -0.354 N 
ATOM     48  C   UNL     1      -7.977 -10.035 -11.266  1.00  0.00     0.074 A 
ATOM     49  C   UNL     1      -8.383  -8.706 -10.861  1.00  0.00     0.031 C 
ATOM     50  C   UNL     1      -1.811  -9.200 -12.926  1.00  0.00     0.029 A 
ATOM     51  C   UNL     1      -2.583 -10.438 -12.980  1.00  0.00     0.049 A 
ATOM     52  H   UNL     1      -4.604 -10.689 -12.543  1.00  0.00     0.167 HD
ATOM     53  C   UNL     1      -8.789 -11.118 -11.254  1.00  0.00     0.037 A 
ATOM     54  C   UNL     1      -2.102 -11.645 -13.335  1.00  0.00     0.037 A 
ATOM     55  C   UNL     1      -8.387 -12.427 -11.695  1.00  0.00     0.049 A 
ATOM     56  C   UNL     1      -3.030 -12.829 -13.337  1.00  0.00     0.074 A 
ATOM     57  C   UNL     1      -9.147 -13.580 -11.774  1.00  0.00     0.029 A 
ATOM     58  N   UNL     1      -7.114 -12.754 -12.140  1.00  0.00    -0.354 N 
ATOM     59  N   UNL     1      -4.296 -12.884 -12.995  1.00  0.00    -0.248 NA
ATOM     60  C   UNL     1      -2.469 -14.114 -13.778  1.00  0.00     0.031 C 
ATOM     61  C   UNL     1      -8.326 -14.612 -12.242  1.00  0.00     0.029 A 
ATOM     62  C   UNL     1      -7.065 -14.092 -12.490  1.00  0.00     0.049 A 
ATOM     63  H   UNL     1      -6.357 -12.127 -12.197  1.00  0.00     0.167 HD
ATOM     64  C   UNL     1      -4.691 -14.200 -13.209  1.00  0.00     0.074 A 
ATOM     65  C   UNL     1      -3.531 -14.907 -13.713  1.00  0.00     0.031 C 
ATOM     66  C   UNL     1      -5.904 -14.770 -13.009  1.00  0.00     0.037 A 
BRANCH  53  67
ATOM     67  C   UNL     1     -10.193 -10.926 -10.754  1.00  0.00     0.058 A 
ATOM     68  C   UNL     1     -11.146 -10.210 -11.495  1.00  0.00     0.135 A 
ATOM     69  C   UNL     1     -10.595 -11.475  -9.526  1.00  0.00     0.135 A 
ATOM     70  F   UNL     1     -10.809  -9.648 -12.667  1.00  0.00    -0.206 F 
ATOM     71  C   UNL     1     -12.439 -10.016 -11.022  1.00  0.00     0.059 A 
ATOM     72  C   UNL     1     -11.892 -11.316  -9.045  1.00  0.00     0.059 A 
ATOM     73  F   UNL     1      -9.723 -12.166  -8.776  1.00  0.00    -0.206 F 
ATOM     74  C   UNL     1     -12.802 -10.570  -9.793  1.00  0.00     0.060 A 
BRANCH  74  75
ATOM     75  S   UNL     1     -14.482 -10.306  -9.189  1.00  0.00     0.124 S 
ATOM     76  O   UNL     1     -14.413  -8.918  -8.740  1.00  0.00    -0.237 OA
ATOM     77  O   UNL     1     -15.287 -10.546 -10.382  1.00  0.00    -0.237 OA
ATOM     78  O   UNL     1     -14.622 -11.302  -8.131  1.00  0.00    -0.744 OA
ENDBRANCH  74  75
ENDBRANCH  53  67
BRANCH  54  79
ATOM     79  C   UNL     1      -0.680 -11.788 -13.742  1.00  0.00     0.058 A 
ATOM     80  C   UNL     1      -0.337 -12.004 -15.085  1.00  0.00     0.135 A 
ATOM     81  C   UNL     1       0.362 -11.694 -12.807  1.00  0.00     0.135 A 
ATOM     82  F   UNL     1      -1.299 -12.105 -16.014  1.00  0.00    -0.206 F 
ATOM     83  C   UNL     1       0.988 -12.139 -15.486  1.00  0.00     0.059 A 
ATOM     84  C   UNL     1       1.696 -11.804 -13.187  1.00  0.00     0.059 A 
ATOM     85  F   UNL     1       0.086 -11.469 -11.513  1.00  0.00    -0.206 F 
ATOM     86  C   UNL     1       1.999 -12.037 -14.528  1.00  0.00     0.060 A 
BRANCH  86  87
ATOM     87  S   UNL     1       3.718 -12.163 -15.066  1.00  0.00     0.124 S 
ATOM     88  O   UNL     1       3.848 -13.596 -15.299  1.00  0.00    -0.237 OA
ATOM     89  O   UNL     1       3.731 -11.318 -16.257  1.00  0.00    -0.237 OA
ATOM     90  O   UNL     1       4.464 -11.636 -13.927  1.00  0.00    -0.744 OA
ENDBRANCH  86  87
ENDBRANCH  54  79
BRANCH  66  91
ATOM     91  C   UNL     1      -6.057 -16.218 -13.379  1.00  0.00     0.058 A 
ATOM     92  C   UNL     1      -5.533 -17.243 -12.578  1.00  0.00     0.135 A 
ATOM     93  C   UNL     1      -6.798 -16.582 -14.514  1.00  0.00     0.135 A 
ATOM     94  F   UNL     1      -4.812 -16.945 -11.485  1.00  0.00    -0.206 F 
ATOM     95  C   UNL     1      -5.727 -18.582 -12.898  1.00  0.00     0.059 A 
ATOM     96  C   UNL     1      -7.024 -17.914 -14.841  1.00  0.00     0.059 A 
ATOM     97  F   UNL     1      -7.328 -15.636 -15.307  1.00  0.00    -0.206 F 
ATOM     98  C   UNL     1      -6.476 -18.908 -14.031  1.00  0.00     0.060 A 
BRANCH  98  99
ATOM     99  S   UNL     1      -6.763 -20.650 -14.410  1.00  0.00     0.124 S 
ATOM    100  O   UNL     1      -5.473 -21.046 -14.963  1.00  0.00    -0.237 OA
ATOM    101  O   UNL     1      -7.090 -21.207 -13.101  1.00  0.00    -0.237 OA
ATOM    102  O   UNL     1      -7.870 -20.611 -15.361  1.00  0.00    -0.744 OA
ENDBRANCH  98  99
ENDBRANCH  66  91
ENDBRANCH  40  41
ENDBRANCH  32  35
ENDBRANCH  30  31
ENDBRANCH   1  30
TORSDOF 19
