REMARK SMILES CCN1C[C@@H](C(=O)NCCCCNC(=O)c2ccc(-c3c4nc(c(-c5c(F)cc(S(=O)(=O)[O-])cc5F)c5ccc([nH]5)c(-c5c(F)cc(S(=O)(=O)[O-])cc5F)c5nc(c(-c6c(F)cc(S(=O)(=O)[O-])cc6F)c6ccc3[nH]6)C=C5)C=C4)cc2)CC1=O
REMARK SMILES IDX 11 1 10 2 9 3 8 4 6 5 7 6 5 8 3 9 4 10 83 11 82 12 84 13
REMARK SMILES IDX 2 14 1 15 12 16 13 17 14 18 15 20 16 21 17 22 81 23 18 24
REMARK SMILES IDX 80 25 19 26 20 27 21 28 74 29 22 30 79 31 73 32 75 33 23 34
REMARK SMILES IDX 78 35 72 36 71 37 24 39 58 40 37 41 57 42 38 43 41 44 56 45
REMARK SMILES IDX 76 46 39 47 40 48 55 50 77 51 42 52 25 53 26 54 35 55 27 56
REMARK SMILES IDX 28 57 34 58 36 59 29 60 30 61 31 62 32 63 33 64 59 65 60 66
REMARK SMILES IDX 69 67 61 68 62 69 68 70 70 71 63 72 64 73 65 74 66 75 67 76
REMARK SMILES IDX 43 77 44 78 53 79 45 80 46 81 52 82 54 83 47 84 48 85 49 86
REMARK SMILES IDX 50 87 51 88
REMARK H PARENT 8 7 13 19 75 38 41 49
REMARK Flexibility Score: inf
ROOT
ATOM      1  C   UNL     1       2.723   6.350   5.277  1.00  0.00     0.023 C 
ENDROOT
BRANCH   1   2
ATOM      2  C   UNL     1       2.777   5.134   4.351  1.00  0.00     0.023 C 
BRANCH   2   3
ATOM      3  C   UNL     1       1.430   4.702   3.775  1.00  0.00     0.116 C 
BRANCH   3   4
ATOM      4  N   UNL     1       0.868   5.707   2.889  1.00  0.00    -0.356 N 
ATOM      5  C   UNL     1       0.610   5.689   1.556  1.00  0.00     0.225 C 
ATOM      6  O   UNL     1       0.108   6.701   1.060  1.00  0.00    -0.275 OA
ATOM      7  H   UNL     1       0.632   6.552   3.335  1.00  0.00     0.163 HD
BRANCH   5   8
ATOM      8  C   UNL     1       0.885   4.483   0.681  1.00  0.00     0.107 C 
ATOM      9  N   UNL     1       0.936   2.154   0.957  1.00  0.00    -0.342 N 
ATOM     10  C   UNL     1       0.043   3.280   1.064  1.00  0.00     0.133 C 
ATOM     11  C   UNL     1       2.260   2.523   0.814  1.00  0.00     0.223 C 
ATOM     12  C   UNL     1       2.337   4.018   0.667  1.00  0.00     0.115 C 
ATOM     13  O   UNL     1       3.227   1.776   0.816  1.00  0.00    -0.275 OA
BRANCH   9  14
ATOM     14  C   UNL     1       0.486   0.793   1.190  1.00  0.00     0.116 C 
ATOM     15  C   UNL     1       0.788  -0.130   0.020  1.00  0.00     0.027 C 
ENDBRANCH   9  14
ENDBRANCH   5   8
ENDBRANCH   3   4
ENDBRANCH   2   3
ENDBRANCH   1   2
BRANCH   1  16
ATOM     16  C   UNL     1       1.754   6.239   6.449  1.00  0.00     0.116 C 
BRANCH  16  17
ATOM     17  N   UNL     1       2.014   5.085   7.294  1.00  0.00    -0.352 N 
ATOM     18  C   UNL     1       2.062   5.001   8.665  1.00  0.00     0.251 C 
ATOM     19  H   UNL     1       2.181   4.241   6.815  1.00  0.00     0.163 HD
ATOM     20  O   UNL     1       2.434   3.957   9.194  1.00  0.00    -0.269 OA
BRANCH  18  21
ATOM     21  C   UNL     1       1.699   6.170   9.496  1.00  0.00     0.039 A 
ATOM     22  C   UNL     1       2.500   6.483  10.596  1.00  0.00     0.014 A 
ATOM     23  C   UNL     1       0.582   6.957   9.198  1.00  0.00     0.014 A 
ATOM     24  C   UNL     1       2.215   7.618  11.358  1.00  0.00     0.010 A 
ATOM     25  C   UNL     1       0.352   8.134   9.906  1.00  0.00     0.010 A 
ATOM     26  C   UNL     1       1.162   8.476  10.999  1.00  0.00    -0.014 A 
BRANCH  26  27
ATOM     27  C   UNL     1       0.921   9.735  11.753  1.00  0.00     0.031 A 
ATOM     28  C   UNL     1      -0.370   9.953  12.496  1.00  0.00     0.074 A 
ATOM     29  C   UNL     1       1.864  10.699  11.743  1.00  0.00     0.049 A 
ATOM     30  N   UNL     1      -0.735  10.972  13.232  1.00  0.00    -0.248 NA
ATOM     31  C   UNL     1      -1.397   8.906  12.377  1.00  0.00     0.031 C 
ATOM     32  C   UNL     1       3.127  10.637  11.002  1.00  0.00     0.029 A 
ATOM     33  N   UNL     1       1.914  11.915  12.377  1.00  0.00    -0.354 N 
ATOM     34  C   UNL     1      -2.028  10.691  13.660  1.00  0.00     0.074 A 
ATOM     35  C   UNL     1      -2.409   9.437  13.048  1.00  0.00     0.031 C 
ATOM     36  C   UNL     1       3.843  11.743  11.258  1.00  0.00     0.029 A 
ATOM     37  C   UNL     1       3.080  12.609  12.150  1.00  0.00     0.049 A 
ATOM     38  H   UNL     1       1.184  12.259  12.941  1.00  0.00     0.167 HD
ATOM     39  C   UNL     1      -2.814  11.398  14.507  1.00  0.00     0.037 A 
ATOM     40  C   UNL     1       3.493  13.805  12.613  1.00  0.00     0.037 A 
ATOM     41  C   UNL     1      -2.421  12.640  15.123  1.00  0.00     0.049 A 
ATOM     42  C   UNL     1       2.610  14.563  13.566  1.00  0.00     0.074 A 
ATOM     43  C   UNL     1      -3.122  13.406  16.038  1.00  0.00     0.029 A 
ATOM     44  N   UNL     1      -1.225  13.302  14.884  1.00  0.00    -0.354 N 
ATOM     45  N   UNL     1       1.422  14.243  14.023  1.00  0.00    -0.248 NA
ATOM     46  C   UNL     1       3.129  15.837  14.081  1.00  0.00     0.031 C 
ATOM     47  C   UNL     1      -2.374  14.557  16.311  1.00  0.00     0.029 A 
ATOM     48  C   UNL     1      -1.178  14.477  15.617  1.00  0.00     0.049 A 
ATOM     49  H   UNL     1      -0.515  12.983  14.281  1.00  0.00     0.167 HD
ATOM     50  C   UNL     1       1.066  15.258  14.904  1.00  0.00     0.074 A 
ATOM     51  C   UNL     1       2.172  16.195  14.926  1.00  0.00     0.031 C 
ATOM     52  C   UNL     1      -0.070  15.400  15.633  1.00  0.00     0.037 A 
BRANCH  39  53
ATOM     53  C   UNL     1      -4.180  10.844  14.822  1.00  0.00     0.058 A 
ATOM     54  C   UNL     1      -4.348   9.671  15.575  1.00  0.00     0.135 A 
ATOM     55  C   UNL     1      -5.339  11.517  14.399  1.00  0.00     0.135 A 
ATOM     56  F   UNL     1      -3.277   8.977  15.994  1.00  0.00    -0.206 F 
ATOM     57  C   UNL     1      -5.610   9.167  15.871  1.00  0.00     0.059 A 
ATOM     58  C   UNL     1      -6.613  11.049  14.712  1.00  0.00     0.059 A 
ATOM     59  F   UNL     1      -5.241  12.644  13.677  1.00  0.00    -0.206 F 
ATOM     60  C   UNL     1      -6.738   9.865  15.436  1.00  0.00     0.060 A 
BRANCH  60  61
ATOM     61  S   UNL     1      -8.368   9.201  15.835  1.00  0.00     0.124 S 
ATOM     62  O   UNL     1      -8.428   8.032  14.962  1.00  0.00    -0.237 OA
ATOM     63  O   UNL     1      -8.249   8.920  17.262  1.00  0.00    -0.237 OA
ATOM     64  O   UNL     1      -9.275  10.290  15.486  1.00  0.00    -0.744 OA
ENDBRANCH  60  61
ENDBRANCH  39  53
BRANCH  40  65
ATOM     65  C   UNL     1       4.823  14.338  12.211  1.00  0.00     0.058 A 
ATOM     66  C   UNL     1       5.877  14.433  13.132  1.00  0.00     0.135 A 
ATOM     67  C   UNL     1       5.072  14.747  10.891  1.00  0.00     0.135 A 
ATOM     68  F   UNL     1       5.689  14.059  14.407  1.00  0.00    -0.206 F 
ATOM     69  C   UNL     1       7.123  14.933  12.768  1.00  0.00     0.059 A 
ATOM     70  C   UNL     1       6.319  15.222  10.495  1.00  0.00     0.059 A 
ATOM     71  F   UNL     1       4.105  14.658   9.965  1.00  0.00    -0.206 F 
ATOM     72  C   UNL     1       7.335  15.321  11.444  1.00  0.00     0.060 A 
BRANCH  72  73
ATOM     73  S   UNL     1       8.970  15.922  10.969  1.00  0.00     0.124 S 
ATOM     74  O   UNL     1       9.002  17.230  11.612  1.00  0.00    -0.237 OA
ATOM     75  O   UNL     1       9.848  14.906  11.542  1.00  0.00    -0.237 OA
ATOM     76  O   UNL     1       8.912  15.937   9.510  1.00  0.00    -0.744 OA
ENDBRANCH  72  73
ENDBRANCH  40  65
BRANCH  52  77
ATOM     77  C   UNL     1      -0.154  16.588  16.554  1.00  0.00     0.058 A 
ATOM     78  C   UNL     1      -0.276  17.900  16.071  1.00  0.00     0.135 A 
ATOM     79  C   UNL     1      -0.135  16.404  17.947  1.00  0.00     0.135 A 
ATOM     80  F   UNL     1      -0.298  18.135  14.749  1.00  0.00    -0.206 F 
ATOM     81  C   UNL     1      -0.331  18.991  16.934  1.00  0.00     0.059 A 
ATOM     82  C   UNL     1      -0.223  17.476  18.828  1.00  0.00     0.059 A 
ATOM     83  F   UNL     1      -0.035  15.169  18.465  1.00  0.00    -0.206 F 
ATOM     84  C   UNL     1      -0.300  18.768  18.312  1.00  0.00     0.060 A 
BRANCH  84  85
ATOM     85  S   UNL     1      -0.370  20.190  19.421  1.00  0.00     0.124 S 
ATOM     86  O   UNL     1       0.965  20.755  19.260  1.00  0.00    -0.237 OA
ATOM     87  O   UNL     1      -1.463  20.974  18.855  1.00  0.00    -0.237 OA
ATOM     88  O   UNL     1      -0.646  19.592  20.724  1.00  0.00    -0.744 OA
ENDBRANCH  84  85
ENDBRANCH  52  77
ENDBRANCH  26  27
ENDBRANCH  18  21
ENDBRANCH  16  17
ENDBRANCH   1  16
TORSDOF 15
