REMARK SMILES Cn1c(=O)c(=O)n(C)c2cc(S(=O)(=O)N3CCC[C@H]3C(=O)NCCCCNC(=O)c3ccc(-c4c5nc(c(-c6c(F)cc(S(=O)(=O)[O-])cc6F)c6ccc([nH]6)c(-c6c(F)cc(S(=O)(=O)[O-])cc6F)c6nc(c(-c7c(F)cc(S(=O)(=O)[O-])cc7F)c7ccc4[nH]7)C=C6)C=C5)cc3)ccc21
REMARK SMILES IDX 25 1 24 2 23 3 22 4 20 5 21 6 19 8 15 9 16 10 17 11 18 12
REMARK SMILES IDX 12 13 13 14 14 15 11 16 1 17 2 18 3 19 98 20 4 21 5 22 9 23
REMARK SMILES IDX 97 24 6 25 7 26 10 27 96 28 8 29 26 30 27 31 28 32 29 34
REMARK SMILES IDX 30 35 31 36 95 37 32 38 94 39 33 40 34 41 35 42 88 43 36 44
REMARK SMILES IDX 93 45 87 46 89 47 37 48 92 49 86 50 85 51 38 53 72 54 51 55
REMARK SMILES IDX 71 56 52 57 55 58 70 59 90 60 53 61 54 62 69 64 91 65 56 66
REMARK SMILES IDX 39 67 40 68 49 69 41 70 42 71 48 72 50 73 43 74 44 75 45 76
REMARK SMILES IDX 46 77 47 78 73 79 74 80 83 81 75 82 76 83 82 84 84 85 77 86
REMARK SMILES IDX 78 87 79 88 80 89 81 90 57 91 58 92 67 93 59 94 60 95 66 96
REMARK SMILES IDX 68 97 61 98 62 99 63 100 64 101 65 102
REMARK H PARENT 22 7 27 33 89 52 55 63
REMARK Flexibility Score: inf
ROOT
ATOM      1  C   UNL     1      -7.561   4.349  -3.399  1.00  0.00     0.023 C 
ENDROOT
BRANCH   1   2
ATOM      2  C   UNL     1      -6.279   3.538  -3.260  1.00  0.00     0.023 C 
BRANCH   2   3
ATOM      3  C   UNL     1      -5.167   3.860  -4.250  1.00  0.00     0.116 C 
BRANCH   3   4
ATOM      4  N   UNL     1      -4.767   5.253  -4.271  1.00  0.00    -0.355 N 
ATOM      5  C   UNL     1      -3.511   5.787  -4.191  1.00  0.00     0.238 C 
ATOM      6  O   UNL     1      -3.374   6.974  -4.499  1.00  0.00    -0.273 OA
ATOM      7  H   UNL     1      -5.500   5.905  -4.355  1.00  0.00     0.163 HD
BRANCH   5   8
ATOM      8  C   UNL     1      -2.334   4.935  -3.696  1.00  0.00     0.162 C 
ATOM      9  N   UNL     1      -1.492   4.454  -4.819  1.00  0.00    -0.185 NA
ATOM     10  C   UNL     1      -0.283   5.280  -4.925  1.00  0.00     0.103 C 
ATOM     11  C   UNL     1      -0.004   5.722  -3.506  1.00  0.00     0.019 C 
ATOM     12  C   UNL     1      -1.376   5.812  -2.850  1.00  0.00     0.032 C 
BRANCH   9  13
ATOM     13  S   UNL     1      -1.514   2.888  -5.403  1.00  0.00     0.243 S 
ATOM     14  O   UNL     1      -0.561   2.801  -6.486  1.00  0.00    -0.207 OA
ATOM     15  O   UNL     1      -2.890   2.482  -5.596  1.00  0.00    -0.207 OA
BRANCH  13  16
ATOM     16  C   UNL     1      -0.887   1.806  -4.126  1.00  0.00     0.084 A 
ATOM     17  C   UNL     1       0.921  -0.481   0.096  1.00  0.00     0.154 C 
ATOM     18  N   UNL     1       0.557  -0.941  -1.236  1.00  0.00    -0.305 N 
ATOM     19  C   UNL     1       0.771  -2.285  -1.533  1.00  0.00     0.316 A 
ATOM     20  C   UNL     1       0.065  -0.033  -2.211  1.00  0.00     0.068 A 
ATOM     21  O   UNL     1       1.277  -3.080  -0.744  1.00  0.00    -0.263 OA
ATOM     22  C   UNL     1       0.355  -2.789  -2.920  1.00  0.00     0.316 A 
ATOM     23  C   UNL     1      -0.275  -0.481  -3.501  1.00  0.00     0.069 A 
ATOM     24  C   UNL     1      -0.086   1.328  -1.905  1.00  0.00     0.030 A 
ATOM     25  O   UNL     1       0.480  -3.986  -3.168  1.00  0.00    -0.263 OA
ATOM     26  N   UNL     1      -0.140  -1.858  -3.832  1.00  0.00    -0.305 N 
ATOM     27  C   UNL     1      -0.748   0.449  -4.448  1.00  0.00     0.050 A 
ATOM     28  C   UNL     1      -0.561   2.236  -2.851  1.00  0.00     0.024 A 
ATOM     29  C   UNL     1      -0.531  -2.340  -5.148  1.00  0.00     0.154 C 
ENDBRANCH  13  16
ENDBRANCH   9  13
ENDBRANCH   5   8
ENDBRANCH   3   4
ENDBRANCH   2   3
ENDBRANCH   1   2
BRANCH   1  30
ATOM     30  C   UNL     1      -8.158   4.422  -4.798  1.00  0.00     0.116 C 
BRANCH  30  31
ATOM     31  N   UNL     1      -8.575   3.134  -5.335  1.00  0.00    -0.352 N 
ATOM     32  C   UNL     1      -9.778   2.782  -5.911  1.00  0.00     0.251 C 
ATOM     33  H   UNL     1      -7.905   2.415  -5.280  1.00  0.00     0.163 HD
ATOM     34  O   UNL     1      -9.988   1.621  -6.246  1.00  0.00    -0.269 OA
BRANCH  32  35
ATOM     35  C   UNL     1     -10.837   3.806  -6.069  1.00  0.00     0.039 A 
ATOM     36  C   UNL     1     -10.536   5.064  -6.593  1.00  0.00     0.014 A 
ATOM     37  C   UNL     1     -12.126   3.531  -5.604  1.00  0.00     0.014 A 
ATOM     38  C   UNL     1     -11.449   6.103  -6.446  1.00  0.00     0.010 A 
ATOM     39  C   UNL     1     -13.075   4.557  -5.546  1.00  0.00     0.010 A 
ATOM     40  C   UNL     1     -12.720   5.870  -5.896  1.00  0.00    -0.014 A 
BRANCH  40  41
ATOM     41  C   UNL     1     -13.629   7.022  -5.640  1.00  0.00     0.031 A 
ATOM     42  C   UNL     1     -14.029   7.385  -4.229  1.00  0.00     0.074 A 
ATOM     43  C   UNL     1     -14.025   7.799  -6.668  1.00  0.00     0.049 A 
ATOM     44  N   UNL     1     -14.789   8.368  -3.815  1.00  0.00    -0.248 NA
ATOM     45  C   UNL     1     -13.513   6.537  -3.141  1.00  0.00     0.031 C 
ATOM     46  C   UNL     1     -13.689   7.570  -8.076  1.00  0.00     0.029 A 
ATOM     47  N   UNL     1     -14.766   8.954  -6.689  1.00  0.00    -0.354 N 
ATOM     48  C   UNL     1     -14.855   8.248  -2.430  1.00  0.00     0.074 A 
ATOM     49  C   UNL     1     -14.084   7.078  -2.073  1.00  0.00     0.031 C 
ATOM     50  C   UNL     1     -14.171   8.582  -8.813  1.00  0.00     0.029 A 
ATOM     51  C   UNL     1     -14.902   9.498  -7.945  1.00  0.00     0.049 A 
ATOM     52  H   UNL     1     -15.162   9.355  -5.882  1.00  0.00     0.167 HD
ATOM     53  C   UNL     1     -15.482   9.049  -1.536  1.00  0.00     0.037 A 
ATOM     54  C   UNL     1     -15.554  10.603  -8.357  1.00  0.00     0.037 A 
ATOM     55  C   UNL     1     -16.217  10.237  -1.887  1.00  0.00     0.049 A 
ATOM     56  C   UNL     1     -16.285  11.444  -7.349  1.00  0.00     0.074 A 
ATOM     57  C   UNL     1     -16.867  11.124  -1.046  1.00  0.00     0.029 A 
ATOM     58  N   UNL     1     -16.391  10.710  -3.178  1.00  0.00    -0.354 N 
ATOM     59  N   UNL     1     -16.339  11.306  -6.046  1.00  0.00    -0.248 NA
ATOM     60  C   UNL     1     -17.059  12.581  -7.868  1.00  0.00     0.031 C 
ATOM     61  C   UNL     1     -17.464  12.115  -1.831  1.00  0.00     0.029 A 
ATOM     62  C   UNL     1     -17.155  11.865  -3.158  1.00  0.00     0.049 A 
ATOM     63  H   UNL     1     -16.026  10.288  -3.989  1.00  0.00     0.167 HD
ATOM     64  C   UNL     1     -17.150  12.339  -5.590  1.00  0.00     0.074 A 
ATOM     65  C   UNL     1     -17.543  13.109  -6.752  1.00  0.00     0.031 C 
ATOM     66  C   UNL     1     -17.541  12.619  -4.323  1.00  0.00     0.037 A 
BRANCH  53  67
ATOM     67  C   UNL     1     -15.401   8.685  -0.079  1.00  0.00     0.058 A 
ATOM     68  C   UNL     1     -14.231   8.900   0.665  1.00  0.00     0.135 A 
ATOM     69  C   UNL     1     -16.530   8.198   0.600  1.00  0.00     0.135 A 
ATOM     70  F   UNL     1     -13.119   9.348   0.063  1.00  0.00    -0.206 F 
ATOM     71  C   UNL     1     -14.182   8.641   2.031  1.00  0.00     0.059 A 
ATOM     72  C   UNL     1     -16.510   7.951   1.970  1.00  0.00     0.059 A 
ATOM     73  F   UNL     1     -17.674   7.974  -0.067  1.00  0.00    -0.206 F 
ATOM     74  C   UNL     1     -15.328   8.172   2.676  1.00  0.00     0.060 A 
BRANCH  74  75
ATOM     75  S   UNL     1     -15.252   7.874   4.455  1.00  0.00     0.124 S 
ATOM     76  O   UNL     1     -14.397   6.692   4.517  1.00  0.00    -0.237 OA
ATOM     77  O   UNL     1     -14.657   9.111   4.952  1.00  0.00    -0.237 OA
ATOM     78  O   UNL     1     -16.647   7.659   4.826  1.00  0.00    -0.744 OA
ENDBRANCH  74  75
ENDBRANCH  53  67
BRANCH  54  79
ATOM     79  C   UNL     1     -15.560  10.969  -9.797  1.00  0.00     0.058 A 
ATOM     80  C   UNL     1     -14.876  12.104 -10.256  1.00  0.00     0.135 A 
ATOM     81  C   UNL     1     -16.248  10.192 -10.742  1.00  0.00     0.135 A 
ATOM     82  F   UNL     1     -14.210  12.882  -9.390  1.00  0.00    -0.206 F 
ATOM     83  C   UNL     1     -14.885  12.464 -11.600  1.00  0.00     0.059 A 
ATOM     84  C   UNL     1     -16.250  10.517 -12.094  1.00  0.00     0.059 A 
ATOM     85  F   UNL     1     -16.908   9.089 -10.354  1.00  0.00    -0.206 F 
ATOM     86  C   UNL     1     -15.575  11.663 -12.511  1.00  0.00     0.060 A 
BRANCH  86  87
ATOM     87  S   UNL     1     -15.552  12.118 -14.258  1.00  0.00     0.124 S 
ATOM     88  O   UNL     1     -16.455  13.264 -14.273  1.00  0.00    -0.237 OA
ATOM     89  O   UNL     1     -14.140  12.414 -14.479  1.00  0.00    -0.237 OA
ATOM     90  O   UNL     1     -16.044  10.916 -14.924  1.00  0.00    -0.744 OA
ENDBRANCH  86  87
ENDBRANCH  54  79
BRANCH  66  91
ATOM     91  C   UNL     1     -18.443  13.802  -4.121  1.00  0.00     0.058 A 
ATOM     92  C   UNL     1     -19.805  13.742  -4.454  1.00  0.00     0.135 A 
ATOM     93  C   UNL     1     -17.961  14.978  -3.525  1.00  0.00     0.135 A 
ATOM     94  F   UNL     1     -20.311  12.643  -5.034  1.00  0.00    -0.206 F 
ATOM     95  C   UNL     1     -20.658  14.813  -4.210  1.00  0.00     0.059 A 
ATOM     96  C   UNL     1     -18.801  16.052  -3.251  1.00  0.00     0.059 A 
ATOM     97  F   UNL     1     -16.667  15.081  -3.181  1.00  0.00    -0.206 F 
ATOM     98  C   UNL     1     -20.148  15.962  -3.602  1.00  0.00     0.060 A 
BRANCH  98  99
ATOM     99  S   UNL     1     -21.280  17.321  -3.242  1.00  0.00     0.124 S 
ATOM    100  O   UNL     1     -21.526  17.860  -4.576  1.00  0.00    -0.237 OA
ATOM    101  O   UNL     1     -22.406  16.632  -2.619  1.00  0.00    -0.237 OA
ATOM    102  O   UNL     1     -20.508  18.180  -2.350  1.00  0.00    -0.744 OA
ENDBRANCH  98  99
ENDBRANCH  66  91
ENDBRANCH  40  41
ENDBRANCH  32  35
ENDBRANCH  30  31
ENDBRANCH   1  30
TORSDOF 16
