REMARK SMILES C[C@@H](O)[C@@H](NC(=O)CCOc1ccc(Br)cc1)C(=O)NCCCCNC(=O)c1ccc(-c2c3nc(c(-c4c(F)cc(S(=O)(=O)[O-])cc4F)c4ccc([nH]4)c(-c4c(F)cc(S(=O)(=O)[O-])cc4F)c4nc(c(-c5c(F)cc(S(=O)(=O)[O-])cc5F)c5ccc2[nH]5)C=C4)C=C3)cc1
REMARK SMILES IDX 21 1 20 2 18 3 19 4 4 6 2 7 1 8 3 9 5 11 6 12 7 14 8 15 9 16
REMARK SMILES IDX 10 17 11 18 12 19 17 20 13 21 16 22 14 23 15 24 22 25 23 26
REMARK SMILES IDX 24 27 25 28 26 29 27 31 28 32 29 33 93 34 30 35 92 36 31 37
REMARK SMILES IDX 32 38 33 39 86 40 34 41 91 42 85 43 87 44 35 45 90 46 84 47
REMARK SMILES IDX 83 48 36 50 70 51 49 52 69 53 50 54 53 55 68 56 88 57 51 58
REMARK SMILES IDX 52 59 67 61 89 62 54 63 37 64 38 65 47 66 39 67 40 68 46 69
REMARK SMILES IDX 48 70 41 71 42 72 43 73 44 74 45 75 71 76 72 77 81 78 73 79
REMARK SMILES IDX 74 80 80 81 82 82 75 83 76 84 77 85 78 86 79 87 55 88 56 89
REMARK SMILES IDX 65 90 57 91 58 92 64 93 66 94 59 95 60 96 61 97 62 98 63 99
REMARK H PARENT 20 5 3 10 5 13 25 30 87 49 53 60
REMARK Flexibility Score: inf
ROOT
ATOM      1  C   UNL     1       0.451  -3.891  -1.761  1.00  0.00     0.116 C 
ENDROOT
BRANCH   1   2
ATOM      2  N   UNL     1      -0.512  -4.433  -0.826  1.00  0.00    -0.354 N 
ATOM      3  C   UNL     1      -1.377  -3.807   0.026  1.00  0.00     0.245 C 
ATOM      4  O   UNL     1      -2.381  -4.462   0.343  1.00  0.00    -0.273 OA
ATOM      5  H   UNL     1      -0.549  -5.417  -0.799  1.00  0.00     0.163 HD
BRANCH   3   6
ATOM      6  C   UNL     1      -1.247  -2.333   0.506  1.00  0.00     0.199 C 
BRANCH   6   7
ATOM      7  C   UNL     1       0.168  -1.793   0.832  1.00  0.00     0.143 C 
ATOM      8  C   UNL     1       0.168  -0.400   1.462  1.00  0.00     0.041 C 
BRANCH   7   9
ATOM      9  O   UNL     1       0.798  -2.681   1.767  1.00  0.00    -0.391 OA
ATOM     10  H   UNL     1       0.288  -2.697   2.591  1.00  0.00     0.211 HD
ENDBRANCH   7   9
ENDBRANCH   6   7
BRANCH   6  11
ATOM     11  N   UNL     1      -2.209  -1.334  -0.010  1.00  0.00    -0.342 N 
ATOM     12  C   UNL     1      -2.749  -1.043  -1.216  1.00  0.00     0.224 C 
ATOM     13  H   UNL     1      -2.537  -0.733   0.698  1.00  0.00     0.164 HD
ATOM     14  O   UNL     1      -3.369   0.020  -1.318  1.00  0.00    -0.275 OA
BRANCH  12  15
ATOM     15  C   UNL     1      -2.687  -1.993  -2.378  1.00  0.00     0.141 C 
BRANCH  15  16
ATOM     16  C   UNL     1      -1.926  -1.416  -3.565  1.00  0.00     0.239 C 
BRANCH  16  17
ATOM     17  O   UNL     1      -0.520  -1.321  -3.318  1.00  0.00    -0.493 OA
BRANCH  17  18
ATOM     18  C   UNL     1       0.002  -0.173  -2.800  1.00  0.00     0.119 A 
ATOM     19  C   UNL     1      -0.671   1.034  -2.620  1.00  0.00     0.047 A 
ATOM     20  C   UNL     1       1.343  -0.266  -2.412  1.00  0.00     0.047 A 
ATOM     21  C   UNL     1      -0.028   2.118  -2.017  1.00  0.00     0.019 A 
ATOM     22  C   UNL     1       1.989   0.810  -1.802  1.00  0.00     0.019 A 
ATOM     23  C   UNL     1       1.295   1.999  -1.601  1.00  0.00     0.018 A 
ATOM     24  Br  UNL     1       2.147   3.455  -0.752  1.00  0.00    -0.051 Br
ENDBRANCH  17  18
ENDBRANCH  16  17
ENDBRANCH  15  16
ENDBRANCH  12  15
ENDBRANCH   6  11
ENDBRANCH   3   6
ENDBRANCH   1   2
BRANCH   1  25
ATOM     25  C   UNL     1       1.528  -4.867  -2.224  1.00  0.00     0.023 C 
BRANCH  25  26
ATOM     26  C   UNL     1       1.032  -6.043  -3.061  1.00  0.00     0.023 C 
BRANCH  26  27
ATOM     27  C   UNL     1       0.137  -5.691  -4.247  1.00  0.00     0.116 C 
BRANCH  27  28
ATOM     28  N   UNL     1       0.812  -4.931  -5.291  1.00  0.00    -0.352 N 
ATOM     29  C   UNL     1       1.026  -5.268  -6.612  1.00  0.00     0.251 C 
ATOM     30  H   UNL     1       1.164  -4.054  -5.015  1.00  0.00     0.163 HD
ATOM     31  O   UNL     1       1.700  -4.547  -7.335  1.00  0.00    -0.269 OA
BRANCH  29  32
ATOM     32  C   UNL     1       0.469  -6.537  -7.134  1.00  0.00     0.039 A 
ATOM     33  C   UNL     1       1.323  -7.445  -7.764  1.00  0.00     0.014 A 
ATOM     34  C   UNL     1      -0.875  -6.857  -6.931  1.00  0.00     0.014 A 
ATOM     35  C   UNL     1       0.853  -8.721  -8.088  1.00  0.00     0.010 A 
ATOM     36  C   UNL     1      -1.316  -8.154  -7.176  1.00  0.00     0.010 A 
ATOM     37  C   UNL     1      -0.453  -9.107  -7.741  1.00  0.00    -0.014 A 
BRANCH  37  38
ATOM     38  C   UNL     1      -0.930 -10.503  -7.932  1.00  0.00     0.031 A 
ATOM     39  C   UNL     1      -2.101 -10.784  -8.835  1.00  0.00     0.074 A 
ATOM     40  C   UNL     1      -0.366 -11.507  -7.228  1.00  0.00     0.049 A 
ATOM     41  N   UNL     1      -2.728 -11.912  -9.047  1.00  0.00    -0.248 NA
ATOM     42  C   UNL     1      -2.658  -9.640  -9.573  1.00  0.00     0.031 C 
ATOM     43  C   UNL     1       0.739 -11.362  -6.277  1.00  0.00     0.029 A 
ATOM     44  N   UNL     1      -0.654 -12.850  -7.192  1.00  0.00    -0.354 N 
ATOM     45  C   UNL     1      -3.761 -11.612  -9.928  1.00  0.00     0.074 A 
ATOM     46  C   UNL     1      -3.710 -10.186 -10.167  1.00  0.00     0.031 C 
ATOM     47  C   UNL     1       1.049 -12.567  -5.772  1.00  0.00     0.029 A 
ATOM     48  C   UNL     1       0.143 -13.566  -6.329  1.00  0.00     0.049 A 
ATOM     49  H   UNL     1      -1.365 -13.262  -7.734  1.00  0.00     0.167 HD
ATOM     50  C   UNL     1      -4.654 -12.450 -10.505  1.00  0.00     0.037 A 
ATOM     51  C   UNL     1       0.140 -14.877  -6.014  1.00  0.00     0.037 A 
ATOM     52  C   UNL     1      -4.683 -13.873 -10.292  1.00  0.00     0.049 A 
ATOM     53  C   UNL     1      -0.859 -15.789  -6.676  1.00  0.00     0.074 A 
ATOM     54  C   UNL     1      -5.518 -14.813 -10.871  1.00  0.00     0.029 A 
ATOM     55  N   UNL     1      -3.836 -14.563  -9.438  1.00  0.00    -0.354 N 
ATOM     56  N   UNL     1      -1.793 -15.493  -7.548  1.00  0.00    -0.248 NA
ATOM     57  C   UNL     1      -0.800 -17.213  -6.317  1.00  0.00     0.031 C 
ATOM     58  C   UNL     1      -5.196 -16.068 -10.344  1.00  0.00     0.029 A 
ATOM     59  C   UNL     1      -4.133 -15.915  -9.468  1.00  0.00     0.049 A 
ATOM     60  H   UNL     1      -3.127 -14.152  -8.892  1.00  0.00     0.167 HD
ATOM     61  C   UNL     1      -2.412 -16.698  -7.865  1.00  0.00     0.074 A 
ATOM     62  C   UNL     1      -1.740 -17.727  -7.098  1.00  0.00     0.031 C 
ATOM     63  C   UNL     1      -3.442 -16.931  -8.715  1.00  0.00     0.037 A 
BRANCH  50  64
ATOM     64  C   UNL     1      -5.666 -11.849 -11.442  1.00  0.00     0.058 A 
ATOM     65  C   UNL     1      -5.295 -11.358 -12.704  1.00  0.00     0.135 A 
ATOM     66  C   UNL     1      -7.025 -11.796 -11.092  1.00  0.00     0.135 A 
ATOM     67  F   UNL     1      -4.006 -11.369 -13.081  1.00  0.00    -0.206 F 
ATOM     68  C   UNL     1      -6.230 -10.810 -13.575  1.00  0.00     0.059 A 
ATOM     69  C   UNL     1      -7.982 -11.278 -11.960  1.00  0.00     0.059 A 
ATOM     70  F   UNL     1      -7.434 -12.252  -9.898  1.00  0.00    -0.206 F 
ATOM     71  C   UNL     1      -7.572 -10.774 -13.194  1.00  0.00     0.060 A 
BRANCH  71  72
ATOM     72  S   UNL     1      -8.774 -10.069 -14.341  1.00  0.00     0.124 S 
ATOM     73  O   UNL     1      -8.483  -8.643 -14.225  1.00  0.00    -0.237 OA
ATOM     74  O   UNL     1      -8.399 -10.690 -15.607  1.00  0.00    -0.237 OA
ATOM     75  O   UNL     1     -10.057 -10.494 -13.793  1.00  0.00    -0.744 OA
ENDBRANCH  71  72
ENDBRANCH  50  64
BRANCH  51  76
ATOM     76  C   UNL     1       1.129 -15.418  -5.043  1.00  0.00     0.058 A 
ATOM     77  C   UNL     1       2.172 -16.254  -5.470  1.00  0.00     0.135 A 
ATOM     78  C   UNL     1       1.048 -15.123  -3.674  1.00  0.00     0.135 A 
ATOM     79  F   UNL     1       2.288 -16.571  -6.768  1.00  0.00    -0.206 F 
ATOM     80  C   UNL     1       3.085 -16.799  -4.572  1.00  0.00     0.059 A 
ATOM     81  C   UNL     1       1.964 -15.635  -2.760  1.00  0.00     0.059 A 
ATOM     82  F   UNL     1       0.080 -14.314  -3.216  1.00  0.00    -0.206 F 
ATOM     83  C   UNL     1       2.972 -16.484  -3.217  1.00  0.00     0.060 A 
BRANCH  83  84
ATOM     84  S   UNL     1       4.181 -17.170  -2.064  1.00  0.00     0.124 S 
ATOM     85  O   UNL     1       3.739 -18.556  -1.966  1.00  0.00    -0.237 OA
ATOM     86  O   UNL     1       5.439 -16.947  -2.769  1.00  0.00    -0.237 OA
ATOM     87  O   UNL     1       3.993 -16.360  -0.863  1.00  0.00    -0.744 OA
ENDBRANCH  83  84
ENDBRANCH  51  76
BRANCH  63  88
ATOM     88  C   UNL     1      -3.880 -18.356  -8.902  1.00  0.00     0.058 A 
ATOM     89  C   UNL     1      -4.608 -19.041  -7.917  1.00  0.00     0.135 A 
ATOM     90  C   UNL     1      -3.615 -19.025 -10.108  1.00  0.00     0.135 A 
ATOM     91  F   UNL     1      -4.881 -18.448  -6.744  1.00  0.00    -0.206 F 
ATOM     92  C   UNL     1      -5.044 -20.347  -8.114  1.00  0.00     0.059 A 
ATOM     93  C   UNL     1      -4.063 -20.322 -10.336  1.00  0.00     0.059 A 
ATOM     94  F   UNL     1      -2.930 -18.411 -11.086  1.00  0.00    -0.206 F 
ATOM     95  C   UNL     1      -4.768 -20.979  -9.329  1.00  0.00     0.060 A 
BRANCH  95  96
ATOM     96  S   UNL     1      -5.375 -22.660  -9.589  1.00  0.00     0.124 S 
ATOM     97  O   UNL     1      -4.447 -23.436  -8.773  1.00  0.00    -0.237 OA
ATOM     98  O   UNL     1      -6.744 -22.580  -9.089  1.00  0.00    -0.237 OA
ATOM     99  O   UNL     1      -5.251 -22.846 -11.031  1.00  0.00    -0.744 OA
ENDBRANCH  95  96
ENDBRANCH  63  88
ENDBRANCH  37  38
ENDBRANCH  29  32
ENDBRANCH  27  28
ENDBRANCH  26  27
ENDBRANCH  25  26
ENDBRANCH   1  25
TORSDOF 21
