REMARK SMILES CCSc1cccc(-c2ccc([C@@H](C)C(=O)NCCCCNC(=O)c3ccc(-c4c5nc(c(-c6c(F)cc(S(=O)(=O)[O-])cc6F)c6ccc([nH]6)c(-c6c(F)cc(S(=O)(=O)[O-])cc6F)c6nc(c(-c7c(F)cc(S(=O)(=O)[O-])cc7F)c7ccc4[nH]7)C=C6)C=C5)cc3)cc2)c1
REMARK SMILES IDX 19 1 18 2 17 3 15 4 16 5 13 7 14 8 12 9 9 10 10 11 92 12
REMARK SMILES IDX 11 13 91 14 8 15 4 16 5 17 93 18 6 19 7 20 3 21 2 22 1 23
REMARK SMILES IDX 20 24 21 25 22 26 23 27 24 29 25 30 26 31 90 32 27 33 89 34
REMARK SMILES IDX 28 35 29 36 30 37 83 38 31 39 88 40 82 41 84 42 32 43 87 44
REMARK SMILES IDX 81 45 80 46 33 48 67 49 46 50 66 51 47 52 50 53 65 54 85 55
REMARK SMILES IDX 48 56 49 57 64 59 86 60 51 61 34 62 35 63 44 64 36 65 37 66
REMARK SMILES IDX 43 67 45 68 38 69 39 70 40 71 41 72 42 73 68 74 69 75 78 76
REMARK SMILES IDX 70 77 71 78 77 79 79 80 72 81 73 82 74 83 75 84 76 85 52 86
REMARK SMILES IDX 53 87 62 88 54 89 55 90 61 91 63 92 56 93 57 94 58 95 59 96
REMARK SMILES IDX 60 97
REMARK H PARENT 17 6 22 28 84 47 50 58
REMARK Flexibility Score: inf
ROOT
ATOM      1  C   UNL     1       8.073   6.686  -0.939  1.00  0.00     0.023 C 
ENDROOT
BRANCH   1   2
ATOM      2  C   UNL     1       8.891   7.773  -0.243  1.00  0.00     0.116 C 
BRANCH   2   3
ATOM      3  N   UNL     1       8.061   8.836   0.285  1.00  0.00    -0.356 N 
ATOM      4  C   UNL     1       7.548   9.044   1.528  1.00  0.00     0.227 C 
ATOM      5  O   UNL     1       6.825  10.038   1.673  1.00  0.00    -0.274 OA
ATOM      6  H   UNL     1       7.827   9.531  -0.372  1.00  0.00     0.163 HD
BRANCH   4   7
ATOM      7  C   UNL     1       7.836   8.133   2.732  1.00  0.00     0.105 C 
ATOM      8  C   UNL     1       9.309   8.097   3.143  1.00  0.00     0.023 C 
BRANCH   7   9
ATOM      9  C   UNL     1       7.121   6.793   2.663  1.00  0.00    -0.036 A 
ATOM     10  C   UNL     1       5.643   4.350   2.427  1.00  0.00    -0.018 A 
ATOM     11  C   UNL     1       6.987   4.446   2.029  1.00  0.00     0.009 A 
ATOM     12  C   UNL     1       5.066   5.508   2.973  1.00  0.00     0.009 A 
ATOM     13  C   UNL     1       7.721   5.631   2.174  1.00  0.00     0.005 A 
ATOM     14  C   UNL     1       5.782   6.709   3.070  1.00  0.00     0.005 A 
BRANCH  10  15
ATOM     15  C   UNL     1       4.881   3.085   2.275  1.00  0.00    -0.017 A 
ATOM     16  C   UNL     1       2.758   1.883   1.884  1.00  0.00     0.008 A 
ATOM     17  C   UNL     1       3.436   0.668   1.986  1.00  0.00     0.015 A 
ATOM     18  C   UNL     1       3.494   3.075   2.022  1.00  0.00     0.023 A 
ATOM     19  C   UNL     1       4.809   0.644   2.221  1.00  0.00     0.002 A 
ATOM     20  C   UNL     1       5.517   1.836   2.374  1.00  0.00     0.009 A 
BRANCH  16  21
ATOM     21  S   UNL     1       0.994   2.056   1.622  1.00  0.00    -0.126 SA
BRANCH  21  22
ATOM     22  C   UNL     1       0.403   0.367   1.265  1.00  0.00     0.071 C 
ATOM     23  C   UNL     1       0.747  -0.074  -0.147  1.00  0.00     0.016 C 
ENDBRANCH  21  22
ENDBRANCH  16  21
ENDBRANCH  10  15
ENDBRANCH   7   9
ENDBRANCH   4   7
ENDBRANCH   2   3
ENDBRANCH   1   2
BRANCH   1  24
ATOM     24  C   UNL     1       7.772   6.948  -2.414  1.00  0.00     0.023 C 
BRANCH  24  25
ATOM     25  C   UNL     1       8.991   7.051  -3.326  1.00  0.00     0.116 C 
BRANCH  25  26
ATOM     26  N   UNL     1       9.859   5.882  -3.295  1.00  0.00    -0.352 N 
ATOM     27  C   UNL     1      10.602   5.346  -4.326  1.00  0.00     0.251 C 
ATOM     28  H   UNL     1       9.924   5.416  -2.430  1.00  0.00     0.163 HD
ATOM     29  O   UNL     1      11.239   4.315  -4.166  1.00  0.00    -0.269 OA
BRANCH  27  30
ATOM     30  C   UNL     1      10.569   6.015  -5.644  1.00  0.00     0.039 A 
ATOM     31  C   UNL     1      10.180   5.278  -6.765  1.00  0.00     0.014 A 
ATOM     32  C   UNL     1      10.823   7.385  -5.746  1.00  0.00     0.014 A 
ATOM     33  C   UNL     1       9.945   5.938  -7.973  1.00  0.00     0.010 A 
ATOM     34  C   UNL     1      10.528   8.048  -6.931  1.00  0.00     0.010 A 
ATOM     35  C   UNL     1      10.063   7.335  -8.048  1.00  0.00    -0.014 A 
BRANCH  35  36
ATOM     36  C   UNL     1       9.661   8.088  -9.263  1.00  0.00     0.031 A 
ATOM     37  C   UNL     1      10.683   8.876 -10.030  1.00  0.00     0.074 A 
ATOM     38  C   UNL     1       8.358   8.150  -9.604  1.00  0.00     0.049 A 
ATOM     39  N   UNL     1      10.507   9.714 -11.018  1.00  0.00    -0.248 NA
ATOM     40  C   UNL     1      12.086   8.723  -9.611  1.00  0.00     0.031 C 
ATOM     41  C   UNL     1       7.265   7.468  -8.908  1.00  0.00     0.029 A 
ATOM     42  N   UNL     1       7.728   8.841 -10.610  1.00  0.00    -0.354 N 
ATOM     43  C   UNL     1      11.769  10.208 -11.323  1.00  0.00     0.074 A 
ATOM     44  C   UNL     1      12.697   9.603 -10.392  1.00  0.00     0.031 C 
ATOM     45  C   UNL     1       6.103   7.766  -9.511  1.00  0.00     0.029 A 
ATOM     46  C   UNL     1       6.361   8.692 -10.609  1.00  0.00     0.049 A 
ATOM     47  H   UNL     1       8.209   9.390 -11.269  1.00  0.00     0.167 HD
ATOM     48  C   UNL     1      12.122  11.074 -12.302  1.00  0.00     0.037 A 
ATOM     49  C   UNL     1       5.418   9.254 -11.391  1.00  0.00     0.037 A 
ATOM     50  C   UNL     1      11.200  11.643 -13.248  1.00  0.00     0.049 A 
ATOM     51  C   UNL     1       5.835  10.216 -12.468  1.00  0.00     0.074 A 
ATOM     52  C   UNL     1      11.473  12.461 -14.330  1.00  0.00     0.029 A 
ATOM     53  N   UNL     1       9.826  11.454 -13.226  1.00  0.00    -0.354 N 
ATOM     54  N   UNL     1       7.041  10.624 -12.784  1.00  0.00    -0.248 NA
ATOM     55  C   UNL     1       4.766  10.803 -13.289  1.00  0.00     0.031 C 
ATOM     56  C   UNL     1      10.260  12.795 -14.942  1.00  0.00     0.029 A 
ATOM     57  C   UNL     1       9.235  12.160 -14.259  1.00  0.00     0.049 A 
ATOM     58  H   UNL     1       9.343  10.900 -12.571  1.00  0.00     0.167 HD
ATOM     59  C   UNL     1       6.877  11.505 -13.846  1.00  0.00     0.074 A 
ATOM     60  C   UNL     1       5.458  11.562 -14.128  1.00  0.00     0.031 C 
ATOM     61  C   UNL     1       7.819  12.206 -14.523  1.00  0.00     0.037 A 
BRANCH  48  62
ATOM     62  C   UNL     1      13.572  11.451 -12.401  1.00  0.00     0.058 A 
ATOM     63  C   UNL     1      14.533  10.549 -12.883  1.00  0.00     0.135 A 
ATOM     64  C   UNL     1      14.004  12.735 -12.032  1.00  0.00     0.135 A 
ATOM     65  F   UNL     1      14.175   9.303 -13.234  1.00  0.00    -0.206 F 
ATOM     66  C   UNL     1      15.877  10.895 -12.966  1.00  0.00     0.059 A 
ATOM     67  C   UNL     1      15.340  13.111 -12.130  1.00  0.00     0.059 A 
ATOM     68  F   UNL     1      13.125  13.635 -11.564  1.00  0.00    -0.206 F 
ATOM     69  C   UNL     1      16.272  12.178 -12.583  1.00  0.00     0.060 A 
BRANCH  69  70
ATOM     70  S   UNL     1      18.021  12.611 -12.690  1.00  0.00     0.124 S 
ATOM     71  O   UNL     1      18.562  11.921 -11.522  1.00  0.00    -0.237 OA
ATOM     72  O   UNL     1      18.404  12.059 -13.985  1.00  0.00    -0.237 OA
ATOM     73  O   UNL     1      18.014  14.069 -12.611  1.00  0.00    -0.744 OA
ENDBRANCH  69  70
ENDBRANCH  48  62
BRANCH  49  74
ATOM     74  C   UNL     1       3.986   8.918 -11.184  1.00  0.00     0.058 A 
ATOM     75  C   UNL     1       3.305   8.092 -12.090  1.00  0.00     0.135 A 
ATOM     76  C   UNL     1       3.276   9.395 -10.071  1.00  0.00     0.135 A 
ATOM     77  F   UNL     1       3.941   7.618 -13.172  1.00  0.00    -0.206 F 
ATOM     78  C   UNL     1       1.968   7.757 -11.907  1.00  0.00     0.059 A 
ATOM     79  C   UNL     1       1.943   9.059  -9.856  1.00  0.00     0.059 A 
ATOM     80  F   UNL     1       3.888  10.177  -9.168  1.00  0.00    -0.206 F 
ATOM     81  C   UNL     1       1.295   8.244 -10.785  1.00  0.00     0.060 A 
BRANCH  81  82
ATOM     82  S   UNL     1      -0.425   7.757 -10.525  1.00  0.00     0.124 S 
ATOM     83  O   UNL     1      -1.118   8.604 -11.489  1.00  0.00    -0.237 OA
ATOM     84  O   UNL     1      -0.393   6.331 -10.835  1.00  0.00    -0.237 OA
ATOM     85  O   UNL     1      -0.654   8.079  -9.120  1.00  0.00    -0.744 OA
ENDBRANCH  81  82
ENDBRANCH  49  74
BRANCH  61  86
ATOM     86  C   UNL     1       7.351  13.094 -15.640  1.00  0.00     0.058 A 
ATOM     87  C   UNL     1       6.760  14.339 -15.381  1.00  0.00     0.135 A 
ATOM     88  C   UNL     1       7.566  12.731 -16.979  1.00  0.00     0.135 A 
ATOM     89  F   UNL     1       6.524  14.725 -14.117  1.00  0.00    -0.206 F 
ATOM     90  C   UNL     1       6.394  15.196 -16.413  1.00  0.00     0.059 A 
ATOM     91  C   UNL     1       7.226  13.581 -18.026  1.00  0.00     0.059 A 
ATOM     92  F   UNL     1       8.134  11.552 -17.277  1.00  0.00    -0.206 F 
ATOM     93  C   UNL     1       6.638  14.811 -17.733  1.00  0.00     0.060 A 
BRANCH  93  94
ATOM     94  S   UNL     1       6.220  15.960 -19.062  1.00  0.00     0.124 S 
ATOM     95  O   UNL     1       4.769  15.818 -19.128  1.00  0.00    -0.237 OA
ATOM     96  O   UNL     1       6.710  17.233 -18.542  1.00  0.00    -0.237 OA
ATOM     97  O   UNL     1       6.956  15.433 -20.208  1.00  0.00    -0.744 OA
ENDBRANCH  93  94
ENDBRANCH  61  86
ENDBRANCH  35  36
ENDBRANCH  27  30
ENDBRANCH  25  26
ENDBRANCH  24  25
ENDBRANCH   1  24
TORSDOF 18
