REMARK SMILES CCCCCCNC(=O)Oc1cccc(-c2ccc([C@@H](C)C(=O)NCCCCNC(=O)c3ccc(-c4c5nc(c(-c6c(F)cc(S(=O)(=O)[O-])cc6F)c6ccc([nH]6)c(-c6c(F)cc(S(=O)(=O)[O-])cc6F)c6nc(c(-c7c(F)cc(S(=O)(=O)[O-])cc7F)c7ccc4[nH]7)C=C6)C=C5)cc3)cc2C(F)(F)F)c1
REMARK SMILES IDX 20 1 21 2 19 3 16 4 17 5 99 6 18 7 98 8 15 9 11 10 12 11
REMARK SMILES IDX 104 12 13 13 14 14 10 15 8 16 7 17 9 19 6 20 5 21 4 22 3 23
REMARK SMILES IDX 2 24 1 25 100 26 101 27 102 28 103 29 22 30 23 31 24 32
REMARK SMILES IDX 25 34 26 35 27 36 28 37 29 38 30 39 31 41 32 42 33 43 97 44
REMARK SMILES IDX 34 45 96 46 35 47 36 48 37 49 90 50 38 51 95 52 89 53 91 54
REMARK SMILES IDX 39 55 94 56 88 57 87 58 40 60 74 61 53 62 73 63 54 64 57 65
REMARK SMILES IDX 72 66 92 67 55 68 56 69 71 71 93 72 58 73 41 74 42 75 51 76
REMARK SMILES IDX 43 77 44 78 50 79 52 80 45 81 46 82 47 83 48 84 49 85 75 86
REMARK SMILES IDX 76 87 85 88 77 89 78 90 84 91 86 92 79 93 80 94 81 95 82 96
REMARK SMILES IDX 83 97 59 98 60 99 69 100 61 101 62 102 68 103 70 104 63 105
REMARK SMILES IDX 64 106 65 107 66 108 67 109
REMARK H PARENT 7 18 24 33 29 40 91 59 57 70
REMARK Flexibility Score: inf
ROOT
ATOM      1  C   UNL     1      -4.514 -11.136  -7.490  1.00  0.00     0.105 C 
ATOM      2  C   UNL     1      -5.641 -11.960  -8.110  1.00  0.00     0.023 C 
ENDROOT
BRANCH   1   3
ATOM      3  C   UNL     1      -4.832  -9.667  -7.253  1.00  0.00    -0.035 A 
ATOM      4  C   UNL     1      -5.153  -6.856  -6.804  1.00  0.00    -0.006 A 
ATOM      5  C   UNL     1      -5.473  -7.462  -8.034  1.00  0.00     0.009 A 
ATOM      6  C   UNL     1      -4.780  -7.709  -5.745  1.00  0.00     0.064 A 
ATOM      7  C   UNL     1      -5.375  -8.842  -8.232  1.00  0.00     0.005 A 
ATOM      8  C   UNL     1      -4.562  -9.087  -6.006  1.00  0.00     0.018 A 
BRANCH   4   9
ATOM      9  C   UNL     1      -5.216  -5.381  -6.714  1.00  0.00    -0.014 A 
ATOM     10  C   UNL     1      -4.252  -3.242  -6.077  1.00  0.00     0.133 A 
ATOM     11  C   UNL     1      -5.363  -2.559  -6.563  1.00  0.00     0.047 A 
ATOM     12  C   UNL     1      -4.160  -4.633  -6.166  1.00  0.00     0.056 A 
ATOM     13  C   UNL     1      -6.397  -3.278  -7.150  1.00  0.00     0.004 A 
ATOM     14  C   UNL     1      -6.328  -4.673  -7.212  1.00  0.00     0.009 A 
BRANCH  10  15
ATOM     15  O   UNL     1      -3.316  -2.487  -5.349  1.00  0.00    -0.410 OA
BRANCH  15  16
ATOM     16  C   UNL     1      -1.964  -2.657  -5.604  1.00  0.00     0.412 C 
ATOM     17  N   UNL     1      -1.168  -2.023  -4.690  1.00  0.00    -0.321 N 
ATOM     18  H   UNL     1      -0.197  -2.068  -4.844  1.00  0.00     0.167 HD
ATOM     19  O   UNL     1      -1.484  -3.290  -6.534  1.00  0.00    -0.224 OA
BRANCH  17  20
ATOM     20  C   UNL     1      -1.606  -1.293  -3.517  1.00  0.00     0.119 C 
BRANCH  20  21
ATOM     21  C   UNL     1      -1.015  -1.868  -2.229  1.00  0.00     0.021 C 
BRANCH  21  22
ATOM     22  C   UNL     1       0.513  -1.792  -2.129  1.00  0.00     0.002 C 
BRANCH  22  23
ATOM     23  C   UNL     1       1.112  -0.386  -2.242  1.00  0.00    -0.000 C 
BRANCH  23  24
ATOM     24  C   UNL     1       0.627   0.620  -1.195  1.00  0.00    -0.003 C 
ATOM     25  C   UNL     1       1.000   0.234   0.228  1.00  0.00     0.004 C 
ENDBRANCH  23  24
ENDBRANCH  22  23
ENDBRANCH  21  22
ENDBRANCH  20  21
ENDBRANCH  17  20
ENDBRANCH  15  16
ENDBRANCH  10  15
ENDBRANCH   4   9
BRANCH   6  26
ATOM     26  C   UNL     1      -4.628  -7.269  -4.304  1.00  0.00     0.417 C 
ATOM     27  F   UNL     1      -5.280  -8.118  -3.451  1.00  0.00    -0.166 F 
ATOM     28  F   UNL     1      -3.330  -7.270  -3.890  1.00  0.00    -0.166 F 
ATOM     29  F   UNL     1      -5.121  -6.039  -3.998  1.00  0.00    -0.166 F 
ENDBRANCH   6  26
ENDBRANCH   1   3
BRANCH   1  30
ATOM     30  C   UNL     1      -3.131 -11.390  -8.113  1.00  0.00     0.227 C 
ATOM     31  O   UNL     1      -2.219 -11.840  -7.407  1.00  0.00    -0.274 OA
ATOM     32  N   UNL     1      -2.829 -11.172  -9.422  1.00  0.00    -0.356 N 
ATOM     33  H   UNL     1      -1.926 -11.465  -9.681  1.00  0.00     0.163 HD
BRANCH  32  34
ATOM     34  C   UNL     1      -3.594 -10.588 -10.503  1.00  0.00     0.116 C 
BRANCH  34  35
ATOM     35  C   UNL     1      -3.289  -9.098 -10.678  1.00  0.00     0.023 C 
BRANCH  35  36
ATOM     36  C   UNL     1      -2.127  -8.783 -11.615  1.00  0.00     0.023 C 
BRANCH  36  37
ATOM     37  C   UNL     1      -2.314  -9.245 -13.054  1.00  0.00     0.116 C 
BRANCH  37  38
ATOM     38  N   UNL     1      -3.511  -8.719 -13.697  1.00  0.00    -0.352 N 
ATOM     39  C   UNL     1      -3.683  -8.392 -15.023  1.00  0.00     0.251 C 
ATOM     40  H   UNL     1      -4.291  -8.581 -13.113  1.00  0.00     0.163 HD
ATOM     41  O   UNL     1      -4.728  -7.881 -15.410  1.00  0.00    -0.269 OA
BRANCH  39  42
ATOM     42  C   UNL     1      -2.564  -8.624 -15.960  1.00  0.00     0.039 A 
ATOM     43  C   UNL     1      -2.111  -7.566 -16.750  1.00  0.00     0.014 A 
ATOM     44  C   UNL     1      -1.911  -9.859 -15.984  1.00  0.00     0.014 A 
ATOM     45  C   UNL     1      -0.947  -7.724 -17.506  1.00  0.00     0.010 A 
ATOM     46  C   UNL     1      -0.709  -9.986 -16.670  1.00  0.00     0.010 A 
ATOM     47  C   UNL     1      -0.212  -8.920 -17.436  1.00  0.00    -0.014 A 
BRANCH  47  48
ATOM     48  C   UNL     1       1.083  -9.076 -18.148  1.00  0.00     0.031 A 
ATOM     49  C   UNL     1       1.232 -10.137 -19.205  1.00  0.00     0.074 A 
ATOM     50  C   UNL     1       2.143  -8.326 -17.781  1.00  0.00     0.049 A 
ATOM     51  N   UNL     1       2.299 -10.490 -19.873  1.00  0.00    -0.248 NA
ATOM     52  C   UNL     1       0.034 -10.928 -19.532  1.00  0.00     0.031 C 
ATOM     53  C   UNL     1       2.142  -7.317 -16.718  1.00  0.00     0.029 A 
ATOM     54  N   UNL     1       3.434  -8.310 -18.247  1.00  0.00    -0.354 N 
ATOM     55  C   UNL     1       1.910 -11.559 -20.672  1.00  0.00     0.074 A 
ATOM     56  C   UNL     1       0.520 -11.825 -20.378  1.00  0.00     0.031 C 
ATOM     57  C   UNL     1       3.367  -6.774 -16.622  1.00  0.00     0.029 A 
ATOM     58  C   UNL     1       4.250  -7.418 -17.589  1.00  0.00     0.049 A 
ATOM     59  H   UNL     1       3.748  -8.883 -18.983  1.00  0.00     0.167 HD
ATOM     60  C   UNL     1       2.642 -12.241 -21.583  1.00  0.00     0.037 A 
ATOM     61  C   UNL     1       5.564  -7.157 -17.739  1.00  0.00     0.037 A 
ATOM     62  C   UNL     1       4.008 -11.931 -21.912  1.00  0.00     0.049 A 
ATOM     63  C   UNL     1       6.340  -7.901 -18.794  1.00  0.00     0.074 A 
ATOM     64  C   UNL     1       4.800 -12.493 -22.897  1.00  0.00     0.029 A 
ATOM     65  N   UNL     1       4.782 -10.980 -21.267  1.00  0.00    -0.354 N 
ATOM     66  N   UNL     1       5.926  -8.840 -19.613  1.00  0.00    -0.248 NA
ATOM     67  C   UNL     1       7.758  -7.547 -18.956  1.00  0.00     0.031 C 
ATOM     68  C   UNL     1       6.070 -11.915 -22.817  1.00  0.00     0.029 A 
ATOM     69  C   UNL     1       6.053 -10.957 -21.816  1.00  0.00     0.049 A 
ATOM     70  H   UNL     1       4.475 -10.406 -20.529  1.00  0.00     0.167 HD
ATOM     71  C   UNL     1       7.024  -9.166 -20.402  1.00  0.00     0.074 A 
ATOM     72  C   UNL     1       8.114  -8.315 -19.975  1.00  0.00     0.031 C 
ATOM     73  C   UNL     1       7.122 -10.089 -21.390  1.00  0.00     0.037 A 
BRANCH  60  74
ATOM     74  C   UNL     1       1.986 -13.383 -22.309  1.00  0.00     0.058 A 
ATOM     75  C   UNL     1       1.007 -13.169 -23.291  1.00  0.00     0.135 A 
ATOM     76  C   UNL     1       2.406 -14.703 -22.076  1.00  0.00     0.135 A 
ATOM     77  F   UNL     1       0.557 -11.929 -23.540  1.00  0.00    -0.206 F 
ATOM     78  C   UNL     1       0.461 -14.225 -24.013  1.00  0.00     0.059 A 
ATOM     79  C   UNL     1       1.892 -15.771 -22.805  1.00  0.00     0.059 A 
ATOM     80  F   UNL     1       3.335 -14.963 -21.143  1.00  0.00    -0.206 F 
ATOM     81  C   UNL     1       0.917 -15.522 -23.769  1.00  0.00     0.060 A 
BRANCH  81  82
ATOM     82  S   UNL     1       0.235 -16.873 -24.753  1.00  0.00     0.124 S 
ATOM     83  O   UNL     1      -1.111 -16.985 -24.200  1.00  0.00    -0.237 OA
ATOM     84  O   UNL     1       0.320 -16.343 -26.110  1.00  0.00    -0.237 OA
ATOM     85  O   UNL     1       1.128 -17.990 -24.463  1.00  0.00    -0.744 OA
ENDBRANCH  81  82
ENDBRANCH  60  74
BRANCH  61  86
ATOM     86  C   UNL     1       6.237  -6.148 -16.875  1.00  0.00     0.058 A 
ATOM     87  C   UNL     1       6.707  -4.937 -17.404  1.00  0.00     0.135 A 
ATOM     88  C   UNL     1       6.448  -6.388 -15.508  1.00  0.00     0.135 A 
ATOM     89  F   UNL     1       6.534  -4.662 -18.706  1.00  0.00    -0.206 F 
ATOM     90  C   UNL     1       7.396  -4.016 -16.620  1.00  0.00     0.059 A 
ATOM     91  C   UNL     1       7.108  -5.469 -14.697  1.00  0.00     0.059 A 
ATOM     92  F   UNL     1       6.000  -7.521 -14.947  1.00  0.00    -0.206 F 
ATOM     93  C   UNL     1       7.596  -4.295 -15.267  1.00  0.00     0.060 A 
BRANCH  93  94
ATOM     94  S   UNL     1       8.485  -3.091 -14.255  1.00  0.00     0.124 S 
ATOM     95  O   UNL     1       9.859  -3.295 -14.698  1.00  0.00    -0.237 OA
ATOM     96  O   UNL     1       7.864  -1.833 -14.657  1.00  0.00    -0.237 OA
ATOM     97  O   UNL     1       8.190  -3.519 -12.891  1.00  0.00    -0.744 OA
ENDBRANCH  93  94
ENDBRANCH  61  86
BRANCH  73  98
ATOM     98  C   UNL     1       8.437 -10.202 -22.110  1.00  0.00     0.058 A 
ATOM     99  C   UNL     1       9.561 -10.783 -21.505  1.00  0.00     0.135 A 
ATOM    100  C   UNL     1       8.552  -9.779 -23.444  1.00  0.00     0.135 A 
ATOM    101  F   UNL     1       9.504 -11.198 -20.230  1.00  0.00    -0.206 F 
ATOM    102  C   UNL     1      10.764 -10.920 -22.191  1.00  0.00     0.059 A 
ATOM    103  C   UNL     1       9.736  -9.933 -24.158  1.00  0.00     0.059 A 
ATOM    104  F   UNL     1       7.502  -9.228 -24.073  1.00  0.00    -0.206 F 
ATOM    105  C   UNL     1      10.840 -10.495 -23.518  1.00  0.00     0.060 A 
BRANCH 105 106
ATOM    106  S   UNL     1      12.394 -10.714 -24.410  1.00  0.00     0.124 S 
ATOM    107  O   UNL     1      13.220  -9.665 -23.822  1.00  0.00    -0.237 OA
ATOM    108  O   UNL     1      12.764 -12.082 -24.062  1.00  0.00    -0.237 OA
ATOM    109  O   UNL     1      12.018 -10.508 -25.805  1.00  0.00    -0.744 OA
ENDBRANCH 105 106
ENDBRANCH  73  98
ENDBRANCH  47  48
ENDBRANCH  39  42
ENDBRANCH  37  38
ENDBRANCH  36  37
ENDBRANCH  35  36
ENDBRANCH  34  35
ENDBRANCH  32  34
ENDBRANCH   1  30
TORSDOF 24
