REMARK SMILES [NH3+][C@H](Cn1nnc2ccccc21)C(=O)NCCCCNC(=O)c1ccc(-c2c3nc(c(-c4c(F)cc(S(=O)(=O)[O-])cc4F)c4ccc([nH]4)c(-c4c(F)cc(S(=O)(=O)[O-])cc4F)c4nc(c(-c5c(F)cc(S(=O)(=O)[O-])cc5F)c5ccc2[nH]5)C=C4)C=C3)cc1
REMARK SMILES IDX 18 1 17 2 16 3 15 4 13 5 14 6 2 8 1 9 3 13 4 14 5 15 12 16
REMARK SMILES IDX 6 17 7 18 11 19 8 20 10 21 9 22 19 23 20 24 21 25 22 27
REMARK SMILES IDX 23 28 24 29 88 30 25 31 87 32 26 33 27 34 28 35 81 36 29 37
REMARK SMILES IDX 86 38 80 39 82 40 30 41 85 42 79 43 78 44 31 46 65 47 44 48
REMARK SMILES IDX 64 49 45 50 48 51 63 52 83 53 46 54 47 55 62 57 84 58 49 59
REMARK SMILES IDX 32 60 33 61 42 62 34 63 35 64 41 65 43 66 36 67 37 68 38 69
REMARK SMILES IDX 39 70 40 71 66 72 67 73 76 74 68 75 69 76 75 77 77 78 70 79
REMARK SMILES IDX 71 80 72 81 73 82 74 83 50 84 51 85 60 86 52 87 53 88 59 89
REMARK SMILES IDX 61 90 54 91 55 92 56 93 57 94 58 95
REMARK H PARENT 15 7 1 10 1 11 1 12 20 26 82 45 48 56
REMARK Flexibility Score: inf
ROOT
ATOM      1  C   UNL     1      -3.520   0.070   3.006  1.00  0.00     0.023 C 
ENDROOT
BRANCH   1   2
ATOM      2  C   UNL     1      -2.143   0.470   2.489  1.00  0.00     0.023 C 
BRANCH   2   3
ATOM      3  C   UNL     1      -1.423  -0.576   1.665  1.00  0.00     0.116 C 
BRANCH   3   4
ATOM      4  N   UNL     1      -1.721  -0.649   0.260  1.00  0.00    -0.351 N 
ATOM      5  C   UNL     1      -0.943  -1.125  -0.754  1.00  0.00     0.280 C 
ATOM      6  O   UNL     1      -1.560  -1.501  -1.761  1.00  0.00    -0.268 OA
ATOM      7  H   UNL     1      -2.606  -0.310  -0.005  1.00  0.00     0.163 HD
BRANCH   5   8
ATOM      8  C   UNL     1       0.621  -1.194  -0.737  1.00  0.00     0.292 C 
BRANCH   8   9
ATOM      9  N   UNL     1       1.125  -2.550  -1.053  1.00  0.00    -0.346 N 
ATOM     10  H   UNL     1       0.501  -2.996  -1.725  1.00  0.00     0.345 HD
ATOM     11  H   UNL     1       1.160  -3.107  -0.199  1.00  0.00     0.345 HD
ATOM     12  H   UNL     1       2.061  -2.480  -1.452  1.00  0.00     0.345 HD
ENDBRANCH   8   9
BRANCH   8  13
ATOM     13  C   UNL     1       1.456  -0.391   0.266  1.00  0.00     0.222 C 
BRANCH  13  14
ATOM     14  N   UNL     1       1.926  -0.927   1.531  1.00  0.00    -0.238 N 
ATOM     15  N   UNL     1       2.860  -0.167   2.153  1.00  0.00    -0.066 NA
ATOM     16  C   UNL     1       1.440  -1.890   2.396  1.00  0.00     0.089 A 
ATOM     17  N   UNL     1       2.864  -0.478   3.437  1.00  0.00    -0.130 NA
ATOM     18  C   UNL     1       1.984  -1.501   3.624  1.00  0.00     0.113 A 
ATOM     19  C   UNL     1       0.536  -2.962   2.319  1.00  0.00     0.030 A 
ATOM     20  C   UNL     1       1.576  -2.126   4.812  1.00  0.00     0.032 A 
ATOM     21  C   UNL     1       0.147  -3.585   3.515  1.00  0.00     0.002 A 
ATOM     22  C   UNL     1       0.642  -3.163   4.745  1.00  0.00     0.002 A 
ENDBRANCH  13  14
ENDBRANCH   8  13
ENDBRANCH   5   8
ENDBRANCH   3   4
ENDBRANCH   2   3
ENDBRANCH   1   2
BRANCH   1  23
ATOM     23  C   UNL     1      -3.637  -1.350   3.580  1.00  0.00     0.116 C 
BRANCH  23  24
ATOM     24  N   UNL     1      -2.769  -1.651   4.704  1.00  0.00    -0.352 N 
ATOM     25  C   UNL     1      -2.970  -1.634   6.062  1.00  0.00     0.251 C 
ATOM     26  H   UNL     1      -1.859  -1.920   4.441  1.00  0.00     0.163 HD
ATOM     27  O   UNL     1      -2.208  -2.311   6.756  1.00  0.00    -0.269 OA
BRANCH  25  28
ATOM     28  C   UNL     1      -3.938  -0.720   6.720  1.00  0.00     0.039 A 
ATOM     29  C   UNL     1      -4.928  -0.018   6.039  1.00  0.00     0.014 A 
ATOM     30  C   UNL     1      -3.688  -0.415   8.069  1.00  0.00     0.014 A 
ATOM     31  C   UNL     1      -5.454   1.133   6.582  1.00  0.00     0.010 A 
ATOM     32  C   UNL     1      -4.273   0.699   8.650  1.00  0.00     0.010 A 
ATOM     33  C   UNL     1      -5.065   1.525   7.860  1.00  0.00    -0.014 A 
BRANCH  33  34
ATOM     34  C   UNL     1      -5.582   2.799   8.331  1.00  0.00     0.031 A 
ATOM     35  C   UNL     1      -7.072   2.866   8.372  1.00  0.00     0.074 A 
ATOM     36  C   UNL     1      -4.758   3.785   8.735  1.00  0.00     0.049 A 
ATOM     37  N   UNL     1      -7.869   3.676   7.752  1.00  0.00    -0.248 NA
ATOM     38  C   UNL     1      -7.764   1.764   9.066  1.00  0.00     0.031 C 
ATOM     39  C   UNL     1      -3.307   3.732   8.939  1.00  0.00     0.029 A 
ATOM     40  N   UNL     1      -5.072   5.035   9.159  1.00  0.00    -0.354 N 
ATOM     41  C   UNL     1      -9.157   3.313   8.146  1.00  0.00     0.074 A 
ATOM     42  C   UNL     1      -9.041   2.040   8.806  1.00  0.00     0.031 C 
ATOM     43  C   UNL     1      -2.922   4.794   9.682  1.00  0.00     0.029 A 
ATOM     44  C   UNL     1      -4.066   5.662   9.885  1.00  0.00     0.049 A 
ATOM     45  H   UNL     1      -5.939   5.462   8.968  1.00  0.00     0.167 HD
ATOM     46  C   UNL     1     -10.208   4.176   8.090  1.00  0.00     0.037 A 
ATOM     47  C   UNL     1      -4.230   6.750  10.681  1.00  0.00     0.037 A 
ATOM     48  C   UNL     1      -9.961   5.257   7.175  1.00  0.00     0.049 A 
ATOM     49  C   UNL     1      -5.498   7.408  10.255  1.00  0.00     0.074 A 
ATOM     50  C   UNL     1      -9.770   5.338   5.809  1.00  0.00     0.029 A 
ATOM     51  N   UNL     1      -9.512   6.451   7.683  1.00  0.00    -0.354 N 
ATOM     52  N   UNL     1      -5.663   7.975   9.090  1.00  0.00    -0.248 NA
ATOM     53  C   UNL     1      -6.724   7.007  10.930  1.00  0.00     0.031 C 
ATOM     54  C   UNL     1      -8.778   6.346   5.633  1.00  0.00     0.029 A 
ATOM     55  C   UNL     1      -8.467   6.862   6.891  1.00  0.00     0.049 A 
ATOM     56  H   UNL     1      -9.872   6.924   8.468  1.00  0.00     0.167 HD
ATOM     57  C   UNL     1      -6.956   7.642   8.705  1.00  0.00     0.074 A 
ATOM     58  C   UNL     1      -7.579   7.094   9.908  1.00  0.00     0.031 C 
ATOM     59  C   UNL     1      -7.314   7.580   7.388  1.00  0.00     0.037 A 
BRANCH  46  60
ATOM     60  C   UNL     1     -11.322   4.190   9.109  1.00  0.00     0.058 A 
ATOM     61  C   UNL     1     -12.481   4.957   8.883  1.00  0.00     0.135 A 
ATOM     62  C   UNL     1     -11.178   3.679  10.421  1.00  0.00     0.135 A 
ATOM     63  F   UNL     1     -12.711   5.510   7.681  1.00  0.00    -0.206 F 
ATOM     64  C   UNL     1     -13.402   5.235   9.897  1.00  0.00     0.059 A 
ATOM     65  C   UNL     1     -12.109   3.895  11.428  1.00  0.00     0.059 A 
ATOM     66  F   UNL     1     -10.079   3.023  10.815  1.00  0.00    -0.206 F 
ATOM     67  C   UNL     1     -13.199   4.706  11.170  1.00  0.00     0.060 A 
BRANCH  67  68
ATOM     68  S   UNL     1     -14.327   5.145  12.504  1.00  0.00     0.124 S 
ATOM     69  O   UNL     1     -14.056   6.568  12.660  1.00  0.00    -0.237 OA
ATOM     70  O   UNL     1     -15.621   4.796  11.932  1.00  0.00    -0.237 OA
ATOM     71  O   UNL     1     -13.887   4.293  13.610  1.00  0.00    -0.744 OA
ENDBRANCH  67  68
ENDBRANCH  46  60
BRANCH  47  72
ATOM     72  C   UNL     1      -3.631   6.970  12.027  1.00  0.00     0.058 A 
ATOM     73  C   UNL     1      -3.737   8.217  12.669  1.00  0.00     0.135 A 
ATOM     74  C   UNL     1      -3.202   5.894  12.832  1.00  0.00     0.135 A 
ATOM     75  F   UNL     1      -4.156   9.293  11.986  1.00  0.00    -0.206 F 
ATOM     76  C   UNL     1      -3.491   8.374  14.039  1.00  0.00     0.059 A 
ATOM     77  C   UNL     1      -2.941   6.029  14.194  1.00  0.00     0.059 A 
ATOM     78  F   UNL     1      -3.117   4.648  12.343  1.00  0.00    -0.206 F 
ATOM     79  C   UNL     1      -3.118   7.266  14.798  1.00  0.00     0.060 A 
BRANCH  79  80
ATOM     80  S   UNL     1      -2.990   7.420  16.596  1.00  0.00     0.124 S 
ATOM     81  O   UNL     1      -1.835   8.298  16.743  1.00  0.00    -0.237 OA
ATOM     82  O   UNL     1      -4.283   8.000  16.945  1.00  0.00    -0.237 OA
ATOM     83  O   UNL     1      -2.788   6.043  17.041  1.00  0.00    -0.744 OA
ENDBRANCH  79  80
ENDBRANCH  47  72
BRANCH  59  84
ATOM     84  C   UNL     1      -6.330   8.095   6.365  1.00  0.00     0.058 A 
ATOM     85  C   UNL     1      -5.056   7.537   6.143  1.00  0.00     0.135 A 
ATOM     86  C   UNL     1      -6.740   9.106   5.484  1.00  0.00     0.135 A 
ATOM     87  F   UNL     1      -4.631   6.487   6.859  1.00  0.00    -0.206 F 
ATOM     88  C   UNL     1      -4.208   8.004   5.136  1.00  0.00     0.059 A 
ATOM     89  C   UNL     1      -5.926   9.565   4.451  1.00  0.00     0.059 A 
ATOM     90  F   UNL     1      -7.971   9.632   5.593  1.00  0.00    -0.206 F 
ATOM     91  C   UNL     1      -4.652   9.022   4.295  1.00  0.00     0.060 A 
BRANCH  91  92
ATOM     92  S   UNL     1      -3.573   9.595   2.964  1.00  0.00     0.124 S 
ATOM     93  O   UNL     1      -2.509  10.269   3.699  1.00  0.00    -0.237 OA
ATOM     94  O   UNL     1      -3.196   8.348   2.304  1.00  0.00    -0.237 OA
ATOM     95  O   UNL     1      -4.438  10.470   2.176  1.00  0.00    -0.744 OA
ENDBRANCH  91  92
ENDBRANCH  59  84
ENDBRANCH  33  34
ENDBRANCH  25  28
ENDBRANCH  23  24
ENDBRANCH   1  23
TORSDOF 17
