REMARK SMILES CCOc1cc(OCC)cc(-c2ccc([C@@H](C)C(=O)NCCCCNC(=O)c3ccc(-c4c5nc(c(-c6c(F)cc(S(=O)(=O)[O-])cc6F)c6ccc([nH]6)c(-c6c(F)cc(S(=O)(=O)[O-])cc6F)c6nc(c(-c7c(F)cc(S(=O)(=O)[O-])cc7F)c7ccc4[nH]7)C=C6)C=C5)cc3)cc2F)c1
REMARK SMILES IDX 22 1 21 2 20 3 18 4 19 5 16 7 17 8 15 9 12 10 13 11 95 12
REMARK SMILES IDX 14 13 94 14 96 15 11 16 4 17 5 18 97 19 6 20 10 21 3 22 2 23
REMARK SMILES IDX 1 24 7 25 8 26 9 27 23 28 24 29 25 30 26 31 27 33 28 34
REMARK SMILES IDX 29 35 93 36 30 37 92 38 31 39 32 40 33 41 86 42 34 43 91 44
REMARK SMILES IDX 85 45 87 46 35 47 90 48 84 49 83 50 36 52 70 53 49 54 69 55
REMARK SMILES IDX 50 56 53 57 68 58 88 59 51 60 52 61 67 63 89 64 54 65 37 66
REMARK SMILES IDX 38 67 47 68 39 69 40 70 46 71 48 72 41 73 42 74 43 75 44 76
REMARK SMILES IDX 45 77 71 78 72 79 81 80 73 81 74 82 80 83 82 84 75 85 76 86
REMARK SMILES IDX 77 87 78 88 79 89 55 90 56 91 65 92 57 93 58 94 64 95 66 96
REMARK SMILES IDX 59 97 60 98 61 99 62 100 63 101
REMARK H PARENT 20 6 25 32 87 51 53 62
REMARK Flexibility Score: inf
ROOT
ATOM      1  C   UNL     1       8.478   0.803   1.409  1.00  0.00     0.023 C 
ENDROOT
BRANCH   1   2
ATOM      2  C   UNL     1       9.394  -0.207   2.103  1.00  0.00     0.116 C 
BRANCH   2   3
ATOM      3  N   UNL     1       8.723  -0.906   3.180  1.00  0.00    -0.356 N 
ATOM      4  C   UNL     1       8.094  -2.112   3.231  1.00  0.00     0.227 C 
ATOM      5  O   UNL     1       7.555  -2.407   4.305  1.00  0.00    -0.274 OA
ATOM      6  H   UNL     1       8.722  -0.417   4.035  1.00  0.00     0.163 HD
BRANCH   4   7
ATOM      7  C   UNL     1       8.030  -3.100   2.056  1.00  0.00     0.105 C 
ATOM      8  C   UNL     1       9.393  -3.614   1.592  1.00  0.00     0.023 C 
BRANCH   7   9
ATOM      9  C   UNL     1       7.084  -2.663   0.950  1.00  0.00    -0.033 A 
ATOM     10  C   UNL     1       5.219  -1.712  -1.004  1.00  0.00     0.018 A 
ATOM     11  C   UNL     1       6.589  -1.394  -1.059  1.00  0.00     0.012 A 
ATOM     12  C   UNL     1       4.820  -2.545   0.050  1.00  0.00     0.131 A 
ATOM     13  C   UNL     1       7.507  -1.899  -0.136  1.00  0.00     0.005 A 
ATOM     14  C   UNL     1       5.723  -2.993   1.021  1.00  0.00     0.044 A 
ATOM     15  F   UNL     1       3.545  -2.947   0.162  1.00  0.00    -0.206 F 
BRANCH  10  16
ATOM     16  C   UNL     1       4.290  -1.156  -2.017  1.00  0.00    -0.008 A 
ATOM     17  C   UNL     1       2.133  -0.243  -2.685  1.00  0.00     0.123 A 
ATOM     18  C   UNL     1       2.627   0.056  -3.954  1.00  0.00     0.092 A 
ATOM     19  C   UNL     1       2.953  -0.850  -1.731  1.00  0.00     0.055 A 
ATOM     20  C   UNL     1       3.946  -0.256  -4.279  1.00  0.00     0.123 A 
ATOM     21  C   UNL     1       4.747  -0.876  -3.320  1.00  0.00     0.055 A 
BRANCH  17  22
ATOM     22  O   UNL     1       0.799  -0.044  -2.450  1.00  0.00    -0.494 OA
BRANCH  22  23
ATOM     23  C   UNL     1       0.526   0.972  -1.477  1.00  0.00     0.226 C 
ATOM     24  C   UNL     1       0.374   0.395  -0.077  1.00  0.00     0.049 C 
ENDBRANCH  22  23
ENDBRANCH  17  22
BRANCH  20  25
ATOM     25  O   UNL     1       4.356   0.102  -5.535  1.00  0.00    -0.494 OA
BRANCH  25  26
ATOM     26  C   UNL     1       5.627  -0.370  -5.993  1.00  0.00     0.226 C 
ATOM     27  C   UNL     1       6.767   0.544  -5.563  1.00  0.00     0.049 C 
ENDBRANCH  25  26
ENDBRANCH  20  25
ENDBRANCH  10  16
ENDBRANCH   7   9
ENDBRANCH   4   7
ENDBRANCH   2   3
ENDBRANCH   1   2
BRANCH   1  28
ATOM     28  C   UNL     1       8.452   2.196   2.038  1.00  0.00     0.023 C 
BRANCH  28  29
ATOM     29  C   UNL     1       9.787   2.930   2.054  1.00  0.00     0.116 C 
BRANCH  29  30
ATOM     30  N   UNL     1      10.397   3.079   0.742  1.00  0.00    -0.352 N 
ATOM     31  C   UNL     1      11.215   4.091   0.287  1.00  0.00     0.251 C 
ATOM     32  H   UNL     1      10.201   2.364   0.094  1.00  0.00     0.163 HD
ATOM     33  O   UNL     1      11.579   4.104  -0.881  1.00  0.00    -0.269 OA
BRANCH  31  34
ATOM     34  C   UNL     1      11.608   5.179   1.211  1.00  0.00     0.039 A 
ATOM     35  C   UNL     1      11.503   6.502   0.774  1.00  0.00     0.014 A 
ATOM     36  C   UNL     1      12.046   4.901   2.508  1.00  0.00     0.014 A 
ATOM     37  C   UNL     1      11.778   7.545   1.661  1.00  0.00     0.010 A 
ATOM     38  C   UNL     1      12.239   5.939   3.413  1.00  0.00     0.010 A 
ATOM     39  C   UNL     1      12.118   7.273   2.997  1.00  0.00    -0.014 A 
BRANCH  39  40
ATOM     40  C   UNL     1      12.370   8.373   3.962  1.00  0.00     0.031 A 
ATOM     41  C   UNL     1      13.735   8.543   4.573  1.00  0.00     0.074 A 
ATOM     42  C   UNL     1      11.359   9.187   4.324  1.00  0.00     0.049 A 
ATOM     43  N   UNL     1      14.147   9.431   5.440  1.00  0.00    -0.248 NA
ATOM     44  C   UNL     1      14.765   7.565   4.183  1.00  0.00     0.031 C 
ATOM     45  C   UNL     1       9.973   9.077   3.860  1.00  0.00     0.029 A 
ATOM     46  N   UNL     1      11.339  10.269   5.167  1.00  0.00    -0.354 N 
ATOM     47  C   UNL     1      15.474   9.113   5.708  1.00  0.00     0.074 A 
ATOM     48  C   UNL     1      15.779   7.912   4.962  1.00  0.00     0.031 C 
ATOM     49  C   UNL     1       9.248  10.071   4.398  1.00  0.00     0.029 A 
ATOM     50  C   UNL     1      10.109  10.876   5.259  1.00  0.00     0.049 A 
ATOM     51  H   UNL     1      12.132  10.582   5.660  1.00  0.00     0.167 HD
ATOM     52  C   UNL     1      16.367   9.777   6.480  1.00  0.00     0.037 A 
ATOM     53  C   UNL     1       9.723  11.966   5.949  1.00  0.00     0.037 A 
ATOM     54  C   UNL     1      16.068  10.991   7.191  1.00  0.00     0.049 A 
ATOM     55  C   UNL     1      10.746  12.719   6.755  1.00  0.00     0.074 A 
ATOM     56  C   UNL     1      16.915  11.775   7.956  1.00  0.00     0.029 A 
ATOM     57  N   UNL     1      14.823  11.604   7.218  1.00  0.00    -0.354 N 
ATOM     58  N   UNL     1      12.015  12.443   6.943  1.00  0.00    -0.248 NA
ATOM     59  C   UNL     1      10.291  13.944   7.426  1.00  0.00     0.031 C 
ATOM     60  C   UNL     1      16.175  12.848   8.467  1.00  0.00     0.029 A 
ATOM     61  C   UNL     1      14.878  12.754   7.989  1.00  0.00     0.049 A 
ATOM     62  H   UNL     1      14.020  11.271   6.758  1.00  0.00     0.167 HD
ATOM     63  C   UNL     1      12.516  13.474   7.730  1.00  0.00     0.074 A 
ATOM     64  C   UNL     1      11.416  14.386   7.970  1.00  0.00     0.031 C 
ATOM     65  C   UNL     1      13.773  13.652   8.210  1.00  0.00     0.037 A 
BRANCH  52  66
ATOM     66  C   UNL     1      17.756   9.207   6.576  1.00  0.00     0.058 A 
ATOM     67  C   UNL     1      18.638   9.234   5.482  1.00  0.00     0.135 A 
ATOM     68  C   UNL     1      18.217   8.638   7.773  1.00  0.00     0.135 A 
ATOM     69  F   UNL     1      18.243   9.750   4.308  1.00  0.00    -0.206 F 
ATOM     70  C   UNL     1      19.913   8.686   5.562  1.00  0.00     0.059 A 
ATOM     71  C   UNL     1      19.500   8.108   7.883  1.00  0.00     0.059 A 
ATOM     72  F   UNL     1      17.416   8.584   8.849  1.00  0.00    -0.206 F 
ATOM     73  C   UNL     1      20.334   8.121   6.766  1.00  0.00     0.060 A 
BRANCH  73  74
ATOM     74  S   UNL     1      21.990   7.406   6.852  1.00  0.00     0.124 S 
ATOM     75  O   UNL     1      21.805   6.158   6.118  1.00  0.00    -0.237 OA
ATOM     76  O   UNL     1      22.803   8.418   6.186  1.00  0.00    -0.237 OA
ATOM     77  O   UNL     1      22.223   7.263   8.286  1.00  0.00    -0.744 OA
ENDBRANCH  73  74
ENDBRANCH  52  66
BRANCH  53  78
ATOM     78  C   UNL     1       8.318  12.444   5.862  1.00  0.00     0.058 A 
ATOM     79  C   UNL     1       7.997  13.609   5.150  1.00  0.00     0.135 A 
ATOM     80  C   UNL     1       7.269  11.743   6.477  1.00  0.00     0.135 A 
ATOM     81  F   UNL     1       8.966  14.315   4.548  1.00  0.00    -0.206 F 
ATOM     82  C   UNL     1       6.689  14.076   5.066  1.00  0.00     0.059 A 
ATOM     83  C   UNL     1       5.950  12.177   6.388  1.00  0.00     0.059 A 
ATOM     84  F   UNL     1       7.522  10.612   7.153  1.00  0.00    -0.206 F 
ATOM     85  C   UNL     1       5.672  13.352   5.689  1.00  0.00     0.060 A 
BRANCH  85  86
ATOM     86  S   UNL     1       3.970  13.940   5.536  1.00  0.00     0.124 S 
ATOM     87  O   UNL     1       3.966  15.068   6.460  1.00  0.00    -0.237 OA
ATOM     88  O   UNL     1       3.887  14.274   4.118  1.00  0.00    -0.237 OA
ATOM     89  O   UNL     1       3.180  12.783   5.946  1.00  0.00    -0.744 OA
ENDBRANCH  85  86
ENDBRANCH  53  78
BRANCH  65  90
ATOM     90  C   UNL     1      14.028  14.899   9.008  1.00  0.00     0.058 A 
ATOM     91  C   UNL     1      13.529  15.059  10.310  1.00  0.00     0.135 A 
ATOM     92  C   UNL     1      14.796  15.942   8.465  1.00  0.00     0.135 A 
ATOM     93  F   UNL     1      12.787  14.091  10.872  1.00  0.00    -0.206 F 
ATOM     94  C   UNL     1      13.747  16.227  11.032  1.00  0.00     0.059 A 
ATOM     95  C   UNL     1      15.049  17.108   9.180  1.00  0.00     0.059 A 
ATOM     96  F   UNL     1      15.309  15.833   7.230  1.00  0.00    -0.206 F 
ATOM     97  C   UNL     1      14.503  17.250  10.455  1.00  0.00     0.060 A 
BRANCH  97  98
ATOM     98  S   UNL     1      14.778  18.765  11.397  1.00  0.00     0.124 S 
ATOM     99  O   UNL     1      13.498  19.446  11.234  1.00  0.00    -0.237 OA
ATOM    100  O   UNL     1      15.060  18.257  12.736  1.00  0.00    -0.237 OA
ATOM    101  O   UNL     1      15.912  19.384  10.717  1.00  0.00    -0.744 OA
ENDBRANCH  97  98
ENDBRANCH  65  90
ENDBRANCH  39  40
ENDBRANCH  31  34
ENDBRANCH  29  30
ENDBRANCH  28  29
ENDBRANCH   1  28
TORSDOF 20
