REMARK SMILES CN(C)S(=O)(=O)c1ccc(-n2c(CCC(=O)NCCCCNC(=O)c3ccc(-c4c5nc(c(-c6c(F)cc(S(=O)(=O)[O-])cc6F)c6ccc([nH]6)c(-c6c(F)cc(S(=O)(=O)[O-])cc6F)c6nc(c(-c7c(F)cc(S(=O)(=O)[O-])cc7F)c7ccc4[nH]7)C=C6)C=C5)cc3)ccc2-c2ccc(F)cc2)cc1
REMARK SMILES IDX 18 1 17 2 15 3 16 4 14 6 13 7 12 8 11 9 93 10 91 11 92 12
REMARK SMILES IDX 10 13 7 14 8 15 102 16 9 17 101 18 4 19 5 20 6 21 2 22 1 23
REMARK SMILES IDX 3 24 94 25 95 26 100 27 96 28 99 29 97 30 98 31 19 32 20 33
REMARK SMILES IDX 21 34 22 35 23 36 24 38 25 39 26 40 90 41 27 42 89 43 28 44
REMARK SMILES IDX 29 45 30 46 83 47 31 48 88 49 82 50 84 51 32 52 87 53 81 54
REMARK SMILES IDX 80 55 33 57 67 58 46 59 66 60 47 61 50 62 65 63 85 64 48 65
REMARK SMILES IDX 49 66 64 68 86 69 51 70 34 71 35 72 44 73 36 74 37 75 43 76
REMARK SMILES IDX 45 77 38 78 39 79 40 80 41 81 42 82 68 83 69 84 78 85 70 86
REMARK SMILES IDX 71 87 77 88 79 89 72 90 73 91 74 92 75 93 76 94 52 95 53 96
REMARK SMILES IDX 62 97 54 98 55 99 61 100 63 101 56 102 57 103 58 104 59 105
REMARK SMILES IDX 60 106
REMARK H PARENT 17 5 22 37 84 56 50 67
REMARK Flexibility Score: inf
ROOT
ATOM      1  C   UNL     1      -3.496   6.247   3.874  1.00  0.00     0.116 C 
ENDROOT
BRANCH   1   2
ATOM      2  N   UNL     1      -2.803   5.383   4.812  1.00  0.00    -0.356 N 
ATOM      3  C   UNL     1      -1.806   5.702   5.691  1.00  0.00     0.220 C 
ATOM      4  O   UNL     1      -1.260   4.795   6.321  1.00  0.00    -0.275 OA
ATOM      5  H   UNL     1      -3.089   4.441   4.816  1.00  0.00     0.163 HD
BRANCH   3   6
ATOM      6  C   UNL     1      -1.365   7.147   5.877  1.00  0.00     0.106 C 
BRANCH   6   7
ATOM      7  C   UNL     1       0.080   7.464   5.428  1.00  0.00     0.064 C 
BRANCH   7   8
ATOM      8  C   UNL     1       0.176   8.138   4.067  1.00  0.00     0.024 A 
ATOM      9  N   UNL     1       0.657   7.618   2.832  1.00  0.00    -0.314 N 
ATOM     10  C   UNL     1       0.524   8.668   1.879  1.00  0.00     0.053 A 
ATOM     11  C   UNL     1      -0.202   9.456   3.865  1.00  0.00     0.024 A 
ATOM     12  C   UNL     1       0.019   9.783   2.527  1.00  0.00     0.029 A 
BRANCH   9  13
ATOM     13  C   UNL     1       1.060   6.248   2.533  1.00  0.00     0.046 A 
ATOM     14  C   UNL     1       1.528   3.535   1.833  1.00  0.00     0.082 A 
ATOM     15  C   UNL     1       1.998   4.562   1.015  1.00  0.00     0.024 A 
ATOM     16  C   UNL     1       0.879   3.847   3.016  1.00  0.00     0.024 A 
ATOM     17  C   UNL     1       1.774   5.909   1.372  1.00  0.00     0.028 A 
ATOM     18  C   UNL     1       0.660   5.185   3.350  1.00  0.00     0.028 A 
BRANCH  14  19
ATOM     19  S   UNL     1       1.877   1.832   1.469  1.00  0.00     0.242 S 
ATOM     20  O   UNL     1       1.476   1.040   2.616  1.00  0.00    -0.207 OA
ATOM     21  O   UNL     1       3.240   1.782   0.984  1.00  0.00    -0.207 OA
BRANCH  19  22
ATOM     22  N   UNL     1       0.830   1.428   0.177  1.00  0.00    -0.204 NA
ATOM     23  C   UNL     1       1.108   0.056  -0.338  1.00  0.00     0.124 C 
ATOM     24  C   UNL     1      -0.622   1.577   0.445  1.00  0.00     0.124 C 
ENDBRANCH  19  22
ENDBRANCH  14  19
ENDBRANCH   9  13
BRANCH  10  25
ATOM     25  C   UNL     1       0.592   8.576   0.409  1.00  0.00    -0.001 A 
ATOM     26  C   UNL     1       1.482   9.339  -0.351  1.00  0.00     0.013 A 
ATOM     27  C   UNL     1      -0.351   7.798  -0.268  1.00  0.00     0.013 A 
ATOM     28  C   UNL     1       1.436   9.285  -1.752  1.00  0.00     0.040 A 
ATOM     29  C   UNL     1      -0.417   7.748  -1.658  1.00  0.00     0.040 A 
ATOM     30  C   UNL     1       0.486   8.492  -2.391  1.00  0.00     0.123 A 
ATOM     31  F   UNL     1       0.440   8.454  -3.729  1.00  0.00    -0.207 F 
ENDBRANCH  10  25
ENDBRANCH   7   8
ENDBRANCH   6   7
ENDBRANCH   3   6
ENDBRANCH   1   2
BRANCH   1  32
ATOM     32  C   UNL     1      -2.594   6.573   2.699  1.00  0.00     0.023 C 
BRANCH  32  33
ATOM     33  C   UNL     1      -2.619   5.558   1.558  1.00  0.00     0.023 C 
BRANCH  33  34
ATOM     34  C   UNL     1      -3.646   5.912   0.494  1.00  0.00     0.116 C 
BRANCH  34  35
ATOM     35  N   UNL     1      -3.594   7.301   0.019  1.00  0.00    -0.352 N 
ATOM     36  C   UNL     1      -4.232   7.866  -1.069  1.00  0.00     0.251 C 
ATOM     37  H   UNL     1      -3.030   7.912   0.546  1.00  0.00     0.163 HD
ATOM     38  O   UNL     1      -3.978   8.985  -1.450  1.00  0.00    -0.269 OA
BRANCH  36  39
ATOM     39  C   UNL     1      -5.207   7.019  -1.772  1.00  0.00     0.039 A 
ATOM     40  C   UNL     1      -5.082   6.824  -3.149  1.00  0.00     0.014 A 
ATOM     41  C   UNL     1      -6.131   6.311  -1.005  1.00  0.00     0.014 A 
ATOM     42  C   UNL     1      -5.819   5.809  -3.742  1.00  0.00     0.010 A 
ATOM     43  C   UNL     1      -6.754   5.223  -1.560  1.00  0.00     0.010 A 
ATOM     44  C   UNL     1      -6.607   4.980  -2.932  1.00  0.00    -0.014 A 
BRANCH  44  45
ATOM     45  C   UNL     1      -7.282   3.795  -3.488  1.00  0.00     0.031 A 
ATOM     46  C   UNL     1      -6.314   2.673  -3.870  1.00  0.00     0.074 A 
ATOM     47  C   UNL     1      -8.645   3.874  -3.484  1.00  0.00     0.049 A 
ATOM     48  N   UNL     1      -6.456   1.725  -4.742  1.00  0.00    -0.248 NA
ATOM     49  C   UNL     1      -4.951   2.644  -3.269  1.00  0.00     0.031 C 
ATOM     50  C   UNL     1      -9.390   5.087  -3.077  1.00  0.00     0.029 A 
ATOM     51  N   UNL     1      -9.676   3.005  -3.765  1.00  0.00    -0.354 N 
ATOM     52  C   UNL     1      -5.324   0.885  -4.652  1.00  0.00     0.074 A 
ATOM     53  C   UNL     1      -4.372   1.583  -3.840  1.00  0.00     0.031 C 
ATOM     54  C   UNL     1     -10.715   4.891  -3.158  1.00  0.00     0.029 A 
ATOM     55  C   UNL     1     -10.979   3.552  -3.631  1.00  0.00     0.049 A 
ATOM     56  H   UNL     1      -9.520   2.072  -4.039  1.00  0.00     0.167 HD
ATOM     57  C   UNL     1      -5.309  -0.397  -5.129  1.00  0.00     0.037 A 
ATOM     58  C   UNL     1     -12.193   2.997  -3.927  1.00  0.00     0.037 A 
ATOM     59  C   UNL     1      -6.603  -0.729  -5.636  1.00  0.00     0.049 A 
ATOM     60  C   UNL     1     -11.911   1.600  -4.299  1.00  0.00     0.074 A 
ATOM     61  C   UNL     1      -7.288  -0.337  -6.755  1.00  0.00     0.029 A 
ATOM     62  N   UNL     1      -7.484  -1.294  -4.743  1.00  0.00    -0.354 N 
ATOM     63  N   UNL     1     -11.550   0.666  -3.470  1.00  0.00    -0.248 NA
ATOM     64  C   UNL     1     -11.880   1.245  -5.724  1.00  0.00     0.031 C 
ATOM     65  C   UNL     1      -8.625  -0.260  -6.315  1.00  0.00     0.029 A 
ATOM     66  C   UNL     1      -8.732  -0.793  -5.024  1.00  0.00     0.049 A 
ATOM     67  H   UNL     1      -7.262  -1.940  -4.033  1.00  0.00     0.167 HD
ATOM     68  C   UNL     1     -10.937  -0.250  -4.294  1.00  0.00     0.074 A 
ATOM     69  C   UNL     1     -11.432  -0.003  -5.631  1.00  0.00     0.031 C 
ATOM     70  C   UNL     1      -9.716  -0.743  -3.961  1.00  0.00     0.037 A 
BRANCH  57  71
ATOM     71  C   UNL     1      -4.340  -1.541  -4.982  1.00  0.00     0.058 A 
ATOM     72  C   UNL     1      -4.429  -2.600  -5.924  1.00  0.00     0.135 A 
ATOM     73  C   UNL     1      -3.601  -1.809  -3.823  1.00  0.00     0.135 A 
ATOM     74  F   UNL     1      -5.051  -2.421  -7.102  1.00  0.00    -0.206 F 
ATOM     75  C   UNL     1      -3.961  -3.882  -5.660  1.00  0.00     0.059 A 
ATOM     76  C   UNL     1      -3.082  -3.082  -3.557  1.00  0.00     0.059 A 
ATOM     77  F   UNL     1      -3.432  -0.874  -2.878  1.00  0.00    -0.206 F 
ATOM     78  C   UNL     1      -3.324  -4.124  -4.451  1.00  0.00     0.060 A 
BRANCH  78  79
ATOM     79  S   UNL     1      -2.870  -5.824  -4.047  1.00  0.00     0.124 S 
ATOM     80  O   UNL     1      -4.166  -6.403  -3.711  1.00  0.00    -0.237 OA
ATOM     81  O   UNL     1      -2.272  -6.292  -5.294  1.00  0.00    -0.237 OA
ATOM     82  O   UNL     1      -1.937  -5.664  -2.936  1.00  0.00    -0.744 OA
ENDBRANCH  78  79
ENDBRANCH  57  71
BRANCH  58  83
ATOM     83  C   UNL     1     -13.593   3.533  -4.137  1.00  0.00     0.058 A 
ATOM     84  C   UNL     1     -14.057   4.812  -3.797  1.00  0.00     0.135 A 
ATOM     85  C   UNL     1     -14.532   2.757  -4.869  1.00  0.00     0.135 A 
ATOM     86  F   UNL     1     -13.407   5.587  -2.924  1.00  0.00    -0.206 F 
ATOM     87  C   UNL     1     -15.237   5.355  -4.327  1.00  0.00     0.059 A 
ATOM     88  C   UNL     1     -15.694   3.278  -5.431  1.00  0.00     0.059 A 
ATOM     89  F   UNL     1     -14.339   1.452  -5.100  1.00  0.00    -0.206 F 
ATOM     90  C   UNL     1     -16.016   4.600  -5.196  1.00  0.00     0.060 A 
BRANCH  90  91
ATOM     91  S   UNL     1     -17.371   5.362  -6.106  1.00  0.00     0.124 S 
ATOM     92  O   UNL     1     -18.473   5.250  -5.159  1.00  0.00    -0.237 OA
ATOM     93  O   UNL     1     -16.870   6.712  -6.346  1.00  0.00    -0.237 OA
ATOM     94  O   UNL     1     -17.475   4.526  -7.300  1.00  0.00    -0.744 OA
ENDBRANCH  90  91
ENDBRANCH  58  83
BRANCH  70  95
ATOM     95  C   UNL     1      -9.436  -0.779  -2.468  1.00  0.00     0.058 A 
ATOM     96  C   UNL     1     -10.258  -1.536  -1.615  1.00  0.00     0.135 A 
ATOM     97  C   UNL     1      -8.439  -0.018  -1.835  1.00  0.00     0.135 A 
ATOM     98  F   UNL     1     -11.230  -2.305  -2.133  1.00  0.00    -0.206 F 
ATOM     99  C   UNL     1     -10.108  -1.526  -0.224  1.00  0.00     0.059 A 
ATOM    100  C   UNL     1      -8.256   0.002  -0.449  1.00  0.00     0.059 A 
ATOM    101  F   UNL     1      -7.611   0.743  -2.550  1.00  0.00    -0.206 F 
ATOM    102  C   UNL     1      -9.103  -0.752   0.353  1.00  0.00     0.060 A 
BRANCH 102 103
ATOM    103  S   UNL     1      -8.910  -0.753   2.151  1.00  0.00     0.124 S 
ATOM    104  O   UNL     1     -10.192  -0.222   2.603  1.00  0.00    -0.237 OA
ATOM    105  O   UNL     1      -8.674  -2.164   2.433  1.00  0.00    -0.237 OA
ATOM    106  O   UNL     1      -7.764   0.127   2.375  1.00  0.00    -0.744 OA
ENDBRANCH 102 103
ENDBRANCH  70  95
ENDBRANCH  44  45
ENDBRANCH  36  39
ENDBRANCH  34  35
ENDBRANCH  33  34
ENDBRANCH  32  33
ENDBRANCH   1  32
TORSDOF 20
