REMARK SMILES CC1=C[C@@H]([C@@H]2N=N[C@H](S)N2/N=C/c2ccc(C(=O)NCCCCNC(=O)c3ccc(-c4c5nc(c(-c6c(F)cc(S(=O)(=O)[O-])cc6F)c6ccc([nH]6)c(-c6c(F)cc(S(=O)(=O)[O-])cc6F)c6nc(c(-c7c(F)cc(S(=O)(=O)[O-])cc7F)c7ccc4[nH]7)C=C6)C=C5)cc3)cc2)N=N1
REMARK SMILES IDX 21 1 20 2 19 3 17 4 18 5 16 7 13 8 14 9 94 10 15 11 93 12
REMARK SMILES IDX 12 13 11 14 10 15 5 16 6 17 7 18 8 19 4 20 1 21 2 22 3 23
REMARK SMILES IDX 96 24 95 25 9 26 22 28 23 29 24 30 25 31 26 33 27 34 28 35
REMARK SMILES IDX 92 36 29 37 91 38 30 39 31 40 32 41 85 42 33 43 90 44 84 45
REMARK SMILES IDX 86 46 34 47 89 48 83 49 82 50 35 52 69 53 48 54 68 55 49 56
REMARK SMILES IDX 52 57 67 58 87 59 50 60 51 61 66 63 88 64 53 65 36 66 37 67
REMARK SMILES IDX 46 68 38 69 39 70 45 71 47 72 40 73 41 74 42 75 43 76 44 77
REMARK SMILES IDX 70 78 71 79 80 80 72 81 73 82 79 83 81 84 74 85 75 86 76 87
REMARK SMILES IDX 77 88 78 89 54 90 55 91 64 92 56 93 57 94 63 95 65 96 58 97
REMARK SMILES IDX 59 98 60 99 61 100 62 101
REMARK H PARENT 19 6 9 27 24 32 86 51 52 62
REMARK Flexibility Score: inf
ROOT
ATOM      1  C   UNL     1      -4.814  -0.779   4.186  1.00  0.00     0.023 C 
ENDROOT
BRANCH   1   2
ATOM      2  C   UNL     1      -5.142  -1.957   3.257  1.00  0.00     0.116 C 
BRANCH   2   3
ATOM      3  N   UNL     1      -6.552  -1.974   2.926  1.00  0.00    -0.352 N 
ATOM      4  C   UNL     1      -7.267  -1.412   1.901  1.00  0.00     0.251 C 
ATOM      5  O   UNL     1      -8.491  -1.543   1.922  1.00  0.00    -0.269 OA
ATOM      6  H   UNL     1      -7.103  -2.487   3.560  1.00  0.00     0.163 HD
BRANCH   4   7
ATOM      7  C   UNL     1      -6.645  -0.688   0.754  1.00  0.00     0.039 A 
ATOM      8  C   UNL     1      -5.637   0.608  -1.517  1.00  0.00    -0.005 A 
ATOM      9  C   UNL     1      -6.902   0.017  -1.562  1.00  0.00     0.010 A 
ATOM     10  C   UNL     1      -4.881   0.577  -0.353  1.00  0.00     0.010 A 
ATOM     11  C   UNL     1      -7.394  -0.639  -0.434  1.00  0.00     0.014 A 
ATOM     12  C   UNL     1      -5.405  -0.038   0.785  1.00  0.00     0.014 A 
BRANCH   8  13
ATOM     13  C   UNL     1      -5.169   1.347  -2.696  1.00  0.00     0.141 C 
ATOM     14  N   UNL     1      -3.925   1.649  -2.905  1.00  0.00    -0.180 NA
BRANCH  14  15
ATOM     15  N   UNL     1      -3.645   2.397  -4.007  1.00  0.00    -0.233 NA
ATOM     16  C   UNL     1      -2.406   2.209  -4.776  1.00  0.00     0.274 C 
ATOM     17  N   UNL     1      -2.750   2.425  -6.214  1.00  0.00    -0.161 NA
ATOM     18  N   UNL     1      -3.893   2.928  -6.323  1.00  0.00    -0.153 NA
ATOM     19  C   UNL     1      -4.580   2.895  -5.019  1.00  0.00     0.298 C 
BRANCH  16  20
ATOM     20  C   UNL     1      -1.259   3.206  -4.375  1.00  0.00     0.201 C 
ATOM     21  C   UNL     1      -1.965   6.454  -5.922  1.00  0.00     0.068 C 
ATOM     22  C   UNL     1      -1.371   5.212  -5.365  1.00  0.00     0.058 C 
ATOM     23  C   UNL     1      -1.740   4.613  -4.234  1.00  0.00     0.031 C 
ATOM     24  N   UNL     1      -0.477   4.462  -6.087  1.00  0.00    -0.160 NA
ATOM     25  N   UNL     1      -0.299   3.342  -5.519  1.00  0.00    -0.177 NA
ENDBRANCH  16  20
BRANCH  19  26
ATOM     26  S   UNL     1      -5.302   4.469  -4.438  1.00  0.00    -0.128 SA
ATOM     27  H   UNL     1      -4.308   5.370  -4.217  1.00  0.00     0.106 HD
ENDBRANCH  19  26
ENDBRANCH  14  15
ENDBRANCH   8  13
ENDBRANCH   4   7
ENDBRANCH   2   3
ENDBRANCH   1   2
BRANCH   1  28
ATOM     28  C   UNL     1      -5.220  -0.968   5.655  1.00  0.00     0.023 C 
BRANCH  28  29
ATOM     29  C   UNL     1      -4.421  -2.029   6.398  1.00  0.00     0.116 C 
BRANCH  29  30
ATOM     30  N   UNL     1      -2.977  -1.739   6.450  1.00  0.00    -0.352 N 
ATOM     31  C   UNL     1      -1.939  -2.581   6.821  1.00  0.00     0.251 C 
ATOM     32  H   UNL     1      -2.715  -0.828   6.186  1.00  0.00     0.163 HD
ATOM     33  O   UNL     1      -0.856  -2.125   7.197  1.00  0.00    -0.269 OA
BRANCH  31  34
ATOM     34  C   UNL     1      -2.150  -4.031   6.717  1.00  0.00     0.039 A 
ATOM     35  C   UNL     1      -1.674  -4.979   7.628  1.00  0.00     0.014 A 
ATOM     36  C   UNL     1      -2.947  -4.417   5.653  1.00  0.00     0.014 A 
ATOM     37  C   UNL     1      -2.049  -6.311   7.444  1.00  0.00     0.010 A 
ATOM     38  C   UNL     1      -3.603  -5.599   5.726  1.00  0.00     0.010 A 
ATOM     39  C   UNL     1      -3.011  -6.600   6.469  1.00  0.00    -0.014 A 
BRANCH  39  40
ATOM     40  C   UNL     1      -3.465  -7.929   6.112  1.00  0.00     0.031 A 
ATOM     41  C   UNL     1      -4.257  -8.614   7.155  1.00  0.00     0.074 A 
ATOM     42  C   UNL     1      -3.433  -8.337   4.820  1.00  0.00     0.049 A 
ATOM     43  N   UNL     1      -3.889  -9.612   7.881  1.00  0.00    -0.248 NA
ATOM     44  C   UNL     1      -5.535  -8.016   7.571  1.00  0.00     0.031 C 
ATOM     45  C   UNL     1      -2.998  -7.605   3.617  1.00  0.00     0.029 A 
ATOM     46  N   UNL     1      -3.903  -9.496   4.297  1.00  0.00    -0.354 N 
ATOM     47  C   UNL     1      -4.976  -9.919   8.691  1.00  0.00     0.074 A 
ATOM     48  C   UNL     1      -5.854  -8.781   8.619  1.00  0.00     0.031 C 
ATOM     49  C   UNL     1      -3.426  -8.249   2.508  1.00  0.00     0.029 A 
ATOM     50  C   UNL     1      -4.016  -9.511   2.908  1.00  0.00     0.049 A 
ATOM     51  H   UNL     1      -4.145 -10.270   4.856  1.00  0.00     0.167 HD
ATOM     52  C   UNL     1      -5.164 -11.180   9.174  1.00  0.00     0.037 A 
ATOM     53  C   UNL     1      -4.597 -10.494   2.173  1.00  0.00     0.037 A 
ATOM     54  C   UNL     1      -4.005 -12.001   8.909  1.00  0.00     0.049 A 
ATOM     55  C   UNL     1      -4.605 -11.709   3.042  1.00  0.00     0.074 A 
ATOM     56  C   UNL     1      -2.681 -11.947   9.296  1.00  0.00     0.029 A 
ATOM     57  N   UNL     1      -4.040 -12.799   7.786  1.00  0.00    -0.354 N 
ATOM     58  N   UNL     1      -3.511 -12.306   3.445  1.00  0.00    -0.248 NA
ATOM     59  C   UNL     1      -5.772 -11.925   3.889  1.00  0.00     0.031 C 
ATOM     60  C   UNL     1      -1.944 -12.288   8.124  1.00  0.00     0.029 A 
ATOM     61  C   UNL     1      -2.853 -12.623   7.117  1.00  0.00     0.049 A 
ATOM     62  H   UNL     1      -4.781 -13.387   7.513  1.00  0.00     0.167 HD
ATOM     63  C   UNL     1      -3.736 -12.620   4.781  1.00  0.00     0.074 A 
ATOM     64  C   UNL     1      -5.171 -12.414   4.980  1.00  0.00     0.031 C 
ATOM     65  C   UNL     1      -2.706 -12.717   5.678  1.00  0.00     0.037 A 
BRANCH  52  66
ATOM     66  C   UNL     1      -6.482 -11.786   9.582  1.00  0.00     0.058 A 
ATOM     67  C   UNL     1      -6.484 -13.031  10.246  1.00  0.00     0.135 A 
ATOM     68  C   UNL     1      -7.741 -11.337   9.130  1.00  0.00     0.135 A 
ATOM     69  F   UNL     1      -5.344 -13.550  10.732  1.00  0.00    -0.206 F 
ATOM     70  C   UNL     1      -7.632 -13.812  10.371  1.00  0.00     0.059 A 
ATOM     71  C   UNL     1      -8.909 -12.075   9.293  1.00  0.00     0.059 A 
ATOM     72  F   UNL     1      -7.889 -10.211   8.423  1.00  0.00    -0.206 F 
ATOM     73  C   UNL     1      -8.838 -13.331   9.872  1.00  0.00     0.060 A 
BRANCH  73  74
ATOM     74  S   UNL     1     -10.294 -14.388   9.918  1.00  0.00     0.124 S 
ATOM     75  O   UNL     1      -9.925 -15.434   8.970  1.00  0.00    -0.237 OA
ATOM     76  O   UNL     1     -10.337 -14.783  11.322  1.00  0.00    -0.237 OA
ATOM     77  O   UNL     1     -11.369 -13.499   9.489  1.00  0.00    -0.744 OA
ENDBRANCH  73  74
ENDBRANCH  52  66
BRANCH  53  78
ATOM     78  C   UNL     1      -5.456 -10.326   0.966  1.00  0.00     0.058 A 
ATOM     79  C   UNL     1      -5.808 -11.411   0.143  1.00  0.00     0.135 A 
ATOM     80  C   UNL     1      -6.170  -9.129   0.741  1.00  0.00     0.135 A 
ATOM     81  F   UNL     1      -5.198 -12.597   0.296  1.00  0.00    -0.206 F 
ATOM     82  C   UNL     1      -6.831 -11.326  -0.815  1.00  0.00     0.059 A 
ATOM     83  C   UNL     1      -7.186  -9.019  -0.209  1.00  0.00     0.059 A 
ATOM     84  F   UNL     1      -5.961  -8.046   1.504  1.00  0.00    -0.206 F 
ATOM     85  C   UNL     1      -7.530 -10.129  -0.968  1.00  0.00     0.060 A 
BRANCH  85  86
ATOM     86  S   UNL     1      -8.966 -10.056  -2.070  1.00  0.00     0.124 S 
ATOM     87  O   UNL     1      -8.345 -10.165  -3.385  1.00  0.00    -0.237 OA
ATOM     88  O   UNL     1      -9.746 -11.210  -1.635  1.00  0.00    -0.237 OA
ATOM     89  O   UNL     1      -9.560  -8.757  -1.766  1.00  0.00    -0.744 OA
ENDBRANCH  85  86
ENDBRANCH  53  78
BRANCH  65  90
ATOM     90  C   UNL     1      -1.287 -12.691   5.158  1.00  0.00     0.058 A 
ATOM     91  C   UNL     1      -0.683 -11.572   4.554  1.00  0.00     0.135 A 
ATOM     92  C   UNL     1      -0.445 -13.766   5.477  1.00  0.00     0.135 A 
ATOM     93  F   UNL     1      -1.386 -10.461   4.310  1.00  0.00    -0.206 F 
ATOM     94  C   UNL     1       0.681 -11.533   4.257  1.00  0.00     0.059 A 
ATOM     95  C   UNL     1       0.923 -13.739   5.217  1.00  0.00     0.059 A 
ATOM     96  F   UNL     1      -0.942 -14.838   6.117  1.00  0.00    -0.206 F 
ATOM     97  C   UNL     1       1.479 -12.623   4.597  1.00  0.00     0.060 A 
BRANCH  97  98
ATOM     98  S   UNL     1       3.257 -12.540   4.293  1.00  0.00     0.124 S 
ATOM     99  O   UNL     1       3.325 -12.665   2.841  1.00  0.00    -0.237 OA
ATOM    100  O   UNL     1       3.613 -11.231   4.833  1.00  0.00    -0.237 OA
ATOM    101  O   UNL     1       3.784 -13.678   5.043  1.00  0.00    -0.744 OA
ENDBRANCH  97  98
ENDBRANCH  65  90
ENDBRANCH  39  40
ENDBRANCH  31  34
ENDBRANCH  29  30
ENDBRANCH  28  29
ENDBRANCH   1  28
TORSDOF 18
