REMARK SMILES CCc1nc(N2CCC[C@@H](C(=O)NCCCCNC(=O)c3ccc(-c4c5nc(c(-c6c(F)cc(S(=O)(=O)[O-])cc6F)c6ccc([nH]6)c(-c6c(F)cc(S(=O)(=O)[O-])cc6F)c6nc(c(-c7c(F)cc(S(=O)(=O)[O-])cc7F)c7ccc4[nH]7)C=C6)C=C5)cc3)C2)c2c(C)c(C)oc2n1
REMARK SMILES IDX 16 1 15 2 14 3 13 4 11 5 12 6 10 8 6 9 7 10 87 11 8 12 9 13
REMARK SMILES IDX 5 14 3 15 4 16 95 17 94 18 88 19 93 20 89 21 91 22 90 23
REMARK SMILES IDX 92 24 2 25 1 26 17 27 18 28 19 29 20 31 21 32 22 33 86 34
REMARK SMILES IDX 23 35 85 36 24 37 25 38 26 39 79 40 27 41 84 42 78 43 80 44
REMARK SMILES IDX 28 45 83 46 77 47 76 48 29 50 63 51 42 52 62 53 43 54 46 55
REMARK SMILES IDX 61 56 81 57 44 58 45 59 60 61 82 62 47 63 30 64 31 65 40 66
REMARK SMILES IDX 32 67 33 68 39 69 41 70 34 71 35 72 36 73 37 74 38 75 64 76
REMARK SMILES IDX 65 77 74 78 66 79 67 80 73 81 75 82 68 83 69 84 70 85 71 86
REMARK SMILES IDX 72 87 48 88 49 89 58 90 50 91 51 92 57 93 59 94 52 95 53 96
REMARK SMILES IDX 54 97 55 98 56 99
REMARK H PARENT 13 7 18 30 80 49 46 60
REMARK Flexibility Score: inf
ROOT
ATOM      1  C   UNL     1       9.630  -0.175  -8.734  1.00  0.00     0.023 C 
ENDROOT
BRANCH   1   2
ATOM      2  C   UNL     1       8.177  -0.689  -8.725  1.00  0.00     0.023 C 
BRANCH   2   3
ATOM      3  C   UNL     1       7.400  -0.509  -7.418  1.00  0.00     0.116 C 
BRANCH   3   4
ATOM      4  N   UNL     1       7.175   0.888  -7.071  1.00  0.00    -0.356 N 
ATOM      5  C   UNL     1       6.032   1.542  -6.700  1.00  0.00     0.224 C 
ATOM      6  O   UNL     1       6.124   2.704  -6.303  1.00  0.00    -0.275 OA
ATOM      7  H   UNL     1       7.979   1.456  -7.109  1.00  0.00     0.163 HD
BRANCH   5   8
ATOM      8  C   UNL     1       4.684   0.869  -6.863  1.00  0.00     0.098 C 
ATOM      9  N   UNL     1       2.494   0.519  -6.006  1.00  0.00    -0.355 N 
ATOM     10  C   UNL     1       1.739   0.905  -7.185  1.00  0.00     0.118 C 
ATOM     11  C   UNL     1       3.715   1.271  -5.744  1.00  0.00     0.131 C 
ATOM     12  C   UNL     1       2.629   0.765  -8.426  1.00  0.00     0.022 C 
ATOM     13  C   UNL     1       4.080   1.237  -8.233  1.00  0.00     0.017 C 
BRANCH   9  14
ATOM     14  C   UNL     1       1.878  -0.178  -4.994  1.00  0.00     0.143 A 
ATOM     15  C   UNL     1       0.891  -0.233  -2.866  1.00  0.00     0.134 A 
ATOM     16  N   UNL     1       1.526   0.454  -3.847  1.00  0.00    -0.215 NA
ATOM     17  N   UNL     1       0.539  -1.526  -2.900  1.00  0.00    -0.197 NA
ATOM     18  C   UNL     1       0.949  -2.129  -4.020  1.00  0.00     0.231 A 
ATOM     19  C   UNL     1       1.620  -1.557  -5.089  1.00  0.00     0.086 A 
ATOM     20  O   UNL     1       0.740  -3.454  -4.255  1.00  0.00    -0.443 OA
ATOM     21  C   UNL     1       1.894  -2.627  -6.005  1.00  0.00     0.004 A 
ATOM     22  C   UNL     1       1.308  -3.750  -5.454  1.00  0.00     0.107 A 
ATOM     23  C   UNL     1       2.661  -2.589  -7.271  1.00  0.00     0.049 C 
ATOM     24  C   UNL     1       1.212  -5.157  -5.894  1.00  0.00     0.088 C 
BRANCH  15  25
ATOM     25  C   UNL     1       0.479   0.542  -1.639  1.00  0.00     0.074 C 
ATOM     26  C   UNL     1       1.022  -0.060  -0.350  1.00  0.00     0.012 C 
ENDBRANCH  15  25
ENDBRANCH   9  14
ENDBRANCH   5   8
ENDBRANCH   3   4
ENDBRANCH   2   3
ENDBRANCH   1   2
BRANCH   1  27
ATOM     27  C   UNL     1      10.649  -0.959  -7.882  1.00  0.00     0.116 C 
BRANCH  27  28
ATOM     28  N   UNL     1      10.827  -2.313  -8.381  1.00  0.00    -0.352 N 
ATOM     29  C   UNL     1      11.940  -3.066  -8.654  1.00  0.00     0.251 C 
ATOM     30  H   UNL     1       9.980  -2.782  -8.559  1.00  0.00     0.163 HD
ATOM     31  O   UNL     1      11.771  -4.087  -9.326  1.00  0.00    -0.269 OA
BRANCH  29  32
ATOM     32  C   UNL     1      13.316  -2.737  -8.194  1.00  0.00     0.039 A 
ATOM     33  C   UNL     1      14.382  -3.113  -9.030  1.00  0.00     0.014 A 
ATOM     34  C   UNL     1      13.604  -2.236  -6.924  1.00  0.00     0.014 A 
ATOM     35  C   UNL     1      15.714  -2.959  -8.621  1.00  0.00     0.010 A 
ATOM     36  C   UNL     1      14.942  -2.084  -6.515  1.00  0.00     0.010 A 
ATOM     37  C   UNL     1      16.013  -2.429  -7.361  1.00  0.00    -0.014 A 
BRANCH  37  38
ATOM     38  C   UNL     1      17.428  -2.095  -7.043  1.00  0.00     0.031 A 
ATOM     39  C   UNL     1      17.638  -0.742  -6.452  1.00  0.00     0.074 A 
ATOM     40  C   UNL     1      18.424  -2.996  -6.874  1.00  0.00     0.049 A 
ATOM     41  N   UNL     1      17.447  -0.508  -5.188  1.00  0.00    -0.248 NA
ATOM     42  C   UNL     1      17.835   0.464  -7.255  1.00  0.00     0.031 C 
ATOM     43  C   UNL     1      18.215  -4.374  -6.421  1.00  0.00     0.029 A 
ATOM     44  N   UNL     1      19.797  -2.837  -6.834  1.00  0.00    -0.354 N 
ATOM     45  C   UNL     1      17.450   0.861  -5.017  1.00  0.00     0.074 A 
ATOM     46  C   UNL     1      17.707   1.425  -6.325  1.00  0.00     0.031 C 
ATOM     47  C   UNL     1      19.394  -4.875  -5.994  1.00  0.00     0.029 A 
ATOM     48  C   UNL     1      20.476  -3.930  -6.286  1.00  0.00     0.049 A 
ATOM     49  H   UNL     1      20.255  -2.029  -7.160  1.00  0.00     0.167 HD
ATOM     50  C   UNL     1      17.232   1.445  -3.810  1.00  0.00     0.037 A 
ATOM     51  C   UNL     1      21.626  -3.876  -5.552  1.00  0.00     0.037 A 
ATOM     52  C   UNL     1      17.038   0.543  -2.714  1.00  0.00     0.049 A 
ATOM     53  C   UNL     1      21.207  -3.034  -4.377  1.00  0.00     0.074 A 
ATOM     54  C   UNL     1      15.980  -0.054  -2.062  1.00  0.00     0.029 A 
ATOM     55  N   UNL     1      18.157   0.006  -2.122  1.00  0.00    -0.354 N 
ATOM     56  N   UNL     1      20.534  -3.446  -3.338  1.00  0.00    -0.248 NA
ATOM     57  C   UNL     1      21.272  -1.579  -4.531  1.00  0.00     0.031 C 
ATOM     58  C   UNL     1      16.521  -1.237  -1.463  1.00  0.00     0.029 A 
ATOM     59  C   UNL     1      17.863  -1.302  -1.830  1.00  0.00     0.049 A 
ATOM     60  H   UNL     1      19.006   0.470  -1.943  1.00  0.00     0.167 HD
ATOM     61  C   UNL     1      19.867  -2.318  -2.861  1.00  0.00     0.074 A 
ATOM     62  C   UNL     1      20.380  -1.200  -3.627  1.00  0.00     0.031 C 
ATOM     63  C   UNL     1      18.812  -2.379  -1.999  1.00  0.00     0.037 A 
BRANCH  50  64
ATOM     64  C   UNL     1      17.353   2.890  -3.545  1.00  0.00     0.058 A 
ATOM     65  C   UNL     1      18.536   3.353  -2.951  1.00  0.00     0.135 A 
ATOM     66  C   UNL     1      16.271   3.769  -3.650  1.00  0.00     0.135 A 
ATOM     67  F   UNL     1      19.591   2.529  -2.827  1.00  0.00    -0.206 F 
ATOM     68  C   UNL     1      18.630   4.631  -2.423  1.00  0.00     0.059 A 
ATOM     69  C   UNL     1      16.343   5.061  -3.134  1.00  0.00     0.059 A 
ATOM     70  F   UNL     1      15.119   3.362  -4.207  1.00  0.00    -0.206 F 
ATOM     71  C   UNL     1      17.519   5.471  -2.499  1.00  0.00     0.060 A 
BRANCH  71  72
ATOM     72  S   UNL     1      17.631   7.087  -1.702  1.00  0.00     0.124 S 
ATOM     73  O   UNL     1      17.822   6.718  -0.303  1.00  0.00    -0.237 OA
ATOM     74  O   UNL     1      18.788   7.671  -2.371  1.00  0.00    -0.237 OA
ATOM     75  O   UNL     1      16.348   7.709  -2.017  1.00  0.00    -0.744 OA
ENDBRANCH  71  72
ENDBRANCH  50  64
BRANCH  51  76
ATOM     76  C   UNL     1      22.925  -3.636  -6.271  1.00  0.00     0.058 A 
ATOM     77  C   UNL     1      23.205  -4.341  -7.458  1.00  0.00     0.135 A 
ATOM     78  C   UNL     1      23.940  -2.767  -5.826  1.00  0.00     0.135 A 
ATOM     79  F   UNL     1      22.369  -5.299  -7.891  1.00  0.00    -0.206 F 
ATOM     80  C   UNL     1      24.338  -4.088  -8.232  1.00  0.00     0.059 A 
ATOM     81  C   UNL     1      25.069  -2.474  -6.595  1.00  0.00     0.059 A 
ATOM     82  F   UNL     1      23.858  -2.161  -4.633  1.00  0.00    -0.206 F 
ATOM     83  C   UNL     1      25.243  -3.116  -7.815  1.00  0.00     0.060 A 
BRANCH  83  84
ATOM     84  S   UNL     1      26.599  -2.658  -8.916  1.00  0.00     0.124 S 
ATOM     85  O   UNL     1      27.405  -3.877  -8.927  1.00  0.00    -0.237 OA
ATOM     86  O   UNL     1      25.886  -2.361 -10.158  1.00  0.00    -0.237 OA
ATOM     87  O   UNL     1      27.201  -1.510  -8.258  1.00  0.00    -0.744 OA
ENDBRANCH  83  84
ENDBRANCH  51  76
BRANCH  63  88
ATOM     88  C   UNL     1      18.525  -3.719  -1.408  1.00  0.00     0.058 A 
ATOM     89  C   UNL     1      19.346  -4.232  -0.396  1.00  0.00     0.135 A 
ATOM     90  C   UNL     1      17.395  -4.466  -1.780  1.00  0.00     0.135 A 
ATOM     91  F   UNL     1      20.438  -3.556  -0.001  1.00  0.00    -0.206 F 
ATOM     92  C   UNL     1      19.033  -5.418   0.261  1.00  0.00     0.059 A 
ATOM     93  C   UNL     1      17.052  -5.644  -1.123  1.00  0.00     0.059 A 
ATOM     94  F   UNL     1      16.581  -4.036  -2.759  1.00  0.00    -0.206 F 
ATOM     95  C   UNL     1      17.870  -6.105  -0.092  1.00  0.00     0.060 A 
BRANCH  95  96
ATOM     96  S   UNL     1      17.397  -7.552   0.877  1.00  0.00     0.124 S 
ATOM     97  O   UNL     1      18.423  -8.521   0.504  1.00  0.00    -0.237 OA
ATOM     98  O   UNL     1      17.472  -7.046   2.244  1.00  0.00    -0.237 OA
ATOM     99  O   UNL     1      16.049  -7.856   0.406  1.00  0.00    -0.744 OA
ENDBRANCH  95  96
ENDBRANCH  63  88
ENDBRANCH  37  38
ENDBRANCH  29  32
ENDBRANCH  27  28
ENDBRANCH   1  27
TORSDOF 16
