REMARK SMILES O=C(NCCCCNC(=O)c1cc(Cl)cc(Cl)c1O)c1ccc(-c2c3nc(c(-c4c(F)cc(S(=O)(=O)[O-])cc4F)c4ccc([nH]4)c(-c4c(F)cc(S(=O)(=O)[O-])cc4F)c4nc(c(-c5c(F)cc(S(=O)(=O)[O-])cc5F)c5ccc2[nH]5)C=C4)C=C3)cc1
REMARK SMILES IDX 4 1 3 2 1 3 2 4 20 6 21 7 85 8 22 9 84 10 23 11 24 12 25 13
REMARK SMILES IDX 78 14 26 15 83 16 77 17 79 18 27 19 82 20 76 21 75 22 28 24
REMARK SMILES IDX 62 25 41 26 61 27 42 28 45 29 60 30 80 31 43 32 44 33 59 35
REMARK SMILES IDX 81 36 46 37 29 38 30 39 39 40 31 41 32 42 38 43 40 44 33 45
REMARK SMILES IDX 34 46 35 47 36 48 37 49 63 50 64 51 73 52 65 53 66 54 72 55
REMARK SMILES IDX 74 56 67 57 68 58 69 59 70 60 71 61 47 62 48 63 57 64 49 65
REMARK SMILES IDX 50 66 56 67 58 68 51 69 52 70 53 71 54 72 55 73 5 74 6 75
REMARK SMILES IDX 7 76 8 77 9 78 10 80 11 81 12 82 18 83 13 84 16 85 14 86
REMARK SMILES IDX 15 87 17 88 19 89
REMARK H PARENT 3 5 79 23 45 34 8 79 19 90
REMARK Flexibility Score: inf
ROOT
ATOM      1  C   UNL     1       4.613   0.599  -1.223  1.00  0.00     0.116 C 
ENDROOT
BRANCH   1   2
ATOM      2  N   UNL     1       3.189   0.616  -0.924  1.00  0.00    -0.352 N 
ATOM      3  O   UNL     1       1.264  -0.091   0.021  1.00  0.00    -0.269 OA
ATOM      4  C   UNL     1       2.488  -0.171  -0.037  1.00  0.00     0.251 C 
ATOM      5  H   UNL     1       2.656   1.279  -1.421  1.00  0.00     0.163 HD
BRANCH   4   6
ATOM      6  C   UNL     1       3.218  -1.137   0.814  1.00  0.00     0.039 A 
ATOM      7  C   UNL     1       4.381  -0.750   1.481  1.00  0.00     0.014 A 
ATOM      8  C   UNL     1       2.753  -2.451   0.916  1.00  0.00     0.014 A 
ATOM      9  C   UNL     1       5.162  -1.711   2.110  1.00  0.00     0.010 A 
ATOM     10  C   UNL     1       3.496  -3.399   1.629  1.00  0.00     0.010 A 
ATOM     11  C   UNL     1       4.726  -3.045   2.202  1.00  0.00    -0.014 A 
BRANCH  11  12
ATOM     12  C   UNL     1       5.563  -4.014   2.955  1.00  0.00     0.031 A 
ATOM     13  C   UNL     1       6.230  -5.178   2.273  1.00  0.00     0.074 A 
ATOM     14  C   UNL     1       5.779  -3.782   4.265  1.00  0.00     0.049 A 
ATOM     15  N   UNL     1       7.059  -6.058   2.776  1.00  0.00    -0.248 NA
ATOM     16  C   UNL     1       5.928  -5.391   0.849  1.00  0.00     0.031 C 
ATOM     17  C   UNL     1       5.160  -2.701   5.039  1.00  0.00     0.029 A 
ATOM     18  N   UNL     1       6.597  -4.408   5.168  1.00  0.00    -0.354 N 
ATOM     19  C   UNL     1       7.368  -6.933   1.742  1.00  0.00     0.074 A 
ATOM     20  C   UNL     1       6.618  -6.493   0.584  1.00  0.00     0.031 C 
ATOM     21  C   UNL     1       5.669  -2.700   6.279  1.00  0.00     0.029 A 
ATOM     22  C   UNL     1       6.606  -3.809   6.406  1.00  0.00     0.049 A 
ATOM     23  H   UNL     1       7.128  -5.209   4.952  1.00  0.00     0.167 HD
ATOM     24  C   UNL     1       8.207  -7.997   1.756  1.00  0.00     0.037 A 
ATOM     25  C   UNL     1       7.290  -4.117   7.523  1.00  0.00     0.037 A 
ATOM     26  C   UNL     1       8.962  -8.421   2.909  1.00  0.00     0.049 A 
ATOM     27  C   UNL     1       8.234  -5.282   7.500  1.00  0.00     0.074 A 
ATOM     28  C   UNL     1       9.841  -9.485   3.022  1.00  0.00     0.029 A 
ATOM     29  N   UNL     1       8.935  -7.797   4.148  1.00  0.00    -0.354 N 
ATOM     30  N   UNL     1       8.515  -6.092   6.507  1.00  0.00    -0.248 NA
ATOM     31  C   UNL     1       8.951  -5.579   8.746  1.00  0.00     0.031 C 
ATOM     32  C   UNL     1      10.326  -9.519   4.334  1.00  0.00     0.029 A 
ATOM     33  C   UNL     1       9.776  -8.456   5.031  1.00  0.00     0.049 A 
ATOM     34  H   UNL     1       8.397  -7.003   4.368  1.00  0.00     0.167 HD
ATOM     35  C   UNL     1       9.435  -7.001   7.011  1.00  0.00     0.074 A 
ATOM     36  C   UNL     1       9.693  -6.616   8.385  1.00  0.00     0.031 C 
ATOM     37  C   UNL     1      10.005  -8.067   6.398  1.00  0.00     0.037 A 
BRANCH  24  38
ATOM     38  C   UNL     1       8.360  -8.789   0.486  1.00  0.00     0.058 A 
ATOM     39  C   UNL     1       9.111  -8.303  -0.595  1.00  0.00     0.135 A 
ATOM     40  C   UNL     1       7.806 -10.075   0.373  1.00  0.00     0.135 A 
ATOM     41  F   UNL     1       9.649  -7.074  -0.546  1.00  0.00    -0.206 F 
ATOM     42  C   UNL     1       9.301  -9.060  -1.748  1.00  0.00     0.059 A 
ATOM     43  C   UNL     1       8.000 -10.857  -0.763  1.00  0.00     0.059 A 
ATOM     44  F   UNL     1       7.078 -10.587   1.377  1.00  0.00    -0.206 F 
ATOM     45  C   UNL     1       8.742 -10.337  -1.822  1.00  0.00     0.060 A 
BRANCH  45  46
ATOM     46  S   UNL     1       9.018 -11.317  -3.314  1.00  0.00     0.124 S 
ATOM     47  O   UNL     1       8.121 -10.662  -4.261  1.00  0.00    -0.237 OA
ATOM     48  O   UNL     1      10.444 -11.125  -3.557  1.00  0.00    -0.237 OA
ATOM     49  O   UNL     1       8.630 -12.665  -2.912  1.00  0.00    -0.744 OA
ENDBRANCH  45  46
ENDBRANCH  24  38
BRANCH  25  50
ATOM     50  C   UNL     1       7.091  -3.311   8.753  1.00  0.00     0.058 A 
ATOM     51  C   UNL     1       8.090  -2.450   9.229  1.00  0.00     0.135 A 
ATOM     52  C   UNL     1       5.880  -3.366   9.461  1.00  0.00     0.135 A 
ATOM     53  F   UNL     1       9.264  -2.365   8.585  1.00  0.00    -0.206 F 
ATOM     54  C   UNL     1       7.903  -1.682  10.373  1.00  0.00     0.059 A 
ATOM     55  C   UNL     1       5.660  -2.589  10.591  1.00  0.00     0.059 A 
ATOM     56  F   UNL     1       4.886  -4.159   9.031  1.00  0.00    -0.206 F 
ATOM     57  C   UNL     1       6.683  -1.759  11.047  1.00  0.00     0.060 A 
BRANCH  57  58
ATOM     58  S   UNL     1       6.418  -0.721  12.501  1.00  0.00     0.124 S 
ATOM     59  O   UNL     1       7.093  -1.493  13.537  1.00  0.00    -0.237 OA
ATOM     60  O   UNL     1       7.062   0.530  12.114  1.00  0.00    -0.237 OA
ATOM     61  O   UNL     1       4.962  -0.660  12.603  1.00  0.00    -0.744 OA
ENDBRANCH  57  58
ENDBRANCH  25  50
BRANCH  37  62
ATOM     62  C   UNL     1      10.955  -8.887   7.222  1.00  0.00     0.058 A 
ATOM     63  C   UNL     1      10.488  -9.754   8.223  1.00  0.00     0.135 A 
ATOM     64  C   UNL     1      12.340  -8.803   7.016  1.00  0.00     0.135 A 
ATOM     65  F   UNL     1       9.171  -9.863   8.462  1.00  0.00    -0.206 F 
ATOM     66  C   UNL     1      11.365 -10.484   9.017  1.00  0.00     0.059 A 
ATOM     67  C   UNL     1      13.235  -9.540   7.784  1.00  0.00     0.059 A 
ATOM     68  F   UNL     1      12.834  -7.995   6.066  1.00  0.00    -0.206 F 
ATOM     69  C   UNL     1      12.738 -10.363   8.796  1.00  0.00     0.060 A 
BRANCH  69  70
ATOM     70  S   UNL     1      13.872 -11.307   9.836  1.00  0.00     0.124 S 
ATOM     71  O   UNL     1      13.896 -10.497  11.050  1.00  0.00    -0.237 OA
ATOM     72  O   UNL     1      13.200 -12.598   9.949  1.00  0.00    -0.237 OA
ATOM     73  O   UNL     1      15.109 -11.318   9.061  1.00  0.00    -0.744 OA
ENDBRANCH  69  70
ENDBRANCH  37  62
ENDBRANCH  11  12
ENDBRANCH   4   6
ENDBRANCH   1   2
BRANCH   1  74
ATOM     74  C   UNL     1       4.925   0.691  -2.711  1.00  0.00     0.023 C 
BRANCH  74  75
ATOM     75  C   UNL     1       4.414   1.948  -3.413  1.00  0.00     0.023 C 
BRANCH  75  76
ATOM     76  C   UNL     1       4.795   3.267  -2.744  1.00  0.00     0.116 C 
BRANCH  76  77
ATOM     77  N   UNL     1       6.236   3.473  -2.707  1.00  0.00    -0.352 N 
ATOM     78  C   UNL     1       7.019   4.275  -3.494  1.00  0.00     0.255 C 
ATOM     79  H   UNL     1       6.716   2.962  -2.016  1.00  0.00     0.163 HD
ATOM     80  O   UNL     1       8.238   4.123  -3.536  1.00  0.00    -0.269 OA
BRANCH  78  81
ATOM     81  C   UNL     1       6.418   5.299  -4.365  1.00  0.00     0.084 A 
ATOM     82  C   UNL     1       5.475   6.196  -3.852  1.00  0.00     0.038 A 
ATOM     83  C   UNL     1       6.822   5.386  -5.704  1.00  0.00     0.147 A 
ATOM     84  C   UNL     1       4.858   7.104  -4.707  1.00  0.00     0.043 A 
ATOM     85  C   UNL     1       6.190   6.301  -6.551  1.00  0.00     0.085 A 
ATOM     86  Cl  UNL     1       3.649   8.162  -4.092  1.00  0.00    -0.084 Cl
ATOM     87  C   UNL     1       5.198   7.151  -6.057  1.00  0.00     0.045 A 
ATOM     88  Cl  UNL     1       6.606   6.418  -8.223  1.00  0.00    -0.080 Cl
BRANCH  83  89
ATOM     89  O   UNL     1       7.823   4.590  -6.202  1.00  0.00    -0.506 OA
ATOM     90  H   UNL     1       8.253   3.974  -5.642  1.00  0.00     0.293 HD
ENDBRANCH  83  89
ENDBRANCH  78  81
ENDBRANCH  76  77
ENDBRANCH  75  76
ENDBRANCH  74  75
ENDBRANCH   1  74
TORSDOF 15
