REMARK SMILES C[C@@H]1[C@@H](C(=O)NCCCCNC(=O)c2ccc(-c3c4nc(c(-c5c(F)cc(S(=O)(=O)[O-])cc5F)c5ccc([nH]5)c(-c5c(F)cc(S(=O)(=O)[O-])cc5F)c5nc(c(-c6c(F)cc(S(=O)(=O)[O-])cc6F)c6ccc3[nH]6)C=C5)C=C4)cc2)CCN1C(=O)[C@@H](C)OCc1ccccc1
REMARK SMILES IDX 7 1 6 2 4 3 5 4 3 6 1 7 2 8 82 9 80 10 81 11 83 12 84 13
REMARK SMILES IDX 85 14 86 15 87 16 88 17 89 18 90 19 94 20 91 21 93 22 92 23
REMARK SMILES IDX 8 24 9 25 10 26 11 27 12 28 13 30 14 31 15 32 79 33 16 34
REMARK SMILES IDX 78 35 17 36 18 37 19 38 72 39 20 40 77 41 71 42 73 43 21 44
REMARK SMILES IDX 76 45 70 46 69 47 22 49 56 50 35 51 55 52 36 53 39 54 54 55
REMARK SMILES IDX 74 56 37 57 38 58 53 60 75 61 40 62 23 63 24 64 33 65 25 66
REMARK SMILES IDX 26 67 32 68 34 69 27 70 28 71 29 72 30 73 31 74 57 75 58 76
REMARK SMILES IDX 67 77 59 78 60 79 66 80 68 81 61 82 62 83 63 84 64 85 65 86
REMARK SMILES IDX 41 87 42 88 51 89 43 90 44 91 50 92 52 93 45 94 46 95 47 96
REMARK SMILES IDX 48 97 49 98
REMARK H PARENT 6 5 11 29 73 48 39 59
REMARK Flexibility Score: inf
ROOT
ATOM      1  C   UNL     1      -2.638   3.039  -0.727  1.00  0.00     0.116 C 
ENDROOT
BRANCH   1   2
ATOM      2  N   UNL     1      -1.897   2.244  -1.687  1.00  0.00    -0.356 N 
ATOM      3  C   UNL     1      -1.019   1.224  -1.439  1.00  0.00     0.225 C 
ATOM      4  O   UNL     1      -0.539   0.618  -2.393  1.00  0.00    -0.275 OA
ATOM      5  H   UNL     1      -2.044   2.465  -2.635  1.00  0.00     0.163 HD
BRANCH   3   6
ATOM      6  C   UNL     1      -0.652   0.930   0.008  1.00  0.00     0.102 C 
ATOM      7  C   UNL     1       1.246   0.175   1.455  1.00  0.00     0.032 C 
ATOM      8  C   UNL     1       0.480  -0.097   0.149  1.00  0.00     0.094 C 
ATOM      9  N   UNL     1      -0.191  -1.384   0.230  1.00  0.00    -0.337 N 
ATOM     10  C   UNL     1      -1.798   0.278   0.786  1.00  0.00     0.037 C 
ATOM     11  C   UNL     1      -1.589  -1.218   0.587  1.00  0.00     0.121 C 
BRANCH   9  12
ATOM     12  C   UNL     1       0.294  -2.647  -0.035  1.00  0.00     0.251 C 
ATOM     13  O   UNL     1      -0.332  -3.631   0.389  1.00  0.00    -0.272 OA
BRANCH  12  14
ATOM     14  C   UNL     1       1.518  -2.889  -0.998  1.00  0.00     0.204 C 
ATOM     15  C   UNL     1       1.169  -2.449  -2.422  1.00  0.00     0.049 C 
BRANCH  14  16
ATOM     16  O   UNL     1       2.897  -2.811  -0.681  1.00  0.00    -0.364 OA
BRANCH  16  17
ATOM     17  C   UNL     1       3.575  -1.574  -0.537  1.00  0.00     0.196 C 
BRANCH  17  18
ATOM     18  C   UNL     1       3.757  -0.753  -1.789  1.00  0.00    -0.022 A 
ATOM     19  C   UNL     1       4.210  -1.341  -2.976  1.00  0.00     0.006 A 
ATOM     20  C   UNL     1       3.470   0.622  -1.786  1.00  0.00     0.006 A 
ATOM     21  C   UNL     1       4.274  -0.596  -4.154  1.00  0.00     0.000 A 
ATOM     22  C   UNL     1       3.522   1.363  -2.965  1.00  0.00     0.000 A 
ATOM     23  C   UNL     1       3.910   0.750  -4.152  1.00  0.00     0.000 A 
ENDBRANCH  17  18
ENDBRANCH  16  17
ENDBRANCH  14  16
ENDBRANCH  12  14
ENDBRANCH   9  12
ENDBRANCH   3   6
ENDBRANCH   1   2
BRANCH   1  24
ATOM     24  C   UNL     1      -2.881   4.470  -1.190  1.00  0.00     0.023 C 
BRANCH  24  25
ATOM     25  C   UNL     1      -3.714   4.615  -2.462  1.00  0.00     0.023 C 
BRANCH  25  26
ATOM     26  C   UNL     1      -4.996   3.791  -2.508  1.00  0.00     0.116 C 
BRANCH  26  27
ATOM     27  N   UNL     1      -5.889   4.058  -1.390  1.00  0.00    -0.352 N 
ATOM     28  C   UNL     1      -7.207   4.454  -1.394  1.00  0.00     0.251 C 
ATOM     29  H   UNL     1      -5.490   3.936  -0.498  1.00  0.00     0.163 HD
ATOM     30  O   UNL     1      -7.758   4.747  -0.343  1.00  0.00    -0.269 OA
BRANCH  28  31
ATOM     31  C   UNL     1      -7.933   4.560  -2.678  1.00  0.00     0.039 A 
ATOM     32  C   UNL     1      -8.674   5.715  -2.941  1.00  0.00     0.014 A 
ATOM     33  C   UNL     1      -7.859   3.538  -3.628  1.00  0.00     0.014 A 
ATOM     34  C   UNL     1      -9.276   5.878  -4.190  1.00  0.00     0.010 A 
ATOM     35  C   UNL     1      -8.387   3.740  -4.899  1.00  0.00     0.010 A 
ATOM     36  C   UNL     1      -9.104   4.910  -5.193  1.00  0.00    -0.014 A 
BRANCH  36  37
ATOM     37  C   UNL     1      -9.672   5.093  -6.553  1.00  0.00     0.031 A 
ATOM     38  C   UNL     1     -10.703   4.127  -7.071  1.00  0.00     0.074 A 
ATOM     39  C   UNL     1      -9.211   6.080  -7.347  1.00  0.00     0.049 A 
ATOM     40  N   UNL     1     -11.251   4.059  -8.256  1.00  0.00    -0.248 NA
ATOM     41  C   UNL     1     -11.151   3.076  -6.142  1.00  0.00     0.031 C 
ATOM     42  C   UNL     1      -8.176   7.051  -6.980  1.00  0.00     0.029 A 
ATOM     43  N   UNL     1      -9.544   6.425  -8.633  1.00  0.00    -0.354 N 
ATOM     44  C   UNL     1     -12.089   2.951  -8.222  1.00  0.00     0.074 A 
ATOM     45  C   UNL     1     -11.934   2.344  -6.918  1.00  0.00     0.031 C 
ATOM     46  C   UNL     1      -7.978   7.893  -8.007  1.00  0.00     0.029 A 
ATOM     47  C   UNL     1      -8.841   7.503  -9.117  1.00  0.00     0.049 A 
ATOM     48  H   UNL     1     -10.223   5.944  -9.160  1.00  0.00     0.167 HD
ATOM     49  C   UNL     1     -12.932   2.494  -9.180  1.00  0.00     0.037 A 
ATOM     50  C   UNL     1      -8.886   8.107 -10.321  1.00  0.00     0.037 A 
ATOM     51  C   UNL     1     -13.107   3.122 -10.462  1.00  0.00     0.049 A 
ATOM     52  C   UNL     1      -9.843   7.595 -11.363  1.00  0.00     0.074 A 
ATOM     53  C   UNL     1     -13.974   2.771 -11.482  1.00  0.00     0.029 A 
ATOM     54  N   UNL     1     -12.405   4.236 -10.900  1.00  0.00    -0.354 N 
ATOM     55  N   UNL     1     -10.668   6.577 -11.295  1.00  0.00    -0.248 NA
ATOM     56  C   UNL     1      -9.883   8.318 -12.642  1.00  0.00     0.031 C 
ATOM     57  C   UNL     1     -13.772   3.652 -12.550  1.00  0.00     0.029 A 
ATOM     58  C   UNL     1     -12.812   4.580 -12.178  1.00  0.00     0.049 A 
ATOM     59  H   UNL     1     -11.719   4.712 -10.379  1.00  0.00     0.167 HD
ATOM     60  C   UNL     1     -11.348   6.557 -12.507  1.00  0.00     0.074 A 
ATOM     61  C   UNL     1     -10.842   7.668 -13.287  1.00  0.00     0.031 C 
ATOM     62  C   UNL     1     -12.308   5.699 -12.934  1.00  0.00     0.037 A 
BRANCH  49  63
ATOM     63  C   UNL     1     -13.732   1.260  -8.866  1.00  0.00     0.058 A 
ATOM     64  C   UNL     1     -14.769   1.276  -7.918  1.00  0.00     0.135 A 
ATOM     65  C   UNL     1     -13.470   0.050  -9.527  1.00  0.00     0.135 A 
ATOM     66  F   UNL     1     -15.052   2.402  -7.244  1.00  0.00    -0.206 F 
ATOM     67  C   UNL     1     -15.491   0.128  -7.609  1.00  0.00     0.059 A 
ATOM     68  C   UNL     1     -14.200  -1.105  -9.256  1.00  0.00     0.059 A 
ATOM     69  F   UNL     1     -12.491  -0.023 -10.443  1.00  0.00    -0.206 F 
ATOM     70  C   UNL     1     -15.195  -1.059  -8.281  1.00  0.00     0.060 A 
BRANCH  70  71
ATOM     71  S   UNL     1     -16.134  -2.543  -7.862  1.00  0.00     0.124 S 
ATOM     72  O   UNL     1     -15.554  -2.898  -6.571  1.00  0.00    -0.237 OA
ATOM     73  O   UNL     1     -17.506  -2.046  -7.824  1.00  0.00    -0.237 OA
ATOM     74  O   UNL     1     -15.832  -3.457  -8.959  1.00  0.00    -0.744 OA
ENDBRANCH  70  71
ENDBRANCH  49  63
BRANCH  50  75
ATOM     75  C   UNL     1      -8.023   9.288 -10.591  1.00  0.00     0.058 A 
ATOM     76  C   UNL     1      -8.575  10.574 -10.686  1.00  0.00     0.135 A 
ATOM     77  C   UNL     1      -6.634   9.161 -10.741  1.00  0.00     0.135 A 
ATOM     78  F   UNL     1      -9.899  10.746 -10.555  1.00  0.00    -0.206 F 
ATOM     79  C   UNL     1      -7.784  11.691 -10.933  1.00  0.00     0.059 A 
ATOM     80  C   UNL     1      -5.819  10.266 -10.966  1.00  0.00     0.059 A 
ATOM     81  F   UNL     1      -6.054   7.954 -10.642  1.00  0.00    -0.206 F 
ATOM     82  C   UNL     1      -6.405  11.527 -11.069  1.00  0.00     0.060 A 
BRANCH  82  83
ATOM     83  S   UNL     1      -5.380  12.991 -11.334  1.00  0.00     0.124 S 
ATOM     84  O   UNL     1      -5.679  13.311 -12.725  1.00  0.00    -0.237 OA
ATOM     85  O   UNL     1      -5.907  13.918 -10.338  1.00  0.00    -0.237 OA
ATOM     86  O   UNL     1      -4.029  12.505 -11.073  1.00  0.00    -0.744 OA
ENDBRANCH  82  83
ENDBRANCH  50  75
BRANCH  62  87
ATOM     87  C   UNL     1     -12.911   5.954 -14.288  1.00  0.00     0.058 A 
ATOM     88  C   UNL     1     -12.210   5.685 -15.473  1.00  0.00     0.135 A 
ATOM     89  C   UNL     1     -14.230   6.424 -14.397  1.00  0.00     0.135 A 
ATOM     90  F   UNL     1     -10.944   5.240 -15.423  1.00  0.00    -0.206 F 
ATOM     91  C   UNL     1     -12.787   5.896 -16.721  1.00  0.00     0.059 A 
ATOM     92  C   UNL     1     -14.836   6.617 -15.633  1.00  0.00     0.059 A 
ATOM     93  F   UNL     1     -14.948   6.685 -13.293  1.00  0.00    -0.206 F 
ATOM     94  C   UNL     1     -14.102   6.362 -16.791  1.00  0.00     0.060 A 
BRANCH  94  95
ATOM     95  S   UNL     1     -14.852   6.601 -18.415  1.00  0.00     0.124 S 
ATOM     96  O   UNL     1     -14.209   7.834 -18.857  1.00  0.00    -0.237 OA
ATOM     97  O   UNL     1     -14.455   5.389 -19.126  1.00  0.00    -0.237 OA
ATOM     98  O   UNL     1     -16.277   6.707 -18.118  1.00  0.00    -0.744 OA
ENDBRANCH  94  95
ENDBRANCH  62  87
ENDBRANCH  36  37
ENDBRANCH  28  31
ENDBRANCH  26  27
ENDBRANCH  25  26
ENDBRANCH  24  25
ENDBRANCH   1  24
TORSDOF 19
