REMARK SMILES Cn1ccc(-c2n[nH]c(=O)n2-c2ccc(C(=O)NCCCCNC(=O)c3ccc(-c4c5nc(c(-c6c(F)cc(S(=O)(=O)[O-])cc6F)c6ccc([nH]6)c(-c6c(F)cc(S(=O)(=O)[O-])cc6F)c6nc(c(-c7c(F)cc(S(=O)(=O)[O-])cc7F)c7ccc4[nH]7)C=C6)C=C5)cc3)cc2)n1
REMARK SMILES IDX 21 1 20 2 19 3 18 4 16 5 17 6 15 8 12 9 13 10 93 11 14 12
REMARK SMILES IDX 92 13 11 14 6 15 7 16 8 17 9 18 10 20 5 21 1 22 2 23 3 24
REMARK SMILES IDX 94 25 4 26 22 27 23 28 24 29 25 31 26 32 27 33 91 34 28 35
REMARK SMILES IDX 90 36 29 37 30 38 31 39 84 40 32 41 89 42 83 43 85 44 33 45
REMARK SMILES IDX 88 46 82 47 81 48 34 50 68 51 47 52 67 53 48 54 51 55 66 56
REMARK SMILES IDX 86 57 49 58 50 59 65 61 87 62 52 63 35 64 36 65 45 66 37 67
REMARK SMILES IDX 38 68 44 69 46 70 39 71 40 72 41 73 42 74 43 75 69 76 70 77
REMARK SMILES IDX 79 78 71 79 72 80 78 81 80 82 73 83 74 84 75 85 76 86 77 87
REMARK SMILES IDX 53 88 54 89 63 90 55 91 56 92 62 93 64 94 57 95 58 96 59 97
REMARK SMILES IDX 60 98 61 99
REMARK H PARENT 18 7 8 19 23 30 85 49 51 60
REMARK Flexibility Score: inf
ROOT
ATOM      1  C   UNL     1       1.127   0.652   8.853  1.00  0.00     0.023 C 
ENDROOT
BRANCH   1   2
ATOM      2  C   UNL     1       1.270   0.624   7.323  1.00  0.00     0.023 C 
BRANCH   2   3
ATOM      3  C   UNL     1       0.024   1.074   6.543  1.00  0.00     0.116 C 
BRANCH   3   4
ATOM      4  N   UNL     1      -0.105   2.520   6.566  1.00  0.00    -0.352 N 
ATOM      5  C   UNL     1       0.331   3.518   5.728  1.00  0.00     0.251 C 
ATOM      6  O   UNL     1       0.111   4.679   6.076  1.00  0.00    -0.269 OA
ATOM      7  H   UNL     1      -0.610   2.854   7.342  1.00  0.00     0.163 HD
BRANCH   5   8
ATOM      8  C   UNL     1       1.012   3.276   4.421  1.00  0.00     0.039 A 
ATOM      9  C   UNL     1       2.119   2.932   1.848  1.00  0.00     0.052 A 
ATOM     10  C   UNL     1       1.560   4.158   2.204  1.00  0.00     0.028 A 
ATOM     11  C   UNL     1       2.191   1.912   2.800  1.00  0.00     0.028 A 
ATOM     12  C   UNL     1       0.981   4.314   3.471  1.00  0.00     0.016 A 
ATOM     13  C   UNL     1       1.689   2.105   4.087  1.00  0.00     0.016 A 
BRANCH   9  14
ATOM     14  N   UNL     1       2.681   2.721   0.583  1.00  0.00    -0.242 N 
ATOM     15  C   UNL     1       2.562   1.626  -0.220  1.00  0.00     0.189 A 
ATOM     16  N   UNL     1       3.488   1.510  -1.136  1.00  0.00    -0.150 NA
ATOM     17  N   UNL     1       4.261   2.625  -0.951  1.00  0.00    -0.226 N 
ATOM     18  C   UNL     1       3.788   3.397   0.116  1.00  0.00     0.348 A 
ATOM     19  H   UNL     1       5.047   2.854  -1.497  1.00  0.00     0.195 HD
ATOM     20  O   UNL     1       4.343   4.384   0.554  1.00  0.00    -0.246 OA
BRANCH  15  21
ATOM     21  C   UNL     1       1.463   0.680  -0.119  1.00  0.00     0.130 A 
ATOM     22  C   UNL     1      -1.981   0.042   0.027  1.00  0.00     0.173 C 
ATOM     23  N   UNL     1      -0.538  -0.036   0.007  1.00  0.00    -0.275 N 
ATOM     24  C   UNL     1       0.221  -1.164  -0.093  1.00  0.00     0.109 A 
ATOM     25  N   UNL     1       0.192   1.093   0.041  1.00  0.00    -0.170 NA
ATOM     26  C   UNL     1       1.522  -0.734  -0.211  1.00  0.00     0.054 A 
ENDBRANCH  15  21
ENDBRANCH   9  14
ENDBRANCH   5   8
ENDBRANCH   3   4
ENDBRANCH   2   3
ENDBRANCH   1   2
BRANCH   1  27
ATOM     27  C   UNL     1       0.171  -0.391   9.416  1.00  0.00     0.116 C 
BRANCH  27  28
ATOM     28  N   UNL     1       0.595  -1.774   9.146  1.00  0.00    -0.352 N 
ATOM     29  C   UNL     1      -0.131  -2.943   9.328  1.00  0.00     0.251 C 
ATOM     30  H   UNL     1       1.507  -1.883   8.792  1.00  0.00     0.163 HD
ATOM     31  O   UNL     1       0.424  -4.028   9.443  1.00  0.00    -0.269 OA
BRANCH  29  32
ATOM     32  C   UNL     1      -1.599  -2.840   9.331  1.00  0.00     0.039 A 
ATOM     33  C   UNL     1      -2.436  -3.531  10.213  1.00  0.00     0.014 A 
ATOM     34  C   UNL     1      -2.115  -1.926   8.425  1.00  0.00     0.014 A 
ATOM     35  C   UNL     1      -3.801  -3.240  10.193  1.00  0.00     0.010 A 
ATOM     36  C   UNL     1      -3.364  -1.434   8.629  1.00  0.00     0.010 A 
ATOM     37  C   UNL     1      -4.247  -2.184   9.389  1.00  0.00    -0.014 A 
BRANCH  37  38
ATOM     38  C   UNL     1      -5.635  -1.770   9.271  1.00  0.00     0.031 A 
ATOM     39  C   UNL     1      -6.219  -1.180  10.503  1.00  0.00     0.074 A 
ATOM     40  C   UNL     1      -6.184  -1.634   8.039  1.00  0.00     0.049 A 
ATOM     41  N   UNL     1      -7.186  -1.643  11.221  1.00  0.00    -0.248 NA
ATOM     42  C   UNL     1      -5.547  -0.014  11.106  1.00  0.00     0.031 C 
ATOM     43  C   UNL     1      -5.561  -1.848   6.720  1.00  0.00     0.029 A 
ATOM     44  N   UNL     1      -7.398  -1.132   7.701  1.00  0.00    -0.354 N 
ATOM     45  C   UNL     1      -7.396  -0.712  12.237  1.00  0.00     0.074 A 
ATOM     46  C   UNL     1      -6.237   0.139  12.238  1.00  0.00     0.031 C 
ATOM     47  C   UNL     1      -6.303  -1.254   5.758  1.00  0.00     0.029 A 
ATOM     48  C   UNL     1      -7.532  -0.778   6.357  1.00  0.00     0.049 A 
ATOM     49  H   UNL     1      -8.129  -1.025   8.352  1.00  0.00     0.167 HD
ATOM     50  C   UNL     1      -8.611  -0.582  12.843  1.00  0.00     0.037 A 
ATOM     51  C   UNL     1      -8.575  -0.095   5.818  1.00  0.00     0.037 A 
ATOM     52  C   UNL     1      -9.472  -1.684  12.490  1.00  0.00     0.049 A 
ATOM     53  C   UNL     1      -9.705  -0.241   6.781  1.00  0.00     0.074 A 
ATOM     54  C   UNL     1      -9.421  -3.050  12.691  1.00  0.00     0.029 A 
ATOM     55  N   UNL     1     -10.361  -1.488  11.458  1.00  0.00    -0.354 N 
ATOM     56  N   UNL     1     -10.257  -1.393   7.070  1.00  0.00    -0.248 NA
ATOM     57  C   UNL     1      -9.849   0.789   7.800  1.00  0.00     0.031 C 
ATOM     58  C   UNL     1      -9.875  -3.615  11.464  1.00  0.00     0.029 A 
ATOM     59  C   UNL     1     -10.267  -2.572  10.621  1.00  0.00     0.049 A 
ATOM     60  H   UNL     1     -10.956  -0.712  11.341  1.00  0.00     0.167 HD
ATOM     61  C   UNL     1     -10.453  -1.366   8.446  1.00  0.00     0.074 A 
ATOM     62  C   UNL     1     -10.224   0.027   8.832  1.00  0.00     0.031 C 
ATOM     63  C   UNL     1     -10.480  -2.514   9.189  1.00  0.00     0.037 A 
BRANCH  50  64
ATOM     64  C   UNL     1      -9.157   0.677  13.476  1.00  0.00     0.058 A 
ATOM     65  C   UNL     1     -10.367   0.610  14.200  1.00  0.00     0.135 A 
ATOM     66  C   UNL     1      -8.698   1.980  13.186  1.00  0.00     0.135 A 
ATOM     67  F   UNL     1     -10.895  -0.576  14.544  1.00  0.00    -0.206 F 
ATOM     68  C   UNL     1     -11.107   1.745  14.533  1.00  0.00     0.059 A 
ATOM     69  C   UNL     1      -9.394   3.128  13.556  1.00  0.00     0.059 A 
ATOM     70  F   UNL     1      -7.605   2.209  12.450  1.00  0.00    -0.206 F 
ATOM     71  C   UNL     1     -10.619   3.000  14.187  1.00  0.00     0.060 A 
BRANCH  71  72
ATOM     72  S   UNL     1     -11.627   4.457  14.511  1.00  0.00     0.124 S 
ATOM     73  O   UNL     1     -12.737   4.254  13.587  1.00  0.00    -0.237 OA
ATOM     74  O   UNL     1     -11.938   4.300  15.928  1.00  0.00    -0.237 OA
ATOM     75  O   UNL     1     -10.732   5.564  14.190  1.00  0.00    -0.744 OA
ENDBRANCH  71  72
ENDBRANCH  50  64
BRANCH  51  76
ATOM     76  C   UNL     1      -8.504   0.994   4.800  1.00  0.00     0.058 A 
ATOM     77  C   UNL     1      -9.655   1.468   4.144  1.00  0.00     0.135 A 
ATOM     78  C   UNL     1      -7.344   1.783   4.653  1.00  0.00     0.135 A 
ATOM     79  F   UNL     1     -10.810   0.791   4.242  1.00  0.00    -0.206 F 
ATOM     80  C   UNL     1      -9.667   2.673   3.426  1.00  0.00     0.059 A 
ATOM     81  C   UNL     1      -7.330   2.983   3.941  1.00  0.00     0.059 A 
ATOM     82  F   UNL     1      -6.202   1.455   5.276  1.00  0.00    -0.206 F 
ATOM     83  C   UNL     1      -8.502   3.436   3.349  1.00  0.00     0.060 A 
BRANCH  83  84
ATOM     84  S   UNL     1      -8.550   5.074   2.578  1.00  0.00     0.124 S 
ATOM     85  O   UNL     1      -8.736   4.738   1.170  1.00  0.00    -0.237 OA
ATOM     86  O   UNL     1      -9.691   5.695   3.242  1.00  0.00    -0.237 OA
ATOM     87  O   UNL     1      -7.249   5.644   2.915  1.00  0.00    -0.744 OA
ENDBRANCH  83  84
ENDBRANCH  51  76
BRANCH  63  88
ATOM     88  C   UNL     1     -10.521  -3.846   8.474  1.00  0.00     0.058 A 
ATOM     89  C   UNL     1      -9.472  -4.367   7.693  1.00  0.00     0.135 A 
ATOM     90  C   UNL     1     -11.580  -4.715   8.771  1.00  0.00     0.135 A 
ATOM     91  F   UNL     1      -8.376  -3.643   7.440  1.00  0.00    -0.206 F 
ATOM     92  C   UNL     1      -9.487  -5.680   7.212  1.00  0.00     0.059 A 
ATOM     93  C   UNL     1     -11.603  -6.035   8.329  1.00  0.00     0.059 A 
ATOM     94  F   UNL     1     -12.582  -4.301   9.565  1.00  0.00    -0.206 F 
ATOM     95  C   UNL     1     -10.557  -6.510   7.542  1.00  0.00     0.060 A 
BRANCH  95  96
ATOM     96  S   UNL     1     -10.542  -8.231   6.996  1.00  0.00     0.124 S 
ATOM     97  O   UNL     1     -10.756  -8.098   5.559  1.00  0.00    -0.237 OA
ATOM     98  O   UNL     1      -9.212  -8.681   7.399  1.00  0.00    -0.237 OA
ATOM     99  O   UNL     1     -11.646  -8.835   7.738  1.00  0.00    -0.744 OA
ENDBRANCH  95  96
ENDBRANCH  63  88
ENDBRANCH  37  38
ENDBRANCH  29  32
ENDBRANCH  27  28
ENDBRANCH   1  27
TORSDOF 16
