REMARK SMILES C=Cc1cccc(-c2ccc([C@@H](C)C(=O)NCCCCNC(=O)c3ccc(-c4c5nc(c(-c6c(F)cc(S(=O)(=O)[O-])cc6F)c6ccc([nH]6)c(-c6c(F)cc(S(=O)(=O)[O-])cc6F)c6nc(c(-c7c(F)cc(S(=O)(=O)[O-])cc7F)c7ccc4[nH]7)C=C6)C=C5)cc3)cc2)c1
REMARK SMILES IDX 18 1 17 2 16 3 14 4 15 5 12 7 13 8 11 9 8 10 9 11 91 12
REMARK SMILES IDX 10 13 90 14 7 15 3 16 4 17 92 18 5 19 6 20 2 21 1 22 19 23
REMARK SMILES IDX 20 24 21 25 22 26 23 28 24 29 25 30 89 31 26 32 88 33 27 34
REMARK SMILES IDX 28 35 29 36 82 37 30 38 87 39 81 40 83 41 31 42 86 43 80 44
REMARK SMILES IDX 79 45 32 47 66 48 45 49 65 50 46 51 49 52 64 53 84 54 47 55
REMARK SMILES IDX 48 56 63 58 85 59 50 60 33 61 34 62 43 63 35 64 36 65 42 66
REMARK SMILES IDX 44 67 37 68 38 69 39 70 40 71 41 72 67 73 68 74 77 75 69 76
REMARK SMILES IDX 70 77 76 78 78 79 71 80 72 81 73 82 74 83 75 84 51 85 52 86
REMARK SMILES IDX 61 87 53 88 54 89 60 90 62 91 55 92 56 93 57 94 58 95 59 96
REMARK H PARENT 16 6 21 27 83 46 49 57
REMARK Flexibility Score: inf
ROOT
ATOM      1  C   UNL     1      -6.235   3.211  -2.755  1.00  0.00     0.023 C 
ENDROOT
BRANCH   1   2
ATOM      2  C   UNL     1      -7.065   3.050  -4.028  1.00  0.00     0.116 C 
BRANCH   2   3
ATOM      3  N   UNL     1      -6.239   2.949  -5.214  1.00  0.00    -0.356 N 
ATOM      4  C   UNL     1      -5.777   1.866  -5.898  1.00  0.00     0.227 C 
ATOM      5  O   UNL     1      -5.030   2.093  -6.858  1.00  0.00    -0.274 OA
ATOM      6  H   UNL     1      -5.965   3.815  -5.592  1.00  0.00     0.163 HD
BRANCH   4   7
ATOM      7  C   UNL     1      -6.145   0.415  -5.546  1.00  0.00     0.105 C 
ATOM      8  C   UNL     1      -7.635   0.104  -5.684  1.00  0.00     0.023 C 
BRANCH   7   9
ATOM      9  C   UNL     1      -5.458  -0.090  -4.287  1.00  0.00    -0.036 A 
ATOM     10  C   UNL     1      -3.992  -0.837  -1.944  1.00  0.00    -0.018 A 
ATOM     11  C   UNL     1      -5.326  -0.402  -1.876  1.00  0.00     0.009 A 
ATOM     12  C   UNL     1      -3.429  -0.941  -3.226  1.00  0.00     0.009 A 
ATOM     13  C   UNL     1      -6.056  -0.067  -3.026  1.00  0.00     0.005 A 
ATOM     14  C   UNL     1      -4.138  -0.555  -4.372  1.00  0.00     0.005 A 
BRANCH  10  15
ATOM     15  C   UNL     1      -3.213  -1.146  -0.718  1.00  0.00    -0.018 A 
ATOM     16  C   UNL     1      -1.078  -1.180   0.511  1.00  0.00    -0.026 A 
ATOM     17  C   UNL     1      -1.732  -1.700   1.630  1.00  0.00     0.008 A 
ATOM     18  C   UNL     1      -1.824  -0.910  -0.649  1.00  0.00     0.016 A 
ATOM     19  C   UNL     1      -3.104  -1.934   1.595  1.00  0.00     0.001 A 
ATOM     20  C   UNL     1      -3.831  -1.667   0.433  1.00  0.00     0.009 A 
BRANCH  16  21
ATOM     21  C   UNL     1       0.377  -0.988   0.569  1.00  0.00     0.000 C 
ATOM     22  C   UNL     1       1.023   0.053   0.028  1.00  0.00     0.009 C 
ENDBRANCH  16  21
ENDBRANCH  10  15
ENDBRANCH   7   9
ENDBRANCH   4   7
ENDBRANCH   2   3
ENDBRANCH   1   2
BRANCH   1  23
ATOM     23  C   UNL     1      -5.859   4.650  -2.405  1.00  0.00     0.023 C 
BRANCH  23  24
ATOM     24  C   UNL     1      -7.033   5.585  -2.134  1.00  0.00     0.116 C 
BRANCH  24  25
ATOM     25  N   UNL     1      -7.919   5.135  -1.070  1.00  0.00    -0.352 N 
ATOM     26  C   UNL     1      -8.663   5.906  -0.202  1.00  0.00     0.251 C 
ATOM     27  H   UNL     1      -7.995   4.160  -0.956  1.00  0.00     0.163 HD
ATOM     28  O   UNL     1      -9.307   5.385   0.696  1.00  0.00    -0.269 OA
BRANCH  26  29
ATOM     29  C   UNL     1      -8.627   7.378  -0.349  1.00  0.00     0.039 A 
ATOM     30  C   UNL     1      -8.311   8.161   0.764  1.00  0.00     0.014 A 
ATOM     31  C   UNL     1      -8.835   7.971  -1.596  1.00  0.00     0.014 A 
ATOM     32  C   UNL     1      -8.124   9.536   0.608  1.00  0.00     0.010 A 
ATOM     33  C   UNL     1      -8.578   9.326  -1.763  1.00  0.00     0.010 A 
ATOM     34  C   UNL     1      -8.216  10.122  -0.665  1.00  0.00    -0.014 A 
BRANCH  34  35
ATOM     35  C   UNL     1      -7.943  11.565  -0.882  1.00  0.00     0.031 A 
ATOM     36  C   UNL     1      -9.041  12.463  -1.381  1.00  0.00     0.074 A 
ATOM     37  C   UNL     1      -6.693  12.045  -0.723  1.00  0.00     0.049 A 
ATOM     38  N   UNL     1      -8.979  13.711  -1.765  1.00  0.00    -0.248 NA
ATOM     39  C   UNL     1     -10.381  11.863  -1.499  1.00  0.00     0.031 C 
ATOM     40  C   UNL     1      -5.532  11.263  -0.292  1.00  0.00     0.029 A 
ATOM     41  N   UNL     1      -6.186  13.304  -0.924  1.00  0.00    -0.354 N 
ATOM     42  C   UNL     1     -10.260  14.037  -2.195  1.00  0.00     0.074 A 
ATOM     43  C   UNL     1     -11.067  12.843  -2.067  1.00  0.00     0.031 C 
ATOM     44  C   UNL     1      -4.454  12.063  -0.247  1.00  0.00     0.029 A 
ATOM     45  C   UNL     1      -4.837  13.404  -0.678  1.00  0.00     0.049 A 
ATOM     46  H   UNL     1      -6.738  14.066  -1.216  1.00  0.00     0.167 HD
ATOM     47  C   UNL     1     -10.726  15.229  -2.637  1.00  0.00     0.037 A 
ATOM     48  C   UNL     1      -4.002  14.455  -0.796  1.00  0.00     0.037 A 
ATOM     49  C   UNL     1      -9.929  16.424  -2.720  1.00  0.00     0.049 A 
ATOM     50  C   UNL     1      -4.551  15.779  -1.254  1.00  0.00     0.074 A 
ATOM     51  C   UNL     1     -10.320  17.696  -3.099  1.00  0.00     0.029 A 
ATOM     52  N   UNL     1      -8.580  16.497  -2.406  1.00  0.00    -0.354 N 
ATOM     53  N   UNL     1      -5.776  16.082  -1.614  1.00  0.00    -0.248 NA
ATOM     54  C   UNL     1      -3.609  16.905  -1.317  1.00  0.00     0.031 C 
ATOM     55  C   UNL     1      -9.201  18.533  -3.038  1.00  0.00     0.029 A 
ATOM     56  C   UNL     1      -8.122  17.790  -2.587  1.00  0.00     0.049 A 
ATOM     57  H   UNL     1      -8.029  15.740  -2.101  1.00  0.00     0.167 HD
ATOM     58  C   UNL     1      -5.758  17.439  -1.916  1.00  0.00     0.074 A 
ATOM     59  C   UNL     1      -4.402  17.899  -1.693  1.00  0.00     0.031 C 
ATOM     60  C   UNL     1      -6.773  18.232  -2.338  1.00  0.00     0.037 A 
BRANCH  47  61
ATOM     61  C   UNL     1     -12.168  15.296  -3.055  1.00  0.00     0.058 A 
ATOM     62  C   UNL     1     -13.209  15.233  -2.115  1.00  0.00     0.135 A 
ATOM     63  C   UNL     1     -12.514  15.438  -4.408  1.00  0.00     0.135 A 
ATOM     64  F   UNL     1     -12.932  15.079  -0.810  1.00  0.00    -0.206 F 
ATOM     65  C   UNL     1     -14.543  15.273  -2.504  1.00  0.00     0.059 A 
ATOM     66  C   UNL     1     -13.843  15.507  -4.818  1.00  0.00     0.059 A 
ATOM     67  F   UNL     1     -11.559  15.502  -5.348  1.00  0.00    -0.206 F 
ATOM     68  C   UNL     1     -14.850  15.405  -3.859  1.00  0.00     0.060 A 
BRANCH  68  69
ATOM     69  S   UNL     1     -16.587  15.447  -4.351  1.00  0.00     0.124 S 
ATOM     70  O   UNL     1     -16.953  14.039  -4.240  1.00  0.00    -0.237 OA
ATOM     71  O   UNL     1     -17.176  16.334  -3.352  1.00  0.00    -0.237 OA
ATOM     72  O   UNL     1     -16.541  15.981  -5.708  1.00  0.00    -0.744 OA
ENDBRANCH  68  69
ENDBRANCH  47  61
BRANCH  48  73
ATOM     73  C   UNL     1      -2.566  14.306  -0.445  1.00  0.00     0.058 A 
ATOM     74  C   UNL     1      -2.052  14.878   0.729  1.00  0.00     0.135 A 
ATOM     75  C   UNL     1      -1.683  13.583  -1.261  1.00  0.00     0.135 A 
ATOM     76  F   UNL     1      -2.857  15.584   1.538  1.00  0.00    -0.206 F 
ATOM     77  C   UNL     1      -0.711  14.752   1.075  1.00  0.00     0.059 A 
ATOM     78  C   UNL     1      -0.342  13.425  -0.925  1.00  0.00     0.059 A 
ATOM     79  F   UNL     1      -2.130  13.002  -2.385  1.00  0.00    -0.206 F 
ATOM     80  C   UNL     1       0.137  14.022   0.240  1.00  0.00     0.060 A 
BRANCH  80  81
ATOM     81  S   UNL     1       1.867  13.822   0.723  1.00  0.00     0.124 S 
ATOM     82  O   UNL     1       2.415  15.133   0.398  1.00  0.00    -0.237 OA
ATOM     83  O   UNL     1       1.756  13.510   2.144  1.00  0.00    -0.237 OA
ATOM     84  O   UNL     1       2.322  12.719  -0.118  1.00  0.00    -0.744 OA
ENDBRANCH  80  81
ENDBRANCH  48  73
BRANCH  60  85
ATOM     85  C   UNL     1      -6.473  19.690  -2.543  1.00  0.00     0.058 A 
ATOM     86  C   UNL     1      -5.768  20.146  -3.666  1.00  0.00     0.135 A 
ATOM     87  C   UNL     1      -6.960  20.645  -1.636  1.00  0.00     0.135 A 
ATOM     88  F   UNL     1      -5.277  19.271  -4.557  1.00  0.00    -0.206 F 
ATOM     89  C   UNL     1      -5.543  21.502  -3.877  1.00  0.00     0.059 A 
ATOM     90  C   UNL     1      -6.766  22.007  -1.839  1.00  0.00     0.059 A 
ATOM     91  F   UNL     1      -7.649  20.258  -0.551  1.00  0.00    -0.206 F 
ATOM     92  C   UNL     1      -6.049  22.426  -2.960  1.00  0.00     0.060 A 
BRANCH  92  93
ATOM     93  S   UNL     1      -5.795  24.186  -3.270  1.00  0.00     0.124 S 
ATOM     94  O   UNL     1      -4.399  24.354  -2.882  1.00  0.00    -0.237 OA
ATOM     95  O   UNL     1      -6.075  24.298  -4.698  1.00  0.00    -0.237 OA
ATOM     96  O   UNL     1      -6.773  24.828  -2.395  1.00  0.00    -0.744 OA
ENDBRANCH  92  93
ENDBRANCH  60  85
ENDBRANCH  34  35
ENDBRANCH  26  29
ENDBRANCH  24  25
ENDBRANCH  23  24
ENDBRANCH   1  23
TORSDOF 17
