REMARK SMILES CC(C)(Oc1ccc(Cl)cc1)C(=O)N1CCC[C@H](C(=O)NCCCCNC(=O)c2ccc(-c3c4nc(c(-c5c(F)cc(S(=O)(=O)[O-])cc5F)c5ccc([nH]5)c(-c5c(F)cc(S(=O)(=O)[O-])cc5F)c5nc(c(-c6c(F)cc(S(=O)(=O)[O-])cc6F)c6ccc3[nH]6)C=C5)C=C4)cc2)C1
REMARK SMILES IDX 23 1 22 2 21 3 19 4 20 5 18 7 14 8 15 9 95 10 16 11 17 12
REMARK SMILES IDX 12 13 13 14 2 15 1 16 3 17 4 18 5 19 6 20 11 21 7 22 10 23
REMARK SMILES IDX 8 24 9 25 24 26 25 27 26 28 27 29 28 31 29 32 30 33 94 34
REMARK SMILES IDX 31 35 93 36 32 37 33 38 34 39 87 40 35 41 92 42 86 43 88 44
REMARK SMILES IDX 36 45 91 46 85 47 84 48 37 50 71 51 50 52 70 53 51 54 54 55
REMARK SMILES IDX 69 56 89 57 52 58 53 59 68 61 90 62 55 63 38 64 39 65 48 66
REMARK SMILES IDX 40 67 41 68 47 69 49 70 42 71 43 72 44 73 45 74 46 75 72 76
REMARK SMILES IDX 73 77 82 78 74 79 75 80 81 81 83 82 76 83 77 84 78 85 79 86
REMARK SMILES IDX 80 87 56 88 57 89 66 90 58 91 59 92 65 93 67 94 60 95 61 96
REMARK SMILES IDX 62 97 63 98 64 99
REMARK H PARENT 21 6 26 30 88 49 54 60
REMARK Flexibility Score: inf
ROOT
ATOM      1  C   UNL     1       1.735  -0.540   6.073  1.00  0.00     0.023 C 
ENDROOT
BRANCH   1   2
ATOM      2  C   UNL     1       0.775  -0.316   4.908  1.00  0.00     0.116 C 
BRANCH   2   3
ATOM      3  N   UNL     1      -0.614  -0.290   5.303  1.00  0.00    -0.356 N 
ATOM      4  C   UNL     1      -1.546   0.693   5.224  1.00  0.00     0.224 C 
ATOM      5  O   UNL     1      -2.707   0.378   5.511  1.00  0.00    -0.275 OA
ATOM      6  H   UNL     1      -0.941  -1.131   5.698  1.00  0.00     0.163 HD
BRANCH   4   7
ATOM      7  C   UNL     1      -1.247   2.144   4.823  1.00  0.00     0.098 C 
ATOM      8  N   UNL     1       0.525   2.466   3.070  1.00  0.00    -0.338 N 
ATOM      9  C   UNL     1       1.265   3.382   3.939  1.00  0.00     0.119 C 
ATOM     10  C   UNL     1      -0.903   2.344   3.341  1.00  0.00     0.133 C 
ATOM     11  C   UNL     1       1.083   3.085   5.422  1.00  0.00     0.022 C 
ATOM     12  C   UNL     1      -0.378   2.918   5.819  1.00  0.00     0.017 C 
BRANCH   8  13
ATOM     13  C   UNL     1       1.235   1.680   2.161  1.00  0.00     0.266 C 
ATOM     14  O   UNL     1       2.412   1.391   2.416  1.00  0.00    -0.270 OA
BRANCH  13  15
ATOM     15  C   UNL     1       0.626   1.359   0.740  1.00  0.00     0.181 C 
ATOM     16  C   UNL     1       1.452   0.205   0.134  1.00  0.00     0.067 C 
ATOM     17  C   UNL     1       0.864   2.655  -0.062  1.00  0.00     0.067 C 
BRANCH  15  18
ATOM     18  O   UNL     1      -0.752   0.952   0.790  1.00  0.00    -0.478 OA
BRANCH  18  19
ATOM     19  C   UNL     1      -1.511   1.134  -0.332  1.00  0.00     0.121 A 
ATOM     20  C   UNL     1      -1.414   0.283  -1.433  1.00  0.00     0.048 A 
ATOM     21  C   UNL     1      -2.472   2.147  -0.318  1.00  0.00     0.048 A 
ATOM     22  C   UNL     1      -2.214   0.501  -2.558  1.00  0.00     0.024 A 
ATOM     23  C   UNL     1      -3.282   2.359  -1.437  1.00  0.00     0.024 A 
ATOM     24  C   UNL     1      -3.139   1.544  -2.558  1.00  0.00     0.041 A 
ATOM     25  Cl  UNL     1      -4.119   1.818  -3.946  1.00  0.00    -0.084 Cl
ENDBRANCH  18  19
ENDBRANCH  15  18
ENDBRANCH  13  15
ENDBRANCH   8  13
ENDBRANCH   4   7
ENDBRANCH   2   3
ENDBRANCH   1   2
BRANCH   1  26
ATOM     26  C   UNL     1       2.202  -1.982   6.240  1.00  0.00     0.023 C 
BRANCH  26  27
ATOM     27  C   UNL     1       2.907  -2.588   5.029  1.00  0.00     0.116 C 
BRANCH  27  28
ATOM     28  N   UNL     1       4.079  -1.851   4.574  1.00  0.00    -0.352 N 
ATOM     29  C   UNL     1       5.259  -2.370   4.078  1.00  0.00     0.251 C 
ATOM     30  H   UNL     1       4.023  -0.869   4.626  1.00  0.00     0.163 HD
ATOM     31  O   UNL     1       6.203  -1.648   3.798  1.00  0.00    -0.269 OA
BRANCH  29  32
ATOM     32  C   UNL     1       5.367  -3.838   3.936  1.00  0.00     0.039 A 
ATOM     33  C   UNL     1       6.396  -4.511   4.598  1.00  0.00     0.014 A 
ATOM     34  C   UNL     1       4.378  -4.546   3.249  1.00  0.00     0.014 A 
ATOM     35  C   UNL     1       6.375  -5.906   4.655  1.00  0.00     0.010 A 
ATOM     36  C   UNL     1       4.316  -5.929   3.375  1.00  0.00     0.010 A 
ATOM     37  C   UNL     1       5.305  -6.622   4.092  1.00  0.00    -0.014 A 
BRANCH  37  38
ATOM     38  C   UNL     1       5.183  -8.094   4.257  1.00  0.00     0.031 A 
ATOM     39  C   UNL     1       5.200  -8.989   3.049  1.00  0.00     0.074 A 
ATOM     40  C   UNL     1       4.965  -8.615   5.482  1.00  0.00     0.049 A 
ATOM     41  N   UNL     1       5.001 -10.279   2.974  1.00  0.00    -0.248 NA
ATOM     42  C   UNL     1       5.434  -8.341   1.748  1.00  0.00     0.031 C 
ATOM     43  C   UNL     1       4.859  -7.848   6.726  1.00  0.00     0.029 A 
ATOM     44  N   UNL     1       4.779  -9.915   5.882  1.00  0.00    -0.354 N 
ATOM     45  C   UNL     1       5.061 -10.592   1.621  1.00  0.00     0.074 A 
ATOM     46  C   UNL     1       5.264  -9.351   0.907  1.00  0.00     0.031 C 
ATOM     47  C   UNL     1       4.650  -8.692   7.750  1.00  0.00     0.029 A 
ATOM     48  C   UNL     1       4.576 -10.056   7.235  1.00  0.00     0.049 A 
ATOM     49  H   UNL     1       4.791 -10.677   5.258  1.00  0.00     0.167 HD
ATOM     50  C   UNL     1       4.980 -11.807   1.029  1.00  0.00     0.037 A 
ATOM     51  C   UNL     1       4.352 -11.158   7.977  1.00  0.00     0.037 A 
ATOM     52  C   UNL     1       4.827 -13.045   1.745  1.00  0.00     0.049 A 
ATOM     53  C   UNL     1       4.311 -12.502   7.301  1.00  0.00     0.074 A 
ATOM     54  C   UNL     1       4.805 -14.334   1.242  1.00  0.00     0.029 A 
ATOM     55  N   UNL     1       4.681 -13.149   3.120  1.00  0.00    -0.354 N 
ATOM     56  N   UNL     1       4.433 -12.785   6.026  1.00  0.00    -0.248 NA
ATOM     57  C   UNL     1       4.111 -13.676   8.162  1.00  0.00     0.031 C 
ATOM     58  C   UNL     1       4.623 -15.217   2.311  1.00  0.00     0.029 A 
ATOM     59  C   UNL     1       4.564 -14.480   3.483  1.00  0.00     0.049 A 
ATOM     60  H   UNL     1       4.664 -12.389   3.746  1.00  0.00     0.167 HD
ATOM     61  C   UNL     1       4.348 -14.170   5.935  1.00  0.00     0.074 A 
ATOM     62  C   UNL     1       4.174 -14.668   7.284  1.00  0.00     0.031 C 
ATOM     63  C   UNL     1       4.409 -14.957   4.834  1.00  0.00     0.037 A 
BRANCH  50  64
ATOM     64  C   UNL     1       5.078 -11.854  -0.469  1.00  0.00     0.058 A 
ATOM     65  C   UNL     1       6.293 -11.614  -1.131  1.00  0.00     0.135 A 
ATOM     66  C   UNL     1       3.954 -12.162  -1.252  1.00  0.00     0.135 A 
ATOM     67  F   UNL     1       7.394 -11.297  -0.430  1.00  0.00    -0.206 F 
ATOM     68  C   UNL     1       6.384 -11.646  -2.518  1.00  0.00     0.059 A 
ATOM     69  C   UNL     1       4.028 -12.225  -2.640  1.00  0.00     0.059 A 
ATOM     70  F   UNL     1       2.769 -12.399  -0.669  1.00  0.00    -0.206 F 
ATOM     71  C   UNL     1       5.245 -11.949  -3.265  1.00  0.00     0.060 A 
BRANCH  71  72
ATOM     72  S   UNL     1       5.377 -11.986  -5.064  1.00  0.00     0.124 S 
ATOM     73  O   UNL     1       5.399 -10.562  -5.383  1.00  0.00    -0.237 OA
ATOM     74  O   UNL     1       6.632 -12.701  -5.273  1.00  0.00    -0.237 OA
ATOM     75  O   UNL     1       4.174 -12.703  -5.478  1.00  0.00    -0.744 OA
ENDBRANCH  71  72
ENDBRANCH  50  64
BRANCH  51  76
ATOM     76  C   UNL     1       4.182 -11.046   9.449  1.00  0.00     0.058 A 
ATOM     77  C   UNL     1       5.192 -11.475  10.323  1.00  0.00     0.135 A 
ATOM     78  C   UNL     1       3.015 -10.507  10.012  1.00  0.00     0.135 A 
ATOM     79  F   UNL     1       6.324 -12.002   9.831  1.00  0.00    -0.206 F 
ATOM     80  C   UNL     1       5.045 -11.394  11.704  1.00  0.00     0.059 A 
ATOM     81  C   UNL     1       2.853 -10.396  11.390  1.00  0.00     0.059 A 
ATOM     82  F   UNL     1       2.027 -10.066   9.218  1.00  0.00    -0.206 F 
ATOM     83  C   UNL     1       3.870 -10.854  12.228  1.00  0.00     0.060 A 
BRANCH  83  84
ATOM     84  S   UNL     1       3.703 -10.714  14.022  1.00  0.00     0.124 S 
ATOM     85  O   UNL     1       3.404 -12.091  14.396  1.00  0.00    -0.237 OA
ATOM     86  O   UNL     1       5.017 -10.216  14.417  1.00  0.00    -0.237 OA
ATOM     87  O   UNL     1       2.608  -9.762  14.181  1.00  0.00    -0.744 OA
ENDBRANCH  83  84
ENDBRANCH  51  76
BRANCH  63  88
ATOM     88  C   UNL     1       4.322 -16.442   5.038  1.00  0.00     0.058 A 
ATOM     89  C   UNL     1       3.100 -17.074   5.315  1.00  0.00     0.135 A 
ATOM     90  C   UNL     1       5.462 -17.247   4.889  1.00  0.00     0.135 A 
ATOM     91  F   UNL     1       1.984 -16.346   5.473  1.00  0.00    -0.206 F 
ATOM     92  C   UNL     1       3.014 -18.456   5.447  1.00  0.00     0.059 A 
ATOM     93  C   UNL     1       5.395 -18.632   4.997  1.00  0.00     0.059 A 
ATOM     94  F   UNL     1       6.652 -16.689   4.615  1.00  0.00    -0.206 F 
ATOM     95  C   UNL     1       4.167 -19.227   5.284  1.00  0.00     0.060 A 
BRANCH  95  96
ATOM     96  S   UNL     1       4.035 -21.023   5.407  1.00  0.00     0.124 S 
ATOM     97  O   UNL     1       3.950 -21.213   6.851  1.00  0.00    -0.237 OA
ATOM     98  O   UNL     1       2.812 -21.301   4.659  1.00  0.00    -0.237 OA
ATOM     99  O   UNL     1       5.266 -21.497   4.782  1.00  0.00    -0.744 OA
ENDBRANCH  95  96
ENDBRANCH  63  88
ENDBRANCH  37  38
ENDBRANCH  29  32
ENDBRANCH  27  28
ENDBRANCH  26  27
ENDBRANCH   1  26
TORSDOF 18
