REMARK SMILES COC1CCN(c2nc(C(C)C)c(C(=O)NCCCCNC(=O)c3ccc(-c4c5nc(c(-c6c(F)cc(S(=O)(=O)[O-])cc6F)c6ccc([nH]6)c(-c6c(F)cc(S(=O)(=O)[O-])cc6F)c6nc(c(-c7c(F)cc(S(=O)(=O)[O-])cc7F)c7ccc4[nH]7)C=C6)C=C5)cc3)s2)CC1
REMARK SMILES IDX 19 1 18 2 17 3 16 4 14 5 15 6 13 8 7 9 8 10 90 11 9 12 6 13
REMARK SMILES IDX 3 14 4 15 92 16 5 17 91 18 2 19 1 20 10 21 11 22 12 23 20 24
REMARK SMILES IDX 21 25 22 26 23 28 24 29 25 30 89 31 26 32 88 33 27 34 28 35
REMARK SMILES IDX 29 36 82 37 30 38 87 39 81 40 83 41 31 42 86 43 80 44 79 45
REMARK SMILES IDX 32 47 66 48 45 49 65 50 46 51 49 52 64 53 84 54 47 55 48 56
REMARK SMILES IDX 63 58 85 59 50 60 33 61 34 62 43 63 35 64 36 65 42 66 44 67
REMARK SMILES IDX 37 68 38 69 39 70 40 71 41 72 67 73 68 74 77 75 69 76 70 77
REMARK SMILES IDX 76 78 78 79 71 80 72 81 73 82 74 83 75 84 51 85 52 86 61 87
REMARK SMILES IDX 53 88 54 89 60 90 62 91 55 92 56 93 57 94 58 95 59 96
REMARK H PARENT 16 7 21 27 83 46 49 57
REMARK Flexibility Score: inf
ROOT
ATOM      1  C   UNL     1      -3.846  10.174  -5.468  1.00  0.00     0.023 C 
ENDROOT
BRANCH   1   2
ATOM      2  C   UNL     1      -3.526   8.810  -4.867  1.00  0.00     0.023 C 
BRANCH   2   3
ATOM      3  C   UNL     1      -3.124   7.747  -5.886  1.00  0.00     0.116 C 
BRANCH   3   4
ATOM      4  N   UNL     1      -1.710   7.500  -5.878  1.00  0.00    -0.351 N 
ATOM      5  C   UNL     1      -0.883   6.478  -5.510  1.00  0.00     0.263 C 
ATOM      6  O   UNL     1       0.299   6.784  -5.742  1.00  0.00    -0.268 OA
ATOM      7  H   UNL     1      -1.205   8.269  -6.230  1.00  0.00     0.163 HD
BRANCH   5   8
ATOM      8  C   UNL     1      -1.238   5.181  -4.921  1.00  0.00     0.117 A 
ATOM      9  C   UNL     1      -0.722   2.967  -3.894  1.00  0.00     0.186 A 
ATOM     10  N   UNL     1      -2.009   3.153  -3.994  1.00  0.00    -0.224 NA
ATOM     11  S   UNL     1       0.198   4.220  -4.583  1.00  0.00    -0.091 S 
ATOM     12  C   UNL     1      -2.334   4.418  -4.498  1.00  0.00     0.069 A 
BRANCH   9  13
ATOM     13  N   UNL     1      -0.153   1.869  -3.330  1.00  0.00    -0.348 N 
ATOM     14  C   UNL     1       0.996  -0.439  -2.065  1.00  0.00     0.121 C 
ATOM     15  C   UNL     1       1.754   0.887  -2.181  1.00  0.00     0.053 C 
ATOM     16  C   UNL     1      -0.025  -0.561  -3.202  1.00  0.00     0.053 C 
ATOM     17  C   UNL     1       0.793   2.066  -2.234  1.00  0.00     0.121 C 
ATOM     18  C   UNL     1      -0.956   0.651  -3.248  1.00  0.00     0.121 C 
BRANCH  14  19
ATOM     19  O   UNL     1       0.280  -0.576  -0.830  1.00  0.00    -0.381 OA
ATOM     20  C   UNL     1       1.103  -0.569   0.327  1.00  0.00     0.195 C 
ENDBRANCH  14  19
ENDBRANCH   9  13
BRANCH  12  21
ATOM     21  C   UNL     1      -3.821   4.651  -4.404  1.00  0.00     0.034 C 
ATOM     22  C   UNL     1      -4.173   5.756  -3.408  1.00  0.00     0.014 C 
ATOM     23  C   UNL     1      -4.538   4.663  -5.756  1.00  0.00     0.014 C 
ENDBRANCH  12  21
ENDBRANCH   5   8
ENDBRANCH   3   4
ENDBRANCH   2   3
ENDBRANCH   1   2
BRANCH   1  24
ATOM     24  C   UNL     1      -4.955  10.174  -6.514  1.00  0.00     0.116 C 
BRANCH  24  25
ATOM     25  N   UNL     1      -6.210   9.576  -6.070  1.00  0.00    -0.352 N 
ATOM     26  C   UNL     1      -7.481   9.920  -6.478  1.00  0.00     0.251 C 
ATOM     27  H   UNL     1      -6.141   8.850  -5.408  1.00  0.00     0.163 HD
ATOM     28  O   UNL     1      -8.473   9.373  -6.011  1.00  0.00    -0.269 OA
BRANCH  26  29
ATOM     29  C   UNL     1      -7.605  11.013  -7.460  1.00  0.00     0.039 A 
ATOM     30  C   UNL     1      -8.221  12.204  -7.070  1.00  0.00     0.014 A 
ATOM     31  C   UNL     1      -6.937  10.913  -8.682  1.00  0.00     0.014 A 
ATOM     32  C   UNL     1      -8.074  13.339  -7.869  1.00  0.00     0.010 A 
ATOM     33  C   UNL     1      -6.732  12.061  -9.435  1.00  0.00     0.010 A 
ATOM     34  C   UNL     1      -7.277  13.290  -9.024  1.00  0.00    -0.014 A 
BRANCH  34  35
ATOM     35  C   UNL     1      -6.964  14.505  -9.820  1.00  0.00     0.031 A 
ATOM     36  C   UNL     1      -7.374  14.560 -11.264  1.00  0.00     0.074 A 
ATOM     37  C   UNL     1      -6.205  15.485  -9.289  1.00  0.00     0.049 A 
ATOM     38  N   UNL     1      -7.011  15.403 -12.194  1.00  0.00    -0.248 NA
ATOM     39  C   UNL     1      -8.276  13.495 -11.735  1.00  0.00     0.031 C 
ATOM     40  C   UNL     1      -5.696  15.521  -7.915  1.00  0.00     0.029 A 
ATOM     41  N   UNL     1      -5.700  16.630  -9.854  1.00  0.00    -0.354 N 
ATOM     42  C   UNL     1      -7.592  14.941 -13.367  1.00  0.00     0.074 A 
ATOM     43  C   UNL     1      -8.316  13.732 -13.038  1.00  0.00     0.031 C 
ATOM     44  C   UNL     1      -4.959  16.632  -7.745  1.00  0.00     0.029 A 
ATOM     45  C   UNL     1      -4.907  17.367  -9.005  1.00  0.00     0.049 A 
ATOM     46  H   UNL     1      -5.889  16.900 -10.783  1.00  0.00     0.167 HD
ATOM     47  C   UNL     1      -7.535  15.483 -14.606  1.00  0.00     0.037 A 
ATOM     48  C   UNL     1      -4.203  18.495  -9.222  1.00  0.00     0.037 A 
ATOM     49  C   UNL     1      -6.879  16.725 -14.910  1.00  0.00     0.049 A 
ATOM     50  C   UNL     1      -4.230  19.125 -10.589  1.00  0.00     0.074 A 
ATOM     51  C   UNL     1      -6.829  17.396 -16.119  1.00  0.00     0.029 A 
ATOM     52  N   UNL     1      -6.179  17.493 -13.993  1.00  0.00    -0.354 N 
ATOM     53  N   UNL     1      -4.819  18.695 -11.679  1.00  0.00    -0.248 NA
ATOM     54  C   UNL     1      -3.503  20.392 -10.758  1.00  0.00     0.031 C 
ATOM     55  C   UNL     1      -6.089  18.569 -15.935  1.00  0.00     0.029 A 
ATOM     56  C   UNL     1      -5.701  18.637 -14.606  1.00  0.00     0.049 A 
ATOM     57  H   UNL     1      -6.043  17.260 -13.047  1.00  0.00     0.167 HD
ATOM     58  C   UNL     1      -4.561  19.653 -12.652  1.00  0.00     0.074 A 
ATOM     59  C   UNL     1      -3.763  20.686 -12.026  1.00  0.00     0.031 C 
ATOM     60  C   UNL     1      -4.948  19.674 -13.950  1.00  0.00     0.037 A 
BRANCH  47  61
ATOM     61  C   UNL     1      -8.212  14.745 -15.723  1.00  0.00     0.058 A 
ATOM     62  C   UNL     1      -9.609  14.722 -15.847  1.00  0.00     0.135 A 
ATOM     63  C   UNL     1      -7.452  14.089 -16.705  1.00  0.00     0.135 A 
ATOM     64  F   UNL     1     -10.379  15.317 -14.922  1.00  0.00    -0.206 F 
ATOM     65  C   UNL     1     -10.233  14.056 -16.896  1.00  0.00     0.059 A 
ATOM     66  C   UNL     1      -8.054  13.437 -17.776  1.00  0.00     0.059 A 
ATOM     67  F   UNL     1      -6.112  14.079 -16.628  1.00  0.00    -0.206 F 
ATOM     68  C   UNL     1      -9.447  13.416 -17.856  1.00  0.00     0.060 A 
BRANCH  68  69
ATOM     69  S   UNL     1     -10.268  12.572 -19.223  1.00  0.00     0.124 S 
ATOM     70  O   UNL     1     -10.710  11.339 -18.578  1.00  0.00    -0.237 OA
ATOM     71  O   UNL     1     -11.324  13.511 -19.585  1.00  0.00    -0.237 OA
ATOM     72  O   UNL     1      -9.205  12.418 -20.212  1.00  0.00    -0.744 OA
ENDBRANCH  68  69
ENDBRANCH  47  61
BRANCH  48  73
ATOM     73  C   UNL     1      -3.420  19.115  -8.122  1.00  0.00     0.058 A 
ATOM     74  C   UNL     1      -3.854  20.302  -7.513  1.00  0.00     0.135 A 
ATOM     75  C   UNL     1      -2.221  18.547  -7.666  1.00  0.00     0.135 A 
ATOM     76  F   UNL     1      -4.992  20.885  -7.918  1.00  0.00    -0.206 F 
ATOM     77  C   UNL     1      -3.115  20.919  -6.509  1.00  0.00     0.059 A 
ATOM     78  C   UNL     1      -1.475  19.134  -6.649  1.00  0.00     0.059 A 
ATOM     79  F   UNL     1      -1.774  17.401  -8.203  1.00  0.00    -0.206 F 
ATOM     80  C   UNL     1      -1.923  20.330  -6.087  1.00  0.00     0.060 A 
BRANCH  80  81
ATOM     81  S   UNL     1      -0.980  21.120  -4.764  1.00  0.00     0.124 S 
ATOM     82  O   UNL     1      -0.300  22.188  -5.488  1.00  0.00    -0.237 OA
ATOM     83  O   UNL     1      -2.030  21.541  -3.842  1.00  0.00    -0.237 OA
ATOM     84  O   UNL     1      -0.126  20.041  -4.276  1.00  0.00    -0.744 OA
ENDBRANCH  80  81
ENDBRANCH  48  73
BRANCH  60  85
ATOM     85  C   UNL     1      -4.577  20.871 -14.773  1.00  0.00     0.058 A 
ATOM     86  C   UNL     1      -3.295  21.013 -15.323  1.00  0.00     0.135 A 
ATOM     87  C   UNL     1      -5.551  21.825 -15.105  1.00  0.00     0.135 A 
ATOM     88  F   UNL     1      -2.331  20.127 -15.029  1.00  0.00    -0.206 F 
ATOM     89  C   UNL     1      -2.992  22.063 -16.184  1.00  0.00     0.059 A 
ATOM     90  C   UNL     1      -5.274  22.873 -15.976  1.00  0.00     0.059 A 
ATOM     91  F   UNL     1      -6.793  21.724 -14.606  1.00  0.00    -0.206 F 
ATOM     92  C   UNL     1      -3.991  22.983 -16.511  1.00  0.00     0.060 A 
BRANCH  92  93
ATOM     93  S   UNL     1      -3.613  24.291 -17.697  1.00  0.00     0.124 S 
ATOM     94  O   UNL     1      -2.865  25.231 -16.868  1.00  0.00    -0.237 OA
ATOM     95  O   UNL     1      -2.838  23.584 -18.711  1.00  0.00    -0.237 OA
ATOM     96  O   UNL     1      -4.931  24.745 -18.130  1.00  0.00    -0.744 OA
ENDBRANCH  92  93
ENDBRANCH  60  85
ENDBRANCH  34  35
ENDBRANCH  26  29
ENDBRANCH  24  25
ENDBRANCH   1  24
TORSDOF 17
