REMARK SMILES CC(=O)Nc1cccc(-c2cc(F)ccc2C(=O)NCCCCNC(=O)c2ccc(-c3c4nc(c(-c5c(F)cc(S(=O)(=O)[O-])cc5F)c5ccc([nH]5)c(-c5c(F)cc(S(=O)(=O)[O-])cc5F)c5nc(c(-c6c(F)cc(S(=O)(=O)[O-])cc6F)c6ccc3[nH]6)C=C5)C=C4)cc2)c1
REMARK SMILES IDX 22 1 21 2 20 3 19 4 17 5 18 6 16 8 10 9 11 10 12 11 15 12
REMARK SMILES IDX 13 13 14 14 9 15 5 16 6 17 93 18 7 19 8 20 4 21 1 22 2 23
REMARK SMILES IDX 3 24 23 26 24 27 25 28 26 30 27 31 28 32 92 33 29 34 91 35
REMARK SMILES IDX 30 36 31 37 32 38 85 39 33 40 90 41 84 42 86 43 34 44 89 45
REMARK SMILES IDX 83 46 82 47 35 49 69 50 48 51 68 52 49 53 52 54 67 55 87 56
REMARK SMILES IDX 50 57 51 58 66 60 88 61 53 62 36 63 37 64 46 65 38 66 39 67
REMARK SMILES IDX 45 68 47 69 40 70 41 71 42 72 43 73 44 74 70 75 71 76 80 77
REMARK SMILES IDX 72 78 73 79 79 80 81 81 74 82 75 83 76 84 77 85 78 86 54 87
REMARK SMILES IDX 55 88 64 89 56 90 57 91 63 92 65 93 58 94 59 95 60 96 61 97
REMARK SMILES IDX 62 98
REMARK H PARENT 19 7 4 25 24 29 86 48 52 59
REMARK Flexibility Score: inf
ROOT
ATOM      1  C   UNL     1       2.676   5.876   0.550  1.00  0.00     0.023 C 
ENDROOT
BRANCH   1   2
ATOM      2  C   UNL     1       3.573   5.302   1.649  1.00  0.00     0.023 C 
BRANCH   2   3
ATOM      3  C   UNL     1       3.823   3.802   1.652  1.00  0.00     0.116 C 
BRANCH   3   4
ATOM      4  N   UNL     1       4.589   3.266   0.557  1.00  0.00    -0.352 N 
ATOM      5  C   UNL     1       5.325   2.109   0.462  1.00  0.00     0.251 C 
ATOM      6  O   UNL     1       5.760   1.820  -0.657  1.00  0.00    -0.269 OA
ATOM      7  H   UNL     1       4.585   3.819  -0.258  1.00  0.00     0.163 HD
BRANCH   5   8
ATOM      8  C   UNL     1       5.725   1.213   1.603  1.00  0.00     0.047 A 
ATOM      9  C   UNL     1       4.932   0.699   2.661  1.00  0.00    -0.003 A 
ATOM     10  C   UNL     1       5.534  -0.222   3.558  1.00  0.00     0.048 A 
ATOM     11  C   UNL     1       6.856  -0.625   3.422  1.00  0.00     0.123 A 
ATOM     12  C   UNL     1       7.072   0.772   1.495  1.00  0.00     0.017 A 
ATOM     13  F   UNL     1       7.373  -1.503   4.292  1.00  0.00    -0.207 F 
ATOM     14  C   UNL     1       7.635  -0.134   2.395  1.00  0.00     0.040 A 
BRANCH   9  15
ATOM     15  C   UNL     1       3.524   1.030   2.937  1.00  0.00    -0.015 A 
ATOM     16  C   UNL     1       1.198   1.260   2.240  1.00  0.00     0.041 A 
ATOM     17  C   UNL     1       0.907   1.888   3.459  1.00  0.00     0.026 A 
ATOM     18  C   UNL     1       2.502   0.807   1.998  1.00  0.00     0.034 A 
ATOM     19  C   UNL     1       1.891   2.061   4.427  1.00  0.00     0.003 A 
ATOM     20  C   UNL     1       3.189   1.633   4.168  1.00  0.00     0.009 A 
BRANCH  16  21
ATOM     21  N   UNL     1       0.174   1.279   1.279  1.00  0.00    -0.326 N 
ATOM     22  C   UNL     1       0.833  -0.572  -0.251  1.00  0.00     0.114 C 
ATOM     23  C   UNL     1       0.023   0.649   0.080  1.00  0.00     0.221 C 
ATOM     24  O   UNL     1      -0.825   1.071  -0.709  1.00  0.00    -0.275 OA
ATOM     25  H   UNL     1      -0.583   1.861   1.518  1.00  0.00     0.169 HD
ENDBRANCH  16  21
ENDBRANCH   9  15
ENDBRANCH   5   8
ENDBRANCH   3   4
ENDBRANCH   2   3
ENDBRANCH   1   2
BRANCH   1  26
ATOM     26  C   UNL     1       1.379   5.146   0.193  1.00  0.00     0.116 C 
BRANCH  26  27
ATOM     27  N   UNL     1       0.522   4.787   1.315  1.00  0.00    -0.352 N 
ATOM     28  C   UNL     1      -0.853   4.856   1.427  1.00  0.00     0.251 C 
ATOM     29  H   UNL     1       0.991   4.444   2.110  1.00  0.00     0.163 HD
ATOM     30  O   UNL     1      -1.417   4.343   2.386  1.00  0.00    -0.269 OA
BRANCH  28  31
ATOM     31  C   UNL     1      -1.625   5.620   0.422  1.00  0.00     0.039 A 
ATOM     32  C   UNL     1      -2.340   6.744   0.849  1.00  0.00     0.014 A 
ATOM     33  C   UNL     1      -1.534   5.315  -0.936  1.00  0.00     0.014 A 
ATOM     34  C   UNL     1      -2.825   7.652  -0.096  1.00  0.00     0.010 A 
ATOM     35  C   UNL     1      -1.958   6.255  -1.874  1.00  0.00     0.010 A 
ATOM     36  C   UNL     1      -2.555   7.458  -1.460  1.00  0.00    -0.014 A 
BRANCH  36  37
ATOM     37  C   UNL     1      -2.755   8.549  -2.453  1.00  0.00     0.031 A 
ATOM     38  C   UNL     1      -3.693   8.370  -3.611  1.00  0.00     0.074 A 
ATOM     39  C   UNL     1      -1.980   9.652  -2.377  1.00  0.00     0.049 A 
ATOM     40  N   UNL     1      -3.868   9.138  -4.656  1.00  0.00    -0.248 NA
ATOM     41  C   UNL     1      -4.523   7.155  -3.610  1.00  0.00     0.031 C 
ATOM     42  C   UNL     1      -0.982   9.918  -1.335  1.00  0.00     0.029 A 
ATOM     43  N   UNL     1      -1.881  10.743  -3.207  1.00  0.00    -0.354 N 
ATOM     44  C   UNL     1      -4.804   8.489  -5.451  1.00  0.00     0.074 A 
ATOM     45  C   UNL     1      -5.143   7.252  -4.778  1.00  0.00     0.031 C 
ATOM     46  C   UNL     1      -0.378  11.090  -1.587  1.00  0.00     0.029 A 
ATOM     47  C   UNL     1      -0.909  11.641  -2.829  1.00  0.00     0.049 A 
ATOM     48  H   UNL     1      -2.453  10.870  -3.998  1.00  0.00     0.167 HD
ATOM     49  C   UNL     1      -5.338   8.893  -6.629  1.00  0.00     0.037 A 
ATOM     50  C   UNL     1      -0.472  12.768  -3.424  1.00  0.00     0.037 A 
ATOM     51  C   UNL     1      -5.021  10.139  -7.279  1.00  0.00     0.049 A 
ATOM     52  C   UNL     1      -1.095  13.204  -4.720  1.00  0.00     0.074 A 
ATOM     53  C   UNL     1      -5.574  10.673  -8.430  1.00  0.00     0.029 A 
ATOM     54  N   UNL     1      -4.066  11.043  -6.838  1.00  0.00    -0.354 N 
ATOM     55  N   UNL     1      -2.032  12.611  -5.420  1.00  0.00    -0.248 NA
ATOM     56  C   UNL     1      -0.603  14.457  -5.309  1.00  0.00     0.031 C 
ATOM     57  C   UNL     1      -4.929  11.885  -8.704  1.00  0.00     0.029 A 
ATOM     58  C   UNL     1      -3.999  12.121  -7.705  1.00  0.00     0.049 A 
ATOM     59  H   UNL     1      -3.517  10.934  -6.029  1.00  0.00     0.167 HD
ATOM     60  C   UNL     1      -2.250  13.425  -6.526  1.00  0.00     0.074 A 
ATOM     61  C   UNL     1      -1.360  14.560  -6.393  1.00  0.00     0.031 C 
ATOM     62  C   UNL     1      -3.108  13.244  -7.559  1.00  0.00     0.037 A 
BRANCH  49  63
ATOM     63  C   UNL     1      -6.327   7.979  -7.295  1.00  0.00     0.058 A 
ATOM     64  C   UNL     1      -7.630   7.823  -6.800  1.00  0.00     0.135 A 
ATOM     65  C   UNL     1      -5.981   7.282  -8.464  1.00  0.00     0.135 A 
ATOM     66  F   UNL     1      -8.008   8.457  -5.678  1.00  0.00    -0.206 F 
ATOM     67  C   UNL     1      -8.551   6.990  -7.427  1.00  0.00     0.059 A 
ATOM     68  C   UNL     1      -6.892   6.461  -9.121  1.00  0.00     0.059 A 
ATOM     69  F   UNL     1      -4.746   7.397  -8.979  1.00  0.00    -0.206 F 
ATOM     70  C   UNL     1      -8.172   6.311  -8.586  1.00  0.00     0.060 A 
BRANCH  70  71
ATOM     71  S   UNL     1      -9.380   5.242  -9.396  1.00  0.00     0.124 S 
ATOM     72  O   UNL     1      -9.381   4.082  -8.510  1.00  0.00    -0.237 OA
ATOM     73  O   UNL     1     -10.590   6.058  -9.369  1.00  0.00    -0.237 OA
ATOM     74  O   UNL     1      -8.806   5.021 -10.719  1.00  0.00    -0.744 OA
ENDBRANCH  70  71
ENDBRANCH  49  63
BRANCH  50  75
ATOM     75  C   UNL     1       0.621  13.562  -2.803  1.00  0.00     0.058 A 
ATOM     76  C   UNL     1       0.356  14.796  -2.191  1.00  0.00     0.135 A 
ATOM     77  C   UNL     1       1.947  13.103  -2.802  1.00  0.00     0.135 A 
ATOM     78  F   UNL     1      -0.895  15.280  -2.174  1.00  0.00    -0.206 F 
ATOM     79  C   UNL     1       1.369  15.555  -1.612  1.00  0.00     0.059 A 
ATOM     80  C   UNL     1       2.974  13.833  -2.211  1.00  0.00     0.059 A 
ATOM     81  F   UNL     1       2.250  11.920  -3.360  1.00  0.00    -0.206 F 
ATOM     82  C   UNL     1       2.676  15.064  -1.627  1.00  0.00     0.060 A 
BRANCH  82  83
ATOM     83  S   UNL     1       3.977  16.029  -0.828  1.00  0.00     0.124 S 
ATOM     84  O   UNL     1       4.224  17.067  -1.822  1.00  0.00    -0.237 OA
ATOM     85  O   UNL     1       3.327  16.466   0.404  1.00  0.00    -0.237 OA
ATOM     86  O   UNL     1       5.050  15.056  -0.649  1.00  0.00    -0.744 OA
ENDBRANCH  82  83
ENDBRANCH  50  75
BRANCH  62  87
ATOM     87  C   UNL     1      -3.138  14.305  -8.622  1.00  0.00     0.058 A 
ATOM     88  C   UNL     1      -2.125  14.401  -9.588  1.00  0.00     0.135 A 
ATOM     89  C   UNL     1      -4.217  15.199  -8.707  1.00  0.00     0.135 A 
ATOM     90  F   UNL     1      -1.068  13.575  -9.541  1.00  0.00    -0.206 F 
ATOM     91  C   UNL     1      -2.174  15.356 -10.597  1.00  0.00     0.059 A 
ATOM     92  C   UNL     1      -4.297  16.148  -9.721  1.00  0.00     0.059 A 
ATOM     93  F   UNL     1      -5.214  15.143  -7.810  1.00  0.00    -0.206 F 
ATOM     94  C   UNL     1      -3.266  16.224 -10.657  1.00  0.00     0.060 A 
BRANCH  94  95
ATOM     95  S   UNL     1      -3.344  17.431 -11.998  1.00  0.00     0.124 S 
ATOM     96  O   UNL     1      -2.398  18.442 -11.537  1.00  0.00    -0.237 OA
ATOM     97  O   UNL     1      -2.921  16.647 -13.153  1.00  0.00    -0.237 OA
ATOM     98  O   UNL     1      -4.746  17.839 -12.005  1.00  0.00    -0.744 OA
ENDBRANCH  94  95
ENDBRANCH  62  87
ENDBRANCH  36  37
ENDBRANCH  28  31
ENDBRANCH  26  27
ENDBRANCH   1  26
TORSDOF 16
