REMARK SMILES Cc1ccc(S(=O)(=O)N(C)c2cccc(C)c2C)cc1C(=O)NCCCCNC(=O)c1ccc(-c2c3nc(c(-c4c(F)cc(S(=O)(=O)[O-])cc4F)c4ccc([nH]4)c(-c4c(F)cc(S(=O)(=O)[O-])cc4F)c4nc(c(-c5c(F)cc(S(=O)(=O)[O-])cc5F)c5ccc2[nH]5)C=C4)C=C3)cc1
REMARK SMILES IDX 25 1 24 2 23 3 21 4 22 5 20 7 1 8 2 9 3 10 4 11 19 12 5 13
REMARK SMILES IDX 6 14 7 15 8 16 9 17 10 18 11 19 12 20 17 21 13 22 15 23
REMARK SMILES IDX 18 24 14 25 16 26 26 27 27 28 28 29 29 30 30 32 31 33 32 34
REMARK SMILES IDX 96 35 33 36 95 37 34 38 35 39 36 40 89 41 37 42 94 43 88 44
REMARK SMILES IDX 90 45 38 46 93 47 87 48 86 49 39 51 73 52 52 53 72 54 53 55
REMARK SMILES IDX 56 56 71 57 91 58 54 59 55 60 70 62 92 63 57 64 40 65 41 66
REMARK SMILES IDX 50 67 42 68 43 69 49 70 51 71 44 72 45 73 46 74 47 75 48 76
REMARK SMILES IDX 74 77 75 78 84 79 76 80 77 81 83 82 85 83 78 84 79 85 80 86
REMARK SMILES IDX 81 87 82 88 58 89 59 90 68 91 60 92 61 93 67 94 69 95 62 96
REMARK SMILES IDX 63 97 64 98 65 99 66 100
REMARK H PARENT 23 6 28 31 90 50 56 61
REMARK Flexibility Score: inf
ROOT
ATOM      1  C   UNL     1       4.284   1.076  -1.242  1.00  0.00     0.023 C 
ENDROOT
BRANCH   1   2
ATOM      2  C   UNL     1       3.506   1.503   0.014  1.00  0.00     0.116 C 
BRANCH   2   3
ATOM      3  N   UNL     1       2.319   2.250  -0.357  1.00  0.00    -0.352 N 
ATOM      4  C   UNL     1       1.009   1.972  -0.624  1.00  0.00     0.251 C 
ATOM      5  O   UNL     1       0.366   2.950  -1.031  1.00  0.00    -0.269 OA
ATOM      6  H   UNL     1       2.508   3.213  -0.437  1.00  0.00     0.163 HD
BRANCH   4   7
ATOM      7  C   UNL     1       0.244   0.688  -0.401  1.00  0.00     0.044 A 
ATOM      8  C   UNL     1       2.020  -1.188  -0.774  1.00  0.00     0.045 C 
ATOM      9  C   UNL     1       0.668  -0.661  -0.405  1.00  0.00    -0.038 A 
ATOM     10  C   UNL     1      -0.270  -1.681  -0.119  1.00  0.00     0.005 A 
ATOM     11  C   UNL     1      -1.614  -1.407   0.084  1.00  0.00     0.022 A 
ATOM     12  C   UNL     1      -1.153   0.931  -0.225  1.00  0.00     0.036 A 
ATOM     13  C   UNL     1      -2.066  -0.095   0.013  1.00  0.00     0.088 A 
BRANCH  13  14
ATOM     14  S   UNL     1      -3.812   0.124   0.259  1.00  0.00     0.264 S 
ATOM     15  O   UNL     1      -4.448  -0.689  -0.762  1.00  0.00    -0.201 OA
ATOM     16  O   UNL     1      -4.033  -0.160   1.665  1.00  0.00    -0.201 OA
BRANCH  14  17
ATOM     17  N   UNL     1      -4.259   1.763  -0.027  1.00  0.00    -0.269 N 
ATOM     18  C   UNL     1      -3.664   2.771   0.895  1.00  0.00     0.164 C 
BRANCH  17  19
ATOM     19  C   UNL     1      -5.705   1.956  -0.191  1.00  0.00     0.055 A 
ATOM     20  C   UNL     1      -6.605   1.369   0.716  1.00  0.00     0.027 A 
ATOM     21  C   UNL     1      -6.192   2.906  -1.120  1.00  0.00    -0.024 A 
ATOM     22  C   UNL     1      -7.967   1.647   0.669  1.00  0.00     0.002 A 
ATOM     23  C   UNL     1      -7.576   3.222  -1.132  1.00  0.00    -0.046 A 
ATOM     24  C   UNL     1      -5.235   3.607  -2.051  1.00  0.00     0.047 C 
ATOM     25  C   UNL     1      -8.449   2.568  -0.249  1.00  0.00     0.004 A 
ATOM     26  C   UNL     1      -8.158   4.256  -2.060  1.00  0.00     0.044 C 
ENDBRANCH  17  19
ENDBRANCH  14  17
ENDBRANCH  13  14
ENDBRANCH   4   7
ENDBRANCH   2   3
ENDBRANCH   1   2
BRANCH   1  27
ATOM     27  C   UNL     1       5.034   2.208  -1.944  1.00  0.00     0.023 C 
BRANCH  27  28
ATOM     28  C   UNL     1       6.313   2.593  -1.223  1.00  0.00     0.116 C 
BRANCH  28  29
ATOM     29  N   UNL     1       7.533   2.132  -1.869  1.00  0.00    -0.352 N 
ATOM     30  C   UNL     1       8.837   2.394  -1.484  1.00  0.00     0.251 C 
ATOM     31  H   UNL     1       7.418   1.571  -2.670  1.00  0.00     0.163 HD
ATOM     32  O   UNL     1       9.789   2.191  -2.228  1.00  0.00    -0.269 OA
BRANCH  30  33
ATOM     33  C   UNL     1       9.049   2.814  -0.082  1.00  0.00     0.039 A 
ATOM     34  C   UNL     1       9.692   1.903   0.764  1.00  0.00     0.014 A 
ATOM     35  C   UNL     1       8.328   3.886   0.433  1.00  0.00     0.014 A 
ATOM     36  C   UNL     1       9.430   1.938   2.131  1.00  0.00     0.010 A 
ATOM     37  C   UNL     1       7.976   3.846   1.766  1.00  0.00     0.010 A 
ATOM     38  C   UNL     1       8.486   2.845   2.607  1.00  0.00    -0.014 A 
BRANCH  38  39
ATOM     39  C   UNL     1       7.898   2.789   3.941  1.00  0.00     0.031 A 
ATOM     40  C   UNL     1       8.168   3.882   4.904  1.00  0.00     0.074 A 
ATOM     41  C   UNL     1       7.002   1.826   4.245  1.00  0.00     0.049 A 
ATOM     42  N   UNL     1       7.897   3.844   6.165  1.00  0.00    -0.248 NA
ATOM     43  C   UNL     1       8.844   5.112   4.509  1.00  0.00     0.031 C 
ATOM     44  C   UNL     1       6.028   1.840   5.332  1.00  0.00     0.029 A 
ATOM     45  N   UNL     1       6.915   0.535   3.729  1.00  0.00    -0.354 N 
ATOM     46  C   UNL     1       8.074   5.112   6.678  1.00  0.00     0.074 A 
ATOM     47  C   UNL     1       8.752   5.830   5.629  1.00  0.00     0.031 C 
ATOM     48  C   UNL     1       5.604   0.588   5.560  1.00  0.00     0.029 A 
ATOM     49  C   UNL     1       6.411  -0.300   4.741  1.00  0.00     0.049 A 
ATOM     50  H   UNL     1       7.163   0.257   2.818  1.00  0.00     0.167 HD
ATOM     51  C   UNL     1       7.493   5.424   7.875  1.00  0.00     0.037 A 
ATOM     52  C   UNL     1       7.165  -1.325   5.243  1.00  0.00     0.037 A 
ATOM     53  C   UNL     1       6.984   4.210   8.526  1.00  0.00     0.049 A 
ATOM     54  C   UNL     1       7.545  -1.160   6.699  1.00  0.00     0.074 A 
ATOM     55  C   UNL     1       5.719   3.655   8.640  1.00  0.00     0.029 A 
ATOM     56  N   UNL     1       7.881   3.218   8.919  1.00  0.00    -0.354 N 
ATOM     57  N   UNL     1       7.416  -0.046   7.367  1.00  0.00    -0.248 NA
ATOM     58  C   UNL     1       8.112  -2.230   7.518  1.00  0.00     0.031 C 
ATOM     59  C   UNL     1       5.868   2.293   9.011  1.00  0.00     0.029 A 
ATOM     60  C   UNL     1       7.219   2.026   9.154  1.00  0.00     0.049 A 
ATOM     61  H   UNL     1       8.852   3.348   9.017  1.00  0.00     0.167 HD
ATOM     62  C   UNL     1       7.903  -0.206   8.638  1.00  0.00     0.074 A 
ATOM     63  C   UNL     1       8.296  -1.602   8.693  1.00  0.00     0.031 C 
ATOM     64  C   UNL     1       7.956   0.826   9.532  1.00  0.00     0.037 A 
BRANCH  51  65
ATOM     65  C   UNL     1       7.111   6.838   8.313  1.00  0.00     0.058 A 
ATOM     66  C   UNL     1       6.093   7.041   9.275  1.00  0.00     0.135 A 
ATOM     67  C   UNL     1       7.616   8.036   7.765  1.00  0.00     0.135 A 
ATOM     68  F   UNL     1       5.575   6.021   9.973  1.00  0.00    -0.206 F 
ATOM     69  C   UNL     1       5.545   8.298   9.566  1.00  0.00     0.059 A 
ATOM     70  C   UNL     1       7.062   9.298   8.008  1.00  0.00     0.059 A 
ATOM     71  F   UNL     1       8.710   8.066   7.003  1.00  0.00    -0.206 F 
ATOM     72  C   UNL     1       6.011   9.420   8.897  1.00  0.00     0.060 A 
BRANCH  72  73
ATOM     73  S   UNL     1       5.253  11.023   9.211  1.00  0.00     0.124 S 
ATOM     74  O   UNL     1       3.861  10.780   8.844  1.00  0.00    -0.237 OA
ATOM     75  O   UNL     1       5.513  11.212  10.634  1.00  0.00    -0.237 OA
ATOM     76  O   UNL     1       5.979  11.924   8.320  1.00  0.00    -0.744 OA
ENDBRANCH  72  73
ENDBRANCH  51  65
BRANCH  52  77
ATOM     77  C   UNL     1       7.976  -2.008   4.198  1.00  0.00     0.058 A 
ATOM     78  C   UNL     1       7.273  -2.753   3.232  1.00  0.00     0.135 A 
ATOM     79  C   UNL     1       9.260  -1.555   3.862  1.00  0.00     0.135 A 
ATOM     80  F   UNL     1       6.049  -3.230   3.513  1.00  0.00    -0.206 F 
ATOM     81  C   UNL     1       7.733  -2.872   1.927  1.00  0.00     0.059 A 
ATOM     82  C   UNL     1       9.746  -1.672   2.558  1.00  0.00     0.059 A 
ATOM     83  F   UNL     1       9.980  -0.847   4.745  1.00  0.00    -0.206 F 
ATOM     84  C   UNL     1       8.935  -2.256   1.584  1.00  0.00     0.060 A 
BRANCH  84  85
ATOM     85  S   UNL     1       9.291  -2.044  -0.177  1.00  0.00     0.124 S 
ATOM     86  O   UNL     1       9.259  -3.419  -0.663  1.00  0.00    -0.237 OA
ATOM     87  O   UNL     1       8.172  -1.199  -0.593  1.00  0.00    -0.237 OA
ATOM     88  O   UNL     1      10.601  -1.404  -0.176  1.00  0.00    -0.744 OA
ENDBRANCH  84  85
ENDBRANCH  52  77
BRANCH  64  89
ATOM     89  C   UNL     1       8.637   0.785  10.879  1.00  0.00     0.058 A 
ATOM     90  C   UNL     1       9.796   0.037  11.152  1.00  0.00     0.135 A 
ATOM     91  C   UNL     1       8.200   1.637  11.921  1.00  0.00     0.135 A 
ATOM     92  F   UNL     1      10.369  -0.726  10.210  1.00  0.00    -0.206 F 
ATOM     93  C   UNL     1      10.439   0.081  12.391  1.00  0.00     0.059 A 
ATOM     94  C   UNL     1       8.857   1.737  13.145  1.00  0.00     0.059 A 
ATOM     95  F   UNL     1       7.115   2.414  11.778  1.00  0.00    -0.206 F 
ATOM     96  C   UNL     1       9.963   0.934  13.382  1.00  0.00     0.060 A 
BRANCH  96  97
ATOM     97  S   UNL     1      10.820   1.047  14.964  1.00  0.00     0.124 S 
ATOM     98  O   UNL     1      10.090   0.066  15.760  1.00  0.00    -0.237 OA
ATOM     99  O   UNL     1      12.192   0.684  14.620  1.00  0.00    -0.237 OA
ATOM    100  O   UNL     1      10.628   2.443  15.345  1.00  0.00    -0.744 OA
ENDBRANCH  96  97
ENDBRANCH  64  89
ENDBRANCH  38  39
ENDBRANCH  30  33
ENDBRANCH  28  29
ENDBRANCH  27  28
ENDBRANCH   1  27
TORSDOF 17
