REMARK SMILES CC(C)Cc1ccc([C@@H](C)C(=O)NCCCCNC(=O)c2ccc(-c3c4nc(c(-c5c(F)cc(S(=O)(=O)[O-])cc5F)c5ccc([nH]5)c(-c5c(F)cc(S(=O)(=O)[O-])cc5F)c5nc(c(-c6c(F)cc(S(=O)(=O)[O-])cc6F)c6ccc3[nH]6)C=C5)C=C4)cc2)cc1
REMARK SMILES IDX 15 1 14 2 13 3 11 4 12 5 9 7 10 8 8 9 5 10 6 11 88 12 7 13
REMARK SMILES IDX 87 14 4 15 2 16 1 17 3 18 16 19 17 20 18 21 19 22 20 24
REMARK SMILES IDX 21 25 22 26 86 27 23 28 85 29 24 30 25 31 26 32 79 33 27 34
REMARK SMILES IDX 84 35 78 36 80 37 28 38 83 39 77 40 76 41 29 43 63 44 42 45
REMARK SMILES IDX 62 46 43 47 46 48 61 49 81 50 44 51 45 52 60 54 82 55 47 56
REMARK SMILES IDX 30 57 31 58 40 59 32 60 33 61 39 62 41 63 34 64 35 65 36 66
REMARK SMILES IDX 37 67 38 68 64 69 65 70 74 71 66 72 67 73 73 74 75 75 68 76
REMARK SMILES IDX 69 77 70 78 71 79 72 80 48 81 49 82 58 83 50 84 51 85 57 86
REMARK SMILES IDX 59 87 52 88 53 89 54 90 55 91 56 92
REMARK H PARENT 13 6 18 23 80 42 46 53
REMARK Flexibility Score: inf
ROOT
ATOM      1  C   UNL     1       0.699   3.603  -1.722  1.00  0.00     0.023 C 
ENDROOT
BRANCH   1   2
ATOM      2  C   UNL     1      -0.203   4.740  -2.201  1.00  0.00     0.116 C 
BRANCH   2   3
ATOM      3  N   UNL     1      -0.630   4.572  -3.575  1.00  0.00    -0.356 N 
ATOM      4  C   UNL     1      -1.781   4.058  -4.094  1.00  0.00     0.227 C 
ATOM      5  O   UNL     1      -1.865   4.000  -5.327  1.00  0.00    -0.274 OA
ATOM      6  H   UNL     1       0.020   4.881  -4.247  1.00  0.00     0.163 HD
BRANCH   4   7
ATOM      7  C   UNL     1      -2.953   3.576  -3.224  1.00  0.00     0.105 C 
ATOM      8  C   UNL     1      -3.638   4.718  -2.471  1.00  0.00     0.023 C 
BRANCH   7   9
ATOM      9  C   UNL     1      -2.618   2.319  -2.436  1.00  0.00    -0.036 A 
ATOM     10  C   UNL     1      -1.728  -0.032  -1.137  1.00  0.00    -0.048 A 
ATOM     11  C   UNL     1      -1.907   1.158  -0.421  1.00  0.00     0.004 A 
ATOM     12  C   UNL     1      -2.060  -0.057  -2.494  1.00  0.00     0.004 A 
ATOM     13  C   UNL     1      -2.359   2.317  -1.060  1.00  0.00     0.005 A 
ATOM     14  C   UNL     1      -2.496   1.105  -3.134  1.00  0.00     0.005 A 
BRANCH  10  15
ATOM     15  C   UNL     1      -1.137  -1.249  -0.467  1.00  0.00     0.038 C 
BRANCH  15  16
ATOM     16  C   UNL     1       0.395  -1.363  -0.625  1.00  0.00    -0.013 C 
ATOM     17  C   UNL     1       1.146  -0.212   0.053  1.00  0.00     0.008 C 
ATOM     18  C   UNL     1       0.876  -2.694  -0.042  1.00  0.00     0.008 C 
ENDBRANCH  15  16
ENDBRANCH  10  15
ENDBRANCH   7   9
ENDBRANCH   4   7
ENDBRANCH   2   3
ENDBRANCH   1   2
BRANCH   1  19
ATOM     19  C   UNL     1       2.176   3.747  -2.087  1.00  0.00     0.023 C 
BRANCH  19  20
ATOM     20  C   UNL     1       2.877   4.977  -1.519  1.00  0.00     0.116 C 
BRANCH  20  21
ATOM     21  N   UNL     1       2.823   5.074  -0.067  1.00  0.00    -0.352 N 
ATOM     22  C   UNL     1       3.756   5.626   0.782  1.00  0.00     0.251 C 
ATOM     23  H   UNL     1       2.020   4.697   0.361  1.00  0.00     0.163 HD
ATOM     24  O   UNL     1       3.603   5.562   1.998  1.00  0.00    -0.269 OA
BRANCH  22  25
ATOM     25  C   UNL     1       4.968   6.252   0.210  1.00  0.00     0.039 A 
ATOM     26  C   UNL     1       6.222   5.852   0.679  1.00  0.00     0.014 A 
ATOM     27  C   UNL     1       4.864   7.179  -0.829  1.00  0.00     0.014 A 
ATOM     28  C   UNL     1       7.375   6.321   0.045  1.00  0.00     0.010 A 
ATOM     29  C   UNL     1       6.010   7.588  -1.503  1.00  0.00     0.010 A 
ATOM     30  C   UNL     1       7.276   7.157  -1.079  1.00  0.00    -0.014 A 
BRANCH  30  31
ATOM     31  C   UNL     1       8.479   7.589  -1.836  1.00  0.00     0.031 A 
ATOM     32  C   UNL     1       8.840   9.047  -1.901  1.00  0.00     0.074 A 
ATOM     33  C   UNL     1       9.190   6.683  -2.535  1.00  0.00     0.049 A 
ATOM     34  N   UNL     1       9.781   9.635  -2.592  1.00  0.00    -0.248 NA
ATOM     35  C   UNL     1       8.009   9.969  -1.109  1.00  0.00     0.031 C 
ATOM     36  C   UNL     1       8.914   5.245  -2.589  1.00  0.00     0.029 A 
ATOM     37  N   UNL     1      10.287   6.838  -3.345  1.00  0.00    -0.354 N 
ATOM     38  C   UNL     1       9.642  10.995  -2.339  1.00  0.00     0.074 A 
ATOM     39  C   UNL     1       8.496  11.147  -1.469  1.00  0.00     0.031 C 
ATOM     40  C   UNL     1       9.831   4.649  -3.368  1.00  0.00     0.029 A 
ATOM     41  C   UNL     1      10.737   5.663  -3.899  1.00  0.00     0.049 A 
ATOM     42  H   UNL     1      10.712   7.710  -3.514  1.00  0.00     0.167 HD
ATOM     43  C   UNL     1      10.411  12.021  -2.775  1.00  0.00     0.037 A 
ATOM     44  C   UNL     1      11.762   5.430  -4.742  1.00  0.00     0.037 A 
ATOM     45  C   UNL     1      11.571  11.860  -3.611  1.00  0.00     0.049 A 
ATOM     46  C   UNL     1      12.608   6.584  -5.206  1.00  0.00     0.074 A 
ATOM     47  C   UNL     1      12.457  12.828  -4.052  1.00  0.00     0.029 A 
ATOM     48  N   UNL     1      12.009  10.650  -4.130  1.00  0.00    -0.354 N 
ATOM     49  N   UNL     1      12.498   7.857  -4.910  1.00  0.00    -0.248 NA
ATOM     50  C   UNL     1      13.717   6.271  -6.117  1.00  0.00     0.031 C 
ATOM     51  C   UNL     1      13.412  12.207  -4.864  1.00  0.00     0.029 A 
ATOM     52  C   UNL     1      13.143  10.848  -4.900  1.00  0.00     0.049 A 
ATOM     53  H   UNL     1      11.577   9.780  -3.975  1.00  0.00     0.167 HD
ATOM     54  C   UNL     1      13.541   8.492  -5.574  1.00  0.00     0.074 A 
ATOM     55  C   UNL     1      14.273   7.463  -6.285  1.00  0.00     0.031 C 
ATOM     56  C   UNL     1      13.867   9.809  -5.589  1.00  0.00     0.037 A 
BRANCH  43  57
ATOM     57  C   UNL     1      10.015  13.407  -2.349  1.00  0.00     0.058 A 
ATOM     58  C   UNL     1      10.161  13.839  -1.021  1.00  0.00     0.135 A 
ATOM     59  C   UNL     1       9.478  14.314  -3.277  1.00  0.00     0.135 A 
ATOM     60  F   UNL     1      10.655  13.007  -0.090  1.00  0.00    -0.206 F 
ATOM     61  C   UNL     1       9.746  15.104  -0.617  1.00  0.00     0.059 A 
ATOM     62  C   UNL     1       9.082  15.594  -2.901  1.00  0.00     0.059 A 
ATOM     63  F   UNL     1       9.319  13.954  -4.560  1.00  0.00    -0.206 F 
ATOM     64  C   UNL     1       9.199  15.971  -1.564  1.00  0.00     0.060 A 
BRANCH  64  65
ATOM     65  S   UNL     1       8.636  17.598  -1.022  1.00  0.00     0.124 S 
ATOM     66  O   UNL     1       7.371  17.265  -0.374  1.00  0.00    -0.237 OA
ATOM     67  O   UNL     1       9.710  18.024  -0.131  1.00  0.00    -0.237 OA
ATOM     68  O   UNL     1       8.525  18.350  -2.268  1.00  0.00    -0.744 OA
ENDBRANCH  64  65
ENDBRANCH  43  57
BRANCH  44  69
ATOM     69  C   UNL     1      12.072   4.040  -5.168  1.00  0.00     0.058 A 
ATOM     70  C   UNL     1      13.199   3.374  -4.665  1.00  0.00     0.135 A 
ATOM     71  C   UNL     1      11.246   3.344  -6.065  1.00  0.00     0.135 A 
ATOM     72  F   UNL     1      14.021   4.002  -3.810  1.00  0.00    -0.206 F 
ATOM     73  C   UNL     1      13.506   2.072  -5.043  1.00  0.00     0.059 A 
ATOM     74  C   UNL     1      11.521   2.033  -6.442  1.00  0.00     0.059 A 
ATOM     75  F   UNL     1      10.147   3.932  -6.562  1.00  0.00    -0.206 F 
ATOM     76  C   UNL     1      12.659   1.408  -5.932  1.00  0.00     0.060 A 
BRANCH  76  77
ATOM     77  S   UNL     1      13.037  -0.302  -6.373  1.00  0.00     0.124 S 
ATOM     78  O   UNL     1      14.156  -0.128  -7.292  1.00  0.00    -0.237 OA
ATOM     79  O   UNL     1      13.360  -0.891  -5.077  1.00  0.00    -0.237 OA
ATOM     80  O   UNL     1      11.793  -0.775  -6.974  1.00  0.00    -0.744 OA
ENDBRANCH  76  77
ENDBRANCH  44  69
BRANCH  56  81
ATOM     81  C   UNL     1      15.088  10.210  -6.365  1.00  0.00     0.058 A 
ATOM     82  C   UNL     1      15.081  10.278  -7.766  1.00  0.00     0.135 A 
ATOM     83  C   UNL     1      16.261  10.591  -5.694  1.00  0.00     0.135 A 
ATOM     84  F   UNL     1      13.987   9.916  -8.455  1.00  0.00    -0.206 F 
ATOM     85  C   UNL     1      16.200  10.699  -8.477  1.00  0.00     0.059 A 
ATOM     86  C   UNL     1      17.384  11.037  -6.383  1.00  0.00     0.059 A 
ATOM     87  F   UNL     1      16.315  10.551  -4.353  1.00  0.00    -0.206 F 
ATOM     88  C   UNL     1      17.346  11.079  -7.776  1.00  0.00     0.060 A 
BRANCH  88  89
ATOM     89  S   UNL     1      18.776  11.672  -8.706  1.00  0.00     0.124 S 
ATOM     90  O   UNL     1      19.328  10.425  -9.223  1.00  0.00    -0.237 OA
ATOM     91  O   UNL     1      18.164  12.553  -9.696  1.00  0.00    -0.237 OA
ATOM     92  O   UNL     1      19.583  12.345  -7.692  1.00  0.00    -0.744 OA
ENDBRANCH  88  89
ENDBRANCH  56  81
ENDBRANCH  30  31
ENDBRANCH  22  25
ENDBRANCH  20  21
ENDBRANCH  19  20
ENDBRANCH   1  19
TORSDOF 17
