REMARK SMILES Cc1oc(CNC(=O)c2ccnn2C)cc1C(=O)NCCCCNC(=O)c1ccc(-c2c3nc(c(-c4c(F)cc(S(=O)(=O)[O-])cc4F)c4ccc([nH]4)c(-c4c(F)cc(S(=O)(=O)[O-])cc4F)c4nc(c(-c5c(F)cc(S(=O)(=O)[O-])cc5F)c5ccc2[nH]5)C=C4)C=C3)cc1
REMARK SMILES IDX 21 1 20 2 19 3 17 4 18 5 16 7 1 8 2 9 3 10 4 11 15 12 5 13
REMARK SMILES IDX 6 14 7 15 8 17 9 18 10 19 13 20 11 21 12 22 14 23 22 24
REMARK SMILES IDX 23 25 24 26 25 27 26 29 27 30 28 31 92 32 29 33 91 34 30 35
REMARK SMILES IDX 31 36 32 37 85 38 33 39 90 40 84 41 86 42 34 43 89 44 83 45
REMARK SMILES IDX 82 46 35 48 69 49 48 50 68 51 49 52 52 53 67 54 87 55 50 56
REMARK SMILES IDX 51 57 66 59 88 60 53 61 36 62 37 63 46 64 38 65 39 66 45 67
REMARK SMILES IDX 47 68 40 69 41 70 42 71 43 72 44 73 70 74 71 75 80 76 72 77
REMARK SMILES IDX 73 78 79 79 81 80 74 81 75 82 76 83 77 84 78 85 54 86 55 87
REMARK SMILES IDX 64 88 56 89 57 90 63 91 65 92 58 93 59 94 60 95 61 96 62 97
REMARK H PARENT 19 6 6 16 24 28 86 47 52 58
REMARK Flexibility Score: inf
ROOT
ATOM      1  C   UNL     1       3.524  -2.224   1.040  1.00  0.00     0.023 C 
ENDROOT
BRANCH   1   2
ATOM      2  C   UNL     1       2.689  -2.453  -0.218  1.00  0.00     0.116 C 
BRANCH   2   3
ATOM      3  N   UNL     1       1.407  -3.015   0.122  1.00  0.00    -0.352 N 
ATOM      4  C   UNL     1       0.169  -2.476   0.317  1.00  0.00     0.254 C 
ATOM      5  O   UNL     1      -0.721  -3.294   0.574  1.00  0.00    -0.269 OA
ATOM      6  H   UNL     1       1.429  -3.993   0.238  1.00  0.00     0.163 HD
BRANCH   4   7
ATOM      7  C   UNL     1      -0.178  -1.061   0.185  1.00  0.00     0.081 A 
ATOM      8  C   UNL     1       1.891   0.626   0.472  1.00  0.00     0.088 C 
ATOM      9  C   UNL     1       0.515   0.147   0.235  1.00  0.00     0.113 A 
ATOM     10  O   UNL     1      -0.345   1.193   0.050  1.00  0.00    -0.464 OA
ATOM     11  C   UNL     1      -1.600   0.701  -0.061  1.00  0.00     0.124 A 
ATOM     12  C   UNL     1      -1.557  -0.666   0.017  1.00  0.00     0.061 A 
BRANCH  11  13
ATOM     13  C   UNL     1      -2.689   1.682  -0.257  1.00  0.00     0.191 C 
BRANCH  13  14
ATOM     14  N   UNL     1      -2.718   2.602   0.862  1.00  0.00    -0.343 N 
ATOM     15  C   UNL     1      -2.442   3.942   0.877  1.00  0.00     0.269 C 
ATOM     16  H   UNL     1      -2.970   2.210   1.729  1.00  0.00     0.164 HD
ATOM     17  O   UNL     1      -2.303   4.498   1.966  1.00  0.00    -0.268 OA
BRANCH  15  18
ATOM     18  C   UNL     1      -2.314   4.645  -0.369  1.00  0.00     0.125 A 
ATOM     19  C   UNL     1      -1.264   5.440  -0.791  1.00  0.00     0.055 A 
ATOM     20  N   UNL     1      -3.256   4.752  -1.361  1.00  0.00    -0.263 N 
ATOM     21  C   UNL     1      -1.629   5.894  -2.067  1.00  0.00     0.136 A 
ATOM     22  N   UNL     1      -2.837   5.461  -2.430  1.00  0.00    -0.181 NA
ATOM     23  C   UNL     1      -4.601   4.226  -1.373  1.00  0.00     0.174 C 
ENDBRANCH  15  18
ENDBRANCH  13  14
ENDBRANCH  11  13
ENDBRANCH   4   7
ENDBRANCH   2   3
ENDBRANCH   1   2
BRANCH   1  24
ATOM     24  C   UNL     1       4.215  -3.474   1.595  1.00  0.00     0.023 C 
BRANCH  24  25
ATOM     25  C   UNL     1       5.264  -4.095   0.680  1.00  0.00     0.116 C 
BRANCH  25  26
ATOM     26  N   UNL     1       6.313  -3.165   0.293  1.00  0.00    -0.352 N 
ATOM     27  C   UNL     1       7.591  -3.450  -0.124  1.00  0.00     0.251 C 
ATOM     28  H   UNL     1       6.077  -2.211   0.335  1.00  0.00     0.163 HD
ATOM     29  O   UNL     1       8.389  -2.541  -0.327  1.00  0.00    -0.269 OA
BRANCH  27  30
ATOM     30  C   UNL     1       8.008  -4.859  -0.269  1.00  0.00     0.039 A 
ATOM     31  C   UNL     1       9.171  -5.279   0.381  1.00  0.00     0.014 A 
ATOM     32  C   UNL     1       7.241  -5.764  -1.007  1.00  0.00     0.014 A 
ATOM     33  C   UNL     1       9.528  -6.628   0.352  1.00  0.00     0.010 A 
ATOM     34  C   UNL     1       7.573  -7.116  -0.997  1.00  0.00     0.010 A 
ATOM     35  C   UNL     1       8.711  -7.559  -0.308  1.00  0.00    -0.014 A 
BRANCH  35  36
ATOM     36  C   UNL     1       9.017  -9.008  -0.268  1.00  0.00     0.031 A 
ATOM     37  C   UNL     1       9.456  -9.721  -1.513  1.00  0.00     0.074 A 
ATOM     38  C   UNL     1       8.820  -9.692   0.875  1.00  0.00     0.049 A 
ATOM     39  N   UNL     1       9.670 -10.997  -1.700  1.00  0.00    -0.248 NA
ATOM     40  C   UNL     1       9.654  -8.892  -2.713  1.00  0.00     0.031 C 
ATOM     41  C   UNL     1       8.347  -9.116   2.136  1.00  0.00     0.029 A 
ATOM     42  N   UNL     1       8.979 -11.024   1.157  1.00  0.00    -0.354 N 
ATOM     43  C   UNL     1       9.998 -11.132  -3.042  1.00  0.00     0.074 A 
ATOM     44  C   UNL     1       9.939  -9.808  -3.628  1.00  0.00     0.031 C 
ATOM     45  C   UNL     1       8.265 -10.088   3.060  1.00  0.00     0.029 A 
ATOM     46  C   UNL     1       8.658 -11.356   2.451  1.00  0.00     0.049 A 
ATOM     47  H   UNL     1       9.294 -11.681   0.495  1.00  0.00     0.167 HD
ATOM     48  C   UNL     1      10.325 -12.255  -3.723  1.00  0.00     0.037 A 
ATOM     49  C   UNL     1       8.678 -12.548   3.076  1.00  0.00     0.037 A 
ATOM     50  C   UNL     1      10.421 -13.563  -3.131  1.00  0.00     0.049 A 
ATOM     51  C   UNL     1       9.117 -13.768   2.319  1.00  0.00     0.074 A 
ATOM     52  C   UNL     1      10.785 -14.757  -3.728  1.00  0.00     0.029 A 
ATOM     53  N   UNL     1      10.161 -13.844  -1.798  1.00  0.00    -0.354 N 
ATOM     54  N   UNL     1       9.455 -13.873   1.056  1.00  0.00    -0.248 NA
ATOM     55  C   UNL     1       9.184 -15.029   3.070  1.00  0.00     0.031 C 
ATOM     56  C   UNL     1      10.740 -15.763  -2.755  1.00  0.00     0.029 A 
ATOM     57  C   UNL     1      10.362 -15.191  -1.551  1.00  0.00     0.049 A 
ATOM     58  H   UNL     1       9.875 -13.184  -1.127  1.00  0.00     0.167 HD
ATOM     59  C   UNL     1       9.791 -15.207   0.865  1.00  0.00     0.074 A 
ATOM     60  C   UNL     1       9.621 -15.870   2.142  1.00  0.00     0.031 C 
ATOM     61  C   UNL     1      10.201 -15.826  -0.269  1.00  0.00     0.037 A 
BRANCH  48  62
ATOM     62  C   UNL     1      10.601 -12.107  -5.189  1.00  0.00     0.058 A 
ATOM     63  C   UNL     1      11.812 -11.574  -5.655  1.00  0.00     0.135 A 
ATOM     64  C   UNL     1       9.643 -12.493  -6.138  1.00  0.00     0.135 A 
ATOM     65  F   UNL     1      12.750 -11.173  -4.785  1.00  0.00    -0.206 F 
ATOM     66  C   UNL     1      12.053 -11.398  -7.013  1.00  0.00     0.059 A 
ATOM     67  C   UNL     1       9.870 -12.341  -7.502  1.00  0.00     0.059 A 
ATOM     68  F   UNL     1       8.468 -13.003  -5.742  1.00  0.00    -0.206 F 
ATOM     69  C   UNL     1      11.070 -11.774  -7.929  1.00  0.00     0.060 A 
BRANCH  69  70
ATOM     70  S   UNL     1      11.372 -11.521  -9.691  1.00  0.00     0.124 S 
ATOM     71  O   UNL     1      10.990 -10.121  -9.849  1.00  0.00    -0.237 OA
ATOM     72  O   UNL     1      12.797 -11.805  -9.817  1.00  0.00    -0.237 OA
ATOM     73  O   UNL     1      10.485 -12.491 -10.325  1.00  0.00    -0.744 OA
ENDBRANCH  69  70
ENDBRANCH  48  62
BRANCH  49  74
ATOM     74  C   UNL     1       8.302 -12.633   4.507  1.00  0.00     0.058 A 
ATOM     75  C   UNL     1       9.286 -12.720   5.500  1.00  0.00     0.135 A 
ATOM     76  C   UNL     1       6.960 -12.594   4.911  1.00  0.00     0.135 A 
ATOM     77  F   UNL     1      10.582 -12.761   5.156  1.00  0.00    -0.206 F 
ATOM     78  C   UNL     1       8.955 -12.771   6.849  1.00  0.00     0.059 A 
ATOM     79  C   UNL     1       6.604 -12.631   6.255  1.00  0.00     0.059 A 
ATOM     80  F   UNL     1       5.986 -12.493   3.995  1.00  0.00    -0.206 F 
ATOM     81  C   UNL     1       7.609 -12.726   7.217  1.00  0.00     0.060 A 
BRANCH  81  82
ATOM     82  S   UNL     1       7.181 -12.723   8.972  1.00  0.00     0.124 S 
ATOM     83  O   UNL     1       7.219 -14.146   9.284  1.00  0.00    -0.237 OA
ATOM     84  O   UNL     1       8.246 -11.912   9.555  1.00  0.00    -0.237 OA
ATOM     85  O   UNL     1       5.859 -12.104   8.986  1.00  0.00    -0.744 OA
ENDBRANCH  81  82
ENDBRANCH  49  74
BRANCH  61  86
ATOM     86  C   UNL     1      10.520 -17.287  -0.170  1.00  0.00     0.058 A 
ATOM     87  C   UNL     1       9.508 -18.257  -0.209  1.00  0.00     0.135 A 
ATOM     88  C   UNL     1      11.851 -17.721  -0.087  1.00  0.00     0.135 A 
ATOM     89  F   UNL     1       8.221 -17.887  -0.281  1.00  0.00    -0.206 F 
ATOM     90  C   UNL     1       9.806 -19.614  -0.159  1.00  0.00     0.059 A 
ATOM     91  C   UNL     1      12.172 -19.073  -0.047  1.00  0.00     0.059 A 
ATOM     92  F   UNL     1      12.851 -16.826  -0.051  1.00  0.00    -0.206 F 
ATOM     93  C   UNL     1      11.141 -20.013  -0.076  1.00  0.00     0.060 A 
BRANCH  93  94
ATOM     94  S   UNL     1      11.530 -21.776  -0.053  1.00  0.00     0.124 S 
ATOM     95  O   UNL     1      11.346 -22.098   1.357  1.00  0.00    -0.237 OA
ATOM     96  O   UNL     1      10.537 -22.334  -0.966  1.00  0.00    -0.237 OA
ATOM     97  O   UNL     1      12.908 -21.820  -0.536  1.00  0.00    -0.744 OA
ENDBRANCH  93  94
ENDBRANCH  61  86
ENDBRANCH  35  36
ENDBRANCH  27  30
ENDBRANCH  25  26
ENDBRANCH  24  25
ENDBRANCH   1  24
TORSDOF 17
