REMARK SMILES C[C@H]1[C@@H](C(=O)NCCCCNC(=O)c2ccc(-c3c4nc(c(-c5c(F)cc(S(=O)(=O)[O-])cc5F)c5ccc([nH]5)c(-c5c(F)cc(S(=O)(=O)[O-])cc5F)c5nc(c(-c6c(F)cc(S(=O)(=O)[O-])cc6F)c6ccc3[nH]6)C=C5)C=C4)cc2)CCN1C(=O)c1cc2cc(F)ccc2s1
REMARK SMILES IDX 9 1 8 2 7 3 6 4 4 5 5 6 3 8 1 9 2 10 82 11 80 12 81 13 83 14
REMARK SMILES IDX 84 15 85 16 86 17 94 18 87 19 93 20 88 21 92 22 89 23 91 24
REMARK SMILES IDX 90 25 10 26 11 27 12 28 13 30 14 31 15 32 79 33 16 34 78 35
REMARK SMILES IDX 17 36 18 37 19 38 72 39 20 40 77 41 71 42 73 43 21 44 76 45
REMARK SMILES IDX 70 46 69 47 22 49 56 50 35 51 55 52 36 53 39 54 54 55 74 56
REMARK SMILES IDX 37 57 38 58 53 60 75 61 40 62 23 63 24 64 33 65 25 66 26 67
REMARK SMILES IDX 32 68 34 69 27 70 28 71 29 72 30 73 31 74 57 75 58 76 67 77
REMARK SMILES IDX 59 78 60 79 66 80 68 81 61 82 62 83 63 84 64 85 65 86 41 87
REMARK SMILES IDX 42 88 51 89 43 90 44 91 50 92 52 93 45 94 46 95 47 96 48 97
REMARK SMILES IDX 49 98
REMARK H PARENT 6 7 11 29 73 48 39 59
REMARK Flexibility Score: inf
ROOT
ATOM      1  C   UNL     1       4.200   0.732  -3.159  1.00  0.00     0.023 C 
ENDROOT
BRANCH   1   2
ATOM      2  C   UNL     1       3.386   0.545  -1.889  1.00  0.00     0.023 C 
BRANCH   2   3
ATOM      3  C   UNL     1       2.745   1.823  -1.342  1.00  0.00     0.116 C 
BRANCH   3   4
ATOM      4  N   UNL     1       1.401   1.917  -1.856  1.00  0.00    -0.356 N 
ATOM      5  C   UNL     1       0.238   1.428  -1.357  1.00  0.00     0.225 C 
ATOM      6  O   UNL     1      -0.704   1.383  -2.154  1.00  0.00    -0.275 OA
ATOM      7  H   UNL     1       1.314   2.415  -2.701  1.00  0.00     0.163 HD
BRANCH   5   8
ATOM      8  C   UNL     1       0.061   1.108   0.138  1.00  0.00     0.102 C 
ATOM      9  C   UNL     1       1.873  -0.801   0.503  1.00  0.00     0.032 C 
ATOM     10  C   UNL     1       0.489  -0.249   0.750  1.00  0.00     0.094 C 
ATOM     11  N   UNL     1      -0.605  -1.176   0.451  1.00  0.00    -0.334 N 
ATOM     12  C   UNL     1      -1.461   1.014   0.403  1.00  0.00     0.037 C 
ATOM     13  C   UNL     1      -1.768  -0.425   0.005  1.00  0.00     0.121 C 
BRANCH  11  14
ATOM     14  C   UNL     1      -0.821  -2.289   1.251  1.00  0.00     0.264 C 
ATOM     15  O   UNL     1      -1.802  -2.356   1.992  1.00  0.00    -0.268 OA
BRANCH  14  16
ATOM     16  C   UNL     1       0.093  -3.403   1.142  1.00  0.00     0.093 A 
ATOM     17  C   UNL     1       0.610  -4.148   2.181  1.00  0.00     0.034 A 
ATOM     18  S   UNL     1       0.311  -4.208  -0.348  1.00  0.00    -0.130 S 
ATOM     19  C   UNL     1       0.584  -5.542   1.841  1.00  0.00    -0.004 A 
ATOM     20  C   UNL     1       0.356  -5.728   0.472  1.00  0.00     0.035 A 
ATOM     21  C   UNL     1       0.606  -6.676   2.682  1.00  0.00     0.048 A 
ATOM     22  C   UNL     1       0.136  -7.003  -0.079  1.00  0.00     0.022 A 
ATOM     23  C   UNL     1       0.287  -7.921   2.148  1.00  0.00     0.123 A 
ATOM     24  C   UNL     1       0.049  -8.091   0.794  1.00  0.00     0.041 A 
ATOM     25  F   UNL     1       0.156  -8.968   2.974  1.00  0.00    -0.207 F 
ENDBRANCH  14  16
ENDBRANCH  11  14
ENDBRANCH   5   8
ENDBRANCH   3   4
ENDBRANCH   2   3
ENDBRANCH   1   2
BRANCH   1  26
ATOM     26  C   UNL     1       5.504   1.476  -2.940  1.00  0.00     0.116 C 
BRANCH  26  27
ATOM     27  N   UNL     1       6.407   0.816  -2.005  1.00  0.00    -0.352 N 
ATOM     28  C   UNL     1       7.785   0.737  -2.063  1.00  0.00     0.251 C 
ATOM     29  H   UNL     1       5.982   0.371  -1.236  1.00  0.00     0.163 HD
ATOM     30  O   UNL     1       8.412   0.094  -1.247  1.00  0.00    -0.269 OA
BRANCH  28  31
ATOM     31  C   UNL     1       8.460   1.417  -3.189  1.00  0.00     0.039 A 
ATOM     32  C   UNL     1       9.305   0.675  -4.015  1.00  0.00     0.014 A 
ATOM     33  C   UNL     1       8.133   2.739  -3.498  1.00  0.00     0.014 A 
ATOM     34  C   UNL     1       9.750   1.238  -5.212  1.00  0.00     0.010 A 
ATOM     35  C   UNL     1       8.486   3.252  -4.736  1.00  0.00     0.010 A 
ATOM     36  C   UNL     1       9.300   2.510  -5.605  1.00  0.00    -0.014 A 
BRANCH  36  37
ATOM     37  C   UNL     1       9.676   3.098  -6.915  1.00  0.00     0.031 A 
ATOM     38  C   UNL     1      10.426   4.402  -6.951  1.00  0.00     0.074 A 
ATOM     39  C   UNL     1       9.268   2.513  -8.059  1.00  0.00     0.049 A 
ATOM     40  N   UNL     1      10.753   5.139  -7.980  1.00  0.00    -0.248 NA
ATOM     41  C   UNL     1      10.821   4.976  -5.653  1.00  0.00     0.031 C 
ATOM     42  C   UNL     1       8.469   1.287  -8.152  1.00  0.00     0.029 A 
ATOM     43  N   UNL     1       9.461   2.878  -9.367  1.00  0.00    -0.354 N 
ATOM     44  C   UNL     1      11.359   6.272  -7.452  1.00  0.00     0.074 A 
ATOM     45  C   UNL     1      11.297   6.158  -6.013  1.00  0.00     0.031 C 
ATOM     46  C   UNL     1       8.271   0.987  -9.446  1.00  0.00     0.029 A 
ATOM     47  C   UNL     1       8.896   2.012 -10.274  1.00  0.00     0.049 A 
ATOM     48  H   UNL     1       9.958   3.686  -9.633  1.00  0.00     0.167 HD
ATOM     49  C   UNL     1      11.947   7.300  -8.107  1.00  0.00     0.037 A 
ATOM     50  C   UNL     1       8.886   2.043 -11.621  1.00  0.00     0.037 A 
ATOM     51  C   UNL     1      12.059   7.376  -9.538  1.00  0.00     0.049 A 
ATOM     52  C   UNL     1       9.593   3.167 -12.328  1.00  0.00     0.074 A 
ATOM     53  C   UNL     1      12.704   8.332 -10.302  1.00  0.00     0.029 A 
ATOM     54  N   UNL     1      11.524   6.450 -10.421  1.00  0.00    -0.354 N 
ATOM     55  N   UNL     1      10.220   4.199 -11.813  1.00  0.00    -0.248 NA
ATOM     56  C   UNL     1       9.601   3.130 -13.797  1.00  0.00     0.031 C 
ATOM     57  C   UNL     1      12.536   7.997 -11.650  1.00  0.00     0.029 A 
ATOM     58  C   UNL     1      11.817   6.814 -11.723  1.00  0.00     0.049 A 
ATOM     59  H   UNL     1      11.011   5.651 -10.160  1.00  0.00     0.167 HD
ATOM     60  C   UNL     1      10.716   4.920 -12.893  1.00  0.00     0.074 A 
ATOM     61  C   UNL     1      10.328   4.200 -14.089  1.00  0.00     0.031 C 
ATOM     62  C   UNL     1      11.429   6.074 -12.897  1.00  0.00     0.037 A 
BRANCH  49  63
ATOM     63  C   UNL     1      12.531   8.407  -7.275  1.00  0.00     0.058 A 
ATOM     64  C   UNL     1      13.680   8.210  -6.492  1.00  0.00     0.135 A 
ATOM     65  C   UNL     1      11.940   9.680  -7.261  1.00  0.00     0.135 A 
ATOM     66  F   UNL     1      14.273   7.005  -6.453  1.00  0.00    -0.206 F 
ATOM     67  C   UNL     1      14.201   9.223  -5.696  1.00  0.00     0.059 A 
ATOM     68  C   UNL     1      12.461  10.718  -6.494  1.00  0.00     0.059 A 
ATOM     69  F   UNL     1      10.838   9.922  -7.988  1.00  0.00    -0.206 F 
ATOM     70  C   UNL     1      13.582  10.474  -5.701  1.00  0.00     0.060 A 
BRANCH  70  71
ATOM     71  S   UNL     1      14.265  11.778  -4.657  1.00  0.00     0.124 S 
ATOM     72  O   UNL     1      13.807  11.361  -3.335  1.00  0.00    -0.237 OA
ATOM     73  O   UNL     1      15.699  11.653  -4.898  1.00  0.00    -0.237 OA
ATOM     74  O   UNL     1      13.648  12.991  -5.182  1.00  0.00    -0.744 OA
ENDBRANCH  70  71
ENDBRANCH  49  63
BRANCH  50  75
ATOM     75  C   UNL     1       8.223   0.956 -12.388  1.00  0.00     0.058 A 
ATOM     76  C   UNL     1       8.981   0.003 -13.084  1.00  0.00     0.135 A 
ATOM     77  C   UNL     1       6.825   0.837 -12.431  1.00  0.00     0.135 A 
ATOM     78  F   UNL     1      10.321   0.077 -13.076  1.00  0.00    -0.206 F 
ATOM     79  C   UNL     1       8.380  -1.020 -13.810  1.00  0.00     0.059 A 
ATOM     80  C   UNL     1       6.201  -0.191 -13.133  1.00  0.00     0.059 A 
ATOM     81  F   UNL     1       6.055   1.712 -11.767  1.00  0.00    -0.206 F 
ATOM     82  C   UNL     1       6.987  -1.109 -13.828  1.00  0.00     0.060 A 
BRANCH  82  83
ATOM     83  S   UNL     1       6.217  -2.470 -14.733  1.00  0.00     0.124 S 
ATOM     84  O   UNL     1       6.380  -2.033 -16.114  1.00  0.00    -0.237 OA
ATOM     85  O   UNL     1       7.030  -3.611 -14.323  1.00  0.00    -0.237 OA
ATOM     86  O   UNL     1       4.847  -2.473 -14.228  1.00  0.00    -0.744 OA
ENDBRANCH  82  83
ENDBRANCH  50  75
BRANCH  62  87
ATOM     87  C   UNL     1      11.861   6.613 -14.229  1.00  0.00     0.058 A 
ATOM     88  C   UNL     1      10.955   7.246 -15.093  1.00  0.00     0.135 A 
ATOM     89  C   UNL     1      13.209   6.549 -14.617  1.00  0.00     0.135 A 
ATOM     90  F   UNL     1       9.655   7.327 -14.769  1.00  0.00    -0.206 F 
ATOM     91  C   UNL     1      11.368   7.783 -16.308  1.00  0.00     0.059 A 
ATOM     92  C   UNL     1      13.648   7.101 -15.816  1.00  0.00     0.059 A 
ATOM     93  F   UNL     1      14.115   5.963 -13.819  1.00  0.00    -0.206 F 
ATOM     94  C   UNL     1      12.717   7.707 -16.659  1.00  0.00     0.060 A 
BRANCH  94  95
ATOM     95  S   UNL     1      13.250   8.444 -18.219  1.00  0.00     0.124 S 
ATOM     96  O   UNL     1      12.784   7.454 -19.184  1.00  0.00    -0.237 OA
ATOM     97  O   UNL     1      12.537   9.718 -18.223  1.00  0.00    -0.237 OA
ATOM     98  O   UNL     1      14.698   8.544 -18.069  1.00  0.00    -0.744 OA
ENDBRANCH  94  95
ENDBRANCH  62  87
ENDBRANCH  36  37
ENDBRANCH  28  31
ENDBRANCH  26  27
ENDBRANCH   1  26
TORSDOF 16
