REMARK SMILES CC(C)c1ocnc1C(=O)N[C@H](CC(=O)NCCCCNC(=O)c1ccc(-c2c3nc(c(-c4c(F)cc(S(=O)(=O)[O-])cc4F)c4ccc([nH]4)c(-c4c(F)cc(S(=O)(=O)[O-])cc4F)c4nc(c(-c5c(F)cc(S(=O)(=O)[O-])cc5F)c5ccc2[nH]5)C=C4)C=C3)cc1)c1ccccc1Cl
REMARK SMILES IDX 18 1 17 2 16 3 14 4 15 5 13 7 12 8 11 9 9 10 10 11 8 13 4 14
REMARK SMILES IDX 5 15 6 16 7 17 2 18 1 19 3 20 90 21 91 22 95 23 92 24 94 25
REMARK SMILES IDX 96 26 93 27 19 28 20 29 21 30 22 31 23 33 24 34 25 35 89 36
REMARK SMILES IDX 26 37 88 38 27 39 28 40 29 41 82 42 30 43 87 44 81 45 83 46
REMARK SMILES IDX 31 47 86 48 80 49 79 50 32 52 66 53 45 54 65 55 46 56 49 57
REMARK SMILES IDX 64 58 84 59 47 60 48 61 63 63 85 64 50 65 33 66 34 67 43 68
REMARK SMILES IDX 35 69 36 70 42 71 44 72 37 73 38 74 39 75 40 76 41 77 67 78
REMARK SMILES IDX 68 79 77 80 69 81 70 82 76 83 78 84 71 85 72 86 73 87 74 88
REMARK SMILES IDX 75 89 51 90 52 91 61 92 53 93 54 94 60 95 62 96 55 97 56 98
REMARK SMILES IDX 57 99 58 100 59 101
REMARK H PARENT 16 6 11 12 21 32 83 51 49 62
REMARK Flexibility Score: inf
ROOT
ATOM      1  C   UNL     1      -3.863   0.843   0.796  1.00  0.00     0.023 C 
ENDROOT
BRANCH   1   2
ATOM      2  C   UNL     1      -2.592   0.092   0.398  1.00  0.00     0.116 C 
BRANCH   2   3
ATOM      3  N   UNL     1      -1.832  -0.282   1.570  1.00  0.00    -0.356 N 
ATOM      4  C   UNL     1      -1.704  -1.490   2.173  1.00  0.00     0.222 C 
ATOM      5  O   UNL     1      -1.092  -1.537   3.242  1.00  0.00    -0.275 OA
ATOM      6  H   UNL     1      -1.331   0.452   1.995  1.00  0.00     0.163 HD
BRANCH   4   7
ATOM      7  C   UNL     1      -2.245  -2.742   1.522  1.00  0.00     0.129 C 
BRANCH   7   8
ATOM      8  C   UNL     1      -3.782  -2.946   1.529  1.00  0.00     0.123 C 
BRANCH   8   9
ATOM      9  N   UNL     1      -4.209  -3.650   0.312  1.00  0.00    -0.343 N 
ATOM     10  C   UNL     1      -3.890  -4.877  -0.224  1.00  0.00     0.274 C 
ATOM     11  O   UNL     1      -4.346  -5.127  -1.343  1.00  0.00    -0.267 OA
ATOM     12  H   UNL     1      -4.855  -3.141  -0.229  1.00  0.00     0.164 HD
BRANCH  10  13
ATOM     13  C   UNL     1      -3.094  -5.852   0.523  1.00  0.00     0.170 A 
ATOM     14  C   UNL     1      -2.914  -7.189   0.194  1.00  0.00     0.139 A 
ATOM     15  O   UNL     1      -2.136  -7.761   1.169  1.00  0.00    -0.447 OA
ATOM     16  C   UNL     1      -1.920  -6.759   2.053  1.00  0.00     0.309 A 
ATOM     17  N   UNL     1      -2.463  -5.614   1.728  1.00  0.00    -0.211 NA
BRANCH  14  18
ATOM     18  C   UNL     1      -3.418  -8.082  -0.893  1.00  0.00     0.052 C 
ATOM     19  C   UNL     1      -2.686  -7.824  -2.208  1.00  0.00     0.016 C 
ATOM     20  C   UNL     1      -3.304  -9.563  -0.516  1.00  0.00     0.016 C 
ENDBRANCH  14  18
ENDBRANCH  10  13
ENDBRANCH   8   9
BRANCH   8  21
ATOM     21  C   UNL     1      -4.407  -3.374   2.864  1.00  0.00    -0.006 A 
ATOM     22  C   UNL     1      -4.145  -2.527   3.969  1.00  0.00     0.007 A 
ATOM     23  C   UNL     1      -5.231  -4.485   3.130  1.00  0.00     0.046 A 
ATOM     24  C   UNL     1      -4.541  -2.838   5.272  1.00  0.00     0.000 A 
ATOM     25  C   UNL     1      -5.586  -4.822   4.449  1.00  0.00     0.021 A 
ATOM     26  Cl  UNL     1      -6.008  -5.468   1.938  1.00  0.00    -0.084 Cl
ATOM     27  C   UNL     1      -5.226  -4.013   5.520  1.00  0.00     0.002 A 
ENDBRANCH   8  21
ENDBRANCH   7   8
ENDBRANCH   4   7
ENDBRANCH   2   3
ENDBRANCH   1   2
BRANCH   1  28
ATOM     28  C   UNL     1      -3.620   2.133   1.584  1.00  0.00     0.023 C 
BRANCH  28  29
ATOM     29  C   UNL     1      -2.701   3.139   0.904  1.00  0.00     0.116 C 
BRANCH  29  30
ATOM     30  N   UNL     1      -3.196   3.556  -0.398  1.00  0.00    -0.352 N 
ATOM     31  C   UNL     1      -3.207   4.819  -0.938  1.00  0.00     0.251 C 
ATOM     32  H   UNL     1      -3.571   2.843  -0.964  1.00  0.00     0.163 HD
ATOM     33  O   UNL     1      -3.790   5.036  -1.996  1.00  0.00    -0.269 OA
BRANCH  31  34
ATOM     34  C   UNL     1      -2.536   5.914  -0.209  1.00  0.00     0.039 A 
ATOM     35  C   UNL     1      -3.243   7.090   0.046  1.00  0.00     0.014 A 
ATOM     36  C   UNL     1      -1.231   5.751   0.264  1.00  0.00     0.014 A 
ATOM     37  C   UNL     1      -2.660   8.084   0.834  1.00  0.00     0.010 A 
ATOM     38  C   UNL     1      -0.680   6.712   1.104  1.00  0.00     0.010 A 
ATOM     39  C   UNL     1      -1.389   7.887   1.397  1.00  0.00    -0.014 A 
BRANCH  39  40
ATOM     40  C   UNL     1      -0.779   8.899   2.296  1.00  0.00     0.031 A 
ATOM     41  C   UNL     1       0.484   9.602   1.883  1.00  0.00     0.074 A 
ATOM     42  C   UNL     1      -1.320   9.127   3.509  1.00  0.00     0.049 A 
ATOM     43  N   UNL     1       1.214  10.451   2.559  1.00  0.00    -0.248 NA
ATOM     44  C   UNL     1       1.014   9.286   0.546  1.00  0.00     0.031 C 
ATOM     45  C   UNL     1      -2.514   8.466   4.042  1.00  0.00     0.029 A 
ATOM     46  N   UNL     1      -0.929   9.968   4.520  1.00  0.00    -0.354 N 
ATOM     47  C   UNL     1       2.295  10.756   1.740  1.00  0.00     0.074 A 
ATOM     48  C   UNL     1       2.152   9.963   0.539  1.00  0.00     0.031 C 
ATOM     49  C   UNL     1      -2.768   8.940   5.272  1.00  0.00     0.029 A 
ATOM     50  C   UNL     1      -1.739   9.912   5.630  1.00  0.00     0.049 A 
ATOM     51  H   UNL     1      -0.143  10.557   4.457  1.00  0.00     0.167 HD
ATOM     52  C   UNL     1       3.301  11.635   1.959  1.00  0.00     0.037 A 
ATOM     53  C   UNL     1      -1.658  10.566   6.805  1.00  0.00     0.037 A 
ATOM     54  C   UNL     1       3.417  12.445   3.143  1.00  0.00     0.049 A 
ATOM     55  C   UNL     1      -0.542  11.552   7.019  1.00  0.00     0.074 A 
ATOM     56  C   UNL     1       4.365  13.410   3.436  1.00  0.00     0.029 A 
ATOM     57  N   UNL     1       2.554  12.389   4.227  1.00  0.00    -0.354 N 
ATOM     58  N   UNL     1       0.438  11.874   6.207  1.00  0.00    -0.248 NA
ATOM     59  C   UNL     1      -0.522  12.270   8.301  1.00  0.00     0.031 C 
ATOM     60  C   UNL     1       4.095  13.913   4.713  1.00  0.00     0.029 A 
ATOM     61  C   UNL     1       2.954  13.293   5.197  1.00  0.00     0.049 A 
ATOM     62  H   UNL     1       1.773  11.794   4.298  1.00  0.00     0.167 HD
ATOM     63  C   UNL     1       1.171  12.853   6.867  1.00  0.00     0.074 A 
ATOM     64  C   UNL     1       0.521  13.074   8.143  1.00  0.00     0.031 C 
ATOM     65  C   UNL     1       2.282  13.512   6.453  1.00  0.00     0.037 A 
BRANCH  52  66
ATOM     66  C   UNL     1       4.351  11.771   0.892  1.00  0.00     0.058 A 
ATOM     67  C   UNL     1       4.071  12.383  -0.341  1.00  0.00     0.135 A 
ATOM     68  C   UNL     1       5.659  11.311   1.111  1.00  0.00     0.135 A 
ATOM     69  F   UNL     1       2.832  12.826  -0.610  1.00  0.00    -0.206 F 
ATOM     70  C   UNL     1       5.040  12.504  -1.330  1.00  0.00     0.059 A 
ATOM     71  C   UNL     1       6.653  11.446   0.146  1.00  0.00     0.059 A 
ATOM     72  F   UNL     1       5.981  10.718   2.272  1.00  0.00    -0.206 F 
ATOM     73  C   UNL     1       6.329  12.030  -1.078  1.00  0.00     0.060 A 
BRANCH  73  74
ATOM     74  S   UNL     1       7.577  12.195  -2.372  1.00  0.00     0.124 S 
ATOM     75  O   UNL     1       7.164  11.152  -3.306  1.00  0.00    -0.237 OA
ATOM     76  O   UNL     1       7.377  13.567  -2.827  1.00  0.00    -0.237 OA
ATOM     77  O   UNL     1       8.831  11.947  -1.668  1.00  0.00    -0.744 OA
ENDBRANCH  73  74
ENDBRANCH  52  66
BRANCH  53  78
ATOM     78  C   UNL     1      -2.683  10.332   7.857  1.00  0.00     0.058 A 
ATOM     79  C   UNL     1      -3.642  11.310   8.157  1.00  0.00     0.135 A 
ATOM     80  C   UNL     1      -2.736   9.123   8.568  1.00  0.00     0.135 A 
ATOM     81  F   UNL     1      -3.628  12.484   7.508  1.00  0.00    -0.206 F 
ATOM     82  C   UNL     1      -4.610  11.106   9.135  1.00  0.00     0.059 A 
ATOM     83  C   UNL     1      -3.709   8.886   9.534  1.00  0.00     0.059 A 
ATOM     84  F   UNL     1      -1.852   8.148   8.305  1.00  0.00    -0.206 F 
ATOM     85  C   UNL     1      -4.636   9.888   9.818  1.00  0.00     0.060 A 
BRANCH  85  86
ATOM     86  S   UNL     1      -5.929   9.613  11.049  1.00  0.00     0.124 S 
ATOM     87  O   UNL     1      -5.458  10.434  12.157  1.00  0.00    -0.237 OA
ATOM     88  O   UNL     1      -7.120  10.094  10.357  1.00  0.00    -0.237 OA
ATOM     89  O   UNL     1      -5.881   8.170  11.266  1.00  0.00    -0.744 OA
ENDBRANCH  85  86
ENDBRANCH  53  78
BRANCH  65  90
ATOM     90  C   UNL     1       2.844  14.567   7.363  1.00  0.00     0.058 A 
ATOM     91  C   UNL     1       3.562  14.235   8.522  1.00  0.00     0.135 A 
ATOM     92  C   UNL     1       2.726  15.925   7.028  1.00  0.00     0.135 A 
ATOM     93  F   UNL     1       3.697  12.951   8.889  1.00  0.00    -0.206 F 
ATOM     94  C   UNL     1       4.134  15.216   9.325  1.00  0.00     0.059 A 
ATOM     95  C   UNL     1       3.310  16.921   7.804  1.00  0.00     0.059 A 
ATOM     96  F   UNL     1       2.056  16.294   5.924  1.00  0.00    -0.206 F 
ATOM     97  C   UNL     1       4.006  16.556   8.955  1.00  0.00     0.060 A 
BRANCH  97  98
ATOM     98  S   UNL     1       4.799  17.817   9.977  1.00  0.00     0.124 S 
ATOM     99  O   UNL     1       3.903  17.868  11.127  1.00  0.00    -0.237 OA
ATOM    100  O   UNL     1       6.115  17.237  10.224  1.00  0.00    -0.237 OA
ATOM    101  O   UNL     1       4.793  19.000   9.121  1.00  0.00    -0.744 OA
ENDBRANCH  97  98
ENDBRANCH  65  90
ENDBRANCH  39  40
ENDBRANCH  31  34
ENDBRANCH  29  30
ENDBRANCH  28  29
ENDBRANCH   1  28
TORSDOF 19
