REMARK SMILES CC(C)C[C@H](NC(=O)[C@H](Cc1ccccc1)NC(=O)CNC(=O)C[NH3+])C(=O)NCCCCNC(=O)c1ccc(-c2c3nc(c(-c4c(F)cc(S(=O)(=O)[O-])cc4F)c4ccc([nH]4)c(-c4c(F)cc(S(=O)(=O)[O-])cc4F)c4nc(c(-c5c(F)cc(S(=O)(=O)[O-])cc5F)c5ccc2[nH]5)C=C4)C=C3)cc1
REMARK SMILES IDX 26 1 27 2 28 3 5 5 4 6 2 7 1 8 3 9 6 10 7 11 8 13 9 14 17 15
REMARK SMILES IDX 18 16 19 18 20 19 21 20 22 21 23 23 24 24 25 25 10 29 11 30
REMARK SMILES IDX 12 31 16 32 13 33 15 34 14 35 29 36 30 37 31 38 32 39 33 40
REMARK SMILES IDX 34 41 35 43 36 44 37 45 101 46 38 47 100 48 39 49 40 50
REMARK SMILES IDX 41 51 94 52 42 53 99 54 93 55 95 56 43 57 98 58 92 59 91 60
REMARK SMILES IDX 44 62 78 63 57 64 77 65 58 66 61 67 76 68 96 69 59 70 60 71
REMARK SMILES IDX 75 73 97 74 62 75 45 76 46 77 55 78 47 79 48 80 54 81 56 82
REMARK SMILES IDX 49 83 50 84 51 85 52 86 53 87 79 88 80 89 89 90 81 91 82 92
REMARK SMILES IDX 88 93 90 94 83 95 84 96 85 97 86 98 87 99 63 100 64 101
REMARK SMILES IDX 73 102 65 103 66 104 72 105 74 106 67 107 68 108 69 109
REMARK SMILES IDX 70 110 71 111
REMARK H PARENT 28 4 6 12 17 17 21 22 25 26 25 27 25 28 33 42 95 61 61 72
REMARK Flexibility Score: inf
ROOT
ATOM      1  C   UNL     1      -2.369  -3.421  -2.591  1.00  0.00     0.242 C 
ATOM      2  O   UNL     1      -2.821  -4.023  -3.565  1.00  0.00    -0.273 OA
ATOM      3  N   UNL     1      -2.102  -2.081  -2.709  1.00  0.00    -0.354 N 
ATOM      4  H   UNL     1      -2.075  -1.725  -3.627  1.00  0.00     0.163 HD
ENDROOT
BRANCH   1   5
ATOM      5  C   UNL     1      -2.092  -4.162  -1.269  1.00  0.00     0.171 C 
BRANCH   5   6
ATOM      6  C   UNL     1      -3.108  -3.720  -0.175  1.00  0.00     0.038 C 
BRANCH   6   7
ATOM      7  C   UNL     1      -2.732  -3.497   1.315  1.00  0.00    -0.015 C 
ATOM      8  C   UNL     1      -1.750  -2.371   1.665  1.00  0.00     0.007 C 
ATOM      9  C   UNL     1      -4.036  -3.159   2.068  1.00  0.00     0.007 C 
ENDBRANCH   6   7
ENDBRANCH   5   6
BRANCH   5  10
ATOM     10  N   UNL     1      -0.667  -4.053  -0.989  1.00  0.00    -0.343 N 
ATOM     11  C   UNL     1       0.417  -4.671  -1.549  1.00  0.00     0.243 C 
ATOM     12  H   UNL     1      -0.444  -3.421  -0.268  1.00  0.00     0.164 HD
ATOM     13  O   UNL     1       1.498  -4.405  -1.007  1.00  0.00    -0.273 OA
BRANCH  11  14
ATOM     14  C   UNL     1       0.337  -5.629  -2.772  1.00  0.00     0.175 C 
BRANCH  14  15
ATOM     15  N   UNL     1       1.700  -6.102  -3.101  1.00  0.00    -0.342 N 
ATOM     16  C   UNL     1       2.578  -5.808  -4.096  1.00  0.00     0.240 C 
ATOM     17  H   UNL     1       2.044  -6.769  -2.464  1.00  0.00     0.164 HD
ATOM     18  O   UNL     1       3.718  -6.276  -3.971  1.00  0.00    -0.273 OA
BRANCH  16  19
ATOM     19  C   UNL     1       2.295  -4.849  -5.263  1.00  0.00     0.216 C 
BRANCH  19  20
ATOM     20  N   UNL     1       0.974  -4.867  -5.869  1.00  0.00    -0.342 N 
ATOM     21  C   UNL     1       0.100  -3.822  -6.002  1.00  0.00     0.275 C 
ATOM     22  H   UNL     1       0.672  -5.733  -6.227  1.00  0.00     0.164 HD
ATOM     23  O   UNL     1      -0.941  -3.983  -6.638  1.00  0.00    -0.268 OA
BRANCH  21  24
ATOM     24  C   UNL     1       0.461  -2.476  -5.376  1.00  0.00     0.360 C 
BRANCH  24  25
ATOM     25  N   UNL     1       0.794  -2.657  -3.958  1.00  0.00    -0.350 N 
ATOM     26  H   UNL     1      -0.009  -3.049  -3.467  1.00  0.00     0.344 HD
ATOM     27  H   UNL     1       1.037  -1.756  -3.548  1.00  0.00     0.344 HD
ATOM     28  H   UNL     1       1.587  -3.293  -3.875  1.00  0.00     0.344 HD
ENDBRANCH  24  25
ENDBRANCH  21  24
ENDBRANCH  19  20
ENDBRANCH  16  19
ENDBRANCH  14  15
BRANCH  14  29
ATOM     29  C   UNL     1      -0.599  -6.848  -2.671  1.00  0.00     0.070 C 
BRANCH  29  30
ATOM     30  C   UNL     1      -0.764  -7.687  -1.415  1.00  0.00    -0.045 A 
ATOM     31  C   UNL     1      -1.308  -8.974  -1.579  1.00  0.00     0.004 A 
ATOM     32  C   UNL     1      -0.579  -7.232  -0.104  1.00  0.00     0.004 A 
ATOM     33  C   UNL     1      -1.693  -9.748  -0.481  1.00  0.00     0.000 A 
ATOM     34  C   UNL     1      -0.988  -7.993   0.996  1.00  0.00     0.000 A 
ATOM     35  C   UNL     1      -1.554  -9.247   0.808  1.00  0.00     0.000 A 
ENDBRANCH  29  30
ENDBRANCH  14  29
ENDBRANCH  11  14
ENDBRANCH   5  10
ENDBRANCH   1   5
BRANCH   3  36
ATOM     36  C   UNL     1      -1.857  -1.124  -1.649  1.00  0.00     0.116 C 
BRANCH  36  37
ATOM     37  C   UNL     1      -0.427  -0.612  -1.538  1.00  0.00     0.023 C 
BRANCH  37  38
ATOM     38  C   UNL     1       0.031   0.261  -2.695  1.00  0.00     0.023 C 
BRANCH  38  39
ATOM     39  C   UNL     1      -0.945   1.337  -3.104  1.00  0.00     0.116 C 
BRANCH  39  40
ATOM     40  N   UNL     1      -1.084   2.353  -2.081  1.00  0.00    -0.352 N 
ATOM     41  C   UNL     1      -0.911   3.704  -2.250  1.00  0.00     0.251 C 
ATOM     42  H   UNL     1      -1.326   2.044  -1.178  1.00  0.00     0.163 HD
ATOM     43  O   UNL     1      -0.798   4.446  -1.279  1.00  0.00    -0.269 OA
BRANCH  41  44
ATOM     44  C   UNL     1      -0.835   4.227  -3.629  1.00  0.00     0.039 A 
ATOM     45  C   UNL     1       0.207   5.082  -3.981  1.00  0.00     0.014 A 
ATOM     46  C   UNL     1      -1.757   3.791  -4.590  1.00  0.00     0.014 A 
ATOM     47  C   UNL     1       0.339   5.484  -5.310  1.00  0.00     0.010 A 
ATOM     48  C   UNL     1      -1.556   4.104  -5.927  1.00  0.00     0.010 A 
ATOM     49  C   UNL     1      -0.529   4.982  -6.296  1.00  0.00    -0.014 A 
BRANCH  49  50
ATOM     50  C   UNL     1      -0.419   5.416  -7.710  1.00  0.00     0.031 A 
ATOM     51  C   UNL     1      -1.566   6.157  -8.347  1.00  0.00     0.074 A 
ATOM     52  C   UNL     1       0.681   5.112  -8.426  1.00  0.00     0.049 A 
ATOM     53  N   UNL     1      -1.688   6.593  -9.574  1.00  0.00    -0.248 NA
ATOM     54  C   UNL     1      -2.745   6.418  -7.502  1.00  0.00     0.031 C 
ATOM     55  C   UNL     1       1.833   4.355  -7.931  1.00  0.00     0.029 A 
ATOM     56  N   UNL     1       1.011   5.402  -9.726  1.00  0.00    -0.354 N 
ATOM     57  C   UNL     1      -2.955   7.159  -9.649  1.00  0.00     0.074 A 
ATOM     58  C   UNL     1      -3.590   6.955  -8.368  1.00  0.00     0.031 C 
ATOM     59  C   UNL     1       2.756   4.272  -8.903  1.00  0.00     0.029 A 
ATOM     60  C   UNL     1       2.248   4.933 -10.101  1.00  0.00     0.049 A 
ATOM     61  H   UNL     1       0.417   5.900 -10.333  1.00  0.00     0.167 HD
ATOM     62  C   UNL     1      -3.527   7.819 -10.683  1.00  0.00     0.037 A 
ATOM     63  C   UNL     1       2.895   5.024 -11.279  1.00  0.00     0.037 A 
ATOM     64  C   UNL     1      -2.873   8.048 -11.943  1.00  0.00     0.049 A 
ATOM     65  C   UNL     1       2.236   5.760 -12.416  1.00  0.00     0.074 A 
ATOM     66  C   UNL     1      -3.335   8.761 -13.034  1.00  0.00     0.029 A 
ATOM     67  N   UNL     1      -1.617   7.565 -12.281  1.00  0.00    -0.354 N 
ATOM     68  N   UNL     1       1.067   6.355 -12.446  1.00  0.00    -0.248 NA
ATOM     69  C   UNL     1       2.985   5.843 -13.677  1.00  0.00     0.031 C 
ATOM     70  C   UNL     1      -2.382   8.663 -14.053  1.00  0.00     0.029 A 
ATOM     71  C   UNL     1      -1.299   7.942 -13.575  1.00  0.00     0.049 A 
ATOM     72  H   UNL     1      -1.037   7.034 -11.689  1.00  0.00     0.167 HD
ATOM     73  C   UNL     1       0.955   6.910 -13.716  1.00  0.00     0.074 A 
ATOM     74  C   UNL     1       2.180   6.590 -14.419  1.00  0.00     0.031 C 
ATOM     75  C   UNL     1      -0.068   7.622 -14.254  1.00  0.00     0.037 A 
BRANCH  62  76
ATOM     76  C   UNL     1      -4.926   8.342 -10.495  1.00  0.00     0.058 A 
ATOM     77  C   UNL     1      -5.209   9.402  -9.618  1.00  0.00     0.135 A 
ATOM     78  C   UNL     1      -5.993   7.800 -11.230  1.00  0.00     0.135 A 
ATOM     79  F   UNL     1      -4.232   9.946  -8.875  1.00  0.00    -0.206 F 
ATOM     80  C   UNL     1      -6.503   9.888  -9.457  1.00  0.00     0.059 A 
ATOM     81  C   UNL     1      -7.289   8.291 -11.109  1.00  0.00     0.059 A 
ATOM     82  F   UNL     1      -5.781   6.781 -12.078  1.00  0.00    -0.206 F 
ATOM     83  C   UNL     1      -7.536   9.328 -10.210  1.00  0.00     0.060 A 
BRANCH  83  84
ATOM     84  S   UNL     1      -9.205   9.982 -10.000  1.00  0.00     0.124 S 
ATOM     85  O   UNL     1      -9.547   9.486  -8.671  1.00  0.00    -0.237 OA
ATOM     86  O   UNL     1      -8.989  11.422 -10.102  1.00  0.00    -0.237 OA
ATOM     87  O   UNL     1      -9.948   9.383 -11.104  1.00  0.00    -0.744 OA
ENDBRANCH  83  84
ENDBRANCH  62  76
BRANCH  63  88
ATOM     88  C   UNL     1       4.249   4.428 -11.437  1.00  0.00     0.058 A 
ATOM     89  C   UNL     1       5.382   5.240 -11.599  1.00  0.00     0.135 A 
ATOM     90  C   UNL     1       4.441   3.038 -11.425  1.00  0.00     0.135 A 
ATOM     91  F   UNL     1       5.252   6.576 -11.621  1.00  0.00    -0.206 F 
ATOM     92  C   UNL     1       6.652   4.698 -11.767  1.00  0.00     0.059 A 
ATOM     93  C   UNL     1       5.705   2.471 -11.563  1.00  0.00     0.059 A 
ATOM     94  F   UNL     1       3.394   2.215 -11.254  1.00  0.00    -0.206 F 
ATOM     95  C   UNL     1       6.803   3.310 -11.746  1.00  0.00     0.060 A 
BRANCH  95  96
ATOM     96  S   UNL     1       8.461   2.618 -11.926  1.00  0.00     0.124 S 
ATOM     97  O   UNL     1       8.736   2.877 -13.334  1.00  0.00    -0.237 OA
ATOM     98  O   UNL     1       9.227   3.409 -10.968  1.00  0.00    -0.237 OA
ATOM     99  O   UNL     1       8.279   1.215 -11.565  1.00  0.00    -0.744 OA
ENDBRANCH  95  96
ENDBRANCH  63  88
BRANCH  75 100
ATOM    100  C   UNL     1       0.107   8.140 -15.655  1.00  0.00     0.058 A 
ATOM    101  C   UNL     1       0.083   7.286 -16.768  1.00  0.00     0.135 A 
ATOM    102  C   UNL     1       0.242   9.519 -15.887  1.00  0.00     0.135 A 
ATOM    103  F   UNL     1      -0.038   5.960 -16.601  1.00  0.00    -0.206 F 
ATOM    104  C   UNL     1       0.212   7.779 -18.062  1.00  0.00     0.059 A 
ATOM    105  C   UNL     1       0.340  10.036 -17.174  1.00  0.00     0.059 A 
ATOM    106  F   UNL     1       0.258  10.380 -14.857  1.00  0.00    -0.206 F 
ATOM    107  C   UNL     1       0.337   9.156 -18.255  1.00  0.00     0.060 A 
BRANCH 107 108
ATOM    108  S   UNL     1       0.468   9.785 -19.942  1.00  0.00     0.124 S 
ATOM    109  O   UNL     1       1.821   9.375 -20.304  1.00  0.00    -0.237 OA
ATOM    110  O   UNL     1      -0.613   9.078 -20.622  1.00  0.00    -0.237 OA
ATOM    111  O   UNL     1       0.268  11.222 -19.787  1.00  0.00    -0.744 OA
ENDBRANCH 107 108
ENDBRANCH  75 100
ENDBRANCH  49  50
ENDBRANCH  41  44
ENDBRANCH  39  40
ENDBRANCH  38  39
ENDBRANCH  37  38
ENDBRANCH  36  37
ENDBRANCH   3  36
TORSDOF 25
