REMARK SMILES C[C@H]1SCCC[C@]1(Nc1ccc(Cl)cc1)C(=O)NCCCCNC(=O)c1ccc(-c2c3nc(c(-c4c(F)cc(S(=O)(=O)[O-])cc4F)c4ccc([nH]4)c(-c4c(F)cc(S(=O)(=O)[O-])cc4F)c4nc(c(-c5c(F)cc(S(=O)(=O)[O-])cc5F)c5ccc2[nH]5)C=C4)C=C3)cc1
REMARK SMILES IDX 21 1 20 2 19 3 18 4 16 5 17 6 7 8 1 9 2 10 3 11 4 12 6 13
REMARK SMILES IDX 5 14 8 15 9 17 10 18 15 19 11 20 14 21 12 22 13 23 22 24
REMARK SMILES IDX 23 25 24 26 25 28 26 29 27 30 91 31 28 32 90 33 29 34 30 35
REMARK SMILES IDX 31 36 84 37 32 38 89 39 83 40 85 41 33 42 88 43 82 44 81 45
REMARK SMILES IDX 34 47 68 48 47 49 67 50 48 51 51 52 66 53 86 54 49 55 50 56
REMARK SMILES IDX 65 58 87 59 52 60 35 61 36 62 45 63 37 64 38 65 44 66 46 67
REMARK SMILES IDX 39 68 40 69 41 70 42 71 43 72 69 73 70 74 79 75 71 76 72 77
REMARK SMILES IDX 78 78 80 79 73 80 74 81 75 82 76 83 77 84 53 85 54 86 63 87
REMARK SMILES IDX 55 88 56 89 62 90 64 91 57 92 58 93 59 94 60 95 61 96
REMARK H PARENT 18 7 8 16 23 27 85 46 51 57
REMARK Flexibility Score: inf
ROOT
ATOM      1  C   UNL     1       2.535   1.942   5.192  1.00  0.00     0.023 C 
ENDROOT
BRANCH   1   2
ATOM      2  C   UNL     1       1.488   1.595   4.143  1.00  0.00     0.023 C 
BRANCH   2   3
ATOM      3  C   UNL     1       1.241   2.687   3.105  1.00  0.00     0.116 C 
BRANCH   3   4
ATOM      4  N   UNL     1       2.241   2.678   2.052  1.00  0.00    -0.354 N 
ATOM      5  C   UNL     1       2.116   2.691   0.690  1.00  0.00     0.246 C 
ATOM      6  O   UNL     1       3.180   2.764   0.060  1.00  0.00    -0.272 OA
ATOM      7  H   UNL     1       3.171   2.660   2.374  1.00  0.00     0.163 HD
BRANCH   5   8
ATOM      8  C   UNL     1       0.743   2.559  -0.071  1.00  0.00     0.128 C 
ATOM      9  C   UNL     1       0.176   0.295   1.201  1.00  0.00     0.022 C 
ATOM     10  C   UNL     1       0.337   1.039  -0.118  1.00  0.00     0.078 C 
ATOM     11  S   UNL     1      -1.247   0.769  -1.024  1.00  0.00    -0.156 SA
ATOM     12  C   UNL     1      -0.710   1.400  -2.626  1.00  0.00     0.070 C 
ATOM     13  C   UNL     1       0.965   3.013  -1.555  1.00  0.00     0.040 C 
ATOM     14  C   UNL     1      -0.230   2.837  -2.501  1.00  0.00     0.014 C 
BRANCH   8  15
ATOM     15  N   UNL     1      -0.343   3.394   0.510  1.00  0.00    -0.370 N 
ATOM     16  H   UNL     1      -1.245   3.001   0.485  1.00  0.00     0.161 HD
BRANCH  15  17
ATOM     17  C   UNL     1      -0.247   4.649   1.081  1.00  0.00     0.035 A 
ATOM     18  C   UNL     1       0.825   5.527   0.884  1.00  0.00     0.027 A 
ATOM     19  C   UNL     1      -1.194   5.003   2.058  1.00  0.00     0.027 A 
ATOM     20  C   UNL     1       0.972   6.690   1.652  1.00  0.00     0.022 A 
ATOM     21  C   UNL     1      -1.045   6.151   2.846  1.00  0.00     0.022 A 
ATOM     22  C   UNL     1       0.047   6.986   2.645  1.00  0.00     0.041 A 
ATOM     23  Cl  UNL     1       0.271   8.366   3.644  1.00  0.00    -0.084 Cl
ENDBRANCH  15  17
ENDBRANCH   8  15
ENDBRANCH   5   8
ENDBRANCH   3   4
ENDBRANCH   2   3
ENDBRANCH   1   2
BRANCH   1  24
ATOM     24  C   UNL     1       2.194   3.140   6.067  1.00  0.00     0.116 C 
BRANCH  24  25
ATOM     25  N   UNL     1       0.916   3.010   6.754  1.00  0.00    -0.352 N 
ATOM     26  C   UNL     1       0.620   3.266   8.077  1.00  0.00     0.251 C 
ATOM     27  H   UNL     1       0.163   2.697   6.201  1.00  0.00     0.163 HD
ATOM     28  O   UNL     1      -0.478   3.010   8.532  1.00  0.00    -0.269 OA
BRANCH  26  29
ATOM     29  C   UNL     1       1.688   3.826   8.935  1.00  0.00     0.039 A 
ATOM     30  C   UNL     1       1.999   3.182  10.133  1.00  0.00     0.014 A 
ATOM     31  C   UNL     1       2.424   4.931   8.503  1.00  0.00     0.014 A 
ATOM     32  C   UNL     1       3.112   3.602  10.863  1.00  0.00     0.010 A 
ATOM     33  C   UNL     1       3.578   5.290   9.186  1.00  0.00     0.010 A 
ATOM     34  C   UNL     1       3.933   4.632  10.373  1.00  0.00    -0.014 A 
BRANCH  34  35
ATOM     35  C   UNL     1       5.160   5.054  11.092  1.00  0.00     0.031 A 
ATOM     36  C   UNL     1       5.258   6.457  11.626  1.00  0.00     0.074 A 
ATOM     37  C   UNL     1       6.207   4.212  11.188  1.00  0.00     0.049 A 
ATOM     38  N   UNL     1       6.274   7.057  12.188  1.00  0.00    -0.248 NA
ATOM     39  C   UNL     1       4.067   7.309  11.471  1.00  0.00     0.031 C 
ATOM     40  C   UNL     1       6.255   2.849  10.651  1.00  0.00     0.029 A 
ATOM     41  N   UNL     1       7.440   4.382  11.763  1.00  0.00    -0.354 N 
ATOM     42  C   UNL     1       5.856   8.361  12.424  1.00  0.00     0.074 A 
ATOM     43  C   UNL     1       4.514   8.480  11.898  1.00  0.00     0.031 C 
ATOM     44  C   UNL     1       7.446   2.301  10.944  1.00  0.00     0.029 A 
ATOM     45  C   UNL     1       8.255   3.279  11.663  1.00  0.00     0.049 A 
ATOM     46  H   UNL     1       7.716   5.217  12.207  1.00  0.00     0.167 HD
ATOM     47  C   UNL     1       6.520   9.363  13.047  1.00  0.00     0.037 A 
ATOM     48  C   UNL     1       9.513   3.082  12.104  1.00  0.00     0.037 A 
ATOM     49  C   UNL     1       7.833   9.223  13.615  1.00  0.00     0.049 A 
ATOM     50  C   UNL     1      10.207   4.189  12.849  1.00  0.00     0.074 A 
ATOM     51  C   UNL     1       8.571  10.154  14.324  1.00  0.00     0.029 A 
ATOM     52  N   UNL     1       8.600   8.069  13.550  1.00  0.00    -0.354 N 
ATOM     53  N   UNL     1       9.777   5.400  13.111  1.00  0.00    -0.248 NA
ATOM     54  C   UNL     1      11.552   3.901  13.367  1.00  0.00     0.031 C 
ATOM     55  C   UNL     1       9.793   9.568  14.673  1.00  0.00     0.029 A 
ATOM     56  C   UNL     1       9.803   8.263  14.206  1.00  0.00     0.049 A 
ATOM     57  H   UNL     1       8.329   7.235  13.102  1.00  0.00     0.167 HD
ATOM     58  C   UNL     1      10.787   6.011  13.846  1.00  0.00     0.074 A 
ATOM     59  C   UNL     1      11.845   5.032  13.994  1.00  0.00     0.031 C 
ATOM     60  C   UNL     1      10.834   7.267  14.354  1.00  0.00     0.037 A 
BRANCH  47  61
ATOM     61  C   UNL     1       5.820  10.688  13.159  1.00  0.00     0.058 A 
ATOM     62  C   UNL     1       4.721  10.867  14.015  1.00  0.00     0.135 A 
ATOM     63  C   UNL     1       6.249  11.790  12.403  1.00  0.00     0.135 A 
ATOM     64  F   UNL     1       4.258   9.839  14.745  1.00  0.00    -0.206 F 
ATOM     65  C   UNL     1       4.049  12.082  14.091  1.00  0.00     0.059 A 
ATOM     66  C   UNL     1       5.607  13.023  12.483  1.00  0.00     0.059 A 
ATOM     67  F   UNL     1       7.293  11.673  11.568  1.00  0.00    -0.206 F 
ATOM     68  C   UNL     1       4.496  13.153  13.316  1.00  0.00     0.060 A 
BRANCH  68  69
ATOM     69  S   UNL     1       3.608  14.722  13.416  1.00  0.00     0.124 S 
ATOM     70  O   UNL     1       2.432  14.441  12.599  1.00  0.00    -0.237 OA
ATOM     71  O   UNL     1       3.366  14.856  14.849  1.00  0.00    -0.237 OA
ATOM     72  O   UNL     1       4.553  15.681  12.852  1.00  0.00    -0.744 OA
ENDBRANCH  68  69
ENDBRANCH  47  61
BRANCH  48  73
ATOM     73  C   UNL     1      10.177   1.768  11.896  1.00  0.00     0.058 A 
ATOM     74  C   UNL     1      10.351   0.877  12.964  1.00  0.00     0.135 A 
ATOM     75  C   UNL     1      10.633   1.371  10.630  1.00  0.00     0.135 A 
ATOM     76  F   UNL     1       9.934   1.215  14.194  1.00  0.00    -0.206 F 
ATOM     77  C   UNL     1      10.969  -0.357  12.791  1.00  0.00     0.059 A 
ATOM     78  C   UNL     1      11.237   0.133  10.428  1.00  0.00     0.059 A 
ATOM     79  F   UNL     1      10.472   2.181   9.573  1.00  0.00    -0.206 F 
ATOM     80  C   UNL     1      11.409  -0.720  11.517  1.00  0.00     0.060 A 
BRANCH  80  81
ATOM     81  S   UNL     1      12.164  -2.346  11.290  1.00  0.00     0.124 S 
ATOM     82  O   UNL     1      13.496  -2.130  11.841  1.00  0.00    -0.237 OA
ATOM     83  O   UNL     1      11.281  -3.208  12.070  1.00  0.00    -0.237 OA
ATOM     84  O   UNL     1      12.100  -2.543   9.845  1.00  0.00    -0.744 OA
ENDBRANCH  80  81
ENDBRANCH  48  73
BRANCH  60  85
ATOM     85  C   UNL     1      12.052   7.642  15.147  1.00  0.00     0.058 A 
ATOM     86  C   UNL     1      13.273   7.937  14.522  1.00  0.00     0.135 A 
ATOM     87  C   UNL     1      11.979   7.759  16.544  1.00  0.00     0.135 A 
ATOM     88  F   UNL     1      13.392   7.833  13.189  1.00  0.00    -0.206 F 
ATOM     89  C   UNL     1      14.389   8.318  15.259  1.00  0.00     0.059 A 
ATOM     90  C   UNL     1      13.076   8.159  17.298  1.00  0.00     0.059 A 
ATOM     91  F   UNL     1      10.829   7.497  17.185  1.00  0.00    -0.206 F 
ATOM     92  C   UNL     1      14.280   8.426  16.647  1.00  0.00     0.060 A 
BRANCH  92  93
ATOM     93  S   UNL     1      15.724   8.957  17.593  1.00  0.00     0.124 S 
ATOM     94  O   UNL     1      16.513   7.731  17.635  1.00  0.00    -0.237 OA
ATOM     95  O   UNL     1      16.265  10.031  16.767  1.00  0.00    -0.237 OA
ATOM     96  O   UNL     1      15.154   9.383  18.868  1.00  0.00    -0.744 OA
ENDBRANCH  92  93
ENDBRANCH  60  85
ENDBRANCH  34  35
ENDBRANCH  26  29
ENDBRANCH  24  25
ENDBRANCH   1  24
TORSDOF 16
