REMARK SMILES CN(C)C(=O)[C@@H]1CC=CC[C@H]1C(=O)N1CCC(C(=O)NCCCCNC(=O)c2ccc(-c3c4nc(c(-c5c(F)cc(S(=O)(=O)[O-])cc5F)c5ccc([nH]5)c(-c5c(F)cc(S(=O)(=O)[O-])cc5F)c5nc(c(-c6c(F)cc(S(=O)(=O)[O-])cc6F)c6ccc3[nH]6)C=C5)C=C4)cc2)CC1
REMARK SMILES IDX 23 1 22 2 21 3 20 4 18 5 19 6 17 8 12 9 13 10 14 11 15 12
REMARK SMILES IDX 95 13 16 14 94 15 11 16 6 17 7 18 8 19 10 20 9 21 4 22 1 23
REMARK SMILES IDX 2 24 3 25 5 26 24 27 25 28 26 29 27 31 28 32 29 33 93 34
REMARK SMILES IDX 30 35 92 36 31 37 32 38 33 39 86 40 34 41 91 42 85 43 87 44
REMARK SMILES IDX 35 45 90 46 84 47 83 48 36 50 70 51 49 52 69 53 50 54 53 55
REMARK SMILES IDX 68 56 88 57 51 58 52 59 67 61 89 62 54 63 37 64 38 65 47 66
REMARK SMILES IDX 39 67 40 68 46 69 48 70 41 71 42 72 43 73 44 74 45 75 71 76
REMARK SMILES IDX 72 77 81 78 73 79 74 80 80 81 82 82 75 83 76 84 77 85 78 86
REMARK SMILES IDX 79 87 55 88 56 89 65 90 57 91 58 92 64 93 66 94 59 95 60 96
REMARK SMILES IDX 61 97 62 98 63 99
REMARK H PARENT 20 7 25 30 87 49 53 60
REMARK Flexibility Score: inf
ROOT
ATOM      1  C   UNL     1       5.011  -6.484  -3.406  1.00  0.00     0.023 C 
ENDROOT
BRANCH   1   2
ATOM      2  C   UNL     1       4.671  -5.007  -3.592  1.00  0.00     0.023 C 
BRANCH   2   3
ATOM      3  C   UNL     1       3.694  -4.453  -2.558  1.00  0.00     0.116 C 
BRANCH   3   4
ATOM      4  N   UNL     1       4.295  -4.394  -1.233  1.00  0.00    -0.356 N 
ATOM      5  C   UNL     1       4.629  -3.325  -0.458  1.00  0.00     0.223 C 
ATOM      6  O   UNL     1       5.168  -3.538   0.630  1.00  0.00    -0.275 OA
ATOM      7  H   UNL     1       4.492  -5.271  -0.832  1.00  0.00     0.163 HD
BRANCH   5   8
ATOM      8  C   UNL     1       4.314  -1.901  -0.893  1.00  0.00     0.082 C 
ATOM      9  C   UNL     1       2.494  -0.280  -4.191  1.00  0.00     0.226 C 
ATOM     10  O   UNL     1       2.976  -0.968  -5.097  1.00  0.00    -0.275 OA
ATOM     11  N   UNL     1       3.071  -0.278  -2.932  1.00  0.00    -0.342 N 
ATOM     12  C   UNL     1       4.523  -0.261  -2.821  1.00  0.00     0.120 C 
ATOM     13  C   UNL     1       2.347  -0.454  -1.686  1.00  0.00     0.120 C 
ATOM     14  C   UNL     1       5.076  -1.511  -2.165  1.00  0.00     0.035 C 
ATOM     15  C   UNL     1       2.796  -1.696  -0.930  1.00  0.00     0.035 C 
BRANCH   9  16
ATOM     16  C   UNL     1       1.497   0.844  -4.560  1.00  0.00     0.095 C 
ATOM     17  C   UNL     1       0.176   0.934  -3.781  1.00  0.00     0.095 C 
ATOM     18  C   UNL     1      -0.592   2.272  -3.825  1.00  0.00     0.041 C 
ATOM     19  C   UNL     1       0.201   3.462  -4.250  1.00  0.00    -0.030 C 
ATOM     20  C   UNL     1       2.305   2.157  -4.544  1.00  0.00     0.041 C 
ATOM     21  C   UNL     1       1.495   3.412  -4.576  1.00  0.00    -0.030 C 
BRANCH  17  22
ATOM     22  C   UNL     1      -0.786  -0.213  -4.104  1.00  0.00     0.226 C 
ATOM     23  C   UNL     1      -2.631  -1.153  -5.385  1.00  0.00     0.146 C 
ATOM     24  N   UNL     1      -1.534  -0.202  -5.276  1.00  0.00    -0.349 N 
ATOM     25  C   UNL     1      -1.200   0.508  -6.505  1.00  0.00     0.146 C 
ATOM     26  O   UNL     1      -0.921  -1.111  -3.266  1.00  0.00    -0.275 OA
ENDBRANCH  17  22
ENDBRANCH   9  16
ENDBRANCH   5   8
ENDBRANCH   3   4
ENDBRANCH   2   3
ENDBRANCH   1   2
BRANCH   1  27
ATOM     27  C   UNL     1       3.808  -7.418  -3.369  1.00  0.00     0.116 C 
BRANCH  27  28
ATOM     28  N   UNL     1       2.977  -7.317  -4.558  1.00  0.00    -0.352 N 
ATOM     29  C   UNL     1       2.447  -8.320  -5.333  1.00  0.00     0.251 C 
ATOM     30  H   UNL     1       2.764  -6.400  -4.848  1.00  0.00     0.163 HD
ATOM     31  O   UNL     1       1.893  -8.049  -6.391  1.00  0.00    -0.269 OA
BRANCH  29  32
ATOM     32  C   UNL     1       2.579  -9.728  -4.898  1.00  0.00     0.039 A 
ATOM     33  C   UNL     1       2.954 -10.687  -5.840  1.00  0.00     0.014 A 
ATOM     34  C   UNL     1       2.351 -10.098  -3.570  1.00  0.00     0.014 A 
ATOM     35  C   UNL     1       3.156 -12.007  -5.435  1.00  0.00     0.010 A 
ATOM     36  C   UNL     1       2.639 -11.394  -3.152  1.00  0.00     0.010 A 
ATOM     37  C   UNL     1       3.036 -12.366  -4.081  1.00  0.00    -0.014 A 
BRANCH  37  38
ATOM     38  C   UNL     1       3.334 -13.752  -3.635  1.00  0.00     0.031 A 
ATOM     39  C   UNL     1       2.257 -14.602  -3.015  1.00  0.00     0.074 A 
ATOM     40  C   UNL     1       4.587 -14.232  -3.761  1.00  0.00     0.049 A 
ATOM     41  N   UNL     1       2.329 -15.835  -2.583  1.00  0.00    -0.248 NA
ATOM     42  C   UNL     1       0.935 -13.981  -2.833  1.00  0.00     0.031 C 
ATOM     43  C   UNL     1       5.731 -13.480  -4.286  1.00  0.00     0.029 A 
ATOM     44  N   UNL     1       5.112 -15.464  -3.462  1.00  0.00    -0.354 N 
ATOM     45  C   UNL     1       1.069 -16.134  -2.076  1.00  0.00     0.074 A 
ATOM     46  C   UNL     1       0.272 -14.934  -2.195  1.00  0.00     0.031 C 
ATOM     47  C   UNL     1       6.809 -14.279  -4.309  1.00  0.00     0.029 A 
ATOM     48  C   UNL     1       6.448 -15.584  -3.767  1.00  0.00     0.049 A 
ATOM     49  H   UNL     1       4.582 -16.193  -3.066  1.00  0.00     0.167 HD
ATOM     50  C   UNL     1       0.611 -17.310  -1.584  1.00  0.00     0.037 A 
ATOM     51  C   UNL     1       7.287 -16.629  -3.628  1.00  0.00     0.037 A 
ATOM     52  C   UNL     1       1.408 -18.506  -1.483  1.00  0.00     0.049 A 
ATOM     53  C   UNL     1       6.753 -17.926  -3.083  1.00  0.00     0.074 A 
ATOM     54  C   UNL     1       1.023 -19.763  -1.052  1.00  0.00     0.029 A 
ATOM     55  N   UNL     1       2.754 -18.592  -1.812  1.00  0.00    -0.354 N 
ATOM     56  N   UNL     1       5.537 -18.214  -2.682  1.00  0.00    -0.248 NA
ATOM     57  C   UNL     1       7.701 -19.044  -2.982  1.00  0.00     0.031 C 
ATOM     58  C   UNL     1       2.148 -20.595  -1.068  1.00  0.00     0.029 A 
ATOM     59  C   UNL     1       3.220 -19.874  -1.570  1.00  0.00     0.049 A 
ATOM     60  H   UNL     1       3.297 -17.851  -2.166  1.00  0.00     0.167 HD
ATOM     61  C   UNL     1       5.567 -19.554  -2.308  1.00  0.00     0.074 A 
ATOM     62  C   UNL     1       6.917 -20.021  -2.548  1.00  0.00     0.031 C 
ATOM     63  C   UNL     1       4.568 -20.327  -1.814  1.00  0.00     0.037 A 
BRANCH  50  64
ATOM     64  C   UNL     1      -0.821 -17.364  -1.119  1.00  0.00     0.058 A 
ATOM     65  C   UNL     1      -1.895 -17.276  -2.021  1.00  0.00     0.135 A 
ATOM     66  C   UNL     1      -1.126 -17.545   0.240  1.00  0.00     0.135 A 
ATOM     67  F   UNL     1      -1.665 -17.087  -3.331  1.00  0.00    -0.206 F 
ATOM     68  C   UNL     1      -3.216 -17.336  -1.591  1.00  0.00     0.059 A 
ATOM     69  C   UNL     1      -2.440 -17.640   0.689  1.00  0.00     0.059 A 
ATOM     70  F   UNL     1      -0.141 -17.635   1.147  1.00  0.00    -0.206 F 
ATOM     71  C   UNL     1      -3.479 -17.520  -0.232  1.00  0.00     0.060 A 
BRANCH  71  72
ATOM     72  S   UNL     1      -5.200 -17.606   0.307  1.00  0.00     0.124 S 
ATOM     73  O   UNL     1      -5.627 -16.220   0.141  1.00  0.00    -0.237 OA
ATOM     74  O   UNL     1      -5.774 -18.562  -0.634  1.00  0.00    -0.237 OA
ATOM     75  O   UNL     1      -5.102 -18.070   1.687  1.00  0.00    -0.744 OA
ENDBRANCH  71  72
ENDBRANCH  50  64
BRANCH  51  76
ATOM     76  C   UNL     1       8.711 -16.499  -4.040  1.00  0.00     0.058 A 
ATOM     77  C   UNL     1       9.209 -17.190  -5.155  1.00  0.00     0.135 A 
ATOM     78  C   UNL     1       9.600 -15.672  -3.336  1.00  0.00     0.135 A 
ATOM     79  F   UNL     1       8.401 -17.997  -5.860  1.00  0.00    -0.206 F 
ATOM     80  C   UNL     1      10.540 -17.082  -5.546  1.00  0.00     0.059 A 
ATOM     81  C   UNL     1      10.928 -15.525  -3.724  1.00  0.00     0.059 A 
ATOM     82  F   UNL     1       9.171 -14.975  -2.272  1.00  0.00    -0.206 F 
ATOM     83  C   UNL     1      11.392 -16.244  -4.825  1.00  0.00     0.060 A 
BRANCH  83  84
ATOM     84  S   UNL     1      13.106 -16.076  -5.368  1.00  0.00     0.124 S 
ATOM     85  O   UNL     1      13.662 -17.371  -4.991  1.00  0.00    -0.237 OA
ATOM     86  O   UNL     1      12.951 -15.840  -6.800  1.00  0.00    -0.237 OA
ATOM     87  O   UNL     1      13.591 -14.933  -4.600  1.00  0.00    -0.744 OA
ENDBRANCH  83  84
ENDBRANCH  51  76
BRANCH  63  88
ATOM     88  C   UNL     1       4.887 -21.771  -1.532  1.00  0.00     0.058 A 
ATOM     89  C   UNL     1       5.726 -22.154  -0.474  1.00  0.00     0.135 A 
ATOM     90  C   UNL     1       4.318 -22.788  -2.317  1.00  0.00     0.135 A 
ATOM     91  F   UNL     1       6.300 -21.222   0.305  1.00  0.00    -0.206 F 
ATOM     92  C   UNL     1       6.020 -23.491  -0.227  1.00  0.00     0.059 A 
ATOM     93  C   UNL     1       4.571 -24.133  -2.066  1.00  0.00     0.059 A 
ATOM     94  F   UNL     1       3.498 -22.480  -3.334  1.00  0.00    -0.206 F 
ATOM     95  C   UNL     1       5.438 -24.474  -1.030  1.00  0.00     0.060 A 
BRANCH  95  96
ATOM     96  S   UNL     1       5.819 -26.205  -0.691  1.00  0.00     0.124 S 
ATOM     97  O   UNL     1       7.193 -26.304  -1.172  1.00  0.00    -0.237 OA
ATOM     98  O   UNL     1       5.647 -26.285   0.757  1.00  0.00    -0.237 OA
ATOM     99  O   UNL     1       4.825 -26.932  -1.475  1.00  0.00    -0.744 OA
ENDBRANCH  95  96
ENDBRANCH  63  88
ENDBRANCH  37  38
ENDBRANCH  29  32
ENDBRANCH  27  28
ENDBRANCH   1  27
TORSDOF 16
