REMARK SMILES COc1ncccc1CC1(C(=O)NCCCCNC(=O)c2ccc(-c3c4nc(c(-c5c(F)cc(S(=O)(=O)[O-])cc5F)c5ccc([nH]5)c(-c5c(F)cc(S(=O)(=O)[O-])cc5F)c5nc(c(-c6c(F)cc(S(=O)(=O)[O-])cc6F)c6ccc3[nH]6)C=C5)C=C4)cc2)CCC(C)(C)CC1
REMARK SMILES IDX 15 1 14 2 13 3 11 4 12 5 10 7 87 8 93 9 88 10 92 11 89 12
REMARK SMILES IDX 90 13 91 14 9 15 8 16 3 17 4 18 5 19 7 20 6 21 2 22 1 23
REMARK SMILES IDX 16 24 17 25 18 26 19 27 20 29 21 30 22 31 86 32 23 33 85 34
REMARK SMILES IDX 24 35 25 36 26 37 79 38 27 39 84 40 78 41 80 42 28 43 83 44
REMARK SMILES IDX 77 45 76 46 29 48 63 49 42 50 62 51 43 52 46 53 61 54 81 55
REMARK SMILES IDX 44 56 45 57 60 59 82 60 47 61 30 62 31 63 40 64 32 65 33 66
REMARK SMILES IDX 39 67 41 68 34 69 35 70 36 71 37 72 38 73 64 74 65 75 74 76
REMARK SMILES IDX 66 77 67 78 73 79 75 80 68 81 69 82 70 83 71 84 72 85 48 86
REMARK SMILES IDX 49 87 58 88 50 89 51 90 57 91 59 92 52 93 53 94 54 95 55 96
REMARK SMILES IDX 56 97
REMARK H PARENT 13 6 18 28 80 47 46 58
REMARK Flexibility Score: inf
ROOT
ATOM      1  C   UNL     1       2.054   0.221  -3.746  1.00  0.00     0.023 C 
ENDROOT
BRANCH   1   2
ATOM      2  C   UNL     1       3.046  -0.820  -3.223  1.00  0.00     0.116 C 
BRANCH   2   3
ATOM      3  N   UNL     1       3.921  -0.265  -2.215  1.00  0.00    -0.356 N 
ATOM      4  C   UNL     1       3.878  -0.247  -0.858  1.00  0.00     0.226 C 
ATOM      5  O   UNL     1       4.827   0.348  -0.333  1.00  0.00    -0.274 OA
ATOM      6  H   UNL     1       4.707   0.194  -2.588  1.00  0.00     0.163 HD
BRANCH   4   7
ATOM      7  C   UNL     1       2.784  -0.962   0.017  1.00  0.00     0.053 C 
ATOM      8  C   UNL     1       2.985  -2.491  -0.129  1.00  0.00     0.018 C 
ATOM      9  C   UNL     1       1.362  -0.560  -0.426  1.00  0.00     0.018 C 
ATOM     10  C   UNL     1       1.807  -3.401   0.253  1.00  0.00     0.007 C 
ATOM     11  C   UNL     1       0.220  -1.419   0.110  1.00  0.00     0.007 C 
ATOM     12  C   UNL     1       0.396  -2.925  -0.148  1.00  0.00    -0.035 C 
ATOM     13  C   UNL     1      -0.648  -3.681   0.703  1.00  0.00     0.011 C 
ATOM     14  C   UNL     1       0.112  -3.267  -1.621  1.00  0.00     0.011 C 
BRANCH   7  15
ATOM     15  C   UNL     1       3.108  -0.441   1.484  1.00  0.00     0.058 C 
BRANCH  15  16
ATOM     16  C   UNL     1       2.224  -0.812   2.644  1.00  0.00     0.015 A 
ATOM     17  C   UNL     1       1.269   0.060   3.171  1.00  0.00     0.216 A 
ATOM     18  N   UNL     1       0.374  -0.276   4.127  1.00  0.00    -0.222 NA
ATOM     19  C   UNL     1       0.464  -1.531   4.619  1.00  0.00     0.115 A 
ATOM     20  C   UNL     1       2.341  -2.061   3.257  1.00  0.00     0.011 A 
ATOM     21  C   UNL     1       1.439  -2.440   4.244  1.00  0.00     0.021 A 
BRANCH  17  22
ATOM     22  O   UNL     1       1.353   1.395   2.864  1.00  0.00    -0.481 OA
ATOM     23  C   UNL     1       0.293   1.824   2.023  1.00  0.00     0.280 C 
ENDBRANCH  17  22
ENDBRANCH  15  16
ENDBRANCH   7  15
ENDBRANCH   4   7
ENDBRANCH   2   3
ENDBRANCH   1   2
BRANCH   1  24
ATOM     24  C   UNL     1       2.604   1.151  -4.823  1.00  0.00     0.023 C 
BRANCH  24  25
ATOM     25  C   UNL     1       3.121   0.451  -6.070  1.00  0.00     0.116 C 
BRANCH  25  26
ATOM     26  N   UNL     1       2.154  -0.448  -6.684  1.00  0.00    -0.352 N 
ATOM     27  C   UNL     1       2.085  -0.823  -8.007  1.00  0.00     0.251 C 
ATOM     28  H   UNL     1       1.472  -0.830  -6.085  1.00  0.00     0.163 HD
ATOM     29  O   UNL     1       1.171  -1.523  -8.416  1.00  0.00    -0.269 OA
BRANCH  27  30
ATOM     30  C   UNL     1       3.122  -0.310  -8.924  1.00  0.00     0.039 A 
ATOM     31  C   UNL     1       2.730   0.437 -10.036  1.00  0.00     0.014 A 
ATOM     32  C   UNL     1       4.473  -0.479  -8.613  1.00  0.00     0.014 A 
ATOM     33  C   UNL     1       3.702   1.081 -10.802  1.00  0.00     0.010 A 
ATOM     34  C   UNL     1       5.431   0.223  -9.332  1.00  0.00     0.010 A 
ATOM     35  C   UNL     1       5.055   1.012 -10.430  1.00  0.00    -0.014 A 
BRANCH  35  36
ATOM     36  C   UNL     1       6.106   1.741 -11.180  1.00  0.00     0.031 A 
ATOM     37  C   UNL     1       7.179   0.964 -11.891  1.00  0.00     0.074 A 
ATOM     38  C   UNL     1       6.143   3.088 -11.152  1.00  0.00     0.049 A 
ATOM     39  N   UNL     1       8.257   1.398 -12.486  1.00  0.00    -0.248 NA
ATOM     40  C   UNL     1       7.033  -0.502 -11.902  1.00  0.00     0.031 C 
ATOM     41  C   UNL     1       5.180   3.950 -10.462  1.00  0.00     0.029 A 
ATOM     42  N   UNL     1       7.037   3.969 -11.705  1.00  0.00    -0.354 N 
ATOM     43  C   UNL     1       8.926   0.263 -12.928  1.00  0.00     0.074 A 
ATOM     44  C   UNL     1       8.161  -0.881 -12.483  1.00  0.00     0.031 C 
ATOM     45  C   UNL     1       5.525   5.235 -10.650  1.00  0.00     0.029 A 
ATOM     46  C   UNL     1       6.753   5.288 -11.438  1.00  0.00     0.049 A 
ATOM     47  H   UNL     1       7.810   3.684 -12.244  1.00  0.00     0.167 HD
ATOM     48  C   UNL     1      10.062   0.182 -13.660  1.00  0.00     0.037 A 
ATOM     49  C   UNL     1       7.414   6.410 -11.783  1.00  0.00     0.037 A 
ATOM     50  C   UNL     1      10.799   1.325 -14.126  1.00  0.00     0.049 A 
ATOM     51  C   UNL     1       8.674   6.294 -12.599  1.00  0.00     0.074 A 
ATOM     52  C   UNL     1      11.943   1.353 -14.904  1.00  0.00     0.029 A 
ATOM     53  N   UNL     1      10.458   2.644 -13.867  1.00  0.00    -0.354 N 
ATOM     54  N   UNL     1       9.275   5.213 -13.037  1.00  0.00    -0.248 NA
ATOM     55  C   UNL     1       9.346   7.548 -12.969  1.00  0.00     0.031 C 
ATOM     56  C   UNL     1      12.308   2.690 -15.094  1.00  0.00     0.029 A 
ATOM     57  C   UNL     1      11.370   3.495 -14.466  1.00  0.00     0.049 A 
ATOM     58  H   UNL     1       9.681   2.932 -13.335  1.00  0.00     0.167 HD
ATOM     59  C   UNL     1      10.374   5.658 -13.764  1.00  0.00     0.074 A 
ATOM     60  C   UNL     1      10.354   7.105 -13.708  1.00  0.00     0.031 C 
ATOM     61  C   UNL     1      11.314   4.934 -14.419  1.00  0.00     0.037 A 
BRANCH  48  62
ATOM     62  C   UNL     1      10.560  -1.191 -14.012  1.00  0.00     0.058 A 
ATOM     63  C   UNL     1       9.885  -1.998 -14.942  1.00  0.00     0.135 A 
ATOM     64  C   UNL     1      11.731  -1.702 -13.430  1.00  0.00     0.135 A 
ATOM     65  F   UNL     1       8.750  -1.566 -15.514  1.00  0.00    -0.206 F 
ATOM     66  C   UNL     1      10.333  -3.276 -15.258  1.00  0.00     0.059 A 
ATOM     67  C   UNL     1      12.213  -2.967 -13.751  1.00  0.00     0.059 A 
ATOM     68  F   UNL     1      12.413  -0.973 -12.533  1.00  0.00    -0.206 F 
ATOM     69  C   UNL     1      11.498  -3.753 -14.654  1.00  0.00     0.060 A 
BRANCH  69  70
ATOM     70  S   UNL     1      12.065  -5.415 -15.071  1.00  0.00     0.124 S 
ATOM     71  O   UNL     1      11.117  -6.239 -14.327  1.00  0.00    -0.237 OA
ATOM     72  O   UNL     1      11.923  -5.440 -16.523  1.00  0.00    -0.237 OA
ATOM     73  O   UNL     1      13.439  -5.438 -14.578  1.00  0.00    -0.744 OA
ENDBRANCH  69  70
ENDBRANCH  48  62
BRANCH  49  74
ATOM     74  C   UNL     1       6.889   7.742 -11.384  1.00  0.00     0.058 A 
ATOM     75  C   UNL     1       6.339   8.611 -12.338  1.00  0.00     0.135 A 
ATOM     76  C   UNL     1       6.929   8.177 -10.050  1.00  0.00     0.135 A 
ATOM     77  F   UNL     1       6.282   8.242 -13.626  1.00  0.00    -0.206 F 
ATOM     78  C   UNL     1       5.869   9.873 -11.990  1.00  0.00     0.059 A 
ATOM     79  C   UNL     1       6.444   9.426  -9.674  1.00  0.00     0.059 A 
ATOM     80  F   UNL     1       7.429   7.376  -9.096  1.00  0.00    -0.206 F 
ATOM     81  C   UNL     1       5.928  10.273 -10.654  1.00  0.00     0.060 A 
BRANCH  81  82
ATOM     82  S   UNL     1       5.287  11.901 -10.207  1.00  0.00     0.124 S 
ATOM     83  O   UNL     1       6.347  12.776 -10.694  1.00  0.00    -0.237 OA
ATOM     84  O   UNL     1       4.029  11.951 -10.944  1.00  0.00    -0.237 OA
ATOM     85  O   UNL     1       5.151  11.819  -8.756  1.00  0.00    -0.744 OA
ENDBRANCH  81  82
ENDBRANCH  49  74
BRANCH  61  86
ATOM     86  C   UNL     1      12.370   5.690 -15.174  1.00  0.00     0.058 A 
ATOM     87  C   UNL     1      13.435   6.324 -14.518  1.00  0.00     0.135 A 
ATOM     88  C   UNL     1      12.351   5.715 -16.578  1.00  0.00     0.135 A 
ATOM     89  F   UNL     1      13.492   6.333 -13.177  1.00  0.00    -0.206 F 
ATOM     90  C   UNL     1      14.442   6.968 -15.228  1.00  0.00     0.059 A 
ATOM     91  C   UNL     1      13.360   6.333 -17.309  1.00  0.00     0.059 A 
ATOM     92  F   UNL     1      11.357   5.115 -17.253  1.00  0.00    -0.206 F 
ATOM     93  C   UNL     1      14.398   6.963 -16.624  1.00  0.00     0.060 A 
BRANCH  93  94
ATOM     94  S   UNL     1      15.741   7.754 -17.536  1.00  0.00     0.124 S 
ATOM     95  O   UNL     1      15.418   9.167 -17.367  1.00  0.00    -0.237 OA
ATOM     96  O   UNL     1      16.924   7.285 -16.821  1.00  0.00    -0.237 OA
ATOM     97  O   UNL     1      15.586   7.231 -18.890  1.00  0.00    -0.744 OA
ENDBRANCH  93  94
ENDBRANCH  61  86
ENDBRANCH  35  36
ENDBRANCH  27  30
ENDBRANCH  25  26
ENDBRANCH  24  25
ENDBRANCH   1  24
TORSDOF 17
