REMARK SMILES C[C@H](Cc1ccc2c(c1)OCCCO2)C(=O)NCCCCNC(=O)c1ccc(-c2c3nc(c(-c4c(F)cc(S(=O)(=O)[O-])cc4F)c4ccc([nH]4)c(-c4c(F)cc(S(=O)(=O)[O-])cc4F)c4nc(c(-c5c(F)cc(S(=O)(=O)[O-])cc5F)c5ccc2[nH]5)C=C4)C=C3)cc1
REMARK SMILES IDX 18 1 17 2 15 3 16 4 2 6 1 7 3 8 4 9 5 10 9 11 6 12 8 13 7 14
REMARK SMILES IDX 10 15 11 16 14 18 13 19 12 20 19 22 20 23 21 24 22 25 23 26
REMARK SMILES IDX 24 28 25 29 26 30 90 31 27 32 89 33 28 34 29 35 30 36 83 37
REMARK SMILES IDX 31 38 88 39 82 40 84 41 32 42 87 43 81 44 80 45 33 47 67 48
REMARK SMILES IDX 46 49 66 50 47 51 50 52 65 53 85 54 48 55 49 56 64 58 86 59
REMARK SMILES IDX 51 60 34 61 35 62 44 63 36 64 37 65 43 66 45 67 38 68 39 69
REMARK SMILES IDX 40 70 41 71 42 72 68 73 69 74 78 75 70 76 71 77 77 78 79 79
REMARK SMILES IDX 72 80 73 81 74 82 75 83 76 84 52 85 53 86 62 87 54 88 55 89
REMARK SMILES IDX 61 90 63 91 56 92 57 93 58 94 59 95 60 96
REMARK H PARENT 17 5 22 27 84 46 50 57
REMARK Flexibility Score: 80.00
ROOT
ATOM      1  C   UNL     1      -0.990   2.960   0.414  1.00  0.00     0.116 C 
ENDROOT
BRANCH   1   2
ATOM      2  N   UNL     1      -1.479   1.744   1.039  1.00  0.00    -0.356 N 
ATOM      3  C   UNL     1      -0.898   0.565   1.369  1.00  0.00     0.223 C 
ATOM      4  O   UNL     1      -1.632  -0.281   1.897  1.00  0.00    -0.275 OA
ATOM      5  H   UNL     1      -2.435   1.785   1.272  1.00  0.00     0.163 HD
BRANCH   3   6
ATOM      6  C   UNL     1       0.574   0.225   1.136  1.00  0.00     0.079 C 
ATOM      7  C   UNL     1       1.545   1.311   1.602  1.00  0.00     0.018 C 
BRANCH   6   8
ATOM      8  C   UNL     1       0.986  -0.428  -0.213  1.00  0.00     0.048 C 
BRANCH   8   9
ATOM      9  C   UNL     1       0.052  -0.386  -1.398  1.00  0.00    -0.043 A 
ATOM     10  C   UNL     1      -1.246  -0.902  -1.319  1.00  0.00     0.008 A 
ATOM     11  C   UNL     1       0.460   0.198  -2.611  1.00  0.00     0.054 A 
ATOM     12  C   UNL     1      -2.161  -0.675  -2.349  1.00  0.00     0.051 A 
ATOM     13  C   UNL     1      -0.449   0.400  -3.663  1.00  0.00     0.161 A 
ATOM     14  C   UNL     1      -1.780   0.012  -3.503  1.00  0.00     0.161 A 
BRANCH  13  15
ATOM     15  O   UNL     1       0.030   1.149  -4.703  1.00  0.00    -0.490 OA
BRANCH  15  16
ATOM     16  C   UNL     1      -0.324   0.640  -5.987  1.00  0.00     0.233 CG0
ATOM     17  G   UNL     1      -1.735   1.031  -6.384  1.00  0.00     0.000 G0
ENDBRANCH  15  16
ENDBRANCH  13  15
BRANCH  14  18
ATOM     18  O   UNL     1      -2.819   0.467  -4.266  1.00  0.00    -0.490 OA
BRANCH  18  19
ATOM     19  C   UNL     1      -2.743   0.165  -5.652  1.00  0.00     0.233 C 
BRANCH  19  20
ATOM     20  C   UNL     1      -1.735   1.031  -6.384  1.00  0.00     0.083 CG0
ATOM     21  G   UNL     1      -0.324   0.640  -5.987  1.00  0.00     0.000 G0
ENDBRANCH  19  20
ENDBRANCH  18  19
ENDBRANCH  14  18
ENDBRANCH   8   9
ENDBRANCH   6   8
ENDBRANCH   3   6
ENDBRANCH   1   2
BRANCH   1  22
ATOM     22  C   UNL     1      -1.201   2.982  -1.093  1.00  0.00     0.023 C 
BRANCH  22  23
ATOM     23  C   UNL     1      -2.659   2.923  -1.534  1.00  0.00     0.023 C 
BRANCH  23  24
ATOM     24  C   UNL     1      -3.377   4.252  -1.396  1.00  0.00     0.116 C 
BRANCH  24  25
ATOM     25  N   UNL     1      -2.897   5.242  -2.357  1.00  0.00    -0.352 N 
ATOM     26  C   UNL     1      -3.572   5.929  -3.343  1.00  0.00     0.251 C 
ATOM     27  H   UNL     1      -1.937   5.453  -2.288  1.00  0.00     0.163 HD
ATOM     28  O   UNL     1      -2.953   6.589  -4.163  1.00  0.00    -0.269 OA
BRANCH  26  29
ATOM     29  C   UNL     1      -5.048   5.834  -3.419  1.00  0.00     0.039 A 
ATOM     30  C   UNL     1      -5.811   5.800  -2.256  1.00  0.00     0.014 A 
ATOM     31  C   UNL     1      -5.674   5.735  -4.666  1.00  0.00     0.014 A 
ATOM     32  C   UNL     1      -7.141   5.423  -2.321  1.00  0.00     0.010 A 
ATOM     33  C   UNL     1      -7.053   5.507  -4.733  1.00  0.00     0.010 A 
ATOM     34  C   UNL     1      -7.790   5.291  -3.559  1.00  0.00    -0.014 A 
BRANCH  34  35
ATOM     35  C   UNL     1      -9.237   4.941  -3.576  1.00  0.00     0.031 A 
ATOM     36  C   UNL     1      -9.732   3.702  -4.273  1.00  0.00     0.074 A 
ATOM     37  C   UNL     1     -10.097   5.717  -2.885  1.00  0.00     0.049 A 
ATOM     38  N   UNL     1     -10.959   3.257  -4.383  1.00  0.00    -0.248 NA
ATOM     39  C   UNL     1      -8.731   2.859  -4.944  1.00  0.00     0.031 C 
ATOM     40  C   UNL     1      -9.730   6.939  -2.161  1.00  0.00     0.029 A 
ATOM     41  N   UNL     1     -11.437   5.579  -2.634  1.00  0.00    -0.354 N 
ATOM     42  C   UNL     1     -10.883   2.113  -5.170  1.00  0.00     0.074 A 
ATOM     43  C   UNL     1      -9.491   1.940  -5.524  1.00  0.00     0.031 C 
ATOM     44  C   UNL     1     -10.790   7.378  -1.471  1.00  0.00     0.029 A 
ATOM     45  C   UNL     1     -11.938   6.538  -1.785  1.00  0.00     0.049 A 
ATOM     46  H   UNL     1     -11.988   4.862  -3.023  1.00  0.00     0.167 HD
ATOM     47  C   UNL     1     -11.883   1.284  -5.556  1.00  0.00     0.037 A 
ATOM     48  C   UNL     1     -13.186   6.741  -1.325  1.00  0.00     0.037 A 
ATOM     49  C   UNL     1     -13.259   1.446  -5.159  1.00  0.00     0.049 A 
ATOM     50  C   UNL     1     -14.278   5.820  -1.774  1.00  0.00     0.074 A 
ATOM     51  C   UNL     1     -14.346   0.648  -5.473  1.00  0.00     0.029 A 
ATOM     52  N   UNL     1     -13.738   2.471  -4.353  1.00  0.00    -0.354 N 
ATOM     53  N   UNL     1     -14.191   4.762  -2.544  1.00  0.00    -0.248 NA
ATOM     54  C   UNL     1     -15.637   6.132  -1.320  1.00  0.00     0.031 C 
ATOM     55  C   UNL     1     -15.486   1.213  -4.891  1.00  0.00     0.029 A 
ATOM     56  C   UNL     1     -15.106   2.339  -4.178  1.00  0.00     0.049 A 
ATOM     57  H   UNL     1     -13.185   3.186  -3.964  1.00  0.00     0.167 HD
ATOM     58  C   UNL     1     -15.488   4.284  -2.677  1.00  0.00     0.074 A 
ATOM     59  C   UNL     1     -16.335   5.154  -1.883  1.00  0.00     0.031 C 
ATOM     60  C   UNL     1     -15.935   3.227  -3.398  1.00  0.00     0.037 A 
BRANCH  47  61
ATOM     61  C   UNL     1     -11.532   0.148  -6.481  1.00  0.00     0.058 A 
ATOM     62  C   UNL     1     -10.798  -0.967  -6.048  1.00  0.00     0.135 A 
ATOM     63  C   UNL     1     -11.950   0.172  -7.822  1.00  0.00     0.135 A 
ATOM     64  F   UNL     1     -10.361  -1.038  -4.781  1.00  0.00    -0.206 F 
ATOM     65  C   UNL     1     -10.458  -1.999  -6.919  1.00  0.00     0.059 A 
ATOM     66  C   UNL     1     -11.645  -0.861  -8.705  1.00  0.00     0.059 A 
ATOM     67  F   UNL     1     -12.658   1.212  -8.291  1.00  0.00    -0.206 F 
ATOM     68  C   UNL     1     -10.881  -1.933  -8.248  1.00  0.00     0.060 A 
BRANCH  68  69
ATOM     69  S   UNL     1     -10.406  -3.264  -9.373  1.00  0.00     0.124 S 
ATOM     70  O   UNL     1      -8.981  -2.999  -9.550  1.00  0.00    -0.237 OA
ATOM     71  O   UNL     1     -10.736  -4.458  -8.601  1.00  0.00    -0.237 OA
ATOM     72  O   UNL     1     -11.238  -3.031 -10.549  1.00  0.00    -0.744 OA
ENDBRANCH  68  69
ENDBRANCH  47  61
BRANCH  48  73
ATOM     73  C   UNL     1     -13.439   7.879  -0.403  1.00  0.00     0.058 A 
ATOM     74  C   UNL     1     -13.684   7.660   0.959  1.00  0.00     0.135 A 
ATOM     75  C   UNL     1     -13.325   9.207  -0.844  1.00  0.00     0.135 A 
ATOM     76  F   UNL     1     -13.809   6.409   1.427  1.00  0.00    -0.206 F 
ATOM     77  C   UNL     1     -13.781   8.718   1.858  1.00  0.00     0.059 A 
ATOM     78  C   UNL     1     -13.391  10.279   0.039  1.00  0.00     0.059 A 
ATOM     79  F   UNL     1     -13.074   9.467  -2.137  1.00  0.00    -0.206 F 
ATOM     80  C   UNL     1     -13.615  10.023   1.390  1.00  0.00     0.060 A 
BRANCH  80  81
ATOM     81  S   UNL     1     -13.615  11.378   2.585  1.00  0.00     0.124 S 
ATOM     82  O   UNL     1     -15.024  11.445   2.954  1.00  0.00    -0.237 OA
ATOM     83  O   UNL     1     -12.708  10.877   3.614  1.00  0.00    -0.237 OA
ATOM     84  O   UNL     1     -13.108  12.508   1.812  1.00  0.00    -0.744 OA
ENDBRANCH  80  81
ENDBRANCH  48  73
BRANCH  60  85
ATOM     85  C   UNL     1     -17.411   2.957  -3.370  1.00  0.00     0.058 A 
ATOM     86  C   UNL     1     -18.312   3.758  -4.088  1.00  0.00     0.135 A 
ATOM     87  C   UNL     1     -17.923   1.855  -2.667  1.00  0.00     0.135 A 
ATOM     88  F   UNL     1     -17.872   4.829  -4.766  1.00  0.00    -0.206 F 
ATOM     89  C   UNL     1     -19.675   3.483  -4.099  1.00  0.00     0.059 A 
ATOM     90  C   UNL     1     -19.279   1.548  -2.683  1.00  0.00     0.059 A 
ATOM     91  F   UNL     1     -17.100   1.055  -1.970  1.00  0.00    -0.206 F 
ATOM     92  C   UNL     1     -20.149   2.373  -3.397  1.00  0.00     0.060 A 
BRANCH  92  93
ATOM     93  S   UNL     1     -21.915   2.005  -3.455  1.00  0.00     0.124 S 
ATOM     94  O   UNL     1     -22.464   3.066  -2.618  1.00  0.00    -0.237 OA
ATOM     95  O   UNL     1     -22.207   2.107  -4.882  1.00  0.00    -0.237 OA
ATOM     96  O   UNL     1     -22.000   0.658  -2.899  1.00  0.00    -0.744 OA
ENDBRANCH  92  93
ENDBRANCH  60  85
ENDBRANCH  34  35
ENDBRANCH  26  29
ENDBRANCH  24  25
ENDBRANCH  23  24
ENDBRANCH  22  23
ENDBRANCH   1  22
TORSDOF 16
