REMARK SMILES Cc1cc(/C=C2\C(=O)N(Cc3ccco3)C(=O)[NH+]=C2NCCCCNC(=O)c2ccc(-c3c4nc(c(-c5c(F)cc(S(=O)(=O)[O-])cc5F)c5ccc([nH]5)c(-c5c(F)cc(S(=O)(=O)[O-])cc5F)c5nc(c(-c6c(F)cc(S(=O)(=O)[O-])cc6F)c6ccc3[nH]6)C=C5)C=C4)cc2)c(C)n1-c1ccc(Cl)c(C(=O)[O-])c1
REMARK SMILES IDX 23 1 22 2 21 3 20 4 5 5 6 6 7 7 19 8 8 9 9 10 18 11 16 12
REMARK SMILES IDX 17 15 4 16 1 17 2 18 3 19 96 20 94 21 95 22 97 23 98 24
REMARK SMILES IDX 106 25 99 26 102 27 100 28 101 29 103 30 104 31 105 32 10 33
REMARK SMILES IDX 11 34 12 35 15 36 13 37 14 38 24 39 25 40 26 41 27 43 28 44
REMARK SMILES IDX 29 45 93 46 30 47 92 48 31 49 32 50 33 51 86 52 34 53 91 54
REMARK SMILES IDX 85 55 87 56 35 57 90 58 84 59 83 60 36 62 70 63 49 64 69 65
REMARK SMILES IDX 50 66 53 67 68 68 88 69 51 70 52 71 67 73 89 74 54 75 37 76
REMARK SMILES IDX 38 77 47 78 39 79 40 80 46 81 48 82 41 83 42 84 43 85 44 86
REMARK SMILES IDX 45 87 71 88 72 89 81 90 73 91 74 92 80 93 82 94 75 95 76 96
REMARK SMILES IDX 77 97 78 98 79 99 55 100 56 101 65 102 57 103 58 104 64 105
REMARK SMILES IDX 66 106 59 107 60 108 61 109 62 110 63 111
REMARK H PARENT 18 13 20 14 25 42 87 61 53 72
REMARK Flexibility Score: inf
ROOT
ATOM      1  C   UNL     1      -3.892   0.112  -8.044  1.00  0.00     0.024 C 
ENDROOT
BRANCH   1   2
ATOM      2  C   UNL     1      -2.967  -0.085  -6.831  1.00  0.00     0.039 C 
BRANCH   2   3
ATOM      3  C   UNL     1      -1.671   0.728  -6.851  1.00  0.00     0.194 C 
BRANCH   3   4
ATOM      4  N   UNL     1      -1.996   2.134  -6.924  1.00  0.00    -0.305 N 
ATOM      5  C   UNL     1      -0.896   2.297  -4.032  1.00  0.00     0.032 C 
ATOM      6  C   UNL     1      -0.640   3.172  -5.023  1.00  0.00     0.129 C 
ATOM      7  C   UNL     1       0.311   4.298  -4.963  1.00  0.00     0.323 C 
ATOM      8  C   UNL     1      -1.488   3.206  -6.242  1.00  0.00     0.236 C 
ATOM      9  O   UNL     1       1.478   4.163  -4.610  1.00  0.00    -0.250 OA
ATOM     10  N   UNL     1      -0.301   5.486  -5.306  1.00  0.00    -0.182 N 
ATOM     11  N   UNL     1      -1.798   4.361  -6.765  1.00  0.00    -0.210 N 
ATOM     12  C   UNL     1      -1.384   5.527  -6.170  1.00  0.00     0.444 C 
ATOM     13  H   UNL     1      -2.332   4.396  -7.591  1.00  0.00     0.270 HD
ATOM     14  H   UNL     1      -2.701   2.358  -7.574  1.00  0.00     0.256 HD
ATOM     15  O   UNL     1      -1.973   6.580  -6.401  1.00  0.00    -0.212 OA
BRANCH   5  16
ATOM     16  C   UNL     1      -0.293   2.105  -2.744  1.00  0.00    -0.003 A 
ATOM     17  C   UNL     1       0.918  -0.068   0.033  1.00  0.00     0.065 C 
ATOM     18  C   UNL     1       0.528   0.986  -0.945  1.00  0.00     0.020 A 
ATOM     19  C   UNL     1      -0.106   0.826  -2.162  1.00  0.00     0.031 A 
ATOM     20  N   UNL     1       0.702   2.344  -0.737  1.00  0.00    -0.318 N 
ATOM     21  C   UNL     1       0.159   3.039  -1.822  1.00  0.00     0.027 A 
ATOM     22  C   UNL     1       0.239   4.522  -1.933  1.00  0.00     0.065 C 
BRANCH  20  23
ATOM     23  C   UNL     1       1.407   2.954   0.338  1.00  0.00     0.046 A 
ATOM     24  C   UNL     1       0.816   4.000   1.047  1.00  0.00     0.028 A 
ATOM     25  C   UNL     1       2.753   2.634   0.544  1.00  0.00     0.038 A 
ATOM     26  C   UNL     1       1.600   4.808   1.865  1.00  0.00     0.023 A 
ATOM     27  C   UNL     1       3.549   3.432   1.394  1.00  0.00     0.018 A 
ATOM     28  C   UNL     1       2.967   4.545   2.024  1.00  0.00     0.050 A 
ATOM     29  Cl  UNL     1       3.838   5.681   2.994  1.00  0.00    -0.084 Cl
BRANCH  27  30
ATOM     30  C   UNL     1       4.993   3.104   1.558  1.00  0.00     0.073 C 
ATOM     31  O   UNL     1       5.848   3.736   2.146  1.00  0.00    -0.545 OA
ATOM     32  O   UNL     1       5.315   1.934   0.972  1.00  0.00    -0.545 OA
ENDBRANCH  27  30
ENDBRANCH  20  23
ENDBRANCH   5  16
BRANCH  10  33
ATOM     33  C   UNL     1       0.142   6.722  -4.692  1.00  0.00     0.285 C 
BRANCH  33  34
ATOM     34  C   UNL     1       1.257   7.354  -5.427  1.00  0.00     0.138 A 
ATOM     35  C   UNL     1       1.347   8.041  -6.618  1.00  0.00     0.049 A 
ATOM     36  O   UNL     1       2.467   7.345  -4.798  1.00  0.00    -0.466 OA
ATOM     37  C   UNL     1       2.696   8.454  -6.733  1.00  0.00     0.042 A 
ATOM     38  C   UNL     1       3.337   7.999  -5.605  1.00  0.00     0.195 A 
ENDBRANCH  33  34
ENDBRANCH  10  33
ENDBRANCH   3   4
ENDBRANCH   2   3
ENDBRANCH   1   2
BRANCH   1  39
ATOM     39  C   UNL     1      -3.241   0.218  -9.433  1.00  0.00     0.116 C 
BRANCH  39  40
ATOM     40  N   UNL     1      -2.719  -1.020  -9.947  1.00  0.00    -0.352 N 
ATOM     41  C   UNL     1      -2.226  -1.244 -11.221  1.00  0.00     0.251 C 
ATOM     42  H   UNL     1      -2.712  -1.787  -9.329  1.00  0.00     0.163 HD
ATOM     43  O   UNL     1      -2.068  -2.410 -11.571  1.00  0.00    -0.269 OA
BRANCH  41  44
ATOM     44  C   UNL     1      -2.033  -0.115 -12.200  1.00  0.00     0.039 A 
ATOM     45  C   UNL     1      -3.045   0.120 -13.111  1.00  0.00     0.014 A 
ATOM     46  C   UNL     1      -0.835   0.601 -12.385  1.00  0.00     0.014 A 
ATOM     47  C   UNL     1      -2.868   1.075 -14.148  1.00  0.00     0.010 A 
ATOM     48  C   UNL     1      -0.627   1.502 -13.513  1.00  0.00     0.010 A 
ATOM     49  C   UNL     1      -1.632   1.755 -14.462  1.00  0.00    -0.014 A 
BRANCH  49  50
ATOM     50  C   UNL     1      -1.465   2.228 -15.996  1.00  0.00     0.031 A 
ATOM     51  C   UNL     1      -2.063   1.085 -16.750  1.00  0.00     0.074 A 
ATOM     52  C   UNL     1      -0.895   3.195 -16.824  1.00  0.00     0.049 A 
ATOM     53  N   UNL     1      -1.621  -0.125 -16.541  1.00  0.00    -0.248 NA
ATOM     54  C   UNL     1      -3.386   1.151 -17.378  1.00  0.00     0.031 C 
ATOM     55  C   UNL     1      -0.016   4.315 -16.453  1.00  0.00     0.029 A 
ATOM     56  N   UNL     1      -0.966   3.411 -18.240  1.00  0.00    -0.354 N 
ATOM     57  C   UNL     1      -2.430  -0.958 -17.263  1.00  0.00     0.074 A 
ATOM     58  C   UNL     1      -3.616  -0.158 -17.541  1.00  0.00     0.031 C 
ATOM     59  C   UNL     1       0.236   5.139 -17.516  1.00  0.00     0.029 A 
ATOM     60  C   UNL     1      -0.388   4.637 -18.741  1.00  0.00     0.049 A 
ATOM     61  H   UNL     1      -1.389   2.756 -18.841  1.00  0.00     0.167 HD
ATOM     62  C   UNL     1      -1.794  -1.849 -18.074  1.00  0.00     0.037 A 
ATOM     63  C   UNL     1      -0.340   5.171 -20.032  1.00  0.00     0.037 A 
ATOM     64  C   UNL     1      -1.858  -1.447 -19.454  1.00  0.00     0.049 A 
ATOM     65  C   UNL     1      -0.454   4.019 -20.937  1.00  0.00     0.074 A 
ATOM     66  C   UNL     1      -2.871  -0.944 -20.248  1.00  0.00     0.029 A 
ATOM     67  N   UNL     1      -0.671  -1.054 -20.036  1.00  0.00    -0.354 N 
ATOM     68  N   UNL     1       0.542   3.217 -21.156  1.00  0.00    -0.248 NA
ATOM     69  C   UNL     1      -1.657   3.763 -21.723  1.00  0.00     0.031 C 
ATOM     70  C   UNL     1      -2.282   0.160 -20.910  1.00  0.00     0.029 A 
ATOM     71  C   UNL     1      -0.900   0.069 -20.802  1.00  0.00     0.049 A 
ATOM     72  H   UNL     1       0.198  -1.503 -19.923  1.00  0.00     0.167 HD
ATOM     73  C   UNL     1      -0.057   2.119 -21.683  1.00  0.00     0.074 A 
ATOM     74  C   UNL     1      -1.301   2.595 -22.258  1.00  0.00     0.031 C 
ATOM     75  C   UNL     1       0.223   0.926 -21.105  1.00  0.00     0.037 A 
BRANCH  62  76
ATOM     76  C   UNL     1      -0.600  -2.516 -17.441  1.00  0.00     0.058 A 
ATOM     77  C   UNL     1      -0.692  -3.858 -17.061  1.00  0.00     0.135 A 
ATOM     78  C   UNL     1       0.583  -1.825 -17.094  1.00  0.00     0.135 A 
ATOM     79  F   UNL     1      -1.774  -4.580 -17.396  1.00  0.00    -0.206 F 
ATOM     80  C   UNL     1       0.317  -4.476 -16.325  1.00  0.00     0.059 A 
ATOM     81  C   UNL     1       1.580  -2.405 -16.317  1.00  0.00     0.059 A 
ATOM     82  F   UNL     1       0.779  -0.563 -17.512  1.00  0.00    -0.206 F 
ATOM     83  C   UNL     1       1.436  -3.734 -15.934  1.00  0.00     0.060 A 
BRANCH  83  84
ATOM     84  S   UNL     1       2.673  -4.526 -14.883  1.00  0.00     0.124 S 
ATOM     85  O   UNL     1       1.850  -5.245 -13.912  1.00  0.00    -0.237 OA
ATOM     86  O   UNL     1       3.379  -5.369 -15.841  1.00  0.00    -0.237 OA
ATOM     87  O   UNL     1       3.429  -3.406 -14.332  1.00  0.00    -0.744 OA
ENDBRANCH  83  84
ENDBRANCH  62  76
BRANCH  63  88
ATOM     88  C   UNL     1      -0.048   6.457 -20.875  1.00  0.00     0.058 A 
ATOM     89  C   UNL     1       0.310   6.366 -22.269  1.00  0.00     0.135 A 
ATOM     90  C   UNL     1      -0.468   7.744 -20.507  1.00  0.00     0.135 A 
ATOM     91  F   UNL     1       0.792   5.231 -22.795  1.00  0.00    -0.206 F 
ATOM     92  C   UNL     1       0.116   7.384 -23.220  1.00  0.00     0.059 A 
ATOM     93  C   UNL     1      -0.639   8.802 -21.448  1.00  0.00     0.059 A 
ATOM     94  F   UNL     1      -0.812   7.993 -19.235  1.00  0.00    -0.206 F 
ATOM     95  C   UNL     1      -0.402   8.596 -22.810  1.00  0.00     0.060 A 
BRANCH  95  96
ATOM     96  S   UNL     1      -0.894   9.801 -24.087  1.00  0.00     0.124 S 
ATOM     97  O   UNL     1       0.386  10.202 -24.660  1.00  0.00    -0.237 OA
ATOM     98  O   UNL     1      -1.750   8.999 -24.958  1.00  0.00    -0.237 OA
ATOM     99  O   UNL     1      -1.591  10.834 -23.326  1.00  0.00    -0.744 OA
ENDBRANCH  95  96
ENDBRANCH  63  88
BRANCH  75 100
ATOM    100  C   UNL     1       1.664   0.674 -20.681  1.00  0.00     0.058 A 
ATOM    101  C   UNL     1       2.495   1.529 -19.918  1.00  0.00     0.135 A 
ATOM    102  C   UNL     1       2.270  -0.505 -21.149  1.00  0.00     0.135 A 
ATOM    103  F   UNL     1       2.019   2.621 -19.302  1.00  0.00    -0.206 F 
ATOM    104  C   UNL     1       3.859   1.279 -19.738  1.00  0.00     0.059 A 
ATOM    105  C   UNL     1       3.612  -0.804 -20.928  1.00  0.00     0.059 A 
ATOM    106  F   UNL     1       1.543  -1.398 -21.842  1.00  0.00    -0.206 F 
ATOM    107  C   UNL     1       4.414   0.117 -20.263  1.00  0.00     0.060 A 
BRANCH 107 108
ATOM    108  S   UNL     1       6.184  -0.186 -20.073  1.00  0.00     0.124 S 
ATOM    109  O   UNL     1       6.750   0.719 -21.069  1.00  0.00    -0.237 OA
ATOM    110  O   UNL     1       6.429   0.181 -18.682  1.00  0.00    -0.237 OA
ATOM    111  O   UNL     1       6.318  -1.606 -20.383  1.00  0.00    -0.744 OA
ENDBRANCH 107 108
ENDBRANCH  75 100
ENDBRANCH  49  50
ENDBRANCH  41  44
ENDBRANCH  39  40
ENDBRANCH   1  39
TORSDOF 18
