REMARK SMILES CS(=O)(=O)c1ccc(/C=C(/C(=O)NCCCCNC(=O)c2ccc(-c3c4nc(c(-c5c(F)cc(S(=O)(=O)[O-])cc5F)c5ccc([nH]5)c(-c5c(F)cc(S(=O)(=O)[O-])cc5F)c5nc(c(-c6c(F)cc(S(=O)(=O)[O-])cc6F)c6ccc3[nH]6)C=C5)C=C4)cc2)c2cccc(Br)c2)cc1
REMARK SMILES IDX 16 1 15 2 14 3 13 4 11 5 12 6 10 8 9 9 8 10 5 11 6 12 95 13
REMARK SMILES IDX 7 14 94 15 2 16 1 17 3 18 4 19 87 20 88 21 93 22 89 23 91 24
REMARK SMILES IDX 90 25 92 26 17 27 18 28 19 29 20 31 21 32 22 33 86 34 23 35
REMARK SMILES IDX 85 36 24 37 25 38 26 39 79 40 27 41 84 42 78 43 80 44 28 45
REMARK SMILES IDX 83 46 77 47 76 48 29 50 63 51 42 52 62 53 43 54 46 55 61 56
REMARK SMILES IDX 81 57 44 58 45 59 60 61 82 62 47 63 30 64 31 65 40 66 32 67
REMARK SMILES IDX 33 68 39 69 41 70 34 71 35 72 36 73 37 74 38 75 64 76 65 77
REMARK SMILES IDX 74 78 66 79 67 80 73 81 75 82 68 83 69 84 70 85 71 86 72 87
REMARK SMILES IDX 48 88 49 89 58 90 50 91 51 92 57 93 59 94 52 95 53 96 54 97
REMARK SMILES IDX 55 98 56 99
REMARK H PARENT 13 7 18 30 80 49 46 60
REMARK Flexibility Score: inf
ROOT
ATOM      1  C   UNL     1       2.709  -7.737   8.331  1.00  0.00     0.023 C 
ENDROOT
BRANCH   1   2
ATOM      2  C   UNL     1       2.577  -6.609   7.298  1.00  0.00     0.023 C 
BRANCH   2   3
ATOM      3  C   UNL     1       3.346  -6.846   5.995  1.00  0.00     0.116 C 
BRANCH   3   4
ATOM      4  N   UNL     1       2.687  -7.859   5.195  1.00  0.00    -0.352 N 
ATOM      5  C   UNL     1       1.838  -7.820   4.133  1.00  0.00     0.251 C 
ATOM      6  O   UNL     1       1.449  -8.914   3.714  1.00  0.00    -0.269 OA
ATOM      7  H   UNL     1       2.901  -8.776   5.482  1.00  0.00     0.163 HD
BRANCH   5   8
ATOM      8  C   UNL     1       1.431  -6.547   3.420  1.00  0.00     0.047 C 
ATOM      9  C   UNL     1       1.293  -5.366   4.064  1.00  0.00     0.022 C 
BRANCH   9  10
ATOM     10  C   UNL     1       0.995  -4.023   3.518  1.00  0.00    -0.025 A 
ATOM     11  C   UNL     1       0.620  -1.438   2.495  1.00  0.00     0.067 A 
ATOM     12  C   UNL     1      -0.211  -2.478   2.075  1.00  0.00     0.021 A 
ATOM     13  C   UNL     1       1.598  -1.658   3.463  1.00  0.00     0.021 A 
ATOM     14  C   UNL     1      -0.031  -3.761   2.602  1.00  0.00     0.009 A 
ATOM     15  C   UNL     1       1.784  -2.950   3.966  1.00  0.00     0.009 A 
BRANCH  11  16
ATOM     16  S   UNL     1       0.394   0.187   1.812  1.00  0.00     0.175 S 
ATOM     17  C   UNL     1       1.161   0.076   0.217  1.00  0.00     0.163 C 
ATOM     18  O   UNL     1       1.161   1.119   2.611  1.00  0.00    -0.224 OA
ATOM     19  O   UNL     1      -1.034   0.376   1.614  1.00  0.00    -0.224 OA
ENDBRANCH  11  16
ENDBRANCH   9  10
BRANCH   8  20
ATOM     20  C   UNL     1       1.012  -6.681   1.999  1.00  0.00    -0.012 A 
ATOM     21  C   UNL     1      -0.154  -7.412   1.706  1.00  0.00     0.009 A 
ATOM     22  C   UNL     1       1.689  -6.037   0.956  1.00  0.00     0.024 A 
ATOM     23  C   UNL     1      -0.650  -7.481   0.405  1.00  0.00     0.002 A 
ATOM     24  C   UNL     1       1.172  -6.092  -0.341  1.00  0.00     0.018 A 
ATOM     25  C   UNL     1       0.008  -6.809  -0.621  1.00  0.00     0.016 A 
ATOM     26  Br  UNL     1       2.033  -5.141  -1.731  1.00  0.00    -0.051 Br
ENDBRANCH   8  20
ENDBRANCH   5   8
ENDBRANCH   3   4
ENDBRANCH   2   3
ENDBRANCH   1   2
BRANCH   1  27
ATOM     27  C   UNL     1       4.128  -8.014   8.827  1.00  0.00     0.116 C 
BRANCH  27  28
ATOM     28  N   UNL     1       4.781  -6.834   9.370  1.00  0.00    -0.352 N 
ATOM     29  C   UNL     1       5.716  -6.739  10.370  1.00  0.00     0.251 C 
ATOM     30  H   UNL     1       4.514  -5.980   8.960  1.00  0.00     0.163 HD
ATOM     31  O   UNL     1       6.070  -5.628  10.757  1.00  0.00    -0.269 OA
BRANCH  29  32
ATOM     32  C   UNL     1       6.262  -7.958  11.006  1.00  0.00     0.039 A 
ATOM     33  C   UNL     1       6.372  -7.984  12.399  1.00  0.00     0.014 A 
ATOM     34  C   UNL     1       6.675  -9.059  10.251  1.00  0.00     0.014 A 
ATOM     35  C   UNL     1       6.837  -9.136  13.037  1.00  0.00     0.010 A 
ATOM     36  C   UNL     1       7.084 -10.229  10.891  1.00  0.00     0.010 A 
ATOM     37  C   UNL     1       7.165 -10.280  12.290  1.00  0.00    -0.014 A 
BRANCH  37  38
ATOM     38  C   UNL     1       7.559 -11.537  12.974  1.00  0.00     0.031 A 
ATOM     39  C   UNL     1       8.953 -12.085  12.839  1.00  0.00     0.074 A 
ATOM     40  C   UNL     1       6.636 -12.209  13.689  1.00  0.00     0.049 A 
ATOM     41  N   UNL     1       9.472 -13.159  13.377  1.00  0.00    -0.248 NA
ATOM     42  C   UNL     1       9.878 -11.343  11.968  1.00  0.00     0.031 C 
ATOM     43  C   UNL     1       5.231 -11.817  13.837  1.00  0.00     0.029 A 
ATOM     44  N   UNL     1       6.736 -13.362  14.426  1.00  0.00    -0.354 N 
ATOM     45  C   UNL     1      10.778 -13.227  12.908  1.00  0.00     0.074 A 
ATOM     46  C   UNL     1      10.957 -12.113  12.001  1.00  0.00     0.031 C 
ATOM     47  C   UNL     1       4.611 -12.696  14.639  1.00  0.00     0.029 A 
ATOM     48  C   UNL     1       5.563 -13.724  15.045  1.00  0.00     0.049 A 
ATOM     49  H   UNL     1       7.569 -13.881  14.504  1.00  0.00     0.167 HD
ATOM     50  C   UNL     1      11.745 -14.123  13.221  1.00  0.00     0.037 A 
ATOM     51  C   UNL     1       5.289 -14.761  15.859  1.00  0.00     0.037 A 
ATOM     52  C   UNL     1      11.568 -15.219  14.140  1.00  0.00     0.049 A 
ATOM     53  C   UNL     1       6.390 -15.715  16.227  1.00  0.00     0.074 A 
ATOM     54  C   UNL     1      12.502 -16.147  14.567  1.00  0.00     0.029 A 
ATOM     55  N   UNL     1      10.376 -15.534  14.776  1.00  0.00    -0.354 N 
ATOM     56  N   UNL     1       7.640 -15.723  15.828  1.00  0.00    -0.248 NA
ATOM     57  C   UNL     1       6.049 -16.790  17.168  1.00  0.00     0.031 C 
ATOM     58  C   UNL     1      11.867 -17.041  15.438  1.00  0.00     0.029 A 
ATOM     59  C   UNL     1      10.546 -16.647  15.583  1.00  0.00     0.049 A 
ATOM     60  H   UNL     1       9.531 -15.038  14.669  1.00  0.00     0.167 HD
ATOM     61  C   UNL     1       8.240 -16.792  16.485  1.00  0.00     0.074 A 
ATOM     62  C   UNL     1       7.219 -17.393  17.320  1.00  0.00     0.031 C 
ATOM     63  C   UNL     1       9.518 -17.237  16.403  1.00  0.00     0.037 A 
BRANCH  50  64
ATOM     64  C   UNL     1      13.090 -13.948  12.569  1.00  0.00     0.058 A 
ATOM     65  C   UNL     1      13.947 -12.895  12.928  1.00  0.00     0.135 A 
ATOM     66  C   UNL     1      13.540 -14.854  11.596  1.00  0.00     0.135 A 
ATOM     67  F   UNL     1      13.560 -11.990  13.842  1.00  0.00    -0.206 F 
ATOM     68  C   UNL     1      15.189 -12.729  12.324  1.00  0.00     0.059 A 
ATOM     69  C   UNL     1      14.789 -14.722  10.996  1.00  0.00     0.059 A 
ATOM     70  F   UNL     1      12.761 -15.879  11.215  1.00  0.00    -0.206 F 
ATOM     71  C   UNL     1      15.600 -13.646  11.356  1.00  0.00     0.060 A 
BRANCH  71  72
ATOM     72  S   UNL     1      17.214 -13.417  10.579  1.00  0.00     0.124 S 
ATOM     73  O   UNL     1      16.942 -12.310   9.667  1.00  0.00    -0.237 OA
ATOM     74  O   UNL     1      18.070 -13.103  11.718  1.00  0.00    -0.237 OA
ATOM     75  O   UNL     1      17.470 -14.706   9.944  1.00  0.00    -0.744 OA
ENDBRANCH  71  72
ENDBRANCH  50  64
BRANCH  51  76
ATOM     76  C   UNL     1       3.921 -14.921  16.418  1.00  0.00     0.058 A 
ATOM     77  C   UNL     1       3.659 -14.645  17.767  1.00  0.00     0.135 A 
ATOM     78  C   UNL     1       2.849 -15.331  15.612  1.00  0.00     0.135 A 
ATOM     79  F   UNL     1       4.655 -14.253  18.577  1.00  0.00    -0.206 F 
ATOM     80  C   UNL     1       2.385 -14.784  18.305  1.00  0.00     0.059 A 
ATOM     81  C   UNL     1       1.560 -15.456  16.121  1.00  0.00     0.059 A 
ATOM     82  F   UNL     1       3.046 -15.587  14.309  1.00  0.00    -0.206 F 
ATOM     83  C   UNL     1       1.340 -15.189  17.472  1.00  0.00     0.060 A 
BRANCH  83  84
ATOM     84  S   UNL     1      -0.324 -15.313  18.164  1.00  0.00     0.124 S 
ATOM     85  O   UNL     1      -0.241 -16.567  18.904  1.00  0.00    -0.237 OA
ATOM     86  O   UNL     1      -0.414 -14.100  18.970  1.00  0.00    -0.237 OA
ATOM     87  O   UNL     1      -1.176 -15.332  16.978  1.00  0.00    -0.744 OA
ENDBRANCH  83  84
ENDBRANCH  51  76
BRANCH  63  88
ATOM     88  C   UNL     1       9.882 -18.418  17.258  1.00  0.00     0.058 A 
ATOM     89  C   UNL     1       9.431 -19.712  16.954  1.00  0.00     0.135 A 
ATOM     90  C   UNL     1      10.689 -18.253  18.395  1.00  0.00     0.135 A 
ATOM     91  F   UNL     1       8.653 -19.922  15.880  1.00  0.00    -0.206 F 
ATOM     92  C   UNL     1       9.733 -20.797  17.771  1.00  0.00     0.059 A 
ATOM     93  C   UNL     1      11.024 -19.328  19.212  1.00  0.00     0.059 A 
ATOM     94  F   UNL     1      11.156 -17.038  18.723  1.00  0.00    -0.206 F 
ATOM     95  C   UNL     1      10.523 -20.592  18.904  1.00  0.00     0.060 A 
BRANCH  95  96
ATOM     96  S   UNL     1      10.902 -22.002  19.966  1.00  0.00     0.124 S 
ATOM     97  O   UNL     1       9.664 -22.137  20.725  1.00  0.00    -0.237 OA
ATOM     98  O   UNL     1      11.174 -23.063  19.001  1.00  0.00    -0.237 OA
ATOM     99  O   UNL     1      12.061 -21.547  20.729  1.00  0.00    -0.744 OA
ENDBRANCH  95  96
ENDBRANCH  63  88
ENDBRANCH  37  38
ENDBRANCH  29  32
ENDBRANCH  27  28
ENDBRANCH   1  27
TORSDOF 17
