REMARK SMILES O=C(Cc1cccn1-c1ccc2c(c1)OCCO2)NCCCCNC(=O)c1ccc(-c2c3nc(c(-c4c(F)cc(S(=O)(=O)[O-])cc4F)c4ccc([nH]4)c(-c4c(F)cc(S(=O)(=O)[O-])cc4F)c4nc(c(-c5c(F)cc(S(=O)(=O)[O-])cc5F)c5ccc2[nH]5)C=C4)C=C3)cc1
REMARK SMILES IDX 22 1 21 2 20 3 19 4 1 5 2 6 3 8 4 9 5 10 8 11 6 12 7 13 9 14
REMARK SMILES IDX 10 15 14 16 11 17 13 18 12 19 15 20 18 21 16 22 17 23 23 24
REMARK SMILES IDX 24 25 25 26 26 28 27 29 28 30 92 31 29 32 91 33 30 34 31 35
REMARK SMILES IDX 32 36 85 37 33 38 90 39 84 40 86 41 34 42 89 43 83 44 82 45
REMARK SMILES IDX 35 47 69 48 48 49 68 50 49 51 52 52 67 53 87 54 50 55 51 56
REMARK SMILES IDX 66 58 88 59 53 60 36 61 37 62 46 63 38 64 39 65 45 66 47 67
REMARK SMILES IDX 40 68 41 69 42 70 43 71 44 72 70 73 71 74 80 75 72 76 73 77
REMARK SMILES IDX 79 78 81 79 74 80 75 81 76 82 77 83 78 84 54 85 55 86 64 87
REMARK SMILES IDX 56 88 57 89 63 90 65 91 58 92 59 93 60 94 61 95 62 96
REMARK H PARENT 19 7 24 27 86 46 52 57
REMARK Flexibility Score: inf
ROOT
ATOM      1  C   UNL     1       3.767  -3.651   1.740  1.00  0.00     0.023 C 
ENDROOT
BRANCH   1   2
ATOM      2  C   UNL     1       2.307  -3.220   1.539  1.00  0.00     0.023 C 
BRANCH   2   3
ATOM      3  C   UNL     1       2.039  -1.715   1.643  1.00  0.00     0.116 C 
BRANCH   3   4
ATOM      4  N   UNL     1       2.787  -0.947   0.667  1.00  0.00    -0.356 N 
ATOM      5  O   UNL     1       1.033   0.345  -0.055  1.00  0.00    -0.275 OA
ATOM      6  C   UNL     1       2.229   0.066  -0.088  1.00  0.00     0.225 C 
ATOM      7  H   UNL     1       3.740  -1.157   0.537  1.00  0.00     0.163 HD
BRANCH   6   8
ATOM      8  C   UNL     1       3.204   0.772  -1.029  1.00  0.00     0.154 C 
BRANCH   8   9
ATOM      9  C   UNL     1       3.948   1.880  -0.337  1.00  0.00     0.032 A 
ATOM     10  C   UNL     1       3.615   3.228  -0.341  1.00  0.00     0.024 A 
ATOM     11  N   UNL     1       5.045   1.728   0.509  1.00  0.00    -0.320 N 
ATOM     12  C   UNL     1       4.460   3.894   0.568  1.00  0.00     0.020 A 
ATOM     13  C   UNL     1       5.293   2.945   1.109  1.00  0.00     0.091 A 
BRANCH  11  14
ATOM     14  C   UNL     1       5.779   0.548   0.797  1.00  0.00     0.049 A 
ATOM     15  C   UNL     1       6.102   0.263   2.129  1.00  0.00     0.031 A 
ATOM     16  C   UNL     1       6.154  -0.334  -0.223  1.00  0.00     0.077 A 
ATOM     17  C   UNL     1       6.745  -0.933   2.440  1.00  0.00     0.052 A 
ATOM     18  C   UNL     1       6.792  -1.532   0.100  1.00  0.00     0.163 A 
ATOM     19  C   UNL     1       7.090  -1.829   1.431  1.00  0.00     0.161 A 
ATOM     20  O   UNL     1       7.074  -2.382  -0.938  1.00  0.00    -0.486 OA
ATOM     21  O   UNL     1       7.669  -3.004   1.833  1.00  0.00    -0.486 OA
ATOM     22  C   UNL     1       7.335  -3.711  -0.472  1.00  0.00     0.271 C 
ATOM     23  C   UNL     1       8.258  -3.707   0.736  1.00  0.00     0.271 C 
ENDBRANCH  11  14
ENDBRANCH   8   9
ENDBRANCH   6   8
ENDBRANCH   3   4
ENDBRANCH   2   3
ENDBRANCH   1   2
BRANCH   1  24
ATOM     24  C   UNL     1       4.347  -3.348   3.122  1.00  0.00     0.116 C 
BRANCH  24  25
ATOM     25  N   UNL     1       3.845  -4.244   4.145  1.00  0.00    -0.352 N 
ATOM     26  C   UNL     1       4.343  -4.436   5.415  1.00  0.00     0.251 C 
ATOM     27  H   UNL     1       3.054  -4.778   3.904  1.00  0.00     0.163 HD
ATOM     28  O   UNL     1       4.122  -5.505   5.977  1.00  0.00    -0.269 OA
BRANCH  26  29
ATOM     29  C   UNL     1       5.141  -3.391   6.112  1.00  0.00     0.039 A 
ATOM     30  C   UNL     1       6.150  -3.810   6.991  1.00  0.00     0.014 A 
ATOM     31  C   UNL     1       4.843  -2.027   6.005  1.00  0.00     0.014 A 
ATOM     32  C   UNL     1       6.879  -2.871   7.722  1.00  0.00     0.010 A 
ATOM     33  C   UNL     1       5.587  -1.083   6.717  1.00  0.00     0.010 A 
ATOM     34  C   UNL     1       6.612  -1.502   7.574  1.00  0.00    -0.014 A 
BRANCH  34  35
ATOM     35  C   UNL     1       7.550  -0.523   8.189  1.00  0.00     0.031 A 
ATOM     36  C   UNL     1       8.872  -0.430   7.382  1.00  0.00     0.074 A 
ATOM     37  C   UNL     1       7.152   0.099   9.345  1.00  0.00     0.049 A 
ATOM     38  N   UNL     1      10.080  -0.144   7.759  1.00  0.00    -0.248 NA
ATOM     39  C   UNL     1       8.855  -0.801   5.939  1.00  0.00     0.031 C 
ATOM     40  C   UNL     1       5.814  -0.044   9.963  1.00  0.00     0.029 A 
ATOM     41  N   UNL     1       7.758   0.970  10.234  1.00  0.00    -0.354 N 
ATOM     42  C   UNL     1      10.902  -0.095   6.602  1.00  0.00     0.074 A 
ATOM     43  C   UNL     1      10.114  -0.622   5.532  1.00  0.00     0.031 C 
ATOM     44  C   UNL     1       5.742   0.625  11.137  1.00  0.00     0.029 A 
ATOM     45  C   UNL     1       7.007   1.280  11.409  1.00  0.00     0.049 A 
ATOM     46  H   UNL     1       8.650   1.352  10.068  1.00  0.00     0.167 HD
ATOM     47  C   UNL     1      12.139   0.491   6.580  1.00  0.00     0.037 A 
ATOM     48  C   UNL     1       7.392   1.968  12.535  1.00  0.00     0.037 A 
ATOM     49  C   UNL     1      12.455   0.961   7.884  1.00  0.00     0.049 A 
ATOM     50  C   UNL     1       8.729   2.484  12.214  1.00  0.00     0.074 A 
ATOM     51  C   UNL     1      12.773   0.311   9.047  1.00  0.00     0.029 A 
ATOM     52  N   UNL     1      12.098   2.256   8.165  1.00  0.00    -0.354 N 
ATOM     53  N   UNL     1       8.971   3.478  11.415  1.00  0.00    -0.248 NA
ATOM     54  C   UNL     1       9.894   1.785  12.774  1.00  0.00     0.031 C 
ATOM     55  C   UNL     1      12.112   1.077  10.026  1.00  0.00     0.029 A 
ATOM     56  C   UNL     1      11.642   2.267   9.457  1.00  0.00     0.049 A 
ATOM     57  H   UNL     1      12.158   3.027   7.557  1.00  0.00     0.167 HD
ATOM     58  C   UNL     1      10.299   3.294  11.126  1.00  0.00     0.074 A 
ATOM     59  C   UNL     1      10.857   2.496  12.196  1.00  0.00     0.031 C 
ATOM     60  C   UNL     1      10.704   3.296   9.834  1.00  0.00     0.037 A 
BRANCH  47  61
ATOM     61  C   UNL     1      13.063   0.935   5.469  1.00  0.00     0.058 A 
ATOM     62  C   UNL     1      14.403   1.263   5.811  1.00  0.00     0.135 A 
ATOM     63  C   UNL     1      12.627   1.385   4.216  1.00  0.00     0.135 A 
ATOM     64  F   UNL     1      14.952   0.818   6.955  1.00  0.00    -0.206 F 
ATOM     65  C   UNL     1      15.194   2.111   5.043  1.00  0.00     0.059 A 
ATOM     66  C   UNL     1      13.425   2.202   3.403  1.00  0.00     0.059 A 
ATOM     67  F   UNL     1      11.392   1.112   3.775  1.00  0.00    -0.206 F 
ATOM     68  C   UNL     1      14.681   2.606   3.853  1.00  0.00     0.060 A 
BRANCH  68  69
ATOM     69  S   UNL     1      15.671   3.804   2.934  1.00  0.00     0.124 S 
ATOM     70  O   UNL     1      15.570   4.988   3.779  1.00  0.00    -0.237 OA
ATOM     71  O   UNL     1      16.982   3.161   2.904  1.00  0.00    -0.237 OA
ATOM     72  O   UNL     1      14.992   3.881   1.644  1.00  0.00    -0.744 OA
ENDBRANCH  68  69
ENDBRANCH  47  61
BRANCH  48  73
ATOM     73  C   UNL     1       6.926   2.231  13.964  1.00  0.00     0.058 A 
ATOM     74  C   UNL     1       5.697   1.866  14.527  1.00  0.00     0.135 A 
ATOM     75  C   UNL     1       7.841   2.790  14.911  1.00  0.00     0.135 A 
ATOM     76  F   UNL     1       4.676   1.474  13.755  1.00  0.00    -0.206 F 
ATOM     77  C   UNL     1       5.467   1.884  15.922  1.00  0.00     0.059 A 
ATOM     78  C   UNL     1       7.663   2.764  16.292  1.00  0.00     0.059 A 
ATOM     79  F   UNL     1       8.990   3.367  14.534  1.00  0.00    -0.206 F 
ATOM     80  C   UNL     1       6.481   2.271  16.799  1.00  0.00     0.060 A 
BRANCH  80  81
ATOM     81  S   UNL     1       6.334   2.013  18.582  1.00  0.00     0.124 S 
ATOM     82  O   UNL     1       5.600   3.199  19.006  1.00  0.00    -0.237 OA
ATOM     83  O   UNL     1       5.604   0.750  18.657  1.00  0.00    -0.237 OA
ATOM     84  O   UNL     1       7.725   1.941  19.026  1.00  0.00    -0.744 OA
ENDBRANCH  80  81
ENDBRANCH  48  73
BRANCH  60  85
ATOM     85  C   UNL     1       9.863   4.134   8.894  1.00  0.00     0.058 A 
ATOM     86  C   UNL     1       9.852   5.529   9.047  1.00  0.00     0.135 A 
ATOM     87  C   UNL     1       9.023   3.615   7.892  1.00  0.00     0.135 A 
ATOM     88  F   UNL     1      10.618   6.102   9.989  1.00  0.00    -0.206 F 
ATOM     89  C   UNL     1       9.076   6.363   8.240  1.00  0.00     0.059 A 
ATOM     90  C   UNL     1       8.242   4.427   7.062  1.00  0.00     0.059 A 
ATOM     91  F   UNL     1       8.935   2.297   7.694  1.00  0.00    -0.206 F 
ATOM     92  C   UNL     1       8.280   5.805   7.240  1.00  0.00     0.060 A 
BRANCH  92  93
ATOM     93  S   UNL     1       7.334   6.910   6.165  1.00  0.00     0.124 S 
ATOM     94  O   UNL     1       6.455   7.589   7.111  1.00  0.00    -0.237 OA
ATOM     95  O   UNL     1       8.384   7.734   5.577  1.00  0.00    -0.237 OA
ATOM     96  O   UNL     1       6.664   6.000   5.238  1.00  0.00    -0.744 OA
ENDBRANCH  92  93
ENDBRANCH  60  85
ENDBRANCH  34  35
ENDBRANCH  26  29
ENDBRANCH  24  25
ENDBRANCH   1  24
TORSDOF 16
