REMARK SMILES NS(=O)(=O)c1ccc(NS(=O)(=O)c2cccc(C(=O)NCCCCNC(=O)c3ccc(-c4c5nc(c(-c6c(F)cc(S(=O)(=O)[O-])cc6F)c6ccc([nH]6)c(-c6c(F)cc(S(=O)(=O)[O-])cc6F)c6nc(c(-c7c(F)cc(S(=O)(=O)[O-])cc7F)c7ccc4[nH]7)C=C6)C=C5)cc3)c2)cc1
REMARK SMILES IDX 21 1 20 2 18 3 19 4 17 6 13 7 14 8 94 9 15 10 16 11 10 12
REMARK SMILES IDX 11 13 12 14 9 15 8 17 5 18 6 19 96 20 7 21 95 22 2 23 3 24
REMARK SMILES IDX 4 25 1 26 22 29 23 30 24 31 25 32 26 33 27 35 28 36 29 37
REMARK SMILES IDX 93 38 30 39 92 40 31 41 32 42 33 43 86 44 34 45 91 46 85 47
REMARK SMILES IDX 87 48 35 49 90 50 84 51 83 52 36 54 70 55 49 56 69 57 50 58
REMARK SMILES IDX 53 59 68 60 88 61 51 62 52 63 67 65 89 66 54 67 37 68 38 69
REMARK SMILES IDX 47 70 39 71 40 72 46 73 48 74 41 75 42 76 43 77 44 78 45 79
REMARK SMILES IDX 71 80 72 81 81 82 73 83 74 84 80 85 82 86 75 87 76 88 77 89
REMARK SMILES IDX 78 90 79 91 55 92 56 93 65 94 57 95 58 96 64 97 66 98 59 99
REMARK SMILES IDX 60 100 61 101 62 102 63 103
REMARK H PARENT 20 5 9 16 1 27 1 28 25 34 87 53 53 64
REMARK Flexibility Score: inf
ROOT
ATOM      1  C   UNL     1       4.688   0.759  -3.461  1.00  0.00     0.116 C 
ENDROOT
BRANCH   1   2
ATOM      2  N   UNL     1       5.199  -0.598  -3.471  1.00  0.00    -0.352 N 
ATOM      3  C   UNL     1       5.265  -1.553  -4.462  1.00  0.00     0.251 C 
ATOM      4  O   UNL     1       5.797  -2.629  -4.190  1.00  0.00    -0.269 OA
ATOM      5  H   UNL     1       5.570  -0.892  -2.608  1.00  0.00     0.163 HD
BRANCH   3   6
ATOM      6  C   UNL     1       4.647  -1.382  -5.811  1.00  0.00     0.041 A 
ATOM      7  C   UNL     1       3.552  -0.066  -7.501  1.00  0.00     0.088 A 
ATOM      8  C   UNL     1       3.088  -1.215  -8.147  1.00  0.00     0.022 A 
ATOM      9  C   UNL     1       4.444  -0.149  -6.428  1.00  0.00     0.036 A 
ATOM     10  C   UNL     1       3.428  -2.462  -7.634  1.00  0.00     0.002 A 
ATOM     11  C   UNL     1       4.163  -2.542  -6.447  1.00  0.00     0.014 A 
BRANCH   7  12
ATOM     12  S   UNL     1       2.695   1.474  -7.778  1.00  0.00     0.261 S 
ATOM     13  O   UNL     1       1.481   1.191  -8.513  1.00  0.00    -0.201 OA
ATOM     14  O   UNL     1       3.679   2.413  -8.272  1.00  0.00    -0.201 OA
BRANCH  12  15
ATOM     15  N   UNL     1       2.258   2.011  -6.248  1.00  0.00    -0.280 N 
ATOM     16  H   UNL     1       2.633   2.877  -5.966  1.00  0.00     0.180 HD
BRANCH  15  17
ATOM     17  C   UNL     1       1.404   1.356  -5.306  1.00  0.00     0.049 A 
ATOM     18  C   UNL     1       0.304   0.101  -3.040  1.00  0.00     0.082 A 
ATOM     19  C   UNL     1       0.658  -0.656  -4.155  1.00  0.00     0.024 A 
ATOM     20  C   UNL     1       0.408   1.492  -3.079  1.00  0.00     0.024 A 
ATOM     21  C   UNL     1       1.175  -0.022  -5.291  1.00  0.00     0.028 A 
ATOM     22  C   UNL     1       0.972   2.110  -4.205  1.00  0.00     0.028 A 
BRANCH  18  23
ATOM     23  S   UNL     1      -0.142  -0.719  -1.533  1.00  0.00     0.238 S 
ATOM     24  O   UNL     1       0.343  -2.083  -1.589  1.00  0.00    -0.207 OA
ATOM     25  O   UNL     1      -1.505  -0.384  -1.220  1.00  0.00    -0.207 OA
BRANCH  23  26
ATOM     26  N   UNL     1       0.829   0.040  -0.388  1.00  0.00    -0.225 NA
ATOM     27  H   UNL     1       0.648  -0.363   0.532  1.00  0.00     0.137 HD
ATOM     28  H   UNL     1       0.616   1.038  -0.370  1.00  0.00     0.137 HD
ENDBRANCH  23  26
ENDBRANCH  18  23
ENDBRANCH  15  17
ENDBRANCH  12  15
ENDBRANCH   7  12
ENDBRANCH   3   6
ENDBRANCH   1   2
BRANCH   1  29
ATOM     29  C   UNL     1       3.802   1.102  -2.276  1.00  0.00     0.023 C 
BRANCH  29  30
ATOM     30  C   UNL     1       4.453   1.157  -0.908  1.00  0.00     0.023 C 
BRANCH  30  31
ATOM     31  C   UNL     1       5.747   1.949  -0.829  1.00  0.00     0.116 C 
BRANCH  31  32
ATOM     32  N   UNL     1       5.637   3.317  -1.317  1.00  0.00    -0.352 N 
ATOM     33  C   UNL     1       6.010   4.498  -0.714  1.00  0.00     0.251 C 
ATOM     34  H   UNL     1       5.237   3.412  -2.211  1.00  0.00     0.163 HD
ATOM     35  O   UNL     1       5.767   5.566  -1.268  1.00  0.00    -0.269 OA
BRANCH  33  36
ATOM     36  C   UNL     1       6.651   4.473   0.619  1.00  0.00     0.039 A 
ATOM     37  C   UNL     1       6.197   5.354   1.603  1.00  0.00     0.014 A 
ATOM     38  C   UNL     1       7.651   3.546   0.916  1.00  0.00     0.014 A 
ATOM     39  C   UNL     1       6.676   5.235   2.910  1.00  0.00     0.010 A 
ATOM     40  C   UNL     1       8.047   3.359   2.235  1.00  0.00     0.010 A 
ATOM     41  C   UNL     1       7.564   4.200   3.247  1.00  0.00    -0.014 A 
BRANCH  41  42
ATOM     42  C   UNL     1       8.005   3.979   4.648  1.00  0.00     0.031 A 
ATOM     43  C   UNL     1       9.467   4.064   4.997  1.00  0.00     0.074 A 
ATOM     44  C   UNL     1       7.106   3.619   5.586  1.00  0.00     0.049 A 
ATOM     45  N   UNL     1      10.061   3.813   6.134  1.00  0.00    -0.248 NA
ATOM     46  C   UNL     1      10.388   4.446   3.913  1.00  0.00     0.031 C 
ATOM     47  C   UNL     1       5.670   3.432   5.359  1.00  0.00     0.029 A 
ATOM     48  N   UNL     1       7.267   3.333   6.919  1.00  0.00    -0.354 N 
ATOM     49  C   UNL     1      11.421   3.978   5.896  1.00  0.00     0.074 A 
ATOM     50  C   UNL     1      11.569   4.296   4.493  1.00  0.00     0.031 C 
ATOM     51  C   UNL     1       5.080   3.092   6.517  1.00  0.00     0.029 A 
ATOM     52  C   UNL     1       6.096   3.003   7.561  1.00  0.00     0.049 A 
ATOM     53  H   UNL     1       8.140   3.361   7.373  1.00  0.00     0.167 HD
ATOM     54  C   UNL     1      12.451   3.902   6.771  1.00  0.00     0.037 A 
ATOM     55  C   UNL     1       5.868   2.667   8.845  1.00  0.00     0.037 A 
ATOM     56  C   UNL     1      12.294   3.636   8.176  1.00  0.00     0.049 A 
ATOM     57  C   UNL     1       7.021   2.635   9.809  1.00  0.00     0.074 A 
ATOM     58  C   UNL     1      13.265   3.610   9.161  1.00  0.00     0.029 A 
ATOM     59  N   UNL     1      11.085   3.359   8.797  1.00  0.00    -0.354 N 
ATOM     60  N   UNL     1       8.293   2.858   9.579  1.00  0.00    -0.248 NA
ATOM     61  C   UNL     1       6.710   2.316  11.209  1.00  0.00     0.031 C 
ATOM     62  C   UNL     1      12.647   3.291  10.375  1.00  0.00     0.029 A 
ATOM     63  C   UNL     1      11.286   3.153  10.151  1.00  0.00     0.049 A 
ATOM     64  H   UNL     1      10.213   3.316   8.342  1.00  0.00     0.167 HD
ATOM     65  C   UNL     1       8.930   2.730  10.808  1.00  0.00     0.074 A 
ATOM     66  C   UNL     1       7.902   2.422  11.781  1.00  0.00     0.031 C 
ATOM     67  C   UNL     1      10.247   2.857  11.105  1.00  0.00     0.037 A 
BRANCH  54  68
ATOM     68  C   UNL     1      13.836   4.130   6.232  1.00  0.00     0.058 A 
ATOM     69  C   UNL     1      14.262   5.402   5.818  1.00  0.00     0.135 A 
ATOM     70  C   UNL     1      14.753   3.071   6.145  1.00  0.00     0.135 A 
ATOM     71  F   UNL     1      13.419   6.446   5.863  1.00  0.00    -0.206 F 
ATOM     72  C   UNL     1      15.537   5.611   5.303  1.00  0.00     0.059 A 
ATOM     73  C   UNL     1      16.043   3.262   5.658  1.00  0.00     0.059 A 
ATOM     74  F   UNL     1      14.397   1.835   6.526  1.00  0.00    -0.206 F 
ATOM     75  C   UNL     1      16.419   4.533   5.224  1.00  0.00     0.060 A 
BRANCH  75  76
ATOM     76  S   UNL     1      18.070   4.817   4.551  1.00  0.00     0.124 S 
ATOM     77  O   UNL     1      17.787   4.915   3.122  1.00  0.00    -0.237 OA
ATOM     78  O   UNL     1      18.465   6.061   5.205  1.00  0.00    -0.237 OA
ATOM     79  O   UNL     1      18.814   3.631   4.965  1.00  0.00    -0.744 OA
ENDBRANCH  75  76
ENDBRANCH  54  68
BRANCH  55  80
ATOM     80  C   UNL     1       4.484   2.372   9.302  1.00  0.00     0.058 A 
ATOM     81  C   UNL     1       3.787   3.281  10.111  1.00  0.00     0.135 A 
ATOM     82  C   UNL     1       3.826   1.191   8.927  1.00  0.00     0.135 A 
ATOM     83  F   UNL     1       4.376   4.422  10.498  1.00  0.00    -0.206 F 
ATOM     84  C   UNL     1       2.491   3.025  10.546  1.00  0.00     0.059 A 
ATOM     85  C   UNL     1       2.522   0.921   9.332  1.00  0.00     0.059 A 
ATOM     86  F   UNL     1       4.444   0.299   8.137  1.00  0.00    -0.206 F 
ATOM     87  C   UNL     1       1.866   1.841  10.150  1.00  0.00     0.060 A 
BRANCH  87  88
ATOM     88  S   UNL     1       0.163   1.542  10.671  1.00  0.00     0.124 S 
ATOM     89  O   UNL     1       0.346   1.161  12.067  1.00  0.00    -0.237 OA
ATOM     90  O   UNL     1      -0.463   2.840  10.439  1.00  0.00    -0.237 OA
ATOM     91  O   UNL     1      -0.277   0.476   9.776  1.00  0.00    -0.744 OA
ENDBRANCH  87  88
ENDBRANCH  55  80
BRANCH  67  92
ATOM     92  C   UNL     1      10.647   2.694  12.543  1.00  0.00     0.058 A 
ATOM     93  C   UNL     1      10.691   1.432  13.155  1.00  0.00     0.135 A 
ATOM     94  C   UNL     1      11.038   3.808  13.301  1.00  0.00     0.135 A 
ATOM     95  F   UNL     1      10.321   0.337  12.473  1.00  0.00    -0.206 F 
ATOM     96  C   UNL     1      11.088   1.283  14.479  1.00  0.00     0.059 A 
ATOM     97  C   UNL     1      11.462   3.680  14.620  1.00  0.00     0.059 A 
ATOM     98  F   UNL     1      11.024   5.036  12.757  1.00  0.00    -0.206 F 
ATOM     99  C   UNL     1      11.472   2.414  15.204  1.00  0.00     0.060 A 
BRANCH  99 100
ATOM    100  S   UNL     1      12.016   2.206  16.913  1.00  0.00     0.124 S 
ATOM    101  O   UNL     1      10.745   2.017  17.604  1.00  0.00    -0.237 OA
ATOM    102  O   UNL     1      12.874   1.028  16.828  1.00  0.00    -0.237 OA
ATOM    103  O   UNL     1      12.710   3.458  17.201  1.00  0.00    -0.744 OA
ENDBRANCH  99 100
ENDBRANCH  67  92
ENDBRANCH  41  42
ENDBRANCH  33  36
ENDBRANCH  31  32
ENDBRANCH  30  31
ENDBRANCH  29  30
ENDBRANCH   1  29
TORSDOF 19
