REMARK SMILES C[C@H]1C[N@H+]2CCCC[C@@H]2CN1c1ccc(C(=O)NCCCCNC(=O)c2ccc(-c3c4nc(c(-c5c(F)cc(S(=O)(=O)[O-])cc5F)c5ccc([nH]5)c(-c5c(F)cc(S(=O)(=O)[O-])cc5F)c5nc(c(-c6c(F)cc(S(=O)(=O)[O-])cc6F)c6ccc3[nH]6)C=C5)C=C4)cc2)cc1Cl
REMARK SMILES IDX 21 1 20 2 19 3 18 4 16 5 17 6 15 8 12 9 13 10 93 11 14 12
REMARK SMILES IDX 92 13 94 14 11 15 1 16 2 17 3 18 4 19 10 20 5 21 9 22 6 24
REMARK SMILES IDX 8 25 7 26 22 27 23 28 24 29 25 31 26 32 27 33 91 34 28 35
REMARK SMILES IDX 90 36 29 37 30 38 31 39 84 40 32 41 89 42 83 43 85 44 33 45
REMARK SMILES IDX 88 46 82 47 81 48 34 50 68 51 47 52 67 53 48 54 51 55 66 56
REMARK SMILES IDX 86 57 49 58 50 59 65 61 87 62 52 63 35 64 36 65 45 66 37 67
REMARK SMILES IDX 38 68 44 69 46 70 39 71 40 72 41 73 42 74 43 75 69 76 70 77
REMARK SMILES IDX 79 78 71 79 72 80 78 81 80 82 73 83 74 84 75 85 76 86 77 87
REMARK SMILES IDX 53 88 54 89 63 90 55 91 56 92 62 93 64 94 57 95 58 96 59 97
REMARK SMILES IDX 60 98 61 99
REMARK H PARENT 18 7 4 23 23 30 85 49 51 60
REMARK Flexibility Score: inf
ROOT
ATOM      1  C   UNL     1      -5.485   3.075   5.188  1.00  0.00     0.023 C 
ENDROOT
BRANCH   1   2
ATOM      2  C   UNL     1      -4.946   2.359   3.945  1.00  0.00     0.023 C 
BRANCH   2   3
ATOM      3  C   UNL     1      -5.235   3.090   2.631  1.00  0.00     0.116 C 
BRANCH   3   4
ATOM      4  N   UNL     1      -4.244   4.120   2.392  1.00  0.00    -0.352 N 
ATOM      5  C   UNL     1      -3.097   4.151   1.641  1.00  0.00     0.251 C 
ATOM      6  O   UNL     1      -2.467   5.210   1.616  1.00  0.00    -0.269 OA
ATOM      7  H   UNL     1      -4.431   4.965   2.862  1.00  0.00     0.163 HD
BRANCH   5   8
ATOM      8  C   UNL     1      -2.587   2.998   0.844  1.00  0.00     0.041 A 
ATOM      9  C   UNL     1      -1.407   0.914  -0.701  1.00  0.00     0.056 A 
ATOM     10  C   UNL     1      -1.094   2.257  -0.940  1.00  0.00     0.028 A 
ATOM     11  C   UNL     1      -2.351   0.642   0.306  1.00  0.00     0.065 A 
ATOM     12  C   UNL     1      -1.675   3.283  -0.184  1.00  0.00     0.016 A 
ATOM     13  C   UNL     1      -2.896   1.663   1.091  1.00  0.00     0.036 A 
ATOM     14  Cl  UNL     1      -2.827  -0.978   0.706  1.00  0.00    -0.082 Cl
BRANCH   9  15
ATOM     15  N   UNL     1      -0.731  -0.095  -1.359  1.00  0.00    -0.356 N 
ATOM     16  C   UNL     1       1.300   0.205   0.062  1.00  0.00     0.037 C 
ATOM     17  C   UNL     1       0.735  -0.241  -1.298  1.00  0.00     0.134 C 
ATOM     18  C   UNL     1       1.168  -1.737  -1.491  1.00  0.00     0.287 C 
ATOM     19  N   UNL     1       0.367  -2.619  -2.376  1.00  0.00    -0.329 N 
ATOM     20  C   UNL     1      -1.427  -0.869  -2.389  1.00  0.00     0.182 C 
ATOM     21  C   UNL     1       0.664  -4.026  -2.042  1.00  0.00     0.262 C 
ATOM     22  C   UNL     1      -1.085  -2.363  -2.194  1.00  0.00     0.203 C 
ATOM     23  H   UNL     1       0.612  -2.428  -3.348  1.00  0.00     0.348 HD
ATOM     24  C   UNL     1      -0.110  -4.997  -2.931  1.00  0.00     0.062 C 
ATOM     25  C   UNL     1      -1.892  -3.240  -3.161  1.00  0.00     0.067 C 
ATOM     26  C   UNL     1      -1.609  -4.718  -2.905  1.00  0.00     0.012 C 
ENDBRANCH   9  15
ENDBRANCH   5   8
ENDBRANCH   3   4
ENDBRANCH   2   3
ENDBRANCH   1   2
BRANCH   1  27
ATOM     27  C   UNL     1      -6.998   3.274   5.209  1.00  0.00     0.116 C 
BRANCH  27  28
ATOM     28  N   UNL     1      -7.740   2.038   5.027  1.00  0.00    -0.352 N 
ATOM     29  C   UNL     1      -8.974   1.691   5.523  1.00  0.00     0.251 C 
ATOM     30  H   UNL     1      -7.298   1.355   4.472  1.00  0.00     0.163 HD
ATOM     31  O   UNL     1      -9.396   0.555   5.367  1.00  0.00    -0.269 OA
BRANCH  29  32
ATOM     32  C   UNL     1      -9.762   2.688   6.280  1.00  0.00     0.039 A 
ATOM     33  C   UNL     1     -10.348   2.295   7.484  1.00  0.00     0.014 A 
ATOM     34  C   UNL     1      -9.909   3.999   5.819  1.00  0.00     0.014 A 
ATOM     35  C   UNL     1     -11.031   3.236   8.255  1.00  0.00     0.010 A 
ATOM     36  C   UNL     1     -10.524   4.953   6.625  1.00  0.00     0.010 A 
ATOM     37  C   UNL     1     -11.092   4.582   7.851  1.00  0.00    -0.014 A 
BRANCH  37  38
ATOM     38  C   UNL     1     -11.725   5.599   8.728  1.00  0.00     0.031 A 
ATOM     39  C   UNL     1     -12.960   6.336   8.287  1.00  0.00     0.074 A 
ATOM     40  C   UNL     1     -11.163   5.871   9.923  1.00  0.00     0.049 A 
ATOM     41  N   UNL     1     -13.669   7.220   8.942  1.00  0.00    -0.248 NA
ATOM     42  C   UNL     1     -13.449   6.067   6.925  1.00  0.00     0.031 C 
ATOM     43  C   UNL     1      -9.924   5.274  10.429  1.00  0.00     0.029 A 
ATOM     44  N   UNL     1     -11.560   6.711  10.932  1.00  0.00    -0.354 N 
ATOM     45  C   UNL     1     -14.685   7.609   8.078  1.00  0.00     0.074 A 
ATOM     46  C   UNL     1     -14.464   6.914   6.828  1.00  0.00     0.031 C 
ATOM     47  C   UNL     1      -9.688   5.731  11.668  1.00  0.00     0.029 A 
ATOM     48  C   UNL     1     -10.736   6.678  12.033  1.00  0.00     0.049 A 
ATOM     49  H   UNL     1     -12.359   7.283  10.874  1.00  0.00     0.167 HD
ATOM     50  C   UNL     1     -15.724   8.447   8.314  1.00  0.00     0.037 A 
ATOM     51  C   UNL     1     -10.820   7.330  13.208  1.00  0.00     0.037 A 
ATOM     52  C   UNL     1     -15.941   9.125   9.566  1.00  0.00     0.049 A 
ATOM     53  C   UNL     1     -11.991   8.243  13.451  1.00  0.00     0.074 A 
ATOM     54  C   UNL     1     -16.992   9.951   9.928  1.00  0.00     0.029 A 
ATOM     55  N   UNL     1     -15.091   9.063  10.662  1.00  0.00    -0.354 N 
ATOM     56  N   UNL     1     -12.989   8.536  12.651  1.00  0.00    -0.248 NA
ATOM     57  C   UNL     1     -12.053   8.904  14.760  1.00  0.00     0.031 C 
ATOM     58  C   UNL     1     -16.751  10.427  11.221  1.00  0.00     0.029 A 
ATOM     59  C   UNL     1     -15.580   9.854  11.689  1.00  0.00     0.049 A 
ATOM     60  H   UNL     1     -14.261   8.534  10.702  1.00  0.00     0.167 HD
ATOM     61  C   UNL     1     -13.809   9.400  13.368  1.00  0.00     0.074 A 
ATOM     62  C   UNL     1     -13.204   9.557  14.675  1.00  0.00     0.031 C 
ATOM     63  C   UNL     1     -14.957  10.011  12.981  1.00  0.00     0.037 A 
BRANCH  50  64
ATOM     64  C   UNL     1     -16.710   8.671   7.198  1.00  0.00     0.058 A 
ATOM     65  C   UNL     1     -17.582   7.656   6.769  1.00  0.00     0.135 A 
ATOM     66  C   UNL     1     -16.816   9.927   6.577  1.00  0.00     0.135 A 
ATOM     67  F   UNL     1     -17.515   6.431   7.314  1.00  0.00    -0.206 F 
ATOM     68  C   UNL     1     -18.504   7.870   5.750  1.00  0.00     0.059 A 
ATOM     69  C   UNL     1     -17.753  10.172   5.576  1.00  0.00     0.059 A 
ATOM     70  F   UNL     1     -16.008  10.933   6.945  1.00  0.00    -0.206 F 
ATOM     71  C   UNL     1     -18.584   9.133   5.161  1.00  0.00     0.060 A 
BRANCH  71  72
ATOM     72  S   UNL     1     -19.798   9.396   3.850  1.00  0.00     0.124 S 
ATOM     73  O   UNL     1     -19.211   8.634   2.752  1.00  0.00    -0.237 OA
ATOM     74  O   UNL     1     -21.012   8.834   4.433  1.00  0.00    -0.237 OA
ATOM     75  O   UNL     1     -19.802  10.845   3.676  1.00  0.00    -0.744 OA
ENDBRANCH  71  72
ENDBRANCH  50  64
BRANCH  51  76
ATOM     76  C   UNL     1      -9.784   7.118  14.255  1.00  0.00     0.058 A 
ATOM     77  C   UNL     1     -10.085   6.445  15.448  1.00  0.00     0.135 A 
ATOM     78  C   UNL     1      -8.470   7.578  14.080  1.00  0.00     0.135 A 
ATOM     79  F   UNL     1     -11.329   5.989  15.665  1.00  0.00    -0.206 F 
ATOM     80  C   UNL     1      -9.129   6.255  16.441  1.00  0.00     0.059 A 
ATOM     81  C   UNL     1      -7.488   7.375  15.045  1.00  0.00     0.059 A 
ATOM     82  F   UNL     1      -8.123   8.211  12.948  1.00  0.00    -0.206 F 
ATOM     83  C   UNL     1      -7.832   6.723  16.228  1.00  0.00     0.060 A 
BRANCH  83  84
ATOM     84  S   UNL     1      -6.587   6.436  17.505  1.00  0.00     0.124 S 
ATOM     85  O   UNL     1      -7.000   7.381  18.536  1.00  0.00    -0.237 OA
ATOM     86  O   UNL     1      -6.786   5.024  17.814  1.00  0.00    -0.237 OA
ATOM     87  O   UNL     1      -5.333   6.750  16.826  1.00  0.00    -0.744 OA
ENDBRANCH  83  84
ENDBRANCH  51  76
BRANCH  63  88
ATOM     88  C   UNL     1     -15.636  10.891  13.996  1.00  0.00     0.058 A 
ATOM     89  C   UNL     1     -15.077  12.112  14.408  1.00  0.00     0.135 A 
ATOM     90  C   UNL     1     -16.861  10.508  14.567  1.00  0.00     0.135 A 
ATOM     91  F   UNL     1     -13.907  12.526  13.896  1.00  0.00    -0.206 F 
ATOM     92  C   UNL     1     -15.680  12.894  15.387  1.00  0.00     0.059 A 
ATOM     93  C   UNL     1     -17.499  11.292  15.522  1.00  0.00     0.059 A 
ATOM     94  F   UNL     1     -17.450   9.359  14.198  1.00  0.00    -0.206 F 
ATOM     95  C   UNL     1     -16.888  12.472  15.944  1.00  0.00     0.060 A 
BRANCH  95  96
ATOM     96  S   UNL     1     -17.651  13.486  17.227  1.00  0.00     0.124 S 
ATOM     97  O   UNL     1     -16.793  13.203  18.373  1.00  0.00    -0.237 OA
ATOM     98  O   UNL     1     -17.543  14.830  16.670  1.00  0.00    -0.237 OA
ATOM     99  O   UNL     1     -19.009  12.957  17.314  1.00  0.00    -0.744 OA
ENDBRANCH  95  96
ENDBRANCH  63  88
ENDBRANCH  37  38
ENDBRANCH  29  32
ENDBRANCH  27  28
ENDBRANCH   1  27
TORSDOF 15
