REMARK SMILES NC(=O)C[C@H](NC(=O)C1(c2ccccc2)CCN(C(=O)[C@@H]2CCC[NH2+]2)CC1)C(=O)NCCCCNC(=O)c1ccc(-c2c3nc(c(-c4c(F)cc(S(=O)(=O)[O-])cc4F)c4ccc([nH]4)c(-c4c(F)cc(S(=O)(=O)[O-])cc4F)c4nc(c(-c5c(F)cc(S(=O)(=O)[O-])cc5F)c5ccc2[nH]5)C=C4)C=C3)cc1
REMARK SMILES IDX 32 1 31 2 30 3 28 4 29 5 5 7 4 8 2 9 1 10 3 13 6 14 7 15
REMARK SMILES IDX 8 17 9 18 16 19 27 20 17 21 26 22 18 23 19 24 20 25 10 26
REMARK SMILES IDX 11 27 15 28 12 29 14 30 13 31 21 32 22 33 25 34 23 35 24 36
REMARK SMILES IDX 33 39 34 40 35 41 36 42 37 44 38 45 39 46 103 47 40 48
REMARK SMILES IDX 102 49 41 50 42 51 43 52 96 53 44 54 101 55 95 56 97 57
REMARK SMILES IDX 45 58 100 59 94 60 93 61 46 63 80 64 59 65 79 66 60 67 63 68
REMARK SMILES IDX 78 69 98 70 61 71 62 72 77 74 99 75 64 76 47 77 48 78 57 79
REMARK SMILES IDX 49 80 50 81 56 82 58 83 51 84 52 85 53 86 54 87 55 88 81 89
REMARK SMILES IDX 82 90 91 91 83 92 84 93 90 94 92 95 85 96 86 97 87 98 88 99
REMARK SMILES IDX 89 100 65 101 66 102 75 103 67 104 68 105 74 106 76 107
REMARK SMILES IDX 69 108 70 109 71 110 72 111 73 112
REMARK H PARENT 30 6 1 11 1 12 6 16 25 37 25 38 35 43 97 62 63 73
REMARK Flexibility Score: inf
ROOT
ATOM      1  C   UNL     1       3.125  -5.210  -1.146  1.00  0.00     0.023 C 
ENDROOT
BRANCH   1   2
ATOM      2  C   UNL     1       3.423  -3.749  -1.452  1.00  0.00     0.116 C 
BRANCH   2   3
ATOM      3  N   UNL     1       3.269  -3.410  -2.851  1.00  0.00    -0.354 N 
ATOM      4  C   UNL     1       2.836  -2.272  -3.454  1.00  0.00     0.243 C 
ATOM      5  O   UNL     1       3.062  -2.155  -4.664  1.00  0.00    -0.273 OA
ATOM      6  H   UNL     1       3.521  -4.129  -3.474  1.00  0.00     0.163 HD
BRANCH   4   7
ATOM      7  C   UNL     1       2.150  -1.112  -2.704  1.00  0.00     0.180 C 
BRANCH   7   8
ATOM      8  C   UNL     1       3.119  -0.157  -1.999  1.00  0.00     0.134 C 
BRANCH   8   9
ATOM      9  C   UNL     1       3.914  -0.727  -0.857  1.00  0.00     0.220 C 
ATOM     10  N   UNL     1       3.252  -0.859   0.327  1.00  0.00    -0.370 N 
ATOM     11  H   UNL     1       3.718  -1.226   1.113  1.00  0.00     0.159 HD
ATOM     12  H   UNL     1       2.308  -0.587   0.396  1.00  0.00     0.159 HD
ATOM     13  O   UNL     1       5.089  -1.056  -0.957  1.00  0.00    -0.275 OA
ENDBRANCH   8   9
ENDBRANCH   7   8
BRANCH   7  14
ATOM     14  N   UNL     1       1.011  -1.506  -1.875  1.00  0.00    -0.343 N 
ATOM     15  C   UNL     1      -0.323  -1.310  -1.889  1.00  0.00     0.231 C 
ATOM     16  H   UNL     1       1.292  -2.055  -1.107  1.00  0.00     0.164 HD
ATOM     17  O   UNL     1      -0.890  -1.878  -0.939  1.00  0.00    -0.274 OA
BRANCH  15  18
ATOM     18  C   UNL     1      -1.182  -0.471  -2.894  1.00  0.00     0.077 C 
ATOM     19  C   UNL     1      -0.527   0.466  -3.931  1.00  0.00     0.043 C 
ATOM     20  C   UNL     1      -2.041   0.459  -1.978  1.00  0.00     0.043 C 
ATOM     21  C   UNL     1       0.174   1.698  -3.369  1.00  0.00     0.121 C 
ATOM     22  C   UNL     1      -1.179   1.530  -1.318  1.00  0.00     0.121 C 
ATOM     23  N   UNL     1      -0.571   2.390  -2.326  1.00  0.00    -0.337 N 
ATOM     24  C   UNL     1      -0.384   3.769  -2.235  1.00  0.00     0.280 C 
ATOM     25  O   UNL     1       0.425   4.341  -2.976  1.00  0.00    -0.268 OA
BRANCH  18  26
ATOM     26  C   UNL     1      -2.053  -1.466  -3.712  1.00  0.00    -0.032 A 
ATOM     27  C   UNL     1      -3.459  -1.436  -3.713  1.00  0.00     0.005 A 
ATOM     28  C   UNL     1      -1.422  -2.415  -4.542  1.00  0.00     0.005 A 
ATOM     29  C   UNL     1      -4.202  -2.294  -4.530  1.00  0.00     0.000 A 
ATOM     30  C   UNL     1      -2.167  -3.275  -5.355  1.00  0.00     0.000 A 
ATOM     31  C   UNL     1      -3.557  -3.209  -5.355  1.00  0.00     0.000 A 
ENDBRANCH  18  26
BRANCH  24  32
ATOM     32  C   UNL     1      -1.155   4.622  -1.213  1.00  0.00     0.272 C 
ATOM     33  C   UNL     1      -0.730   4.464   0.234  1.00  0.00     0.081 C 
ATOM     34  N   UNL     1      -2.625   4.438  -1.266  1.00  0.00    -0.336 N 
ATOM     35  C   UNL     1      -1.977   4.880   0.988  1.00  0.00     0.068 C 
ATOM     36  C   UNL     1      -3.114   4.381   0.113  1.00  0.00     0.261 C 
ATOM     37  H   UNL     1      -2.850   3.568  -1.751  1.00  0.00     0.346 HD
ATOM     38  H   UNL     1      -3.065   5.207  -1.771  1.00  0.00     0.346 HD
ENDBRANCH  24  32
ENDBRANCH  15  18
ENDBRANCH   7  14
ENDBRANCH   4   7
ENDBRANCH   2   3
ENDBRANCH   1   2
BRANCH   1  39
ATOM     39  C   UNL     1       4.116  -6.209  -1.739  1.00  0.00     0.023 C 
BRANCH  39  40
ATOM     40  C   UNL     1       5.592  -5.888  -1.520  1.00  0.00     0.116 C 
BRANCH  40  41
ATOM     41  N   UNL     1       5.943  -5.679  -0.120  1.00  0.00    -0.352 N 
ATOM     42  C   UNL     1       6.927  -6.287   0.633  1.00  0.00     0.251 C 
ATOM     43  H   UNL     1       5.401  -5.010   0.356  1.00  0.00     0.163 HD
ATOM     44  O   UNL     1       7.038  -6.054   1.821  1.00  0.00    -0.269 OA
BRANCH  42  45
ATOM     45  C   UNL     1       7.810  -7.267  -0.033  1.00  0.00     0.039 A 
ATOM     46  C   UNL     1       7.851  -8.573   0.458  1.00  0.00     0.014 A 
ATOM     47  C   UNL     1       8.487  -6.918  -1.204  1.00  0.00     0.014 A 
ATOM     48  C   UNL     1       8.477  -9.565  -0.298  1.00  0.00     0.010 A 
ATOM     49  C   UNL     1       9.047  -7.920  -1.988  1.00  0.00     0.010 A 
ATOM     50  C   UNL     1       9.018  -9.256  -1.557  1.00  0.00    -0.014 A 
BRANCH  50  51
ATOM     51  C   UNL     1       9.492 -10.321  -2.477  1.00  0.00     0.031 A 
ATOM     52  C   UNL     1      10.930 -10.364  -2.904  1.00  0.00     0.074 A 
ATOM     53  C   UNL     1       8.597 -11.180  -3.008  1.00  0.00     0.049 A 
ATOM     54  N   UNL     1      11.502 -11.136  -3.790  1.00  0.00    -0.248 NA
ATOM     55  C   UNL     1      11.837  -9.392  -2.274  1.00  0.00     0.031 C 
ATOM     56  C   UNL     1       7.161 -11.198  -2.715  1.00  0.00     0.029 A 
ATOM     57  N   UNL     1       8.758 -12.190  -3.923  1.00  0.00    -0.354 N 
ATOM     58  C   UNL     1      12.830 -10.733  -3.839  1.00  0.00     0.074 A 
ATOM     59  C   UNL     1      12.969  -9.620  -2.924  1.00  0.00     0.031 C 
ATOM     60  C   UNL     1       6.578 -12.179  -3.423  1.00  0.00     0.029 A 
ATOM     61  C   UNL     1       7.587 -12.832  -4.251  1.00  0.00     0.049 A 
ATOM     62  H   UNL     1       9.631 -12.434  -4.308  1.00  0.00     0.167 HD
ATOM     63  C   UNL     1      13.844 -11.258  -4.566  1.00  0.00     0.037 A 
ATOM     64  C   UNL     1       7.347 -13.822  -5.132  1.00  0.00     0.037 A 
ATOM     65  C   UNL     1      13.706 -12.385  -5.448  1.00  0.00     0.049 A 
ATOM     66  C   UNL     1       8.488 -14.382  -5.934  1.00  0.00     0.074 A 
ATOM     67  C   UNL     1      14.691 -13.048  -6.158  1.00  0.00     0.029 A 
ATOM     68  N   UNL     1      12.505 -13.013  -5.747  1.00  0.00    -0.354 N 
ATOM     69  N   UNL     1       9.754 -14.039  -5.911  1.00  0.00    -0.248 NA
ATOM     70  C   UNL     1       8.171 -15.454  -6.887  1.00  0.00     0.031 C 
ATOM     71  C   UNL     1      14.081 -14.054  -6.915  1.00  0.00     0.029 A 
ATOM     72  C   UNL     1      12.720 -14.038  -6.653  1.00  0.00     0.049 A 
ATOM     73  H   UNL     1      11.630 -12.766  -5.371  1.00  0.00     0.167 HD
ATOM     74  C   UNL     1      10.386 -14.857  -6.840  1.00  0.00     0.074 A 
ATOM     75  C   UNL     1       9.367 -15.725  -7.395  1.00  0.00     0.031 C 
ATOM     76  C   UNL     1      11.691 -14.885  -7.202  1.00  0.00     0.037 A 
BRANCH  63  77
ATOM     77  C   UNL     1      15.197 -10.622  -4.425  1.00  0.00     0.058 A 
ATOM     78  C   UNL     1      15.967 -10.788  -3.262  1.00  0.00     0.135 A 
ATOM     79  C   UNL     1      15.743  -9.861  -5.470  1.00  0.00     0.135 A 
ATOM     80  F   UNL     1      15.484 -11.494  -2.227  1.00  0.00    -0.206 F 
ATOM     81  C   UNL     1      17.219 -10.199  -3.130  1.00  0.00     0.059 A 
ATOM     82  C   UNL     1      17.004  -9.281  -5.369  1.00  0.00     0.059 A 
ATOM     83  F   UNL     1      15.047  -9.670  -6.602  1.00  0.00    -0.206 F 
ATOM     84  C   UNL     1      17.728  -9.443  -4.188  1.00  0.00     0.060 A 
BRANCH  84  85
ATOM     85  S   UNL     1      19.355  -8.684  -4.001  1.00  0.00     0.124 S 
ATOM     86  O   UNL     1      19.051  -7.562  -3.118  1.00  0.00    -0.237 OA
ATOM     87  O   UNL     1      20.138  -9.763  -3.406  1.00  0.00    -0.237 OA
ATOM     88  O   UNL     1      19.721  -8.327  -5.368  1.00  0.00    -0.744 OA
ENDBRANCH  84  85
ENDBRANCH  63  77
BRANCH  64  89
ATOM     89  C   UNL     1       5.968 -14.349  -5.299  1.00  0.00     0.058 A 
ATOM     90  C   UNL     1       5.616 -15.610  -4.798  1.00  0.00     0.135 A 
ATOM     91  C   UNL     1       4.971 -13.597  -5.940  1.00  0.00     0.135 A 
ATOM     92  F   UNL     1       6.537 -16.368  -4.184  1.00  0.00    -0.206 F 
ATOM     93  C   UNL     1       4.325 -16.112  -4.931  1.00  0.00     0.059 A 
ATOM     94  C   UNL     1       3.669 -14.069  -6.068  1.00  0.00     0.059 A 
ATOM     95  F   UNL     1       5.255 -12.377  -6.423  1.00  0.00    -0.206 F 
ATOM     96  C   UNL     1       3.357 -15.332  -5.566  1.00  0.00     0.060 A 
BRANCH  96  97
ATOM     97  S   UNL     1       1.669 -15.966  -5.680  1.00  0.00     0.124 S 
ATOM     98  O   UNL     1       1.795 -16.943  -6.754  1.00  0.00    -0.237 OA
ATOM     99  O   UNL     1       1.452 -16.509  -4.343  1.00  0.00    -0.237 OA
ATOM    100  O   UNL     1       0.887 -14.774  -5.997  1.00  0.00    -0.744 OA
ENDBRANCH  96  97
ENDBRANCH  64  89
BRANCH  76 101
ATOM    101  C   UNL     1      12.096 -15.881  -8.249  1.00  0.00     0.058 A 
ATOM    102  C   UNL     1      11.819 -15.661  -9.606  1.00  0.00     0.135 A 
ATOM    103  C   UNL     1      12.829 -17.027  -7.902  1.00  0.00     0.135 A 
ATOM    104  F   UNL     1      11.113 -14.585  -9.986  1.00  0.00    -0.206 F 
ATOM    105  C   UNL     1      12.252 -16.547 -10.587  1.00  0.00     0.059 A 
ATOM    106  C   UNL     1      13.289 -17.916  -8.868  1.00  0.00     0.059 A 
ATOM    107  F   UNL     1      13.123 -17.278  -6.617  1.00  0.00    -0.206 F 
ATOM    108  C   UNL     1      12.991 -17.670 -10.208  1.00  0.00     0.060 A 
BRANCH 108 109
ATOM    109  S   UNL     1      13.598 -18.781 -11.495  1.00  0.00     0.124 S 
ATOM    110  O   UNL     1      12.383 -19.503 -11.857  1.00  0.00    -0.237 OA
ATOM    111  O   UNL     1      14.107 -17.851 -12.499  1.00  0.00    -0.237 OA
ATOM    112  O   UNL     1      14.617 -19.570 -10.808  1.00  0.00    -0.744 OA
ENDBRANCH 108 109
ENDBRANCH  76 101
ENDBRANCH  50  51
ENDBRANCH  42  45
ENDBRANCH  40  41
ENDBRANCH  39  40
ENDBRANCH   1  39
TORSDOF 20
