REMARK SMILES Cc1cccc(OCC(=O)Nc2cc(C(=O)NCCCCNC(=O)c3ccc(-c4c5nc(c(-c6c(F)cc(S(=O)(=O)[O-])cc6F)c6ccc([nH]6)c(-c6c(F)cc(S(=O)(=O)[O-])cc6F)c6nc(c(-c7c(F)cc(S(=O)(=O)[O-])cc7F)c7ccc4[nH]7)C=C6)C=C5)cc3)c(Cl)cc2Cl)c1
REMARK SMILES IDX 19 1 18 2 17 3 15 4 16 5 14 7 12 8 13 9 94 10 93 11 95 12
REMARK SMILES IDX 91 13 92 14 11 15 9 16 10 17 8 19 7 20 6 21 1 22 2 23 3 24
REMARK SMILES IDX 96 25 4 26 5 27 20 28 21 29 22 30 23 31 24 33 25 34 26 35
REMARK SMILES IDX 90 36 27 37 89 38 28 39 29 40 30 41 83 42 31 43 88 44 82 45
REMARK SMILES IDX 84 46 32 47 87 48 81 49 80 50 33 52 67 53 46 54 66 55 47 56
REMARK SMILES IDX 50 57 65 58 85 59 48 60 49 61 64 63 86 64 51 65 34 66 35 67
REMARK SMILES IDX 44 68 36 69 37 70 43 71 45 72 38 73 39 74 40 75 41 76 42 77
REMARK SMILES IDX 68 78 69 79 78 80 70 81 71 82 77 83 79 84 72 85 73 86 74 87
REMARK SMILES IDX 75 88 76 89 52 90 53 91 62 92 54 93 55 94 61 95 63 96 56 97
REMARK SMILES IDX 57 98 58 99 59 100 60 101
REMARK H PARENT 17 6 11 18 22 32 84 51 50 62
REMARK Flexibility Score: inf
ROOT
ATOM      1  C   UNL     1      -3.466  -1.323   1.178  1.00  0.00     0.023 C 
ENDROOT
BRANCH   1   2
ATOM      2  C   UNL     1      -3.672   0.131   0.743  1.00  0.00     0.116 C 
BRANCH   2   3
ATOM      3  N   UNL     1      -5.026   0.637   0.826  1.00  0.00    -0.352 N 
ATOM      4  C   UNL     1      -5.489   1.848   1.292  1.00  0.00     0.252 C 
ATOM      5  O   UNL     1      -6.632   2.192   0.997  1.00  0.00    -0.269 OA
ATOM      6  H   UNL     1      -5.721   0.022   0.500  1.00  0.00     0.163 HD
BRANCH   4   7
ATOM      7  C   UNL     1      -4.682   2.731   2.182  1.00  0.00     0.060 A 
ATOM      8  C   UNL     1      -2.619   3.944   2.700  1.00  0.00     0.061 A 
ATOM      9  C   UNL     1      -3.384   3.168   1.820  1.00  0.00     0.043 A 
ATOM     10  C   UNL     1      -3.221   4.373   3.904  1.00  0.00     0.066 A 
ATOM     11  C   UNL     1      -4.526   4.020   4.233  1.00  0.00     0.044 A 
ATOM     12  Cl  UNL     1      -2.358   5.367   5.037  1.00  0.00    -0.082 Cl
ATOM     13  C   UNL     1      -5.250   3.183   3.387  1.00  0.00     0.055 A 
ATOM     14  Cl  UNL     1      -6.822   2.720   3.947  1.00  0.00    -0.083 Cl
BRANCH   8  15
ATOM     15  N   UNL     1      -1.268   4.304   2.530  1.00  0.00    -0.322 N 
ATOM     16  C   UNL     1      -0.317   4.212   1.566  1.00  0.00     0.262 C 
ATOM     17  O   UNL     1       0.811   4.615   1.882  1.00  0.00    -0.271 OA
ATOM     18  H   UNL     1      -0.914   4.745   3.337  1.00  0.00     0.170 HD
BRANCH  16  19
ATOM     19  C   UNL     1      -0.594   3.748   0.144  1.00  0.00     0.329 C 
BRANCH  19  20
ATOM     20  O   UNL     1      -0.896   2.388  -0.073  1.00  0.00    -0.484 OA
BRANCH  20  21
ATOM     21  C   UNL     1       0.051   1.440   0.179  1.00  0.00     0.120 A 
ATOM     22  C   UNL     1       3.654   0.658   1.106  1.00  0.00     0.044 C 
ATOM     23  C   UNL     1       2.188   0.505   0.836  1.00  0.00    -0.047 A 
ATOM     24  C   UNL     1       1.669  -0.788   0.707  1.00  0.00     0.003 A 
ATOM     25  C   UNL     1       1.366   1.623   0.590  1.00  0.00     0.049 A 
ATOM     26  C   UNL     1       0.374  -0.971   0.258  1.00  0.00     0.004 A 
ATOM     27  C   UNL     1      -0.401   0.142  -0.039  1.00  0.00     0.046 A 
ENDBRANCH  20  21
ENDBRANCH  19  20
ENDBRANCH  16  19
ENDBRANCH   8  15
ENDBRANCH   4   7
ENDBRANCH   2   3
ENDBRANCH   1   2
BRANCH   1  28
ATOM     28  C   UNL     1      -3.772  -2.437   0.170  1.00  0.00     0.023 C 
BRANCH  28  29
ATOM     29  C   UNL     1      -3.095  -2.356  -1.204  1.00  0.00     0.116 C 
BRANCH  29  30
ATOM     30  N   UNL     1      -2.178  -3.464  -1.478  1.00  0.00    -0.352 N 
ATOM     31  C   UNL     1      -1.677  -3.914  -2.698  1.00  0.00     0.251 C 
ATOM     32  H   UNL     1      -1.870  -3.962  -0.686  1.00  0.00     0.163 HD
ATOM     33  O   UNL     1      -0.975  -4.902  -2.765  1.00  0.00    -0.269 OA
BRANCH  31  34
ATOM     34  C   UNL     1      -1.992  -3.117  -3.905  1.00  0.00     0.039 A 
ATOM     35  C   UNL     1      -0.951  -2.463  -4.571  1.00  0.00     0.014 A 
ATOM     36  C   UNL     1      -3.319  -2.821  -4.184  1.00  0.00     0.014 A 
ATOM     37  C   UNL     1      -1.237  -1.338  -5.342  1.00  0.00     0.010 A 
ATOM     38  C   UNL     1      -3.591  -1.647  -4.853  1.00  0.00     0.010 A 
ATOM     39  C   UNL     1      -2.547  -0.874  -5.389  1.00  0.00    -0.014 A 
BRANCH  39  40
ATOM     40  C   UNL     1      -2.951   0.436  -5.894  1.00  0.00     0.031 A 
ATOM     41  C   UNL     1      -3.824   0.524  -7.089  1.00  0.00     0.074 A 
ATOM     42  C   UNL     1      -2.720   1.528  -5.133  1.00  0.00     0.049 A 
ATOM     43  N   UNL     1      -4.163   1.613  -7.689  1.00  0.00    -0.248 NA
ATOM     44  C   UNL     1      -4.359  -0.669  -7.735  1.00  0.00     0.031 C 
ATOM     45  C   UNL     1      -3.453   2.791  -5.158  1.00  0.00     0.029 A 
ATOM     46  N   UNL     1      -1.627   1.779  -4.302  1.00  0.00    -0.354 N 
ATOM     47  C   UNL     1      -5.155   1.309  -8.600  1.00  0.00     0.074 A 
ATOM     48  C   UNL     1      -5.196  -0.133  -8.625  1.00  0.00     0.031 C 
ATOM     49  C   UNL     1      -2.709   3.741  -4.568  1.00  0.00     0.029 A 
ATOM     50  C   UNL     1      -1.394   3.166  -4.335  1.00  0.00     0.049 A 
ATOM     51  H   UNL     1      -1.116   1.111  -3.790  1.00  0.00     0.167 HD
ATOM     52  C   UNL     1      -5.911   2.319  -9.124  1.00  0.00     0.037 A 
ATOM     53  C   UNL     1      -0.243   3.675  -4.870  1.00  0.00     0.037 A 
ATOM     54  C   UNL     1      -5.356   3.623  -8.751  1.00  0.00     0.049 A 
ATOM     55  C   UNL     1      -0.460   4.590  -6.052  1.00  0.00     0.074 A 
ATOM     56  C   UNL     1      -5.686   4.541  -7.767  1.00  0.00     0.029 A 
ATOM     57  N   UNL     1      -4.106   4.002  -9.235  1.00  0.00    -0.354 N 
ATOM     58  N   UNL     1      -1.534   4.600  -6.791  1.00  0.00    -0.248 NA
ATOM     59  C   UNL     1       0.536   5.561  -6.496  1.00  0.00     0.031 C 
ATOM     60  C   UNL     1      -4.595   5.434  -7.614  1.00  0.00     0.029 A 
ATOM     61  C   UNL     1      -3.610   5.074  -8.518  1.00  0.00     0.049 A 
ATOM     62  H   UNL     1      -3.640   3.565  -9.985  1.00  0.00     0.167 HD
ATOM     63  C   UNL     1      -1.370   5.491  -7.821  1.00  0.00     0.074 A 
ATOM     64  C   UNL     1      -0.077   6.099  -7.564  1.00  0.00     0.031 C 
ATOM     65  C   UNL     1      -2.298   5.636  -8.813  1.00  0.00     0.037 A 
BRANCH  52  66
ATOM     66  C   UNL     1      -7.310   2.129  -9.704  1.00  0.00     0.058 A 
ATOM     67  C   UNL     1      -8.258   3.178  -9.656  1.00  0.00     0.135 A 
ATOM     68  C   UNL     1      -7.818   0.927 -10.237  1.00  0.00     0.135 A 
ATOM     69  F   UNL     1      -7.912   4.420  -9.290  1.00  0.00    -0.206 F 
ATOM     70  C   UNL     1      -9.611   3.007  -9.973  1.00  0.00     0.059 A 
ATOM     71  C   UNL     1      -9.174   0.713 -10.509  1.00  0.00     0.059 A 
ATOM     72  F   UNL     1      -7.014  -0.081 -10.587  1.00  0.00    -0.206 F 
ATOM     73  C   UNL     1     -10.071   1.757 -10.359  1.00  0.00     0.060 A 
BRANCH  73  74
ATOM     74  S   UNL     1     -11.829   1.523 -10.678  1.00  0.00     0.124 S 
ATOM     75  O   UNL     1     -12.433   1.979  -9.430  1.00  0.00    -0.237 OA
ATOM     76  O   UNL     1     -12.044   2.380 -11.839  1.00  0.00    -0.237 OA
ATOM     77  O   UNL     1     -11.941   0.089 -10.931  1.00  0.00    -0.744 OA
ENDBRANCH  73  74
ENDBRANCH  52  66
BRANCH  53  78
ATOM     78  C   UNL     1       0.935   2.776  -4.716  1.00  0.00     0.058 A 
ATOM     79  C   UNL     1       1.451   2.578  -3.425  1.00  0.00     0.135 A 
ATOM     80  C   UNL     1       1.258   1.828  -5.696  1.00  0.00     0.135 A 
ATOM     81  F   UNL     1       1.213   3.486  -2.466  1.00  0.00    -0.206 F 
ATOM     82  C   UNL     1       2.101   1.401  -3.072  1.00  0.00     0.059 A 
ATOM     83  C   UNL     1       1.921   0.644  -5.367  1.00  0.00     0.059 A 
ATOM     84  F   UNL     1       0.810   1.974  -6.951  1.00  0.00    -0.206 F 
ATOM     85  C   UNL     1       2.263   0.409  -4.035  1.00  0.00     0.060 A 
BRANCH  85  86
ATOM     86  S   UNL     1       2.759  -1.239  -3.480  1.00  0.00     0.124 S 
ATOM     87  O   UNL     1       3.982  -0.964  -2.733  1.00  0.00    -0.237 OA
ATOM     88  O   UNL     1       1.605  -1.640  -2.682  1.00  0.00    -0.237 OA
ATOM     89  O   UNL     1       2.933  -1.974  -4.728  1.00  0.00    -0.744 OA
ENDBRANCH  85  86
ENDBRANCH  53  78
BRANCH  65  90
ATOM     90  C   UNL     1      -2.085   6.387 -10.110  1.00  0.00     0.058 A 
ATOM     91  C   UNL     1      -0.830   6.566 -10.720  1.00  0.00     0.135 A 
ATOM     92  C   UNL     1      -3.193   6.846 -10.864  1.00  0.00     0.135 A 
ATOM     93  F   UNL     1       0.289   6.063 -10.181  1.00  0.00    -0.206 F 
ATOM     94  C   UNL     1      -0.673   7.227 -11.940  1.00  0.00     0.059 A 
ATOM     95  C   UNL     1      -3.064   7.454 -12.112  1.00  0.00     0.059 A 
ATOM     96  F   UNL     1      -4.450   6.703 -10.418  1.00  0.00    -0.206 F 
ATOM     97  C   UNL     1      -1.796   7.669 -12.630  1.00  0.00     0.060 A 
BRANCH  97  98
ATOM     98  S   UNL     1      -1.607   8.464 -14.236  1.00  0.00     0.124 S 
ATOM     99  O   UNL     1      -1.541   9.872 -13.858  1.00  0.00    -0.237 OA
ATOM    100  O   UNL     1      -0.362   7.890 -14.741  1.00  0.00    -0.237 OA
ATOM    101  O   UNL     1      -2.811   8.055 -14.951  1.00  0.00    -0.744 OA
ENDBRANCH  97  98
ENDBRANCH  65  90
ENDBRANCH  39  40
ENDBRANCH  31  34
ENDBRANCH  29  30
ENDBRANCH  28  29
ENDBRANCH   1  28
TORSDOF 18
