REMARK SMILES CCCc1noc(C2C[NH+](CC(=O)NCCCCNC(=O)c3ccc(-c4c5nc(c(-c6c(F)cc(S(=O)(=O)[O-])cc6F)c6ccc([nH]6)c(-c6c(F)cc(S(=O)(=O)[O-])cc6F)c6nc(c(-c7c(F)cc(S(=O)(=O)[O-])cc7F)c7ccc4[nH]7)C=C6)C=C5)cc3)C2)n1
REMARK SMILES IDX 16 1 15 2 14 3 12 4 13 5 11 7 10 8 8 9 9 10 88 11 7 13 4 14
REMARK SMILES IDX 5 15 89 16 6 17 3 18 2 19 1 20 17 21 18 22 19 23 20 24 21 26
REMARK SMILES IDX 22 27 23 28 87 29 24 30 86 31 25 32 26 33 27 34 80 35 28 36
REMARK SMILES IDX 85 37 79 38 81 39 29 40 84 41 78 42 77 43 30 45 64 46 43 47
REMARK SMILES IDX 63 48 44 49 47 50 62 51 82 52 45 53 46 54 61 56 83 57 48 58
REMARK SMILES IDX 31 59 32 60 41 61 33 62 34 63 40 64 42 65 35 66 36 67 37 68
REMARK SMILES IDX 38 69 39 70 65 71 66 72 75 73 67 74 68 75 74 76 76 77 69 78
REMARK SMILES IDX 70 79 71 80 72 81 73 82 49 83 50 84 59 85 51 86 52 87 58 88
REMARK SMILES IDX 60 89 53 90 54 91 55 92 56 93 57 94
REMARK H PARENT 14 6 10 12 19 25 81 44 47 55
REMARK Flexibility Score: inf
ROOT
ATOM      1  C   UNL     1       1.903  -0.727   7.405  1.00  0.00     0.023 C 
ENDROOT
BRANCH   1   2
ATOM      2  C   UNL     1       1.059  -0.659   8.684  1.00  0.00     0.116 C 
BRANCH   2   3
ATOM      3  N   UNL     1      -0.183   0.079   8.523  1.00  0.00    -0.351 N 
ATOM      4  C   UNL     1      -1.478  -0.346   8.389  1.00  0.00     0.275 C 
ATOM      5  O   UNL     1      -2.344   0.523   8.248  1.00  0.00    -0.269 OA
ATOM      6  H   UNL     1      -0.075   1.058   8.508  1.00  0.00     0.163 HD
BRANCH   4   7
ATOM      7  C   UNL     1      -1.849  -1.836   8.373  1.00  0.00     0.363 C 
BRANCH   7   8
ATOM      8  N   UNL     1      -2.014  -2.527   7.059  1.00  0.00    -0.325 N 
ATOM      9  C   UNL     1      -1.036  -1.295   5.630  1.00  0.00     0.188 C 
ATOM     10  C   UNL     1      -2.497  -1.683   5.923  1.00  0.00     0.282 C 
ATOM     11  C   UNL     1      -0.737  -2.655   6.326  1.00  0.00     0.282 C 
ATOM     12  H   UNL     1      -2.566  -3.324   7.377  1.00  0.00     0.348 HD
BRANCH   9  13
ATOM     13  C   UNL     1      -0.512  -1.163   4.228  1.00  0.00     0.241 A 
ATOM     14  C   UNL     1       0.392  -1.494   2.368  1.00  0.00     0.171 A 
ATOM     15  N   UNL     1       0.728  -0.233   2.651  1.00  0.00    -0.062 NA
ATOM     16  N   UNL     1      -0.383  -2.113   3.325  1.00  0.00    -0.196 NA
ATOM     17  O   UNL     1       0.104   0.003   3.858  1.00  0.00    -0.339 OA
BRANCH  14  18
ATOM     18  C   UNL     1       0.914  -2.185   1.164  1.00  0.00     0.081 C 
BRANCH  18  19
ATOM     19  C   UNL     1       0.412  -1.603  -0.160  1.00  0.00     0.005 C 
ATOM     20  C   UNL     1       0.964  -0.218  -0.479  1.00  0.00     0.004 C 
ENDBRANCH  18  19
ENDBRANCH  14  18
ENDBRANCH   9  13
ENDBRANCH   7   8
ENDBRANCH   4   7
ENDBRANCH   2   3
ENDBRANCH   1   2
BRANCH   1  21
ATOM     21  C   UNL     1       2.472   0.594   6.900  1.00  0.00     0.023 C 
BRANCH  21  22
ATOM     22  C   UNL     1       3.565   1.181   7.776  1.00  0.00     0.116 C 
BRANCH  22  23
ATOM     23  N   UNL     1       4.697   0.279   7.948  1.00  0.00    -0.352 N 
ATOM     24  C   UNL     1       6.043   0.549   7.874  1.00  0.00     0.251 C 
ATOM     25  H   UNL     1       4.464  -0.657   8.147  1.00  0.00     0.163 HD
ATOM     26  O   UNL     1       6.855  -0.366   7.915  1.00  0.00    -0.269 OA
BRANCH  24  27
ATOM     27  C   UNL     1       6.490   1.947   7.715  1.00  0.00     0.039 A 
ATOM     28  C   UNL     1       7.478   2.243   6.773  1.00  0.00     0.014 A 
ATOM     29  C   UNL     1       5.908   2.965   8.474  1.00  0.00     0.014 A 
ATOM     30  C   UNL     1       7.832   3.573   6.543  1.00  0.00     0.010 A 
ATOM     31  C   UNL     1       6.195   4.290   8.180  1.00  0.00     0.010 A 
ATOM     32  C   UNL     1       7.167   4.607   7.220  1.00  0.00    -0.014 A 
BRANCH  32  33
ATOM     33  C   UNL     1       7.485   6.035   6.973  1.00  0.00     0.031 A 
ATOM     34  C   UNL     1       8.021   6.877   8.099  1.00  0.00     0.074 A 
ATOM     35  C   UNL     1       7.207   6.588   5.777  1.00  0.00     0.049 A 
ATOM     36  N   UNL     1       8.234   8.165   8.139  1.00  0.00    -0.248 NA
ATOM     37  C   UNL     1       8.315   6.180   9.363  1.00  0.00     0.031 C 
ATOM     38  C   UNL     1       6.634   5.883   4.627  1.00  0.00     0.029 A 
ATOM     39  N   UNL     1       7.354   7.877   5.333  1.00  0.00    -0.354 N 
ATOM     40  C   UNL     1       8.656   8.437   9.435  1.00  0.00     0.074 A 
ATOM     41  C   UNL     1       8.616   7.190  10.165  1.00  0.00     0.031 C 
ATOM     42  C   UNL     1       6.497   6.744   3.606  1.00  0.00     0.029 A 
ATOM     43  C   UNL     1       6.937   8.067   4.037  1.00  0.00     0.049 A 
ATOM     44  H   UNL     1       7.724   8.599   5.891  1.00  0.00     0.167 HD
ATOM     45  C   UNL     1       9.064   9.615   9.962  1.00  0.00     0.037 A 
ATOM     46  C   UNL     1       6.908   9.185   3.286  1.00  0.00     0.037 A 
ATOM     47  C   UNL     1       9.147  10.840   9.212  1.00  0.00     0.049 A 
ATOM     48  C   UNL     1       7.402  10.475   3.881  1.00  0.00     0.074 A 
ATOM     49  C   UNL     1       9.612  12.075   9.628  1.00  0.00     0.029 A 
ATOM     50  N   UNL     1       8.765  10.980   7.886  1.00  0.00    -0.354 N 
ATOM     51  N   UNL     1       7.848  10.706   5.093  1.00  0.00    -0.248 NA
ATOM     52  C   UNL     1       7.396  11.656   3.007  1.00  0.00     0.031 C 
ATOM     53  C   UNL     1       9.485  12.970   8.560  1.00  0.00     0.029 A 
ATOM     54  C   UNL     1       8.976  12.283   7.468  1.00  0.00     0.049 A 
ATOM     55  H   UNL     1       8.398  10.260   7.324  1.00  0.00     0.167 HD
ATOM     56  C   UNL     1       8.199  12.050   5.120  1.00  0.00     0.074 A 
ATOM     57  C   UNL     1       7.923  12.579   3.800  1.00  0.00     0.031 C 
ATOM     58  C   UNL     1       8.704  12.782   6.144  1.00  0.00     0.037 A 
BRANCH  45  59
ATOM     59  C   UNL     1       9.461   9.626  11.412  1.00  0.00     0.058 A 
ATOM     60  C   UNL     1      10.634   8.994  11.858  1.00  0.00     0.135 A 
ATOM     61  C   UNL     1       8.668  10.283  12.366  1.00  0.00     0.135 A 
ATOM     62  F   UNL     1      11.419   8.335  10.991  1.00  0.00    -0.206 F 
ATOM     63  C   UNL     1      10.986   8.980  13.203  1.00  0.00     0.059 A 
ATOM     64  C   UNL     1       9.017  10.306  13.714  1.00  0.00     0.059 A 
ATOM     65  F   UNL     1       7.536  10.901  11.995  1.00  0.00    -0.206 F 
ATOM     66  C   UNL     1      10.169   9.636  14.124  1.00  0.00     0.060 A 
BRANCH  66  67
ATOM     67  S   UNL     1      10.635   9.604  15.868  1.00  0.00     0.124 S 
ATOM     68  O   UNL     1      10.269   8.241  16.241  1.00  0.00    -0.237 OA
ATOM     69  O   UNL     1      12.067   9.883  15.815  1.00  0.00    -0.237 OA
ATOM     70  O   UNL     1       9.816  10.658  16.458  1.00  0.00    -0.744 OA
ENDBRANCH  66  67
ENDBRANCH  45  59
BRANCH  46  71
ATOM     71  C   UNL     1       6.425   9.124   1.882  1.00  0.00     0.058 A 
ATOM     72  C   UNL     1       7.322   9.234   0.809  1.00  0.00     0.135 A 
ATOM     73  C   UNL     1       5.067   8.936   1.581  1.00  0.00     0.135 A 
ATOM     74  F   UNL     1       8.630   9.419   1.047  1.00  0.00    -0.206 F 
ATOM     75  C   UNL     1       6.891   9.177  -0.512  1.00  0.00     0.059 A 
ATOM     76  C   UNL     1       4.614   8.853   0.268  1.00  0.00     0.059 A 
ATOM     77  F   UNL     1       4.171   8.807   2.572  1.00  0.00    -0.206 F 
ATOM     78  C   UNL     1       5.533   8.984  -0.772  1.00  0.00     0.060 A 
BRANCH  78  79
ATOM     79  S   UNL     1       4.991   8.862  -2.491  1.00  0.00     0.124 S 
ATOM     80  O   UNL     1       5.066  10.253  -2.922  1.00  0.00    -0.237 OA
ATOM     81  O   UNL     1       5.986   7.961  -3.064  1.00  0.00    -0.237 OA
ATOM     82  O   UNL     1       3.645   8.306  -2.379  1.00  0.00    -0.744 OA
ENDBRANCH  78  79
ENDBRANCH  46  71
BRANCH  58  83
ATOM     83  C   UNL     1       9.024  14.224   5.868  1.00  0.00     0.058 A 
ATOM     84  C   UNL     1       8.016  15.192   5.757  1.00  0.00     0.135 A 
ATOM     85  C   UNL     1      10.359  14.648   5.774  1.00  0.00     0.135 A 
ATOM     86  F   UNL     1       6.724  14.835   5.833  1.00  0.00    -0.206 F 
ATOM     87  C   UNL     1       8.319  16.532   5.543  1.00  0.00     0.059 A 
ATOM     88  C   UNL     1      10.687  15.986   5.585  1.00  0.00     0.059 A 
ATOM     89  F   UNL     1      11.360  13.760   5.885  1.00  0.00    -0.206 F 
ATOM     90  C   UNL     1       9.659  16.920   5.460  1.00  0.00     0.060 A 
BRANCH  90  91
ATOM     91  S   UNL     1      10.042  18.667   5.223  1.00  0.00     0.124 S 
ATOM     92  O   UNL     1       9.739  18.845   3.807  1.00  0.00    -0.237 OA
ATOM     93  O   UNL     1       9.127  19.319   6.154  1.00  0.00    -0.237 OA
ATOM     94  O   UNL     1      11.456  18.755   5.579  1.00  0.00    -0.744 OA
ENDBRANCH  90  91
ENDBRANCH  58  83
ENDBRANCH  32  33
ENDBRANCH  24  27
ENDBRANCH  22  23
ENDBRANCH  21  22
ENDBRANCH   1  21
TORSDOF 18
