REMARK SMILES O=C(C[C@H](NC(=O)[C@]12C[C@H]3C[C@H](C[C@H](C3)C1)C2)c1cccc([N+](=O)[O-])c1)NCCCCNC(=O)c1ccc(-c2c3nc(c(-c4c(F)cc(S(=O)(=O)[O-])cc4F)c4ccc([nH]4)c(-c4c(F)cc(S(=O)(=O)[O-])cc4F)c4nc(c(-c5c(F)cc(S(=O)(=O)[O-])cc5F)c5ccc2[nH]5)C=C4)C=C3)cc1
REMARK SMILES IDX 29 1 28 2 27 3 1 4 2 5 3 7 4 8 18 9 19 10 26 11 20 12 22 13
REMARK SMILES IDX 21 14 23 15 24 16 25 17 5 18 6 19 7 21 8 22 9 23 16 24 17 25
REMARK SMILES IDX 10 26 14 27 12 28 11 29 15 30 13 31 30 32 31 33 32 34 33 35
REMARK SMILES IDX 34 37 35 38 36 39 100 40 37 41 99 42 38 43 39 44 40 45 93 46
REMARK SMILES IDX 41 47 98 48 92 49 94 50 42 51 97 52 91 53 90 54 43 56 77 57
REMARK SMILES IDX 56 58 76 59 57 60 60 61 75 62 95 63 58 64 59 65 74 67 96 68
REMARK SMILES IDX 61 69 44 70 45 71 54 72 46 73 47 74 53 75 55 76 48 77 49 78
REMARK SMILES IDX 50 79 51 80 52 81 78 82 79 83 88 84 80 85 81 86 87 87 89 88
REMARK SMILES IDX 82 89 83 90 84 91 85 92 86 93 62 94 63 95 72 96 64 97 65 98
REMARK SMILES IDX 71 99 73 100 66 101 67 102 68 103 69 104 70 105
REMARK H PARENT 27 6 5 20 32 36 94 55 60 66
REMARK Flexibility Score: inf
ROOT
ATOM      1  C   UNL     1       3.410   0.728   5.627  1.00  0.00     0.023 C 
ENDROOT
BRANCH   1   2
ATOM      2  C   UNL     1       2.598   0.658   4.337  1.00  0.00     0.116 C 
BRANCH   2   3
ATOM      3  N   UNL     1       3.151   1.505   3.306  1.00  0.00    -0.356 N 
ATOM      4  O   UNL     1       2.090   0.429   1.585  1.00  0.00    -0.275 OA
ATOM      5  C   UNL     1       2.897   1.263   1.974  1.00  0.00     0.222 C 
ATOM      6  H   UNL     1       3.719   2.269   3.560  1.00  0.00     0.163 HD
BRANCH   5   7
ATOM      7  C   UNL     1       3.732   2.124   1.069  1.00  0.00     0.129 C 
BRANCH   7   8
ATOM      8  C   UNL     1       3.480   1.923  -0.426  1.00  0.00     0.122 C 
BRANCH   8   9
ATOM      9  C   UNL     1       4.342   2.903  -1.229  1.00  0.00    -0.018 A 
ATOM     10  C   UNL     1       5.443   2.501  -1.998  1.00  0.00     0.006 A 
ATOM     11  C   UNL     1       4.047   4.282  -1.164  1.00  0.00     0.091 A 
ATOM     12  C   UNL     1       6.230   3.439  -2.679  1.00  0.00     0.007 A 
ATOM     13  C   UNL     1       4.842   5.220  -1.841  1.00  0.00     0.269 A 
ATOM     14  C   UNL     1       5.936   4.801  -2.601  1.00  0.00     0.085 A 
BRANCH  13  15
ATOM     15  N   UNL     1       4.527   6.651  -1.740  1.00  0.00     0.062 N 
ATOM     16  O   UNL     1       5.186   7.436  -2.435  1.00  0.00    -0.258 OA
ATOM     17  O   UNL     1       3.619   6.983  -0.965  1.00  0.00    -0.258 OA
ENDBRANCH  13  15
ENDBRANCH   8   9
BRANCH   8  18
ATOM     18  N   UNL     1       3.366   0.595  -1.067  1.00  0.00    -0.348 N 
ATOM     19  C   UNL     1       3.834  -0.668  -1.117  1.00  0.00     0.226 C 
ATOM     20  H   UNL     1       2.649   0.661  -1.738  1.00  0.00     0.164 HD
ATOM     21  O   UNL     1       3.317  -1.336  -2.029  1.00  0.00    -0.274 OA
BRANCH  19  22
ATOM     22  C   UNL     1       4.836  -1.371  -0.180  1.00  0.00     0.050 C 
ATOM     23  C   UNL     1       4.080  -2.150   0.929  1.00  0.00     0.020 C 
ATOM     24  C   UNL     1       5.889  -0.448   0.434  1.00  0.00     0.020 C 
ATOM     25  C   UNL     1       5.606  -2.462  -1.000  1.00  0.00     0.020 C 
ATOM     26  C   UNL     1       5.063  -2.901   1.848  1.00  0.00    -0.010 C 
ATOM     27  C   UNL     1       6.863  -1.213   1.338  1.00  0.00    -0.010 C 
ATOM     28  C   UNL     1       6.599  -3.240  -0.112  1.00  0.00    -0.010 C 
ATOM     29  C   UNL     1       5.838  -3.940   1.025  1.00  0.00     0.007 C 
ATOM     30  C   UNL     1       6.056  -1.896   2.456  1.00  0.00     0.007 C 
ATOM     31  C   UNL     1       7.607  -2.259   0.501  1.00  0.00     0.007 C 
ENDBRANCH  19  22
ENDBRANCH   8  18
ENDBRANCH   7   8
ENDBRANCH   5   7
ENDBRANCH   2   3
ENDBRANCH   1   2
BRANCH   1  32
ATOM     32  C   UNL     1       3.485   2.113   6.275  1.00  0.00     0.023 C 
BRANCH  32  33
ATOM     33  C   UNL     1       2.157   2.848   6.384  1.00  0.00     0.116 C 
BRANCH  33  34
ATOM     34  N   UNL     1       1.151   2.114   7.133  1.00  0.00    -0.352 N 
ATOM     35  C   UNL     1       0.095   2.648   7.835  1.00  0.00     0.251 C 
ATOM     36  H   UNL     1       1.234   1.133   7.140  1.00  0.00     0.163 HD
ATOM     37  O   UNL     1      -0.650   1.939   8.500  1.00  0.00    -0.269 OA
BRANCH  35  38
ATOM     38  C   UNL     1      -0.081   4.112   7.798  1.00  0.00     0.039 A 
ATOM     39  C   UNL     1       0.025   4.832   8.989  1.00  0.00     0.014 A 
ATOM     40  C   UNL     1      -0.224   4.766   6.571  1.00  0.00     0.014 A 
ATOM     41  C   UNL     1       0.040   6.225   8.942  1.00  0.00     0.010 A 
ATOM     42  C   UNL     1      -0.141   6.153   6.523  1.00  0.00     0.010 A 
ATOM     43  C   UNL     1      -0.011   6.896   7.708  1.00  0.00    -0.014 A 
BRANCH  43  44
ATOM     44  C   UNL     1       0.057   8.376   7.643  1.00  0.00     0.031 A 
ATOM     45  C   UNL     1      -1.130   9.156   7.150  1.00  0.00     0.074 A 
ATOM     46  C   UNL     1       1.196   9.011   7.982  1.00  0.00     0.049 A 
ATOM     47  N   UNL     1      -1.259  10.446   6.984  1.00  0.00    -0.248 NA
ATOM     48  C   UNL     1      -2.320   8.379   6.765  1.00  0.00     0.031 C 
ATOM     49  C   UNL     1       2.431   8.358   8.422  1.00  0.00     0.029 A 
ATOM     50  N   UNL     1       1.504  10.348   8.004  1.00  0.00    -0.354 N 
ATOM     51  C   UNL     1      -2.535  10.635   6.470  1.00  0.00     0.074 A 
ATOM     52  C   UNL     1      -3.119   9.323   6.292  1.00  0.00     0.031 C 
ATOM     53  C   UNL     1       3.354   9.296   8.690  1.00  0.00     0.029 A 
ATOM     54  C   UNL     1       2.789  10.614   8.415  1.00  0.00     0.049 A 
ATOM     55  H   UNL     1       0.864  11.052   7.749  1.00  0.00     0.167 HD
ATOM     56  C   UNL     1      -3.176  11.796   6.198  1.00  0.00     0.037 A 
ATOM     57  C   UNL     1       3.437  11.787   8.553  1.00  0.00     0.037 A 
ATOM     58  C   UNL     1      -2.597  13.098   6.401  1.00  0.00     0.049 A 
ATOM     59  C   UNL     1       2.702  13.067   8.258  1.00  0.00     0.074 A 
ATOM     60  C   UNL     1      -3.179  14.338   6.206  1.00  0.00     0.029 A 
ATOM     61  N   UNL     1      -1.303  13.328   6.846  1.00  0.00    -0.354 N 
ATOM     62  N   UNL     1       1.470  13.230   7.835  1.00  0.00    -0.248 NA
ATOM     63  C   UNL     1       3.437  14.321   8.468  1.00  0.00     0.031 C 
ATOM     64  C   UNL     1      -2.224  15.318   6.499  1.00  0.00     0.029 A 
ATOM     65  C   UNL     1      -1.062  14.689   6.919  1.00  0.00     0.049 A 
ATOM     66  H   UNL     1      -0.652  12.626   7.075  1.00  0.00     0.167 HD
ATOM     67  C   UNL     1       1.276  14.604   7.751  1.00  0.00     0.074 A 
ATOM     68  C   UNL     1       2.512  15.226   8.180  1.00  0.00     0.031 C 
ATOM     69  C   UNL     1       0.174  15.289   7.355  1.00  0.00     0.037 A 
BRANCH  56  70
ATOM     70  C   UNL     1      -4.578  11.704   5.663  1.00  0.00     0.058 A 
ATOM     71  C   UNL     1      -5.644  11.273   6.470  1.00  0.00     0.135 A 
ATOM     72  C   UNL     1      -4.865  12.064   4.337  1.00  0.00     0.135 A 
ATOM     73  F   UNL     1      -5.423  10.900   7.740  1.00  0.00    -0.206 F 
ATOM     74  C   UNL     1      -6.938  11.166   5.971  1.00  0.00     0.059 A 
ATOM     75  C   UNL     1      -6.157  11.993   3.825  1.00  0.00     0.059 A 
ATOM     76  F   UNL     1      -3.884  12.482   3.522  1.00  0.00    -0.206 F 
ATOM     77  C   UNL     1      -7.184  11.526   4.645  1.00  0.00     0.060 A 
BRANCH  77  78
ATOM     78  S   UNL     1      -8.867  11.378   4.011  1.00  0.00     0.124 S 
ATOM     79  O   UNL     1      -8.994   9.932   3.858  1.00  0.00    -0.237 OA
ATOM     80  O   UNL     1      -9.659  11.973   5.083  1.00  0.00    -0.237 OA
ATOM     81  O   UNL     1      -8.830  12.140   2.767  1.00  0.00    -0.744 OA
ENDBRANCH  77  78
ENDBRANCH  56  70
BRANCH  57  82
ATOM     82  C   UNL     1       4.849  11.804   9.018  1.00  0.00     0.058 A 
ATOM     83  C   UNL     1       5.183  12.260  10.302  1.00  0.00     0.135 A 
ATOM     84  C   UNL     1       5.891  11.347   8.196  1.00  0.00     0.135 A 
ATOM     85  F   UNL     1       4.223  12.712  11.123  1.00  0.00    -0.206 F 
ATOM     86  C   UNL     1       6.500  12.274  10.752  1.00  0.00     0.059 A 
ATOM     87  C   UNL     1       7.213  11.329   8.632  1.00  0.00     0.059 A 
ATOM     88  F   UNL     1       5.623  10.883   6.966  1.00  0.00    -0.206 F 
ATOM     89  C   UNL     1       7.508  11.803   9.909  1.00  0.00     0.060 A 
BRANCH  89  90
ATOM     90  S   UNL     1       9.207  11.769  10.523  1.00  0.00     0.124 S 
ATOM     91  O   UNL     1       9.564  13.181  10.477  1.00  0.00    -0.237 OA
ATOM     92  O   UNL     1       9.040  11.194  11.854  1.00  0.00    -0.237 OA
ATOM     93  O   UNL     1       9.892  10.911   9.561  1.00  0.00    -0.744 OA
ENDBRANCH  89  90
ENDBRANCH  57  82
BRANCH  69  94
ATOM     94  C   UNL     1       0.243  16.790   7.393  1.00  0.00     0.058 A 
ATOM     95  C   UNL     1       0.980  17.518   6.447  1.00  0.00     0.135 A 
ATOM     96  C   UNL     1      -0.487  17.509   8.354  1.00  0.00     0.135 A 
ATOM     97  F   UNL     1       1.700  16.877   5.513  1.00  0.00    -0.206 F 
ATOM     98  C   UNL     1       1.010  18.908   6.465  1.00  0.00     0.059 A 
ATOM     99  C   UNL     1      -0.493  18.900   8.374  1.00  0.00     0.059 A 
ATOM    100  F   UNL     1      -1.217  16.860   9.274  1.00  0.00    -0.206 F 
ATOM    101  C   UNL     1       0.268  19.591   7.431  1.00  0.00     0.060 A 
BRANCH 101 102
ATOM    102  S   UNL     1       0.285  21.396   7.421  1.00  0.00     0.124 S 
ATOM    103  O   UNL     1       1.606  21.680   7.973  1.00  0.00    -0.237 OA
ATOM    104  O   UNL     1       0.109  21.703   6.005  1.00  0.00    -0.237 OA
ATOM    105  O   UNL     1      -0.843  21.751   8.278  1.00  0.00    -0.744 OA
ENDBRANCH 101 102
ENDBRANCH  69  94
ENDBRANCH  43  44
ENDBRANCH  35  38
ENDBRANCH  33  34
ENDBRANCH  32  33
ENDBRANCH   1  32
TORSDOF 19
