REMARK SMILES O=C(NCCCCNC(=O)[C@@H]1CCCCC[C@H]1NC(=O)[C@@H]1CCOC1)c1ccc(-c2c3nc(c(-c4c(F)cc(S(=O)(=O)[O-])cc4F)c4ccc([nH]4)c(-c4c(F)cc(S(=O)(=O)[O-])cc4F)c4nc(c(-c5c(F)cc(S(=O)(=O)[O-])cc5F)c5ccc2[nH]5)C=C4)C=C3)cc1
REMARK SMILES IDX 5 1 4 2 3 3 1 4 2 5 26 7 27 8 91 9 28 10 90 11 29 12 30 13
REMARK SMILES IDX 31 14 84 15 32 16 89 17 83 18 85 19 33 20 88 21 82 22 81 23
REMARK SMILES IDX 34 25 68 26 47 27 67 28 48 29 51 30 66 31 86 32 49 33 50 34
REMARK SMILES IDX 65 36 87 37 52 38 35 39 36 40 45 41 37 42 38 43 44 44 46 45
REMARK SMILES IDX 39 46 40 47 41 48 42 49 43 50 69 51 70 52 79 53 71 54 72 55
REMARK SMILES IDX 78 56 80 57 73 58 74 59 75 60 76 61 77 62 53 63 54 64 63 65
REMARK SMILES IDX 55 66 56 67 62 68 64 69 57 70 58 71 59 72 60 73 61 74 6 75
REMARK SMILES IDX 7 76 8 77 9 78 10 80 11 81 12 82 13 83 14 84 17 86 16 87
REMARK SMILES IDX 15 88 18 90 19 91 20 93 21 94 22 95 25 96 23 97 24 98
REMARK H PARENT 3 6 85 24 51 35 8 79 18 92
REMARK Flexibility Score: 90.00
ROOT
ATOM      1  C   UNL     1       4.936   0.217  -2.587  1.00  0.00     0.023 C 
ENDROOT
BRANCH   1   2
ATOM      2  C   UNL     1       4.492   0.101  -1.139  1.00  0.00     0.116 C 
BRANCH   2   3
ATOM      3  N   UNL     1       3.066   0.318  -0.931  1.00  0.00    -0.352 N 
ATOM      4  O   UNL     1       1.091   0.013   0.141  1.00  0.00    -0.269 OA
ATOM      5  C   UNL     1       2.296  -0.176   0.104  1.00  0.00     0.251 C 
ATOM      6  H   UNL     1       2.603   0.875  -1.597  1.00  0.00     0.163 HD
BRANCH   5   7
ATOM      7  C   UNL     1       2.977  -0.987   1.137  1.00  0.00     0.039 A 
ATOM      8  C   UNL     1       4.125  -0.487   1.752  1.00  0.00     0.014 A 
ATOM      9  C   UNL     1       2.545  -2.292   1.384  1.00  0.00     0.014 A 
ATOM     10  C   UNL     1       4.940  -1.350   2.468  1.00  0.00     0.010 A 
ATOM     11  C   UNL     1       3.318  -3.129   2.195  1.00  0.00     0.010 A 
ATOM     12  C   UNL     1       4.544  -2.678   2.707  1.00  0.00    -0.014 A 
BRANCH  12  13
ATOM     13  C   UNL     1       5.425  -3.536   3.541  1.00  0.00     0.031 A 
ATOM     14  C   UNL     1       6.098  -4.760   2.982  1.00  0.00     0.074 A 
ATOM     15  C   UNL     1       5.676  -3.137   4.803  1.00  0.00     0.049 A 
ATOM     16  N   UNL     1       6.946  -5.566   3.569  1.00  0.00    -0.248 NA
ATOM     17  C   UNL     1       5.779  -5.136   1.596  1.00  0.00     0.031 C 
ATOM     18  C   UNL     1       5.059  -1.976   5.455  1.00  0.00     0.029 A 
ATOM     19  N   UNL     1       6.539  -3.625   5.748  1.00  0.00    -0.354 N 
ATOM     20  C   UNL     1       7.246  -6.555   2.639  1.00  0.00     0.074 A 
ATOM     21  C   UNL     1       6.476  -6.257   1.449  1.00  0.00     0.031 C 
ATOM     22  C   UNL     1       5.616  -1.800   6.660  1.00  0.00     0.029 A 
ATOM     23  C   UNL     1       6.577  -2.870   6.896  1.00  0.00     0.049 A 
ATOM     24  H   UNL     1       7.079  -4.438   5.618  1.00  0.00     0.167 HD
ATOM     25  C   UNL     1       8.089  -7.609   2.767  1.00  0.00     0.037 A 
ATOM     26  C   UNL     1       7.296  -3.024   8.022  1.00  0.00     0.037 A 
ATOM     27  C   UNL     1       8.865  -7.886   3.950  1.00  0.00     0.049 A 
ATOM     28  C   UNL     1       8.247  -4.178   8.120  1.00  0.00     0.074 A 
ATOM     29  C   UNL     1       9.744  -8.931   4.181  1.00  0.00     0.029 A 
ATOM     30  N   UNL     1       8.865  -7.107   5.099  1.00  0.00    -0.354 N 
ATOM     31  N   UNL     1       8.503  -5.108   7.232  1.00  0.00    -0.248 NA
ATOM     32  C   UNL     1       9.000  -4.309   9.373  1.00  0.00     0.031 C 
ATOM     33  C   UNL     1      10.257  -8.797   5.477  1.00  0.00     0.029 A 
ATOM     34  C   UNL     1       9.725  -7.649   6.041  1.00  0.00     0.049 A 
ATOM     35  H   UNL     1       8.333  -6.289   5.226  1.00  0.00     0.167 HD
ATOM     36  C   UNL     1       9.437  -5.946   7.824  1.00  0.00     0.074 A 
ATOM     37  C   UNL     1       9.732  -5.387   9.129  1.00  0.00     0.031 C 
ATOM     38  C   UNL     1       9.989  -7.086   7.340  1.00  0.00     0.037 A 
BRANCH  25  39
ATOM     39  C   UNL     1       8.216  -8.555   1.603  1.00  0.00     0.058 A 
ATOM     40  C   UNL     1       8.941  -8.211   0.452  1.00  0.00     0.135 A 
ATOM     41  C   UNL     1       7.663  -9.845   1.668  1.00  0.00     0.135 A 
ATOM     42  F   UNL     1       9.476  -6.985   0.331  1.00  0.00    -0.206 F 
ATOM     43  C   UNL     1       9.104  -9.108  -0.600  1.00  0.00     0.059 A 
ATOM     44  C   UNL     1       7.831 -10.765   0.636  1.00  0.00     0.059 A 
ATOM     45  F   UNL     1       6.960 -10.225   2.746  1.00  0.00    -0.206 F 
ATOM     46  C   UNL     1       8.547 -10.384  -0.498  1.00  0.00     0.060 A 
BRANCH  46  47
ATOM     47  S   UNL     1       8.787 -11.545  -1.861  1.00  0.00     0.124 S 
ATOM     48  O   UNL     1       7.863 -11.015  -2.859  1.00  0.00    -0.237 OA
ATOM     49  O   UNL     1      10.205 -11.385  -2.163  1.00  0.00    -0.237 OA
ATOM     50  O   UNL     1       8.414 -12.831  -1.280  1.00  0.00    -0.744 OA
ENDBRANCH  46  47
ENDBRANCH  25  39
BRANCH  26  51
ATOM     51  C   UNL     1       7.119  -2.066   9.141  1.00  0.00     0.058 A 
ATOM     52  C   UNL     1       8.117  -1.139   9.470  1.00  0.00     0.135 A 
ATOM     53  C   UNL     1       5.922  -2.031   9.874  1.00  0.00     0.135 A 
ATOM     54  F   UNL     1       9.277  -1.134   8.797  1.00  0.00    -0.206 F 
ATOM     55  C   UNL     1       7.939  -0.215  10.495  1.00  0.00     0.059 A 
ATOM     56  C   UNL     1       5.710  -1.101  10.883  1.00  0.00     0.059 A 
ATOM     57  F   UNL     1       4.928  -2.884   9.579  1.00  0.00    -0.206 F 
ATOM     58  C   UNL     1       6.730  -0.202  11.194  1.00  0.00     0.060 A 
BRANCH  58  59
ATOM     59  S   UNL     1       6.472   1.040  12.478  1.00  0.00     0.124 S 
ATOM     60  O   UNL     1       7.166   0.438  13.609  1.00  0.00    -0.237 OA
ATOM     61  O   UNL     1       7.100   2.224  11.899  1.00  0.00    -0.237 OA
ATOM     62  O   UNL     1       5.018   1.105  12.587  1.00  0.00    -0.744 OA
ENDBRANCH  58  59
ENDBRANCH  26  51
BRANCH  38  63
ATOM     63  C   UNL     1      10.956  -7.796   8.242  1.00  0.00     0.058 A 
ATOM     64  C   UNL     1      10.510  -8.523   9.357  1.00  0.00     0.135 A 
ATOM     65  C   UNL     1      12.336  -7.741   7.997  1.00  0.00     0.135 A 
ATOM     66  F   UNL     1       9.199  -8.597   9.636  1.00  0.00    -0.206 F 
ATOM     67  C   UNL     1      11.405  -9.141  10.223  1.00  0.00     0.059 A 
ATOM     68  C   UNL     1      13.247  -8.370   8.838  1.00  0.00     0.059 A 
ATOM     69  F   UNL     1      12.809  -7.065   6.938  1.00  0.00    -0.206 F 
ATOM     70  C   UNL     1      12.773  -9.051   9.960  1.00  0.00     0.060 A 
BRANCH  70  71
ATOM     71  S   UNL     1      13.930  -9.845  11.095  1.00  0.00     0.124 S 
ATOM     72  O   UNL     1      13.974  -8.880  12.188  1.00  0.00    -0.237 OA
ATOM     73  O   UNL     1      13.265 -11.110  11.392  1.00  0.00    -0.237 OA
ATOM     74  O   UNL     1      15.152  -9.957  10.305  1.00  0.00    -0.744 OA
ENDBRANCH  70  71
ENDBRANCH  38  63
ENDBRANCH  12  13
ENDBRANCH   5   7
ENDBRANCH   2   3
ENDBRANCH   1   2
BRANCH   1  75
ATOM     75  C   UNL     1       4.674   1.578  -3.223  1.00  0.00     0.023 C 
BRANCH  75  76
ATOM     76  C   UNL     1       5.471   2.742  -2.622  1.00  0.00     0.116 C 
BRANCH  76  77
ATOM     77  N   UNL     1       6.679   2.997  -3.376  1.00  0.00    -0.356 N 
ATOM     78  C   UNL     1       6.939   3.811  -4.429  1.00  0.00     0.225 C 
ATOM     79  H   UNL     1       7.460   2.482  -3.066  1.00  0.00     0.163 HD
ATOM     80  O   UNL     1       8.079   3.744  -4.904  1.00  0.00    -0.275 OA
BRANCH  78  81
ATOM     81  C   UNL     1       5.954   4.851  -4.990  1.00  0.00     0.101 C 
BRANCH  81  82
ATOM     82  C   UNL     1       6.031   6.121  -4.135  1.00  0.00     0.015 C 
BRANCH  82  83
ATOM     83  C   UNL     1       5.328   7.316  -4.778  1.00  0.00     0.001 C 
BRANCH  83  84
ATOM     84  C   UNL     1       3.871   7.448  -4.359  1.00  0.00     0.000 CG0
ATOM     85  G   UNL     1       2.943   6.367  -4.896  1.00  0.00     0.000 G0
ENDBRANCH  83  84
ENDBRANCH  82  83
ENDBRANCH  81  82
BRANCH  81  86
ATOM     86  C   UNL     1       4.543   4.333  -5.342  1.00  0.00     0.094 C 
BRANCH  86  87
ATOM     87  C   UNL     1       3.352   4.933  -4.561  1.00  0.00     0.026 C 
BRANCH  87  88
ATOM     88  C   UNL     1       2.943   6.367  -4.896  1.00  0.00     0.002 CG0
ATOM     89  G   UNL     1       3.871   7.448  -4.359  1.00  0.00     0.000 G0
ENDBRANCH  87  88
ENDBRANCH  86  87
BRANCH  86  90
ATOM     90  N   UNL     1       4.274   4.444  -6.783  1.00  0.00    -0.352 N 
ATOM     91  C   UNL     1       4.349   3.528  -7.786  1.00  0.00     0.225 C 
ATOM     92  H   UNL     1       3.989   5.340  -7.074  1.00  0.00     0.163 HD
ATOM     93  O   UNL     1       3.942   3.881  -8.894  1.00  0.00    -0.275 OA
BRANCH  91  94
ATOM     94  C   UNL     1       4.949   2.152  -7.539  1.00  0.00     0.106 C 
ATOM     95  C   UNL     1       6.079   1.893  -8.514  1.00  0.00     0.044 C 
ATOM     96  C   UNL     1       3.952   1.052  -7.870  1.00  0.00     0.173 C 
ATOM     97  C   UNL     1       5.372   1.272  -9.698  1.00  0.00     0.161 C 
ATOM     98  O   UNL     1       4.293   0.504  -9.155  1.00  0.00    -0.381 OA
ENDBRANCH  91  94
ENDBRANCH  86  90
ENDBRANCH  81  86
ENDBRANCH  78  81
ENDBRANCH  76  77
ENDBRANCH  75  76
ENDBRANCH   1  75
TORSDOF 16
