REMARK SMILES O=C(NCCCCNC(=O)c1cc2c(c(S(=O)(=O)Nc3cc(C(F)(F)F)ccc3-n3cccn3)c1)CCC2)c1ccc(-c2c3nc(c(-c4c(F)cc(S(=O)(=O)[O-])cc4F)c4ccc([nH]4)c(-c4c(F)cc(S(=O)(=O)[O-])cc4F)c4nc(c(-c5c(F)cc(S(=O)(=O)[O-])cc5F)c5ccc2[nH]5)C=C4)C=C3)cc1
REMARK SMILES IDX 6 1 5 2 4 3 3 4 1 5 2 6 39 8 40 9 104 10 41 11 103 12 42 13
REMARK SMILES IDX 43 14 44 15 97 16 45 17 102 18 96 19 98 20 46 21 101 22
REMARK SMILES IDX 95 23 94 24 47 26 81 27 60 28 80 29 61 30 64 31 79 32 99 33
REMARK SMILES IDX 62 34 63 35 78 37 100 38 65 39 48 40 49 41 58 42 50 43 51 44
REMARK SMILES IDX 57 45 59 46 52 47 53 48 54 49 55 50 56 51 82 52 83 53 92 54
REMARK SMILES IDX 84 55 85 56 91 57 93 58 86 59 87 60 88 61 89 62 90 63 66 64
REMARK SMILES IDX 67 65 76 66 68 67 69 68 75 69 77 70 70 71 71 72 72 73 73 74
REMARK SMILES IDX 74 75 7 76 8 77 9 78 10 80 11 81 12 82 35 83 13 84 15 85
REMARK SMILES IDX 14 86 38 87 36 88 37 89 16 90 17 91 18 92 19 93 20 95 21 96
REMARK SMILES IDX 29 97 22 98 28 99 27 100 30 101 31 102 34 103 32 104 33 105
REMARK SMILES IDX 23 106 24 107 25 108 26 109
REMARK H PARENT 3 7 98 25 64 36 8 79 19 94
REMARK Flexibility Score: inf
ROOT
ATOM      1  C   UNL     1       4.707   3.162  -1.233  1.00  0.00     0.023 C 
ENDROOT
BRANCH   1   2
ATOM      2  C   UNL     1       5.154   1.699  -1.287  1.00  0.00     0.023 C 
BRANCH   2   3
ATOM      3  C   UNL     1       4.782   0.835  -0.080  1.00  0.00     0.116 C 
BRANCH   3   4
ATOM      4  N   UNL     1       3.377   0.859   0.277  1.00  0.00    -0.352 N 
ATOM      5  O   UNL     1       1.246   0.386   0.562  1.00  0.00    -0.269 OA
ATOM      6  C   UNL     1       2.261   0.161  -0.105  1.00  0.00     0.251 C 
ATOM      7  H   UNL     1       3.175   1.542   0.958  1.00  0.00     0.163 HD
BRANCH   6   8
ATOM      8  C   UNL     1       2.173  -0.801  -1.243  1.00  0.00     0.039 A 
ATOM      9  C   UNL     1       3.227  -1.184  -2.071  1.00  0.00     0.014 A 
ATOM     10  C   UNL     1       0.898  -1.344  -1.506  1.00  0.00     0.014 A 
ATOM     11  C   UNL     1       3.010  -2.046  -3.150  1.00  0.00     0.010 A 
ATOM     12  C   UNL     1       0.679  -2.217  -2.575  1.00  0.00     0.010 A 
ATOM     13  C   UNL     1       1.735  -2.556  -3.416  1.00  0.00    -0.014 A 
BRANCH  13  14
ATOM     14  C   UNL     1       1.595  -3.497  -4.532  1.00  0.00     0.031 A 
ATOM     15  C   UNL     1       2.336  -4.790  -4.418  1.00  0.00     0.074 A 
ATOM     16  C   UNL     1       0.749  -3.345  -5.572  1.00  0.00     0.049 A 
ATOM     17  N   UNL     1       3.256  -5.272  -5.194  1.00  0.00    -0.248 NA
ATOM     18  C   UNL     1       2.020  -5.646  -3.265  1.00  0.00     0.031 C 
ATOM     19  C   UNL     1      -0.324  -2.362  -5.732  1.00  0.00     0.029 A 
ATOM     20  N   UNL     1       0.623  -4.132  -6.683  1.00  0.00    -0.354 N 
ATOM     21  C   UNL     1       3.519  -6.563  -4.732  1.00  0.00     0.074 A 
ATOM     22  C   UNL     1       2.800  -6.704  -3.491  1.00  0.00     0.031 C 
ATOM     23  C   UNL     1      -1.113  -2.735  -6.765  1.00  0.00     0.029 A 
ATOM     24  C   UNL     1      -0.526  -3.893  -7.420  1.00  0.00     0.049 A 
ATOM     25  H   UNL     1       1.290  -4.810  -6.937  1.00  0.00     0.167 HD
ATOM     26  C   UNL     1       4.191  -7.494  -5.468  1.00  0.00     0.037 A 
ATOM     27  C   UNL     1      -0.993  -4.627  -8.458  1.00  0.00     0.037 A 
ATOM     28  C   UNL     1       4.911  -6.908  -6.564  1.00  0.00     0.049 A 
ATOM     29  C   UNL     1       0.135  -5.415  -9.014  1.00  0.00     0.074 A 
ATOM     30  C   UNL     1       5.924  -5.978  -6.684  1.00  0.00     0.029 A 
ATOM     31  N   UNL     1       4.416  -7.079  -7.833  1.00  0.00    -0.354 N 
ATOM     32  N   UNL     1       1.158  -4.910  -9.647  1.00  0.00    -0.248 NA
ATOM     33  C   UNL     1       0.290  -6.797  -8.586  1.00  0.00     0.031 C 
ATOM     34  C   UNL     1       5.669  -5.300  -7.911  1.00  0.00     0.029 A 
ATOM     35  C   UNL     1       4.519  -5.866  -8.463  1.00  0.00     0.049 A 
ATOM     36  H   UNL     1       4.057  -7.912  -8.216  1.00  0.00     0.167 HD
ATOM     37  C   UNL     1       2.213  -5.760  -9.359  1.00  0.00     0.074 A 
ATOM     38  C   UNL     1       1.594  -6.962  -8.815  1.00  0.00     0.031 C 
ATOM     39  C   UNL     1       3.502  -5.313  -9.333  1.00  0.00     0.037 A 
BRANCH  26  40
ATOM     40  C   UNL     1       3.990  -8.986  -5.357  1.00  0.00     0.058 A 
ATOM     41  C   UNL     1       4.930  -9.871  -5.927  1.00  0.00     0.135 A 
ATOM     42  C   UNL     1       2.771  -9.569  -4.950  1.00  0.00     0.135 A 
ATOM     43  F   UNL     1       6.115  -9.420  -6.367  1.00  0.00    -0.206 F 
ATOM     44  C   UNL     1       4.656 -11.226  -6.129  1.00  0.00     0.059 A 
ATOM     45  C   UNL     1       2.497 -10.927  -5.094  1.00  0.00     0.059 A 
ATOM     46  F   UNL     1       1.759  -8.827  -4.481  1.00  0.00    -0.206 F 
ATOM     47  C   UNL     1       3.428 -11.739  -5.725  1.00  0.00     0.060 A 
BRANCH  47  48
ATOM     48  S   UNL     1       3.023 -13.458  -6.091  1.00  0.00     0.124 S 
ATOM     49  O   UNL     1       2.772 -13.395  -7.526  1.00  0.00    -0.237 OA
ATOM     50  O   UNL     1       4.239 -14.155  -5.686  1.00  0.00    -0.237 OA
ATOM     51  O   UNL     1       1.855 -13.712  -5.253  1.00  0.00    -0.744 OA
ENDBRANCH  47  48
ENDBRANCH  26  40
BRANCH  27  52
ATOM     52  C   UNL     1      -2.406  -4.903  -8.822  1.00  0.00     0.058 A 
ATOM     53  C   UNL     1      -2.748  -5.420 -10.084  1.00  0.00     0.135 A 
ATOM     54  C   UNL     1      -3.420  -4.926  -7.843  1.00  0.00     0.135 A 
ATOM     55  F   UNL     1      -1.835  -5.463 -11.066  1.00  0.00    -0.206 F 
ATOM     56  C   UNL     1      -4.008  -5.967 -10.347  1.00  0.00     0.059 A 
ATOM     57  C   UNL     1      -4.687  -5.452  -8.087  1.00  0.00     0.059 A 
ATOM     58  F   UNL     1      -3.179  -4.521  -6.587  1.00  0.00    -0.206 F 
ATOM     59  C   UNL     1      -4.966  -5.995  -9.335  1.00  0.00     0.060 A 
BRANCH  59  60
ATOM     60  S   UNL     1      -6.530  -6.857  -9.616  1.00  0.00     0.124 S 
ATOM     61  O   UNL     1      -7.200  -5.965 -10.555  1.00  0.00    -0.237 OA
ATOM     62  O   UNL     1      -6.084  -8.136 -10.158  1.00  0.00    -0.237 OA
ATOM     63  O   UNL     1      -7.124  -6.922  -8.283  1.00  0.00    -0.744 OA
ENDBRANCH  59  60
ENDBRANCH  27  52
BRANCH  39  64
ATOM     64  C   UNL     1       3.825  -3.997  -9.986  1.00  0.00     0.058 A 
ATOM     65  C   UNL     1       3.340  -2.758  -9.534  1.00  0.00     0.135 A 
ATOM     66  C   UNL     1       4.810  -3.976 -10.987  1.00  0.00     0.135 A 
ATOM     67  F   UNL     1       2.472  -2.688  -8.514  1.00  0.00    -0.206 F 
ATOM     68  C   UNL     1       3.799  -1.553 -10.068  1.00  0.00     0.059 A 
ATOM     69  C   UNL     1       5.304  -2.785 -11.512  1.00  0.00     0.059 A 
ATOM     70  F   UNL     1       5.355  -5.126 -11.418  1.00  0.00    -0.206 F 
ATOM     71  C   UNL     1       4.790  -1.575 -11.050  1.00  0.00     0.060 A 
BRANCH  71  72
ATOM     72  S   UNL     1       5.484  -0.012 -11.632  1.00  0.00     0.124 S 
ATOM     73  O   UNL     1       4.438   0.475 -12.524  1.00  0.00    -0.237 OA
ATOM     74  O   UNL     1       5.663   0.740 -10.393  1.00  0.00    -0.237 OA
ATOM     75  O   UNL     1       6.727  -0.415 -12.287  1.00  0.00    -0.744 OA
ENDBRANCH  71  72
ENDBRANCH  39  64
ENDBRANCH  13  14
ENDBRANCH   6   8
ENDBRANCH   3   4
ENDBRANCH   2   3
ENDBRANCH   1   2
BRANCH   1  76
ATOM     76  C   UNL     1       5.164   3.978  -0.027  1.00  0.00     0.116 C 
BRANCH  76  77
ATOM     77  N   UNL     1       6.600   4.247   0.020  1.00  0.00    -0.352 N 
ATOM     78  C   UNL     1       7.262   5.432   0.294  1.00  0.00     0.251 C 
ATOM     79  H   UNL     1       7.180   3.474  -0.172  1.00  0.00     0.163 HD
ATOM     80  O   UNL     1       8.487   5.493   0.267  1.00  0.00    -0.269 OA
BRANCH  78  81
ATOM     81  C   UNL     1       6.476   6.654   0.596  1.00  0.00     0.041 A 
ATOM     82  C   UNL     1       5.481   6.590   1.571  1.00  0.00     0.018 A 
ATOM     83  C   UNL     1       6.643   7.810  -0.202  1.00  0.00     0.036 A 
ATOM     84  C   UNL     1       4.514   7.571   1.557  1.00  0.00    -0.043 A 
ATOM     85  C   UNL     1       5.683   8.841  -0.164  1.00  0.00     0.092 A 
ATOM     86  C   UNL     1       4.566   8.639   0.643  1.00  0.00    -0.024 A 
ATOM     87  C   UNL     1       3.220   7.549   2.314  1.00  0.00     0.036 C 
ATOM     88  C   UNL     1       3.211   9.277   0.604  1.00  0.00     0.037 C 
ATOM     89  C   UNL     1       2.682   8.944   1.999  1.00  0.00     0.010 C 
BRANCH  85  90
ATOM     90  S   UNL     1       5.771  10.179  -1.339  1.00  0.00     0.262 S 
ATOM     91  O   UNL     1       6.955   9.982  -2.142  1.00  0.00    -0.201 OA
ATOM     92  O   UNL     1       4.474  10.309  -1.977  1.00  0.00    -0.201 OA
BRANCH  90  93
ATOM     93  N   UNL     1       6.070  11.655  -0.524  1.00  0.00    -0.277 N 
ATOM     94  H   UNL     1       6.843  12.207  -0.784  1.00  0.00     0.180 HD
BRANCH  93  95
ATOM     95  C   UNL     1       5.207  12.098   0.533  1.00  0.00     0.075 A 
ATOM     96  C   UNL     1       3.988  12.714   0.205  1.00  0.00     0.042 A 
ATOM     97  C   UNL     1       5.486  11.791   1.875  1.00  0.00     0.089 A 
ATOM     98  C   UNL     1       3.016  12.967   1.197  1.00  0.00     0.058 A 
ATOM     99  C   UNL     1       4.532  12.066   2.869  1.00  0.00     0.031 A 
ATOM    100  C   UNL     1       3.310  12.653   2.531  1.00  0.00     0.015 A 
BRANCH  97 101
ATOM    101  N   UNL     1       6.695  11.155   2.256  1.00  0.00    -0.239 N 
ATOM    102  C   UNL     1       7.926  11.225   1.642  1.00  0.00     0.115 A 
ATOM    103  N   UNL     1       6.727  10.306   3.316  1.00  0.00    -0.177 NA
ATOM    104  C   UNL     1       8.697  10.224   2.176  1.00  0.00     0.042 A 
ATOM    105  C   UNL     1       7.893   9.668   3.181  1.00  0.00     0.135 A 
ENDBRANCH  97 101
BRANCH  98 106
ATOM    106  C   UNL     1       1.651  13.496   0.815  1.00  0.00     0.416 C 
ATOM    107  F   UNL     1       1.683  14.807   0.454  1.00  0.00    -0.166 F 
ATOM    108  F   UNL     1       1.106  12.826  -0.236  1.00  0.00    -0.166 F 
ATOM    109  F   UNL     1       0.737  13.407   1.823  1.00  0.00    -0.166 F 
ENDBRANCH  98 106
ENDBRANCH  93  95
ENDBRANCH  90  93
ENDBRANCH  85  90
ENDBRANCH  78  81
ENDBRANCH  76  77
ENDBRANCH   1  76
TORSDOF 19
