REMARK SMILES CCN(C(=O)[C@H]1C=C[C@@H]([NH3+])C1)[C@H](C)CC(=O)NCCCCNC(=O)c1ccc(-c2c3nc(c(-c4c(F)cc(S(=O)(=O)[O-])cc4F)c4ccc([nH]4)c(-c4c(F)cc(S(=O)(=O)[O-])cc4F)c4nc(c(-c5c(F)cc(S(=O)(=O)[O-])cc5F)c5ccc2[nH]5)C=C4)C=C3)cc1
REMARK SMILES IDX 18 1 17 2 15 3 16 4 14 6 12 7 13 8 3 9 2 10 1 11 4 12 5 13
REMARK SMILES IDX 6 14 7 15 11 16 8 17 9 18 10 19 19 23 20 24 21 25 22 26
REMARK SMILES IDX 23 27 24 29 25 30 26 31 90 32 27 33 89 34 28 35 29 36 30 37
REMARK SMILES IDX 83 38 31 39 88 40 82 41 84 42 32 43 87 44 81 45 80 46 33 48
REMARK SMILES IDX 67 49 46 50 66 51 47 52 50 53 65 54 85 55 48 56 49 57 64 59
REMARK SMILES IDX 86 60 51 61 34 62 35 63 44 64 36 65 37 66 43 67 45 68 38 69
REMARK SMILES IDX 39 70 40 71 41 72 42 73 68 74 69 75 78 76 70 77 71 78 77 79
REMARK SMILES IDX 79 80 72 81 73 82 74 83 75 84 76 85 52 86 53 87 62 88 54 89
REMARK SMILES IDX 55 90 61 91 63 92 56 93 57 94 58 95 59 96 60 97
REMARK H PARENT 17 5 10 20 10 21 10 22 22 28 84 47 50 58
REMARK Flexibility Score: inf
ROOT
ATOM      1  C   UNL     1       0.095  -1.401   1.363  1.00  0.00     0.116 C 
ENDROOT
BRANCH   1   2
ATOM      2  N   UNL     1       1.185  -2.113   2.009  1.00  0.00    -0.356 N 
ATOM      3  C   UNL     1       2.434  -2.403   1.541  1.00  0.00     0.222 C 
ATOM      4  O   UNL     1       3.160  -3.139   2.212  1.00  0.00    -0.275 OA
ATOM      5  H   UNL     1       0.993  -2.434   2.919  1.00  0.00     0.163 HD
BRANCH   3   6
ATOM      6  C   UNL     1       2.917  -1.817   0.231  1.00  0.00     0.124 C 
BRANCH   6   7
ATOM      7  C   UNL     1       2.708  -2.763  -0.972  1.00  0.00     0.091 C 
ATOM      8  C   UNL     1       1.241  -2.942  -1.360  1.00  0.00     0.031 C 
BRANCH   7   9
ATOM      9  N   UNL     1       3.459  -2.438  -2.220  1.00  0.00    -0.339 N 
BRANCH   9  10
ATOM     10  C   UNL     1       3.812  -3.627  -3.006  1.00  0.00     0.116 C 
ATOM     11  C   UNL     1       5.069  -4.318  -2.507  1.00  0.00     0.027 C 
ENDBRANCH   9  10
BRANCH   9  12
ATOM     12  C   UNL     1       3.491  -1.117  -2.652  1.00  0.00     0.229 C 
ATOM     13  O   UNL     1       3.026  -0.220  -1.931  1.00  0.00    -0.274 OA
BRANCH  12  14
ATOM     14  C   UNL     1       4.103  -0.619  -3.986  1.00  0.00     0.107 C 
ATOM     15  C   UNL     1       4.505  -1.472  -5.141  1.00  0.00    -0.012 C 
ATOM     16  C   UNL     1       3.040   0.318  -4.625  1.00  0.00     0.087 C 
ATOM     17  C   UNL     1       3.931  -1.103  -6.292  1.00  0.00     0.033 C 
ATOM     18  C   UNL     1       3.093   0.116  -6.140  1.00  0.00     0.205 C 
BRANCH  18  19
ATOM     19  N   UNL     1       1.771  -0.042  -6.714  1.00  0.00    -0.352 N 
ATOM     20  H   UNL     1       1.302  -0.833  -6.273  1.00  0.00     0.345 HD
ATOM     21  H   UNL     1       1.854  -0.212  -7.716  1.00  0.00     0.345 HD
ATOM     22  H   UNL     1       1.228   0.806  -6.556  1.00  0.00     0.345 HD
ENDBRANCH  18  19
ENDBRANCH  12  14
ENDBRANCH   9  12
ENDBRANCH   7   9
ENDBRANCH   6   7
ENDBRANCH   3   6
ENDBRANCH   1   2
BRANCH   1  23
ATOM     23  C   UNL     1      -1.020  -2.368   0.959  1.00  0.00     0.023 C 
BRANCH  23  24
ATOM     24  C   UNL     1      -2.017  -2.693   2.057  1.00  0.00     0.023 C 
BRANCH  24  25
ATOM     25  C   UNL     1      -2.837  -1.508   2.522  1.00  0.00     0.116 C 
BRANCH  25  26
ATOM     26  N   UNL     1      -3.596  -0.872   1.452  1.00  0.00    -0.352 N 
ATOM     27  C   UNL     1      -4.917  -0.487   1.459  1.00  0.00     0.251 C 
ATOM     28  H   UNL     1      -3.102  -0.696   0.620  1.00  0.00     0.163 HD
ATOM     29  O   UNL     1      -5.453  -0.067   0.439  1.00  0.00    -0.269 OA
BRANCH  27  30
ATOM     30  C   UNL     1      -5.684  -0.632   2.712  1.00  0.00     0.039 A 
ATOM     31  C   UNL     1      -6.920  -1.278   2.686  1.00  0.00     0.014 A 
ATOM     32  C   UNL     1      -5.120  -0.220   3.922  1.00  0.00     0.014 A 
ATOM     33  C   UNL     1      -7.555  -1.581   3.890  1.00  0.00     0.010 A 
ATOM     34  C   UNL     1      -5.693  -0.629   5.115  1.00  0.00     0.010 A 
ATOM     35  C   UNL     1      -6.926  -1.298   5.114  1.00  0.00    -0.014 A 
BRANCH  35  36
ATOM     36  C   UNL     1      -7.551  -1.650   6.412  1.00  0.00     0.031 A 
ATOM     37  C   UNL     1      -7.870  -0.557   7.397  1.00  0.00     0.074 A 
ATOM     38  C   UNL     1      -7.760  -2.943   6.732  1.00  0.00     0.049 A 
ATOM     39  N   UNL     1      -8.334  -0.652   8.616  1.00  0.00    -0.248 NA
ATOM     40  C   UNL     1      -7.586   0.825   6.973  1.00  0.00     0.031 C 
ATOM     41  C   UNL     1      -7.422  -4.093   5.889  1.00  0.00     0.029 A 
ATOM     42  N   UNL     1      -8.300  -3.508   7.859  1.00  0.00    -0.354 N 
ATOM     43  C   UNL     1      -8.370   0.647   9.107  1.00  0.00     0.074 A 
ATOM     44  C   UNL     1      -7.815   1.505   8.085  1.00  0.00     0.031 C 
ATOM     45  C   UNL     1      -7.794  -5.222   6.514  1.00  0.00     0.029 A 
ATOM     46  C   UNL     1      -8.365  -4.881   7.813  1.00  0.00     0.049 A 
ATOM     47  H   UNL     1      -8.612  -2.980   8.629  1.00  0.00     0.167 HD
ATOM     48  C   UNL     1      -8.856   1.093  10.288  1.00  0.00     0.037 A 
ATOM     49  C   UNL     1      -8.837  -5.761   8.717  1.00  0.00     0.037 A 
ATOM     50  C   UNL     1      -9.458   0.239  11.275  1.00  0.00     0.049 A 
ATOM     51  C   UNL     1      -9.419  -5.239  10.003  1.00  0.00     0.074 A 
ATOM     52  C   UNL     1     -10.050   0.591  12.474  1.00  0.00     0.029 A 
ATOM     53  N   UNL     1      -9.555  -1.141  11.168  1.00  0.00    -0.354 N 
ATOM     54  N   UNL     1      -9.508  -3.999  10.424  1.00  0.00    -0.248 NA
ATOM     55  C   UNL     1      -9.976  -6.232  10.932  1.00  0.00     0.031 C 
ATOM     56  C   UNL     1     -10.478  -0.580  13.108  1.00  0.00     0.029 A 
ATOM     57  C   UNL     1     -10.190  -1.657  12.284  1.00  0.00     0.049 A 
ATOM     58  H   UNL     1      -9.222  -1.674  10.411  1.00  0.00     0.167 HD
ATOM     59  C   UNL     1     -10.153  -4.061  11.653  1.00  0.00     0.074 A 
ATOM     60  C   UNL     1     -10.443  -5.458  11.902  1.00  0.00     0.031 C 
ATOM     61  C   UNL     1     -10.477  -3.053  12.502  1.00  0.00     0.037 A 
BRANCH  48  62
ATOM     62  C   UNL     1      -8.775   2.570  10.559  1.00  0.00     0.058 A 
ATOM     63  C   UNL     1      -9.557   3.493   9.845  1.00  0.00     0.135 A 
ATOM     64  C   UNL     1      -7.913   3.069  11.548  1.00  0.00     0.135 A 
ATOM     65  F   UNL     1     -10.382   3.073   8.874  1.00  0.00    -0.206 F 
ATOM     66  C   UNL     1      -9.462   4.861  10.078  1.00  0.00     0.059 A 
ATOM     67  C   UNL     1      -7.825   4.432  11.819  1.00  0.00     0.059 A 
ATOM     68  F   UNL     1      -7.140   2.232  12.258  1.00  0.00    -0.206 F 
ATOM     69  C   UNL     1      -8.591   5.321  11.066  1.00  0.00     0.060 A 
BRANCH  69  70
ATOM     70  S   UNL     1      -8.482   7.099  11.359  1.00  0.00     0.124 S 
ATOM     71  O   UNL     1      -7.710   7.536  10.200  1.00  0.00    -0.237 OA
ATOM     72  O   UNL     1      -9.885   7.500  11.373  1.00  0.00    -0.237 OA
ATOM     73  O   UNL     1      -7.794   7.190  12.642  1.00  0.00    -0.744 OA
ENDBRANCH  69  70
ENDBRANCH  48  62
BRANCH  49  74
ATOM     74  C   UNL     1      -8.820  -7.218   8.418  1.00  0.00     0.058 A 
ATOM     75  C   UNL     1     -10.008  -7.910   8.139  1.00  0.00     0.135 A 
ATOM     76  C   UNL     1      -7.620  -7.945   8.389  1.00  0.00     0.135 A 
ATOM     77  F   UNL     1     -11.182  -7.260   8.157  1.00  0.00    -0.206 F 
ATOM     78  C   UNL     1     -10.012  -9.272   7.859  1.00  0.00     0.059 A 
ATOM     79  C   UNL     1      -7.595  -9.304   8.089  1.00  0.00     0.059 A 
ATOM     80  F   UNL     1      -6.453  -7.327   8.631  1.00  0.00    -0.206 F 
ATOM     81  C   UNL     1      -8.798  -9.961   7.835  1.00  0.00     0.060 A 
BRANCH  81  82
ATOM     82  S   UNL     1      -8.808 -11.720   7.422  1.00  0.00     0.124 S 
ATOM     83  O   UNL     1      -9.335 -12.307   8.649  1.00  0.00    -0.237 OA
ATOM     84  O   UNL     1      -9.694 -11.759   6.263  1.00  0.00    -0.237 OA
ATOM     85  O   UNL     1      -7.404 -12.004   7.138  1.00  0.00    -0.744 OA
ENDBRANCH  81  82
ENDBRANCH  49  74
BRANCH  61  86
ATOM     86  C   UNL     1     -11.212  -3.421  13.758  1.00  0.00     0.058 A 
ATOM     87  C   UNL     1     -10.567  -4.055  14.830  1.00  0.00     0.135 A 
ATOM     88  C   UNL     1     -12.567  -3.084  13.910  1.00  0.00     0.135 A 
ATOM     89  F   UNL     1      -9.274  -4.401  14.732  1.00  0.00    -0.206 F 
ATOM     90  C   UNL     1     -11.247  -4.367  16.003  1.00  0.00     0.059 A 
ATOM     91  C   UNL     1     -13.259  -3.363  15.084  1.00  0.00     0.059 A 
ATOM     92  F   UNL     1     -13.226  -2.465  12.918  1.00  0.00    -0.206 F 
ATOM     93  C   UNL     1     -12.593  -4.016  16.120  1.00  0.00     0.060 A 
BRANCH  93  94
ATOM     94  S   UNL     1     -13.457  -4.399  17.657  1.00  0.00     0.124 S 
ATOM     95  O   UNL     1     -13.670  -5.836  17.524  1.00  0.00    -0.237 OA
ATOM     96  O   UNL     1     -12.489  -3.993  18.671  1.00  0.00    -0.237 OA
ATOM     97  O   UNL     1     -14.661  -3.575  17.584  1.00  0.00    -0.744 OA
ENDBRANCH  93  94
ENDBRANCH  61  86
ENDBRANCH  35  36
ENDBRANCH  27  30
ENDBRANCH  25  26
ENDBRANCH  24  25
ENDBRANCH  23  24
ENDBRANCH   1  23
TORSDOF 20
