REMARK SMILES O=Cc1cn(-c2ccc(Cl)cc2)nc1C(=O)NCCCCNC(=O)c1ccc(-c2c3nc(c(-c4c(F)cc(S(=O)(=O)[O-])cc4F)c4ccc([nH]4)c(-c4c(F)cc(S(=O)(=O)[O-])cc4F)c4nc(c(-c5c(F)cc(S(=O)(=O)[O-])cc5F)c5ccc2[nH]5)C=C4)C=C3)cc1
REMARK SMILES IDX 20 1 19 2 18 3 17 4 15 5 16 6 14 8 3 9 4 10 5 11 13 12 2 13
REMARK SMILES IDX 1 14 6 15 7 16 12 17 8 18 11 19 9 20 10 21 21 22 22 23 23 24
REMARK SMILES IDX 24 26 25 27 26 28 90 29 27 30 89 31 28 32 29 33 30 34 83 35
REMARK SMILES IDX 31 36 88 37 82 38 84 39 32 40 87 41 81 42 80 43 33 45 67 46
REMARK SMILES IDX 46 47 66 48 47 49 50 50 65 51 85 52 48 53 49 54 64 56 86 57
REMARK SMILES IDX 51 58 34 59 35 60 44 61 36 62 37 63 43 64 45 65 38 66 39 67
REMARK SMILES IDX 40 68 41 69 42 70 68 71 69 72 78 73 70 74 71 75 77 76 79 77
REMARK SMILES IDX 72 78 73 79 74 80 75 81 76 82 52 83 53 84 62 85 54 86 55 87
REMARK SMILES IDX 61 88 63 89 56 90 57 91 58 92 59 93 60 94
REMARK H PARENT 17 7 22 25 84 44 50 55
REMARK Flexibility Score: inf
ROOT
ATOM      1  C   UNL     1       2.216  -1.350  -4.328  1.00  0.00     0.023 C 
ENDROOT
BRANCH   1   2
ATOM      2  C   UNL     1       1.658  -0.453  -3.218  1.00  0.00     0.023 C 
BRANCH   2   3
ATOM      3  C   UNL     1       2.460  -0.346  -1.923  1.00  0.00     0.116 C 
BRANCH   3   4
ATOM      4  N   UNL     1       3.748   0.305  -2.051  1.00  0.00    -0.351 N 
ATOM      5  C   UNL     1       4.356   1.287  -1.291  1.00  0.00     0.272 C 
ATOM      6  O   UNL     1       5.434   1.709  -1.714  1.00  0.00    -0.267 OA
ATOM      7  H   UNL     1       4.285  -0.007  -2.815  1.00  0.00     0.163 HD
BRANCH   5   8
ATOM      8  C   UNL     1       3.759   1.806  -0.037  1.00  0.00     0.161 A 
ATOM      9  C   UNL     1       3.019   1.136   0.983  1.00  0.00     0.066 A 
ATOM     10  C   UNL     1       2.766   2.099   1.932  1.00  0.00     0.127 A 
ATOM     11  N   UNL     1       3.437   3.226   1.550  1.00  0.00    -0.239 N 
ATOM     12  N   UNL     1       3.912   3.114   0.291  1.00  0.00    -0.162 NA
BRANCH   9  13
ATOM     13  C   UNL     1       2.592  -0.233   1.125  1.00  0.00     0.264 C 
ATOM     14  O   UNL     1       1.536  -0.543   1.665  1.00  0.00    -0.298 OA
ENDBRANCH   9  13
BRANCH  11  15
ATOM     15  C   UNL     1       3.622   4.381   2.352  1.00  0.00     0.065 A 
ATOM     16  C   UNL     1       3.640   4.249   3.751  1.00  0.00     0.030 A 
ATOM     17  C   UNL     1       3.762   5.644   1.767  1.00  0.00     0.030 A 
ATOM     18  C   UNL     1       3.757   5.378   4.563  1.00  0.00     0.023 A 
ATOM     19  C   UNL     1       3.835   6.777   2.588  1.00  0.00     0.023 A 
ATOM     20  C   UNL     1       3.827   6.639   3.978  1.00  0.00     0.041 A 
ATOM     21  Cl  UNL     1       3.892   8.035   4.984  1.00  0.00    -0.084 Cl
ENDBRANCH  11  15
ENDBRANCH   5   8
ENDBRANCH   3   4
ENDBRANCH   2   3
ENDBRANCH   1   2
BRANCH   1  22
ATOM     22  C   UNL     1       2.531  -2.786  -3.924  1.00  0.00     0.116 C 
BRANCH  22  23
ATOM     23  N   UNL     1       1.368  -3.539  -3.473  1.00  0.00    -0.352 N 
ATOM     24  C   UNL     1       1.305  -4.895  -3.189  1.00  0.00     0.251 C 
ATOM     25  H   UNL     1       0.534  -3.029  -3.357  1.00  0.00     0.163 HD
ATOM     26  O   UNL     1       0.234  -5.468  -3.116  1.00  0.00    -0.269 OA
BRANCH  24  27
ATOM     27  C   UNL     1       2.573  -5.635  -3.005  1.00  0.00     0.039 A 
ATOM     28  C   UNL     1       2.787  -6.841  -3.676  1.00  0.00     0.014 A 
ATOM     29  C   UNL     1       3.568  -5.083  -2.199  1.00  0.00     0.014 A 
ATOM     30  C   UNL     1       4.048  -7.433  -3.617  1.00  0.00     0.010 A 
ATOM     31  C   UNL     1       4.840  -5.622  -2.212  1.00  0.00     0.010 A 
ATOM     32  C   UNL     1       5.089  -6.801  -2.916  1.00  0.00    -0.014 A 
BRANCH  32  33
ATOM     33  C   UNL     1       6.469  -7.276  -3.086  1.00  0.00     0.031 A 
ATOM     34  C   UNL     1       6.919  -7.371  -4.507  1.00  0.00     0.074 A 
ATOM     35  C   UNL     1       7.368  -7.397  -2.084  1.00  0.00     0.049 A 
ATOM     36  N   UNL     1       7.248  -8.429  -5.173  1.00  0.00    -0.248 NA
ATOM     37  C   UNL     1       6.879  -6.147  -5.327  1.00  0.00     0.031 C 
ATOM     38  C   UNL     1       7.184  -7.031  -0.675  1.00  0.00     0.029 A 
ATOM     39  N   UNL     1       8.684  -7.762  -2.133  1.00  0.00    -0.354 N 
ATOM     40  C   UNL     1       7.679  -7.980  -6.421  1.00  0.00     0.074 A 
ATOM     41  C   UNL     1       7.254  -6.610  -6.522  1.00  0.00     0.031 C 
ATOM     42  C   UNL     1       8.387  -6.971  -0.064  1.00  0.00     0.029 A 
ATOM     43  C   UNL     1       9.403  -7.457  -0.980  1.00  0.00     0.049 A 
ATOM     44  H   UNL     1       9.089  -8.204  -2.914  1.00  0.00     0.167 HD
ATOM     45  C   UNL     1       8.576  -8.694  -7.159  1.00  0.00     0.037 A 
ATOM     46  C   UNL     1      10.738  -7.580  -0.780  1.00  0.00     0.037 A 
ATOM     47  C   UNL     1       8.712 -10.033  -6.642  1.00  0.00     0.049 A 
ATOM     48  C   UNL     1      11.247  -8.560  -1.765  1.00  0.00     0.074 A 
ATOM     49  C   UNL     1       7.913 -11.151  -6.540  1.00  0.00     0.029 A 
ATOM     50  N   UNL     1       9.770 -10.217  -5.792  1.00  0.00    -0.354 N 
ATOM     51  N   UNL     1      10.947  -9.828  -1.746  1.00  0.00    -0.248 NA
ATOM     52  C   UNL     1      11.864  -8.085  -2.995  1.00  0.00     0.031 C 
ATOM     53  C   UNL     1       8.364 -11.842  -5.377  1.00  0.00     0.029 A 
ATOM     54  C   UNL     1       9.444 -11.142  -4.838  1.00  0.00     0.049 A 
ATOM     55  H   UNL     1      10.636  -9.753  -5.857  1.00  0.00     0.167 HD
ATOM     56  C   UNL     1      10.922 -10.197  -3.077  1.00  0.00     0.074 A 
ATOM     57  C   UNL     1      11.666  -9.155  -3.770  1.00  0.00     0.031 C 
ATOM     58  C   UNL     1      10.037 -11.137  -3.517  1.00  0.00     0.037 A 
BRANCH  45  59
ATOM     59  C   UNL     1       9.659  -8.095  -8.043  1.00  0.00     0.058 A 
ATOM     60  C   UNL     1      10.477  -8.961  -8.807  1.00  0.00     0.135 A 
ATOM     61  C   UNL     1      10.132  -6.769  -7.929  1.00  0.00     0.135 A 
ATOM     62  F   UNL     1      10.131 -10.245  -8.989  1.00  0.00    -0.206 F 
ATOM     63  C   UNL     1      11.710  -8.564  -9.332  1.00  0.00     0.059 A 
ATOM     64  C   UNL     1      11.332  -6.340  -8.490  1.00  0.00     0.059 A 
ATOM     65  F   UNL     1       9.510  -5.848  -7.187  1.00  0.00    -0.206 F 
ATOM     66  C   UNL     1      12.137  -7.254  -9.149  1.00  0.00     0.060 A 
BRANCH  66  67
ATOM     67  S   UNL     1      13.772  -6.762  -9.723  1.00  0.00     0.124 S 
ATOM     68  O   UNL     1      14.634  -7.471  -8.785  1.00  0.00    -0.237 OA
ATOM     69  O   UNL     1      13.774  -7.256 -11.096  1.00  0.00    -0.237 OA
ATOM     70  O   UNL     1      13.750  -5.308  -9.588  1.00  0.00    -0.744 OA
ENDBRANCH  66  67
ENDBRANCH  45  59
BRANCH  46  71
ATOM     71  C   UNL     1      11.650  -6.794   0.087  1.00  0.00     0.058 A 
ATOM     72  C   UNL     1      12.934  -7.270   0.410  1.00  0.00     0.135 A 
ATOM     73  C   UNL     1      11.399  -5.437   0.367  1.00  0.00     0.135 A 
ATOM     74  F   UNL     1      13.261  -8.549   0.172  1.00  0.00    -0.206 F 
ATOM     75  C   UNL     1      13.935  -6.433   0.909  1.00  0.00     0.059 A 
ATOM     76  C   UNL     1      12.379  -4.585   0.875  1.00  0.00     0.059 A 
ATOM     77  F   UNL     1      10.218  -4.877   0.061  1.00  0.00    -0.206 F 
ATOM     78  C   UNL     1      13.656  -5.082   1.111  1.00  0.00     0.060 A 
BRANCH  78  79
ATOM     79  S   UNL     1      15.004  -3.958   1.547  1.00  0.00     0.124 S 
ATOM     80  O   UNL     1      15.290  -4.348   2.922  1.00  0.00    -0.237 OA
ATOM     81  O   UNL     1      16.022  -4.301   0.560  1.00  0.00    -0.237 OA
ATOM     82  O   UNL     1      14.405  -2.635   1.384  1.00  0.00    -0.744 OA
ENDBRANCH  78  79
ENDBRANCH  46  71
BRANCH  58  83
ATOM     83  C   UNL     1       9.522 -12.124  -2.508  1.00  0.00     0.058 A 
ATOM     84  C   UNL     1       8.739 -11.806  -1.385  1.00  0.00     0.135 A 
ATOM     85  C   UNL     1       9.800 -13.481  -2.733  1.00  0.00     0.135 A 
ATOM     86  F   UNL     1       8.342 -10.546  -1.152  1.00  0.00    -0.206 F 
ATOM     87  C   UNL     1       8.309 -12.789  -0.492  1.00  0.00     0.059 A 
ATOM     88  C   UNL     1       9.351 -14.480  -1.878  1.00  0.00     0.059 A 
ATOM     89  F   UNL     1      10.497 -13.854  -3.820  1.00  0.00    -0.206 F 
ATOM     90  C   UNL     1       8.627 -14.124  -0.744  1.00  0.00     0.060 A 
BRANCH  90  91
ATOM     91  S   UNL     1       8.044 -15.400   0.392  1.00  0.00     0.124 S 
ATOM     92  O   UNL     1       8.904 -15.194   1.552  1.00  0.00    -0.237 OA
ATOM     93  O   UNL     1       6.639 -15.048   0.573  1.00  0.00    -0.237 OA
ATOM     94  O   UNL     1       8.275 -16.642  -0.344  1.00  0.00    -0.744 OA
ENDBRANCH  90  91
ENDBRANCH  58  83
ENDBRANCH  32  33
ENDBRANCH  24  27
ENDBRANCH  22  23
ENDBRANCH   1  22
TORSDOF 16
