REMARK SMILES CC[C@@H](Sc1nnc2ccc3ccccc3n12)C(=O)Nc1cccc(C(=O)NCCCCNC(=O)c2ccc(-c3c4nc(c(-c5c(F)cc(S(=O)(=O)[O-])cc5F)c5ccc([nH]5)c(-c5c(F)cc(S(=O)(=O)[O-])cc5F)c5nc(c(-c6c(F)cc(S(=O)(=O)[O-])cc6F)c6ccc3[nH]6)C=C5)C=C4)cc2)c1
REMARK SMILES IDX 30 1 29 2 28 3 26 4 27 5 25 7 21 8 22 9 102 10 23 11 24 12
REMARK SMILES IDX 20 13 18 14 19 15 3 17 2 18 1 19 4 20 5 21 6 22 17 23 7 24
REMARK SMILES IDX 8 25 16 26 9 27 11 28 15 29 10 30 12 31 14 32 13 33 31 34
REMARK SMILES IDX 32 35 33 36 34 37 35 39 36 40 37 41 101 42 38 43 100 44
REMARK SMILES IDX 39 45 40 46 41 47 94 48 42 49 99 50 93 51 95 52 43 53 98 54
REMARK SMILES IDX 92 55 91 56 44 58 78 59 57 60 77 61 58 62 61 63 76 64 96 65
REMARK SMILES IDX 59 66 60 67 75 69 97 70 62 71 45 72 46 73 55 74 47 75 48 76
REMARK SMILES IDX 54 77 56 78 49 79 50 80 51 81 52 82 53 83 79 84 80 85 89 86
REMARK SMILES IDX 81 87 82 88 88 89 90 90 83 91 84 92 85 93 86 94 87 95 63 96
REMARK SMILES IDX 64 97 73 98 65 99 66 100 72 101 74 102 67 103 68 104 69 105
REMARK SMILES IDX 70 106 71 107
REMARK H PARENT 28 6 20 16 33 38 95 57 61 68
REMARK Flexibility Score: inf
ROOT
ATOM      1  C   UNL     1      -3.618   0.290  -7.202  1.00  0.00     0.023 C 
ENDROOT
BRANCH   1   2
ATOM      2  C   UNL     1      -3.933   0.831  -5.820  1.00  0.00     0.116 C 
BRANCH   2   3
ATOM      3  N   UNL     1      -4.802  -0.003  -5.015  1.00  0.00    -0.352 N 
ATOM      4  C   UNL     1      -4.916  -0.160  -3.654  1.00  0.00     0.251 C 
ATOM      5  O   UNL     1      -5.805  -0.912  -3.248  1.00  0.00    -0.269 OA
ATOM      6  H   UNL     1      -5.425  -0.558  -5.538  1.00  0.00     0.163 HD
BRANCH   4   7
ATOM      7  C   UNL     1      -4.012   0.485  -2.652  1.00  0.00     0.041 A 
ATOM      8  C   UNL     1      -2.169   1.903  -1.993  1.00  0.00     0.041 A 
ATOM      9  C   UNL     1      -2.291   1.474  -0.681  1.00  0.00     0.026 A 
ATOM     10  C   UNL     1      -3.152   1.554  -2.916  1.00  0.00     0.040 A 
ATOM     11  C   UNL     1      -3.193   0.467  -0.360  1.00  0.00     0.003 A 
ATOM     12  C   UNL     1      -4.005  -0.068  -1.359  1.00  0.00     0.014 A 
BRANCH   8  13
ATOM     13  N   UNL     1      -1.056   2.623  -2.450  1.00  0.00    -0.325 N 
ATOM     14  C   UNL     1       0.271   2.241  -2.473  1.00  0.00     0.237 C 
ATOM     15  O   UNL     1       1.046   3.031  -3.033  1.00  0.00    -0.273 OA
ATOM     16  H   UNL     1      -1.247   3.522  -2.802  1.00  0.00     0.169 HD
BRANCH  14  17
ATOM     17  C   UNL     1       0.829   0.899  -1.904  1.00  0.00     0.144 C 
BRANCH  17  18
ATOM     18  C   UNL     1       0.743   0.875  -0.371  1.00  0.00     0.021 C 
ATOM     19  C   UNL     1       1.708  -0.004   0.402  1.00  0.00     0.005 C 
ENDBRANCH  17  18
BRANCH  17  20
ATOM     20  S   UNL     1       0.041  -0.484  -2.832  1.00  0.00    -0.072 SA
BRANCH  20  21
ATOM     21  C   UNL     1       0.997  -1.878  -2.458  1.00  0.00     0.196 A 
ATOM     22  N   UNL     1       2.089  -1.860  -1.729  1.00  0.00    -0.122 NA
ATOM     23  N   UNL     1       0.631  -3.191  -2.700  1.00  0.00    -0.270 N 
ATOM     24  N   UNL     1       2.307  -3.130  -1.256  1.00  0.00    -0.129 NA
ATOM     25  C   UNL     1       1.396  -3.915  -1.791  1.00  0.00     0.161 A 
ATOM     26  C   UNL     1      -0.265  -3.815  -3.609  1.00  0.00     0.057 A 
ATOM     27  C   UNL     1       1.124  -5.288  -1.586  1.00  0.00     0.050 A 
ATOM     28  C   UNL     1      -0.443  -5.207  -3.452  1.00  0.00    -0.001 A 
ATOM     29  C   UNL     1      -0.868  -3.149  -4.677  1.00  0.00     0.027 A 
ATOM     30  C   UNL     1       0.235  -5.923  -2.362  1.00  0.00     0.014 A 
ATOM     31  C   UNL     1      -1.239  -5.911  -4.360  1.00  0.00     0.010 A 
ATOM     32  C   UNL     1      -1.655  -3.868  -5.582  1.00  0.00     0.002 A 
ATOM     33  C   UNL     1      -1.840  -5.241  -5.425  1.00  0.00     0.001 A 
ENDBRANCH  20  21
ENDBRANCH  17  20
ENDBRANCH  14  17
ENDBRANCH   8  13
ENDBRANCH   4   7
ENDBRANCH   2   3
ENDBRANCH   1   2
BRANCH   1  34
ATOM     34  C   UNL     1      -4.795   0.014  -8.127  1.00  0.00     0.023 C 
BRANCH  34  35
ATOM     35  C   UNL     1      -5.818   1.139  -8.293  1.00  0.00     0.116 C 
BRANCH  35  36
ATOM     36  N   UNL     1      -5.277   2.448  -8.603  1.00  0.00    -0.352 N 
ATOM     37  C   UNL     1      -4.988   3.117  -9.763  1.00  0.00     0.251 C 
ATOM     38  H   UNL     1      -5.071   2.975  -7.798  1.00  0.00     0.163 HD
ATOM     39  O   UNL     1      -4.803   4.332  -9.649  1.00  0.00    -0.269 OA
BRANCH  37  40
ATOM     40  C   UNL     1      -4.809   2.485 -11.098  1.00  0.00     0.039 A 
ATOM     41  C   UNL     1      -4.982   1.131 -11.371  1.00  0.00     0.014 A 
ATOM     42  C   UNL     1      -4.329   3.319 -12.127  1.00  0.00     0.014 A 
ATOM     43  C   UNL     1      -4.544   0.596 -12.575  1.00  0.00     0.010 A 
ATOM     44  C   UNL     1      -3.931   2.795 -13.354  1.00  0.00     0.010 A 
ATOM     45  C   UNL     1      -3.979   1.420 -13.551  1.00  0.00    -0.014 A 
BRANCH  45  46
ATOM     46  C   UNL     1      -3.514   0.780 -14.778  1.00  0.00     0.031 A 
ATOM     47  C   UNL     1      -4.539  -0.026 -15.501  1.00  0.00     0.074 A 
ATOM     48  C   UNL     1      -2.266   0.904 -15.268  1.00  0.00     0.049 A 
ATOM     49  N   UNL     1      -4.572  -1.310 -15.653  1.00  0.00    -0.248 NA
ATOM     50  C   UNL     1      -5.736   0.664 -15.998  1.00  0.00     0.031 C 
ATOM     51  C   UNL     1      -1.195   1.804 -14.839  1.00  0.00     0.029 A 
ATOM     52  N   UNL     1      -1.718   0.267 -16.341  1.00  0.00    -0.354 N 
ATOM     53  C   UNL     1      -5.703  -1.586 -16.418  1.00  0.00     0.074 A 
ATOM     54  C   UNL     1      -6.447  -0.354 -16.488  1.00  0.00     0.031 C 
ATOM     55  C   UNL     1      -0.219   1.813 -15.776  1.00  0.00     0.029 A 
ATOM     56  C   UNL     1      -0.531   0.824 -16.794  1.00  0.00     0.049 A 
ATOM     57  H   UNL     1      -2.131  -0.523 -16.759  1.00  0.00     0.167 HD
ATOM     58  C   UNL     1      -5.858  -2.772 -17.073  1.00  0.00     0.037 A 
ATOM     59  C   UNL     1       0.109   0.529 -17.954  1.00  0.00     0.037 A 
ATOM     60  C   UNL     1      -4.944  -3.768 -16.577  1.00  0.00     0.049 A 
ATOM     61  C   UNL     1      -0.323  -0.839 -18.353  1.00  0.00     0.074 A 
ATOM     62  C   UNL     1      -4.750  -4.381 -15.354  1.00  0.00     0.029 A 
ATOM     63  N   UNL     1      -3.816  -4.036 -17.314  1.00  0.00    -0.354 N 
ATOM     64  N   UNL     1      -0.009  -1.918 -17.687  1.00  0.00    -0.248 NA
ATOM     65  C   UNL     1      -1.479  -0.966 -19.229  1.00  0.00     0.031 C 
ATOM     66  C   UNL     1      -3.339  -4.548 -15.248  1.00  0.00     0.029 A 
ATOM     67  C   UNL     1      -2.768  -4.074 -16.430  1.00  0.00     0.049 A 
ATOM     68  H   UNL     1      -3.768  -4.174 -18.287  1.00  0.00     0.167 HD
ATOM     69  C   UNL     1      -1.150  -2.706 -17.727  1.00  0.00     0.074 A 
ATOM     70  C   UNL     1      -1.989  -2.110 -18.764  1.00  0.00     0.031 C 
ATOM     71  C   UNL     1      -1.436  -3.600 -16.734  1.00  0.00     0.037 A 
BRANCH  58  72
ATOM     72  C   UNL     1      -6.602  -2.961 -18.374  1.00  0.00     0.058 A 
ATOM     73  C   UNL     1      -6.795  -4.267 -18.876  1.00  0.00     0.135 A 
ATOM     74  C   UNL     1      -6.854  -1.915 -19.287  1.00  0.00     0.135 A 
ATOM     75  F   UNL     1      -6.605  -5.339 -18.091  1.00  0.00    -0.206 F 
ATOM     76  C   UNL     1      -7.102  -4.516 -20.214  1.00  0.00     0.059 A 
ATOM     77  C   UNL     1      -7.212  -2.140 -20.612  1.00  0.00     0.059 A 
ATOM     78  F   UNL     1      -6.667  -0.629 -18.968  1.00  0.00    -0.206 F 
ATOM     79  C   UNL     1      -7.279  -3.442 -21.080  1.00  0.00     0.060 A 
BRANCH  79  80
ATOM     80  S   UNL     1      -7.505  -3.758 -22.839  1.00  0.00     0.124 S 
ATOM     81  O   UNL     1      -6.202  -4.300 -23.206  1.00  0.00    -0.237 OA
ATOM     82  O   UNL     1      -8.615  -4.705 -22.836  1.00  0.00    -0.237 OA
ATOM     83  O   UNL     1      -7.815  -2.438 -23.380  1.00  0.00    -0.744 OA
ENDBRANCH  79  80
ENDBRANCH  58  72
BRANCH  59  84
ATOM     84  C   UNL     1       0.791   1.477 -18.878  1.00  0.00     0.058 A 
ATOM     85  C   UNL     1       1.556   1.022 -19.967  1.00  0.00     0.135 A 
ATOM     86  C   UNL     1       0.490   2.856 -18.872  1.00  0.00     0.135 A 
ATOM     87  F   UNL     1       1.874  -0.277 -20.073  1.00  0.00    -0.206 F 
ATOM     88  C   UNL     1       1.955   1.871 -21.008  1.00  0.00     0.059 A 
ATOM     89  C   UNL     1       0.887   3.721 -19.889  1.00  0.00     0.059 A 
ATOM     90  F   UNL     1      -0.286   3.395 -17.920  1.00  0.00    -0.206 F 
ATOM     91  C   UNL     1       1.596   3.218 -20.970  1.00  0.00     0.060 A 
BRANCH  91  92
ATOM     92  S   UNL     1       1.952   4.282 -22.389  1.00  0.00     0.124 S 
ATOM     93  O   UNL     1       3.408   4.355 -22.356  1.00  0.00    -0.237 OA
ATOM     94  O   UNL     1       1.375   3.522 -23.493  1.00  0.00    -0.237 OA
ATOM     95  O   UNL     1       1.258   5.525 -22.064  1.00  0.00    -0.744 OA
ENDBRANCH  91  92
ENDBRANCH  59  84
BRANCH  71  96
ATOM     96  C   UNL     1      -0.375  -3.914 -15.714  1.00  0.00     0.058 A 
ATOM     97  C   UNL     1       0.116  -2.980 -14.785  1.00  0.00     0.135 A 
ATOM     98  C   UNL     1      -0.005  -5.256 -15.531  1.00  0.00     0.135 A 
ATOM     99  F   UNL     1      -0.270  -1.698 -14.827  1.00  0.00    -0.206 F 
ATOM    100  C   UNL     1       0.951  -3.360 -13.733  1.00  0.00     0.059 A 
ATOM    101  C   UNL     1       0.801  -5.662 -14.471  1.00  0.00     0.059 A 
ATOM    102  F   UNL     1      -0.493  -6.205 -16.347  1.00  0.00    -0.206 F 
ATOM    103  C   UNL     1       1.278  -4.706 -13.576  1.00  0.00     0.060 A 
BRANCH 103 104
ATOM    104  S   UNL     1       2.244  -5.207 -12.135  1.00  0.00     0.124 S 
ATOM    105  O   UNL     1       3.566  -4.686 -12.454  1.00  0.00    -0.237 OA
ATOM    106  O   UNL     1       1.545  -4.543 -11.039  1.00  0.00    -0.237 OA
ATOM    107  O   UNL     1       2.128  -6.667 -12.138  1.00  0.00    -0.744 OA
ENDBRANCH 103 104
ENDBRANCH  71  96
ENDBRANCH  45  46
ENDBRANCH  37  40
ENDBRANCH  35  36
ENDBRANCH  34  35
ENDBRANCH   1  34
TORSDOF 19
