REMARK SMILES Cc1ccccc1[C@@H](Cc1ncnn1C(C)C)C(=O)NCCCCNC(=O)c1ccc(-c2c3nc(c(-c4c(F)cc(S(=O)(=O)[O-])cc4F)c4ccc([nH]4)c(-c4c(F)cc(S(=O)(=O)[O-])cc4F)c4nc(c(-c5c(F)cc(S(=O)(=O)[O-])cc5F)c5ccc2[nH]5)C=C4)C=C3)cc1
REMARK SMILES IDX 22 1 21 2 20 3 18 4 19 5 8 7 7 8 1 9 2 10 3 11 4 12 6 13
REMARK SMILES IDX 5 14 9 15 10 16 11 17 14 18 12 19 13 20 15 21 16 22 17 23
REMARK SMILES IDX 23 24 24 25 25 26 26 27 27 29 28 30 29 31 93 32 30 33 92 34
REMARK SMILES IDX 31 35 32 36 33 37 86 38 34 39 91 40 85 41 87 42 35 43 90 44
REMARK SMILES IDX 84 45 83 46 36 48 70 49 49 50 69 51 50 52 53 53 68 54 88 55
REMARK SMILES IDX 51 56 52 57 67 59 89 60 54 61 37 62 38 63 47 64 39 65 40 66
REMARK SMILES IDX 46 67 48 68 41 69 42 70 43 71 44 72 45 73 71 74 72 75 81 76
REMARK SMILES IDX 73 77 74 78 80 79 82 80 75 81 76 82 77 83 78 84 79 85 55 86
REMARK SMILES IDX 56 87 65 88 57 89 58 90 64 91 66 92 59 93 60 94 61 95 62 96
REMARK SMILES IDX 63 97
REMARK H PARENT 20 6 25 28 87 47 53 58
REMARK Flexibility Score: inf
ROOT
ATOM      1  C   UNL     1      -2.792   2.017   1.798  1.00  0.00     0.023 C 
ENDROOT
BRANCH   1   2
ATOM      2  C   UNL     1      -1.921   3.126   1.200  1.00  0.00     0.116 C 
BRANCH   2   3
ATOM      3  N   UNL     1      -0.548   3.167   1.667  1.00  0.00    -0.356 N 
ATOM      4  C   UNL     1       0.626   2.903   1.031  1.00  0.00     0.228 C 
ATOM      5  O   UNL     1       1.653   3.275   1.618  1.00  0.00    -0.274 OA
ATOM      6  H   UNL     1      -0.448   3.432   2.610  1.00  0.00     0.163 HD
BRANCH   4   7
ATOM      7  C   UNL     1       0.762   2.185  -0.327  1.00  0.00     0.116 C 
BRANCH   7   8
ATOM      8  C   UNL     1       0.287   0.726  -0.297  1.00  0.00    -0.032 A 
ATOM      9  C   UNL     1       2.630  -0.181   0.306  1.00  0.00     0.044 C 
ATOM     10  C   UNL     1       1.148  -0.342   0.075  1.00  0.00    -0.047 A 
ATOM     11  C   UNL     1       0.636  -1.653   0.163  1.00  0.00     0.004 A 
ATOM     12  C   UNL     1      -0.706  -1.923  -0.083  1.00  0.00     0.000 A 
ATOM     13  C   UNL     1      -1.048   0.405  -0.587  1.00  0.00     0.005 A 
ATOM     14  C   UNL     1      -1.547  -0.892  -0.463  1.00  0.00     0.000 A 
ENDBRANCH   7   8
BRANCH   7  15
ATOM     15  C   UNL     1       0.578   3.042  -1.601  1.00  0.00     0.095 C 
BRANCH  15  16
ATOM     16  C   UNL     1      -0.762   3.617  -1.886  1.00  0.00     0.128 A 
ATOM     17  N   UNL     1      -1.778   2.965  -2.418  1.00  0.00    -0.220 NA
ATOM     18  N   UNL     1      -1.151   4.921  -1.679  1.00  0.00    -0.248 N 
ATOM     19  C   UNL     1      -2.800   3.868  -2.398  1.00  0.00     0.246 A 
ATOM     20  N   UNL     1      -2.469   5.071  -1.933  1.00  0.00    -0.159 NA
BRANCH  18  21
ATOM     21  C   UNL     1      -0.352   6.086  -1.317  1.00  0.00     0.103 C 
ATOM     22  C   UNL     1      -0.179   6.998  -2.531  1.00  0.00     0.033 C 
ATOM     23  C   UNL     1      -0.926   6.823  -0.108  1.00  0.00     0.033 C 
ENDBRANCH  18  21
ENDBRANCH  15  16
ENDBRANCH   7  15
ENDBRANCH   4   7
ENDBRANCH   2   3
ENDBRANCH   1   2
BRANCH   1  24
ATOM     24  C   UNL     1      -3.522   2.372   3.092  1.00  0.00     0.023 C 
BRANCH  24  25
ATOM     25  C   UNL     1      -4.478   3.555   2.979  1.00  0.00     0.116 C 
BRANCH  25  26
ATOM     26  N   UNL     1      -5.850   3.250   2.635  1.00  0.00    -0.352 N 
ATOM     27  C   UNL     1      -6.934   4.127   2.727  1.00  0.00     0.251 C 
ATOM     28  H   UNL     1      -6.037   2.341   2.305  1.00  0.00     0.163 HD
ATOM     29  O   UNL     1      -8.050   3.745   2.983  1.00  0.00    -0.269 OA
BRANCH  27  30
ATOM     30  C   UNL     1      -6.682   5.543   2.331  1.00  0.00     0.039 A 
ATOM     31  C   UNL     1      -7.396   6.059   1.241  1.00  0.00     0.014 A 
ATOM     32  C   UNL     1      -5.622   6.260   2.872  1.00  0.00     0.014 A 
ATOM     33  C   UNL     1      -6.944   7.218   0.600  1.00  0.00     0.010 A 
ATOM     34  C   UNL     1      -5.108   7.330   2.168  1.00  0.00     0.010 A 
ATOM     35  C   UNL     1      -5.754   7.808   1.021  1.00  0.00    -0.014 A 
BRANCH  35  36
ATOM     36  C   UNL     1      -5.051   8.879   0.317  1.00  0.00     0.031 A 
ATOM     37  C   UNL     1      -4.897  10.224   0.937  1.00  0.00     0.074 A 
ATOM     38  C   UNL     1      -4.352   8.598  -0.806  1.00  0.00     0.049 A 
ATOM     39  N   UNL     1      -4.571  11.292   0.284  1.00  0.00    -0.248 NA
ATOM     40  C   UNL     1      -5.098  10.477   2.362  1.00  0.00     0.031 C 
ATOM     41  C   UNL     1      -3.277   9.408  -1.375  1.00  0.00     0.029 A 
ATOM     42  N   UNL     1      -4.574   7.597  -1.762  1.00  0.00    -0.354 N 
ATOM     43  C   UNL     1      -4.229  12.261   1.201  1.00  0.00     0.074 A 
ATOM     44  C   UNL     1      -4.627  11.723   2.481  1.00  0.00     0.031 C 
ATOM     45  C   UNL     1      -3.116   9.077  -2.662  1.00  0.00     0.029 A 
ATOM     46  C   UNL     1      -4.175   8.146  -3.002  1.00  0.00     0.049 A 
ATOM     47  H   UNL     1      -4.934   6.695  -1.603  1.00  0.00     0.167 HD
ATOM     48  C   UNL     1      -3.517  13.356   0.805  1.00  0.00     0.037 A 
ATOM     49  C   UNL     1      -5.039   8.309  -4.045  1.00  0.00     0.037 A 
ATOM     50  C   UNL     1      -3.229  13.319  -0.626  1.00  0.00     0.049 A 
ATOM     51  C   UNL     1      -5.147   9.735  -4.522  1.00  0.00     0.074 A 
ATOM     52  C   UNL     1      -2.106  12.931  -1.340  1.00  0.00     0.029 A 
ATOM     53  N   UNL     1      -4.261  13.437  -1.550  1.00  0.00    -0.354 N 
ATOM     54  N   UNL     1      -4.769  10.760  -3.811  1.00  0.00    -0.248 NA
ATOM     55  C   UNL     1      -5.678  10.132  -5.823  1.00  0.00     0.031 C 
ATOM     56  C   UNL     1      -2.471  12.788  -2.697  1.00  0.00     0.029 A 
ATOM     57  C   UNL     1      -3.817  13.091  -2.812  1.00  0.00     0.049 A 
ATOM     58  H   UNL     1      -5.177  13.725  -1.336  1.00  0.00     0.167 HD
ATOM     59  C   UNL     1      -5.000  11.918  -4.503  1.00  0.00     0.074 A 
ATOM     60  C   UNL     1      -5.560  11.472  -5.764  1.00  0.00     0.031 C 
ATOM     61  C   UNL     1      -4.702  13.139  -3.967  1.00  0.00     0.037 A 
BRANCH  48  62
ATOM     62  C   UNL     1      -2.836  14.304   1.772  1.00  0.00     0.058 A 
ATOM     63  C   UNL     1      -1.588  14.892   1.465  1.00  0.00     0.135 A 
ATOM     64  C   UNL     1      -3.354  14.650   3.036  1.00  0.00     0.135 A 
ATOM     65  F   UNL     1      -1.006  14.731   0.270  1.00  0.00    -0.206 F 
ATOM     66  C   UNL     1      -0.863  15.661   2.376  1.00  0.00     0.059 A 
ATOM     67  C   UNL     1      -2.625  15.377   3.985  1.00  0.00     0.059 A 
ATOM     68  F   UNL     1      -4.606  14.318   3.383  1.00  0.00    -0.206 F 
ATOM     69  C   UNL     1      -1.371  15.870   3.649  1.00  0.00     0.060 A 
BRANCH  69  70
ATOM     70  S   UNL     1      -0.365  16.775   4.840  1.00  0.00     0.124 S 
ATOM     71  O   UNL     1       0.903  16.054   4.784  1.00  0.00    -0.237 OA
ATOM     72  O   UNL     1      -0.357  18.119   4.272  1.00  0.00    -0.237 OA
ATOM     73  O   UNL     1      -1.104  16.626   6.091  1.00  0.00    -0.744 OA
ENDBRANCH  69  70
ENDBRANCH  48  62
BRANCH  49  74
ATOM     74  C   UNL     1      -6.111   7.281  -4.079  1.00  0.00     0.058 A 
ATOM     75  C   UNL     1      -5.730   5.963  -4.395  1.00  0.00     0.135 A 
ATOM     76  C   UNL     1      -7.301   7.460  -3.361  1.00  0.00     0.135 A 
ATOM     77  F   UNL     1      -4.612   5.738  -5.105  1.00  0.00    -0.206 F 
ATOM     78  C   UNL     1      -6.394   4.865  -3.861  1.00  0.00     0.059 A 
ATOM     79  C   UNL     1      -7.986   6.370  -2.818  1.00  0.00     0.059 A 
ATOM     80  F   UNL     1      -7.721   8.694  -3.046  1.00  0.00    -0.206 F 
ATOM     81  C   UNL     1      -7.470   5.087  -3.004  1.00  0.00     0.060 A 
BRANCH  81  82
ATOM     82  S   UNL     1      -8.047   3.697  -2.001  1.00  0.00     0.124 S 
ATOM     83  O   UNL     1      -8.338   2.688  -3.014  1.00  0.00    -0.237 OA
ATOM     84  O   UNL     1      -6.877   3.428  -1.165  1.00  0.00    -0.237 OA
ATOM     85  O   UNL     1      -9.207   4.243  -1.305  1.00  0.00    -0.744 OA
ENDBRANCH  81  82
ENDBRANCH  49  74
BRANCH  61  86
ATOM     86  C   UNL     1      -5.105  14.485  -4.519  1.00  0.00     0.058 A 
ATOM     87  C   UNL     1      -6.256  14.703  -5.294  1.00  0.00     0.135 A 
ATOM     88  C   UNL     1      -4.395  15.654  -4.143  1.00  0.00     0.135 A 
ATOM     89  F   UNL     1      -7.074  13.695  -5.627  1.00  0.00    -0.206 F 
ATOM     90  C   UNL     1      -6.643  15.976  -5.719  1.00  0.00     0.059 A 
ATOM     91  C   UNL     1      -4.793  16.936  -4.511  1.00  0.00     0.059 A 
ATOM     92  F   UNL     1      -3.289  15.592  -3.386  1.00  0.00    -0.206 F 
ATOM     93  C   UNL     1      -5.907  17.088  -5.321  1.00  0.00     0.060 A 
BRANCH  93  94
ATOM     94  S   UNL     1      -6.439  18.741  -5.801  1.00  0.00     0.124 S 
ATOM     95  O   UNL     1      -5.679  18.946  -7.030  1.00  0.00    -0.237 OA
ATOM     96  O   UNL     1      -7.881  18.583  -5.971  1.00  0.00    -0.237 OA
ATOM     97  O   UNL     1      -6.038  19.561  -4.662  1.00  0.00    -0.744 OA
ENDBRANCH  93  94
ENDBRANCH  61  86
ENDBRANCH  35  36
ENDBRANCH  27  30
ENDBRANCH  25  26
ENDBRANCH  24  25
ENDBRANCH   1  24
TORSDOF 18
