REMARK SMILES CC[NH+]1CCC2(CC1)OC[C@H](C(=O)NCCCCNC(=O)c1ccc(-c3c4nc(c(-c5c(F)cc(S(=O)(=O)[O-])cc5F)c5ccc([nH]5)c(-c5c(F)cc(S(=O)(=O)[O-])cc5F)c5nc(c(-c6c(F)cc(S(=O)(=O)[O-])cc6F)c6ccc3[nH]6)C=C5)C=C4)cc1)N2C(=O)c1ccc(F)cc1
REMARK SMILES IDX 17 1 16 2 15 3 14 4 12 5 13 6 11 8 3 9 4 10 8 11 5 13 7 14
REMARK SMILES IDX 6 15 9 16 88 17 10 18 2 19 1 20 89 21 90 22 91 23 92 24
REMARK SMILES IDX 97 25 93 26 96 27 94 28 95 29 18 30 19 31 20 32 21 34 22 35
REMARK SMILES IDX 23 36 87 37 24 38 86 39 25 40 26 41 27 42 80 43 28 44 85 45
REMARK SMILES IDX 79 46 81 47 29 48 84 49 78 50 77 51 30 53 64 54 43 55 63 56
REMARK SMILES IDX 44 57 47 58 62 59 82 60 45 61 46 62 61 64 83 65 48 66 31 67
REMARK SMILES IDX 32 68 41 69 33 70 34 71 40 72 42 73 35 74 36 75 37 76 38 77
REMARK SMILES IDX 39 78 65 79 66 80 75 81 67 82 68 83 74 84 76 85 69 86 70 87
REMARK SMILES IDX 71 88 72 89 73 90 49 91 50 92 59 93 51 94 52 95 58 96 60 97
REMARK SMILES IDX 53 98 54 99 55 100 56 101 57 102
REMARK H PARENT 14 7 3 12 19 33 81 52 47 63
REMARK Flexibility Score: inf
ROOT
ATOM      1  C   UNL     1       4.807  -6.305   0.846  1.00  0.00     0.023 C 
ENDROOT
BRANCH   1   2
ATOM      2  C   UNL     1       3.934  -6.465  -0.401  1.00  0.00     0.023 C 
BRANCH   2   3
ATOM      3  C   UNL     1       2.801  -7.478  -0.263  1.00  0.00     0.116 C 
BRANCH   3   4
ATOM      4  N   UNL     1       1.765  -7.002   0.629  1.00  0.00    -0.354 N 
ATOM      5  C   UNL     1       0.520  -6.525   0.343  1.00  0.00     0.245 C 
ATOM      6  O   UNL     1      -0.190  -6.235   1.310  1.00  0.00    -0.273 OA
ATOM      7  H   UNL     1       1.994  -7.027   1.587  1.00  0.00     0.163 HD
BRANCH   5   8
ATOM      8  C   UNL     1       0.054  -6.327  -1.121  1.00  0.00     0.203 C 
ATOM      9  N   UNL     1       0.533  -1.223  -1.389  1.00  0.00    -0.335 N 
ATOM     10  C   UNL     1       0.836  -2.162  -0.322  1.00  0.00     0.267 C 
ATOM     11  C   UNL     1      -0.144  -1.733  -2.579  1.00  0.00     0.267 C 
ATOM     12  H   UNL     1       1.494  -1.085  -1.699  1.00  0.00     0.348 HD
ATOM     13  C   UNL     1      -0.201  -3.234  -0.116  1.00  0.00     0.120 C 
ATOM     14  C   UNL     1      -0.928  -3.043  -2.488  1.00  0.00     0.120 C 
ATOM     15  C   UNL     1      -0.488  -4.017  -1.397  1.00  0.00     0.155 C 
ATOM     16  O   UNL     1      -1.711  -4.766  -1.090  1.00  0.00    -0.352 OA
ATOM     17  N   UNL     1       0.490  -5.073  -1.737  1.00  0.00    -0.295 N 
ATOM     18  C   UNL     1      -1.447  -6.173  -1.171  1.00  0.00     0.198 C 
BRANCH   9  19
ATOM     19  C   UNL     1       0.083   0.114  -1.006  1.00  0.00     0.258 C 
ATOM     20  C   UNL     1       0.889   0.778   0.106  1.00  0.00     0.071 C 
ENDBRANCH   9  19
BRANCH  17  21
ATOM     21  C   UNL     1       1.540  -5.144  -2.643  1.00  0.00     0.256 C 
ATOM     22  O   UNL     1       2.057  -6.212  -2.976  1.00  0.00    -0.269 OA
BRANCH  21  23
ATOM     23  C   UNL     1       2.098  -3.976  -3.334  1.00  0.00     0.040 A 
ATOM     24  C   UNL     1       1.803  -3.794  -4.692  1.00  0.00     0.017 A 
ATOM     25  C   UNL     1       3.062  -3.174  -2.715  1.00  0.00     0.017 A 
ATOM     26  C   UNL     1       2.375  -2.725  -5.388  1.00  0.00     0.040 A 
ATOM     27  C   UNL     1       3.613  -2.091  -3.404  1.00  0.00     0.040 A 
ATOM     28  C   UNL     1       3.253  -1.868  -4.729  1.00  0.00     0.123 A 
ATOM     29  F   UNL     1       3.764  -0.819  -5.385  1.00  0.00    -0.207 F 
ENDBRANCH  21  23
ENDBRANCH  17  21
ENDBRANCH   5   8
ENDBRANCH   3   4
ENDBRANCH   2   3
ENDBRANCH   1   2
BRANCH   1  30
ATOM     30  C   UNL     1       5.427  -7.592   1.383  1.00  0.00     0.116 C 
BRANCH  30  31
ATOM     31  N   UNL     1       6.207  -8.311   0.388  1.00  0.00    -0.352 N 
ATOM     32  C   UNL     1       7.428  -8.927   0.527  1.00  0.00     0.251 C 
ATOM     33  H   UNL     1       5.806  -8.364  -0.509  1.00  0.00     0.163 HD
ATOM     34  O   UNL     1       7.999  -9.396  -0.454  1.00  0.00    -0.269 OA
BRANCH  32  35
ATOM     35  C   UNL     1       8.068  -8.984   1.858  1.00  0.00     0.039 A 
ATOM     36  C   UNL     1       9.395  -8.566   1.983  1.00  0.00     0.014 A 
ATOM     37  C   UNL     1       7.349  -9.402   2.982  1.00  0.00     0.014 A 
ATOM     38  C   UNL     1       9.973  -8.480   3.251  1.00  0.00     0.010 A 
ATOM     39  C   UNL     1       7.906  -9.255   4.250  1.00  0.00     0.010 A 
ATOM     40  C   UNL     1       9.216  -8.773   4.398  1.00  0.00    -0.014 A 
BRANCH  40  41
ATOM     41  C   UNL     1       9.753  -8.518   5.759  1.00  0.00     0.031 A 
ATOM     42  C   UNL     1       9.975  -9.652   6.718  1.00  0.00     0.074 A 
ATOM     43  C   UNL     1       9.962  -7.246   6.153  1.00  0.00     0.049 A 
ATOM     44  N   UNL     1      10.359  -9.611   7.968  1.00  0.00    -0.248 NA
ATOM     45  C   UNL     1       9.711 -11.009   6.215  1.00  0.00     0.031 C 
ATOM     46  C   UNL     1       9.736  -6.057   5.327  1.00  0.00     0.029 A 
ATOM     47  N   UNL     1      10.396  -6.736   7.351  1.00  0.00    -0.354 N 
ATOM     48  C   UNL     1      10.377 -10.930   8.404  1.00  0.00     0.074 A 
ATOM     49  C   UNL     1       9.919 -11.744   7.299  1.00  0.00     0.031 C 
ATOM     50  C   UNL     1      10.048  -4.961   6.036  1.00  0.00     0.029 A 
ATOM     51  C   UNL     1      10.454  -5.362   7.379  1.00  0.00     0.049 A 
ATOM     52  H   UNL     1      10.643  -7.301   8.119  1.00  0.00     0.167 HD
ATOM     53  C   UNL     1      10.757 -11.416   9.610  1.00  0.00     0.037 A 
ATOM     54  C   UNL     1      10.781  -4.518   8.377  1.00  0.00     0.037 A 
ATOM     55  C   UNL     1      11.223 -10.598  10.701  1.00  0.00     0.049 A 
ATOM     56  C   UNL     1      11.176  -5.082   9.714  1.00  0.00     0.074 A 
ATOM     57  C   UNL     1      11.691 -11.002  11.939  1.00  0.00     0.029 A 
ATOM     58  N   UNL     1      11.270  -9.211  10.691  1.00  0.00    -0.354 N 
ATOM     59  N   UNL     1      11.255  -6.338  10.086  1.00  0.00    -0.248 NA
ATOM     60  C   UNL     1      11.525  -4.118  10.766  1.00  0.00     0.031 C 
ATOM     61  C   UNL     1      11.974  -9.860  12.695  1.00  0.00     0.029 A 
ATOM     62  C   UNL     1      11.729  -8.743  11.912  1.00  0.00     0.049 A 
ATOM     63  H   UNL     1      11.014  -8.643   9.929  1.00  0.00     0.167 HD
ATOM     64  C   UNL     1      11.677  -6.314  11.411  1.00  0.00     0.074 A 
ATOM     65  C   UNL     1      11.856  -4.921  11.767  1.00  0.00     0.031 C 
ATOM     66  C   UNL     1      11.894  -7.352  12.256  1.00  0.00     0.037 A 
BRANCH  53  67
ATOM     67  C   UNL     1      10.688 -12.905   9.816  1.00  0.00     0.058 A 
ATOM     68  C   UNL     1      11.578 -13.779   9.173  1.00  0.00     0.135 A 
ATOM     69  C   UNL     1       9.748 -13.461  10.699  1.00  0.00     0.135 A 
ATOM     70  F   UNL     1      12.488 -13.303   8.307  1.00  0.00    -0.206 F 
ATOM     71  C   UNL     1      11.523 -15.154   9.376  1.00  0.00     0.059 A 
ATOM     72  C   UNL     1       9.693 -14.832  10.939  1.00  0.00     0.059 A 
ATOM     73  F   UNL     1       8.873 -12.672  11.341  1.00  0.00    -0.206 F 
ATOM     74  C   UNL     1      10.576 -15.671  10.262  1.00  0.00     0.060 A 
BRANCH  74  75
ATOM     75  S   UNL     1      10.523 -17.457  10.520  1.00  0.00     0.124 S 
ATOM     76  O   UNL     1       9.946 -17.915   9.259  1.00  0.00    -0.237 OA
ATOM     77  O   UNL     1      11.930 -17.785  10.727  1.00  0.00    -0.237 OA
ATOM     78  O   UNL     1       9.668 -17.607  11.693  1.00  0.00    -0.744 OA
ENDBRANCH  74  75
ENDBRANCH  53  67
BRANCH  54  79
ATOM     79  C   UNL     1      10.752  -3.050   8.146  1.00  0.00     0.058 A 
ATOM     80  C   UNL     1      11.939  -2.305   8.087  1.00  0.00     0.135 A 
ATOM     81  C   UNL     1       9.540  -2.364   7.962  1.00  0.00     0.135 A 
ATOM     82  F   UNL     1      13.121  -2.914   8.265  1.00  0.00    -0.206 F 
ATOM     83  C   UNL     1      11.927  -0.931   7.867  1.00  0.00     0.059 A 
ATOM     84  C   UNL     1       9.505  -0.996   7.715  1.00  0.00     0.059 A 
ATOM     85  F   UNL     1       8.377  -3.034   7.992  1.00  0.00    -0.206 F 
ATOM     86  C   UNL     1      10.704  -0.286   7.678  1.00  0.00     0.060 A 
BRANCH  86  87
ATOM     87  S   UNL     1      10.703   1.488   7.340  1.00  0.00     0.124 S 
ATOM     88  O   UNL     1      11.029   2.037   8.650  1.00  0.00    -0.237 OA
ATOM     89  O   UNL     1      11.742   1.605   6.321  1.00  0.00    -0.237 OA
ATOM     90  O   UNL     1       9.344   1.738   6.868  1.00  0.00    -0.744 OA
ENDBRANCH  86  87
ENDBRANCH  54  79
BRANCH  66  91
ATOM     91  C   UNL     1      12.358  -7.023  13.648  1.00  0.00     0.058 A 
ATOM     92  C   UNL     1      11.490  -6.461  14.597  1.00  0.00     0.135 A 
ATOM     93  C   UNL     1      13.671  -7.314  14.052  1.00  0.00     0.135 A 
ATOM     94  F   UNL     1      10.227  -6.155  14.260  1.00  0.00    -0.206 F 
ATOM     95  C   UNL     1      11.913  -6.181  15.893  1.00  0.00     0.059 A 
ATOM     96  C   UNL     1      14.108  -7.067  15.350  1.00  0.00     0.059 A 
ATOM     97  F   UNL     1      14.540  -7.860  13.186  1.00  0.00    -0.206 F 
ATOM     98  C   UNL     1      13.224  -6.490  16.260  1.00  0.00     0.060 A 
BRANCH  98  99
ATOM     99  S   UNL     1      13.749  -6.153  17.954  1.00  0.00     0.124 S 
ATOM    100  O   UNL     1      13.871  -4.699  17.941  1.00  0.00    -0.237 OA
ATOM    101  O   UNL     1      12.639  -6.688  18.738  1.00  0.00    -0.237 OA
ATOM    102  O   UNL     1      15.004  -6.888  18.074  1.00  0.00    -0.744 OA
ENDBRANCH  98  99
ENDBRANCH  66  91
ENDBRANCH  40  41
ENDBRANCH  32  35
ENDBRANCH  30  31
ENDBRANCH   1  30
TORSDOF 17
