REMARK SMILES CCc1ccc(-c2cc(Cl)cc3c2O[C@H](C(F)(F)F)C(C(=O)NCCCCNC(=O)c2ccc(-c4c5nc(c(-c6c(F)cc(S(=O)(=O)[O-])cc6F)c6ccc([nH]6)c(-c6c(F)cc(S(=O)(=O)[O-])cc6F)c6nc(c(-c7c(F)cc(S(=O)(=O)[O-])cc7F)c7ccc4[nH]7)C=C6)C=C5)cc2)=C3)cc1
REMARK SMILES IDX 26 1 25 2 24 3 23 4 21 5 22 6 20 8 7 9 8 10 13 11 9 12 12 13
REMARK SMILES IDX 14 14 10 15 11 16 97 17 15 18 6 19 3 20 4 21 99 22 5 23
REMARK SMILES IDX 98 24 2 25 1 26 16 27 17 28 18 29 19 30 27 31 28 32 29 33
REMARK SMILES IDX 30 35 31 36 32 37 96 38 33 39 95 40 34 41 35 42 36 43 89 44
REMARK SMILES IDX 37 45 94 46 88 47 90 48 38 49 93 50 87 51 86 52 39 54 73 55
REMARK SMILES IDX 52 56 72 57 53 58 56 59 71 60 91 61 54 62 55 63 70 65 92 66
REMARK SMILES IDX 57 67 40 68 41 69 50 70 42 71 43 72 49 73 51 74 44 75 45 76
REMARK SMILES IDX 46 77 47 78 48 79 74 80 75 81 84 82 76 83 77 84 83 85 85 86
REMARK SMILES IDX 78 87 79 88 80 89 81 90 82 91 58 92 59 93 68 94 60 95 61 96
REMARK SMILES IDX 67 97 69 98 62 99 63 100 64 101 65 102 66 103
REMARK H PARENT 23 7 28 34 90 53 56 64
REMARK Flexibility Score: inf
ROOT
ATOM      1  C   UNL     1       1.220  -6.275  14.534  1.00  0.00     0.023 C 
ENDROOT
BRANCH   1   2
ATOM      2  C   UNL     1       0.313  -5.182  13.949  1.00  0.00     0.023 C 
BRANCH   2   3
ATOM      3  C   UNL     1       1.042  -4.052  13.209  1.00  0.00     0.116 C 
BRANCH   3   4
ATOM      4  N   UNL     1       1.794  -4.602  12.101  1.00  0.00    -0.352 N 
ATOM      5  C   UNL     1       1.831  -4.207  10.809  1.00  0.00     0.251 C 
ATOM      6  O   UNL     1       2.023  -5.057   9.945  1.00  0.00    -0.270 OA
ATOM      7  H   UNL     1       2.361  -5.376  12.321  1.00  0.00     0.163 HD
BRANCH   5   8
ATOM      8  C   UNL     1       1.750  -2.746  10.502  1.00  0.00     0.067 C 
ATOM      9  C   UNL     1       1.752  -2.988   6.434  1.00  0.00     0.026 A 
ATOM     10  C   UNL     1       2.787  -3.895   6.079  1.00  0.00     0.033 A 
ATOM     11  C   UNL     1       1.759  -2.527   7.763  1.00  0.00     0.135 A 
ATOM     12  C   UNL     1       3.852  -4.191   6.926  1.00  0.00     0.042 A 
ATOM     13  C   UNL     1       2.911  -2.744   8.563  1.00  0.00     0.019 A 
ATOM     14  O   UNL     1       0.665  -1.919   8.365  1.00  0.00    -0.475 OA
ATOM     15  Cl  UNL     1       5.042  -5.329   6.434  1.00  0.00    -0.084 Cl
ATOM     16  C   UNL     1       3.961  -3.556   8.146  1.00  0.00     0.032 A 
ATOM     17  C   UNL     1       2.886  -2.261   9.962  1.00  0.00     0.025 C 
ATOM     18  C   UNL     1       0.470  -2.311   9.797  1.00  0.00     0.314 C 
BRANCH   9  19
ATOM     19  C   UNL     1       0.942  -2.504   5.282  1.00  0.00    -0.015 A 
ATOM     20  C   UNL     1       0.505  -1.750   2.553  1.00  0.00    -0.048 A 
ATOM     21  C   UNL     1       0.231  -3.050   2.999  1.00  0.00     0.004 A 
ATOM     22  C   UNL     1       0.857  -0.798   3.517  1.00  0.00     0.004 A 
ATOM     23  C   UNL     1       0.426  -3.416   4.341  1.00  0.00     0.009 A 
ATOM     24  C   UNL     1       1.067  -1.168   4.862  1.00  0.00     0.009 A 
BRANCH  20  25
ATOM     25  C   UNL     1       0.425  -1.474   1.065  1.00  0.00     0.032 C 
ATOM     26  C   UNL     1       1.022  -0.169   0.547  1.00  0.00     0.009 C 
ENDBRANCH  20  25
ENDBRANCH   9  19
BRANCH  18  27
ATOM     27  C   UNL     1      -0.166  -1.166  10.619  1.00  0.00     0.429 C 
ATOM     28  F   UNL     1      -0.070   0.035  10.005  1.00  0.00    -0.167 F 
ATOM     29  F   UNL     1      -1.480  -1.401  10.855  1.00  0.00    -0.167 F 
ATOM     30  F   UNL     1       0.413  -1.019  11.841  1.00  0.00    -0.167 F 
ENDBRANCH  18  27
ENDBRANCH   5   8
ENDBRANCH   3   4
ENDBRANCH   2   3
ENDBRANCH   1   2
BRANCH   1  31
ATOM     31  C   UNL     1       2.314  -5.772  15.467  1.00  0.00     0.116 C 
BRANCH  31  32
ATOM     32  N   UNL     1       1.764  -5.160  16.666  1.00  0.00    -0.352 N 
ATOM     33  C   UNL     1       1.980  -5.487  17.982  1.00  0.00     0.251 C 
ATOM     34  H   UNL     1       1.151  -4.405  16.513  1.00  0.00     0.163 HD
ATOM     35  O   UNL     1       1.269  -4.992  18.857  1.00  0.00    -0.269 OA
BRANCH  33  36
ATOM     36  C   UNL     1       3.044  -6.447  18.344  1.00  0.00     0.039 A 
ATOM     37  C   UNL     1       2.763  -7.453  19.272  1.00  0.00     0.014 A 
ATOM     38  C   UNL     1       4.315  -6.361  17.768  1.00  0.00     0.014 A 
ATOM     39  C   UNL     1       3.735  -8.410  19.572  1.00  0.00     0.010 A 
ATOM     40  C   UNL     1       5.256  -7.359  18.011  1.00  0.00     0.010 A 
ATOM     41  C   UNL     1       4.977  -8.395  18.916  1.00  0.00    -0.014 A 
BRANCH  41  42
ATOM     42  C   UNL     1       5.985  -9.463  19.151  1.00  0.00     0.031 A 
ATOM     43  C   UNL     1       7.329  -9.128  19.739  1.00  0.00     0.074 A 
ATOM     44  C   UNL     1       5.713 -10.727  18.768  1.00  0.00     0.049 A 
ATOM     45  N   UNL     1       8.350  -9.915  19.966  1.00  0.00    -0.248 NA
ATOM     46  C   UNL     1       7.569  -7.720  20.091  1.00  0.00     0.031 C 
ATOM     47  C   UNL     1       4.471 -11.168  18.129  1.00  0.00     0.029 A 
ATOM     48  N   UNL     1       6.468 -11.872  18.846  1.00  0.00    -0.354 N 
ATOM     49  C   UNL     1       9.356  -9.098  20.469  1.00  0.00     0.074 A 
ATOM     50  C   UNL     1       8.839  -7.746  20.466  1.00  0.00     0.031 C 
ATOM     51  C   UNL     1       4.542 -12.486  17.890  1.00  0.00     0.029 A 
ATOM     52  C   UNL     1       5.846 -12.980  18.319  1.00  0.00     0.049 A 
ATOM     53  H   UNL     1       7.369 -11.896  19.241  1.00  0.00     0.167 HD
ATOM     54  C   UNL     1      10.589  -9.445  20.910  1.00  0.00     0.037 A 
ATOM     55  C   UNL     1       6.280 -14.249  18.185  1.00  0.00     0.037 A 
ATOM     56  C   UNL     1      11.086 -10.797  20.929  1.00  0.00     0.049 A 
ATOM     57  C   UNL     1       7.647 -14.615  18.694  1.00  0.00     0.074 A 
ATOM     58  C   UNL     1      12.289 -11.263  21.431  1.00  0.00     0.029 A 
ATOM     59  N   UNL     1      10.416 -11.898  20.415  1.00  0.00    -0.354 N 
ATOM     60  N   UNL     1       8.552 -13.844  19.250  1.00  0.00    -0.248 NA
ATOM     61  C   UNL     1       8.050 -16.022  18.568  1.00  0.00     0.031 C 
ATOM     62  C   UNL     1      12.372 -12.634  21.167  1.00  0.00     0.029 A 
ATOM     63  C   UNL     1      11.194 -13.036  20.558  1.00  0.00     0.049 A 
ATOM     64  H   UNL     1       9.520 -11.874  20.008  1.00  0.00     0.167 HD
ATOM     65  C   UNL     1       9.623 -14.676  19.559  1.00  0.00     0.074 A 
ATOM     66  C   UNL     1       9.245 -16.012  19.143  1.00  0.00     0.031 C 
ATOM     67  C   UNL     1      10.809 -14.362  20.137  1.00  0.00     0.037 A 
BRANCH  54  68
ATOM     68  C   UNL     1      11.492  -8.344  21.401  1.00  0.00     0.058 A 
ATOM     69  C   UNL     1      11.226  -7.637  22.585  1.00  0.00     0.135 A 
ATOM     70  C   UNL     1      12.658  -8.010  20.692  1.00  0.00     0.135 A 
ATOM     71  F   UNL     1      10.120  -7.905  23.299  1.00  0.00    -0.206 F 
ATOM     72  C   UNL     1      12.060  -6.615  23.028  1.00  0.00     0.059 A 
ATOM     73  C   UNL     1      13.524  -7.013  21.133  1.00  0.00     0.059 A 
ATOM     74  F   UNL     1      12.965  -8.653  19.554  1.00  0.00    -0.206 F 
ATOM     75  C   UNL     1      13.206  -6.309  22.293  1.00  0.00     0.060 A 
BRANCH  75  76
ATOM     76  S   UNL     1      14.274  -4.976  22.877  1.00  0.00     0.124 S 
ATOM     77  O   UNL     1      13.463  -3.801  22.575  1.00  0.00    -0.237 OA
ATOM     78  O   UNL     1      14.424  -5.295  24.294  1.00  0.00    -0.237 OA
ATOM     79  O   UNL     1      15.482  -5.129  22.072  1.00  0.00    -0.744 OA
ENDBRANCH  75  76
ENDBRANCH  54  68
BRANCH  55  80
ATOM     80  C   UNL     1       5.397 -15.266  17.551  1.00  0.00     0.058 A 
ATOM     81  C   UNL     1       4.812 -16.292  18.307  1.00  0.00     0.135 A 
ATOM     82  C   UNL     1       5.094 -15.210  16.181  1.00  0.00     0.135 A 
ATOM     83  F   UNL     1       5.076 -16.393  19.619  1.00  0.00    -0.206 F 
ATOM     84  C   UNL     1       3.964 -17.231  17.729  1.00  0.00     0.059 A 
ATOM     85  C   UNL     1       4.227 -16.121  15.585  1.00  0.00     0.059 A 
ATOM     86  F   UNL     1       5.615 -14.238  15.416  1.00  0.00    -0.206 F 
ATOM     87  C   UNL     1       3.672 -17.133  16.367  1.00  0.00     0.060 A 
BRANCH  87  88
ATOM     88  S   UNL     1       2.515 -18.315  15.642  1.00  0.00     0.124 S 
ATOM     89  O   UNL     1       3.312 -19.536  15.628  1.00  0.00    -0.237 OA
ATOM     90  O   UNL     1       1.410 -18.284  16.596  1.00  0.00    -0.237 OA
ATOM     91  O   UNL     1       2.220 -17.737  14.335  1.00  0.00    -0.744 OA
ENDBRANCH  87  88
ENDBRANCH  55  80
BRANCH  67  92
ATOM     92  C   UNL     1      11.782 -15.484  20.381  1.00  0.00     0.058 A 
ATOM     93  C   UNL     1      12.470 -16.109  19.329  1.00  0.00     0.135 A 
ATOM     94  C   UNL     1      12.068 -15.903  21.690  1.00  0.00     0.135 A 
ATOM     95  F   UNL     1      12.230 -15.752  18.057  1.00  0.00    -0.206 F 
ATOM     96  C   UNL     1      13.389 -17.127  19.565  1.00  0.00     0.059 A 
ATOM     97  C   UNL     1      13.005 -16.898  21.952  1.00  0.00     0.059 A 
ATOM     98  F   UNL     1      11.447 -15.332  22.735  1.00  0.00    -0.206 F 
ATOM     99  C   UNL     1      13.652 -17.513  20.881  1.00  0.00     0.060 A 
BRANCH  99 100
ATOM    100  S   UNL     1      14.869 -18.813  21.175  1.00  0.00     0.124 S 
ATOM    101  O   UNL     1      14.146 -19.999  20.729  1.00  0.00    -0.237 OA
ATOM    102  O   UNL     1      15.983 -18.394  20.330  1.00  0.00    -0.237 OA
ATOM    103  O   UNL     1      15.115 -18.731  22.612  1.00  0.00    -0.744 OA
ENDBRANCH  99 100
ENDBRANCH  67  92
ENDBRANCH  41  42
ENDBRANCH  33  36
ENDBRANCH  31  32
ENDBRANCH   1  31
TORSDOF 17
