REMARK SMILES CCC[C@H](NC(=O)c1cc2ccccc2[nH]1)C(=O)NCCCCNC(=O)c1ccc(-c2c3nc(c(-c4c(F)cc(S(=O)(=O)[O-])cc4F)c4ccc([nH]4)c(-c4c(F)cc(S(=O)(=O)[O-])cc4F)c4nc(c(-c5c(F)cc(S(=O)(=O)[O-])cc5F)c5ccc2[nH]5)C=C4)C=C3)cc1
REMARK SMILES IDX 22 1 21 2 20 3 19 4 17 5 18 6 4 8 3 9 2 10 1 11 5 12 6 13
REMARK SMILES IDX 7 15 8 16 9 17 16 18 10 19 15 20 11 22 14 23 12 24 13 25
REMARK SMILES IDX 23 26 24 27 25 28 26 30 27 31 28 32 92 33 29 34 91 35 30 36
REMARK SMILES IDX 31 37 32 38 85 39 33 40 90 41 84 42 86 43 34 44 89 45 83 46
REMARK SMILES IDX 82 47 35 49 69 50 48 51 68 52 49 53 52 54 67 55 87 56 50 57
REMARK SMILES IDX 51 58 66 60 88 61 53 62 36 63 37 64 46 65 38 66 39 67 45 68
REMARK SMILES IDX 47 69 40 70 41 71 42 72 43 73 44 74 70 75 71 76 80 77 72 78
REMARK SMILES IDX 73 79 79 80 81 81 74 82 75 83 76 84 77 85 78 86 54 87 55 88
REMARK SMILES IDX 64 89 56 90 57 91 63 92 65 93 58 94 59 95 60 96 61 97 62 98
REMARK H PARENT 19 7 5 14 16 21 24 29 86 48 52 59
REMARK Flexibility Score: inf
ROOT
ATOM      1  C   UNL     1       1.545   7.333  -1.922  1.00  0.00     0.023 C 
ENDROOT
BRANCH   1   2
ATOM      2  C   UNL     1       1.104   6.028  -1.266  1.00  0.00     0.023 C 
BRANCH   2   3
ATOM      3  C   UNL     1       0.199   5.160  -2.129  1.00  0.00     0.116 C 
BRANCH   3   4
ATOM      4  N   UNL     1       0.921   4.342  -3.072  1.00  0.00    -0.354 N 
ATOM      5  C   UNL     1       1.051   2.985  -3.093  1.00  0.00     0.242 C 
ATOM      6  O   UNL     1       1.739   2.488  -3.991  1.00  0.00    -0.273 OA
ATOM      7  H   UNL     1       1.380   4.827  -3.796  1.00  0.00     0.163 HD
BRANCH   5   8
ATOM      8  C   UNL     1       0.433   2.087  -1.990  1.00  0.00     0.171 C 
BRANCH   8   9
ATOM      9  C   UNL     1      -1.114   2.120  -1.989  1.00  0.00     0.035 C 
BRANCH   9  10
ATOM     10  C   UNL     1      -1.856   2.108  -0.643  1.00  0.00    -0.001 C 
ATOM     11  C   UNL     1      -2.199   3.489  -0.096  1.00  0.00     0.004 C 
ENDBRANCH   9  10
ENDBRANCH   8   9
BRANCH   8  12
ATOM     12  N   UNL     1       1.090   2.375  -0.719  1.00  0.00    -0.339 N 
ATOM     13  C   UNL     1       2.228   1.815  -0.187  1.00  0.00     0.268 C 
ATOM     14  H   UNL     1       0.659   3.066  -0.166  1.00  0.00     0.164 HD
ATOM     15  O   UNL     1       2.508   2.113   0.972  1.00  0.00    -0.268 OA
BRANCH  13  16
ATOM     16  C   UNL     1       3.007   0.875  -0.962  1.00  0.00     0.105 A 
ATOM     17  C   UNL     1       3.590  -0.305  -0.523  1.00  0.00     0.042 A 
ATOM     18  N   UNL     1       3.393   1.016  -2.277  1.00  0.00    -0.351 N 
ATOM     19  C   UNL     1       4.224  -0.941  -1.626  1.00  0.00     0.000 A 
ATOM     20  C   UNL     1       4.080  -0.090  -2.716  1.00  0.00     0.046 A 
ATOM     21  H   UNL     1       3.202   1.808  -2.831  1.00  0.00     0.167 HD
ATOM     22  C   UNL     1       4.905  -2.160  -1.809  1.00  0.00     0.010 A 
ATOM     23  C   UNL     1       4.579  -0.388  -3.989  1.00  0.00     0.026 A 
ATOM     24  C   UNL     1       5.402  -2.482  -3.079  1.00  0.00     0.001 A 
ATOM     25  C   UNL     1       5.240  -1.607  -4.151  1.00  0.00     0.002 A 
ENDBRANCH  13  16
ENDBRANCH   8  12
ENDBRANCH   5   8
ENDBRANCH   3   4
ENDBRANCH   2   3
ENDBRANCH   1   2
BRANCH   1  26
ATOM     26  C   UNL     1       0.415   8.216  -2.443  1.00  0.00     0.116 C 
BRANCH  26  27
ATOM     27  N   UNL     1      -0.591   8.556  -1.444  1.00  0.00    -0.352 N 
ATOM     28  C   UNL     1      -1.342   9.711  -1.382  1.00  0.00     0.251 C 
ATOM     29  H   UNL     1      -0.752   7.889  -0.737  1.00  0.00     0.163 HD
ATOM     30  O   UNL     1      -2.130   9.912  -0.467  1.00  0.00    -0.269 OA
BRANCH  28  31
ATOM     31  C   UNL     1      -1.124  10.721  -2.436  1.00  0.00     0.039 A 
ATOM     32  C   UNL     1      -0.588  11.961  -2.083  1.00  0.00     0.014 A 
ATOM     33  C   UNL     1      -1.287  10.360  -3.775  1.00  0.00     0.014 A 
ATOM     34  C   UNL     1      -0.117  12.810  -3.087  1.00  0.00     0.010 A 
ATOM     35  C   UNL     1      -0.757  11.178  -4.764  1.00  0.00     0.010 A 
ATOM     36  C   UNL     1      -0.146  12.399  -4.429  1.00  0.00    -0.014 A 
BRANCH  36  37
ATOM     37  C   UNL     1       0.472  13.202  -5.514  1.00  0.00     0.031 A 
ATOM     38  C   UNL     1      -0.391  13.720  -6.628  1.00  0.00     0.074 A 
ATOM     39  C   UNL     1       1.810  13.356  -5.563  1.00  0.00     0.049 A 
ATOM     40  N   UNL     1      -0.038  14.249  -7.769  1.00  0.00    -0.248 NA
ATOM     41  C   UNL     1      -1.846  13.586  -6.448  1.00  0.00     0.031 C 
ATOM     42  C   UNL     1       2.761  12.866  -4.561  1.00  0.00     0.029 A 
ATOM     43  N   UNL     1       2.608  13.946  -6.512  1.00  0.00    -0.354 N 
ATOM     44  C   UNL     1      -1.222  14.474  -8.461  1.00  0.00     0.074 A 
ATOM     45  C   UNL     1      -2.300  13.995  -7.624  1.00  0.00     0.031 C 
ATOM     46  C   UNL     1       4.009  13.184  -4.945  1.00  0.00     0.029 A 
ATOM     47  C   UNL     1       3.953  13.858  -6.238  1.00  0.00     0.049 A 
ATOM     48  H   UNL     1       2.250  14.391  -7.314  1.00  0.00     0.167 HD
ATOM     49  C   UNL     1      -1.393  15.041  -9.678  1.00  0.00     0.037 A 
ATOM     50  C   UNL     1       5.021  14.257  -6.958  1.00  0.00     0.037 A 
ATOM     51  C   UNL     1      -0.322  15.562 -10.482  1.00  0.00     0.049 A 
ATOM     52  C   UNL     1       4.803  14.915  -8.294  1.00  0.00     0.074 A 
ATOM     53  C   UNL     1      -0.398  16.206 -11.704  1.00  0.00     0.029 A 
ATOM     54  N   UNL     1       1.021  15.509 -10.138  1.00  0.00    -0.354 N 
ATOM     55  N   UNL     1       3.675  15.147  -8.921  1.00  0.00    -0.248 NA
ATOM     56  C   UNL     1       5.999  15.361  -9.022  1.00  0.00     0.031 C 
ATOM     57  C   UNL     1       0.902  16.526 -12.109  1.00  0.00     0.029 A 
ATOM     58  C   UNL     1       1.784  16.108 -11.125  1.00  0.00     0.049 A 
ATOM     59  H   UNL     1       1.378  15.106  -9.314  1.00  0.00     0.167 HD
ATOM     60  C   UNL     1       4.023  15.793 -10.101  1.00  0.00     0.074 A 
ATOM     61  C   UNL     1       5.466  15.915 -10.104  1.00  0.00     0.031 C 
ATOM     62  C   UNL     1       3.218  16.246 -11.093  1.00  0.00     0.037 A 
BRANCH  49  63
ATOM     63  C   UNL     1      -2.796  15.129 -10.206  1.00  0.00     0.058 A 
ATOM     64  C   UNL     1      -3.728  16.030  -9.668  1.00  0.00     0.135 A 
ATOM     65  C   UNL     1      -3.210  14.311 -11.269  1.00  0.00     0.135 A 
ATOM     66  F   UNL     1      -3.387  16.821  -8.638  1.00  0.00    -0.206 F 
ATOM     67  C   UNL     1      -5.033  16.094 -10.143  1.00  0.00     0.059 A 
ATOM     68  C   UNL     1      -4.503  14.376 -11.777  1.00  0.00     0.059 A 
ATOM     69  F   UNL     1      -2.357  13.431 -11.818  1.00  0.00    -0.206 F 
ATOM     70  C   UNL     1      -5.413  15.258 -11.194  1.00  0.00     0.060 A 
BRANCH  70  71
ATOM     71  S   UNL     1      -7.113  15.340 -11.793  1.00  0.00     0.124 S 
ATOM     72  O   UNL     1      -7.820  14.591 -10.759  1.00  0.00    -0.237 OA
ATOM     73  O   UNL     1      -7.369  16.776 -11.821  1.00  0.00    -0.237 OA
ATOM     74  O   UNL     1      -7.043  14.694 -13.100  1.00  0.00    -0.744 OA
ENDBRANCH  70  71
ENDBRANCH  49  63
BRANCH  50  75
ATOM     75  C   UNL     1       6.394  14.061  -6.423  1.00  0.00     0.058 A 
ATOM     76  C   UNL     1       7.138  15.151  -5.948  1.00  0.00     0.135 A 
ATOM     77  C   UNL     1       6.983  12.790  -6.365  1.00  0.00     0.135 A 
ATOM     78  F   UNL     1       6.618  16.387  -5.990  1.00  0.00    -0.206 F 
ATOM     79  C   UNL     1       8.425  14.991  -5.446  1.00  0.00     0.059 A 
ATOM     80  C   UNL     1       8.262  12.601  -5.848  1.00  0.00     0.059 A 
ATOM     81  F   UNL     1       6.304  11.713  -6.791  1.00  0.00    -0.206 F 
ATOM     82  C   UNL     1       8.979  13.710  -5.400  1.00  0.00     0.060 A 
BRANCH  82  83
ATOM     83  S   UNL     1      10.632  13.503  -4.700  1.00  0.00     0.124 S 
ATOM     84  O   UNL     1      11.472  13.986  -5.789  1.00  0.00    -0.237 OA
ATOM     85  O   UNL     1      10.573  14.352  -3.514  1.00  0.00    -0.237 OA
ATOM     86  O   UNL     1      10.703  12.070  -4.433  1.00  0.00    -0.744 OA
ENDBRANCH  82  83
ENDBRANCH  50  75
BRANCH  62  87
ATOM     87  C   UNL     1       3.862  16.960 -12.245  1.00  0.00     0.058 A 
ATOM     88  C   UNL     1       4.504  16.260 -13.276  1.00  0.00     0.135 A 
ATOM     89  C   UNL     1       3.739  18.354 -12.368  1.00  0.00     0.135 A 
ATOM     90  F   UNL     1       4.651  14.928 -13.199  1.00  0.00    -0.206 F 
ATOM     91  C   UNL     1       5.001  16.918 -14.396  1.00  0.00     0.059 A 
ATOM     92  C   UNL     1       4.213  19.029 -13.487  1.00  0.00     0.059 A 
ATOM     93  F   UNL     1       3.126  19.065 -11.408  1.00  0.00    -0.206 F 
ATOM     94  C   UNL     1       4.843  18.303 -14.497  1.00  0.00     0.060 A 
BRANCH  94  95
ATOM     95  S   UNL     1       5.415  19.136 -15.993  1.00  0.00     0.124 S 
ATOM     96  O   UNL     1       6.857  19.176 -15.773  1.00  0.00    -0.237 OA
ATOM     97  O   UNL     1       4.960  18.235 -17.048  1.00  0.00    -0.237 OA
ATOM     98  O   UNL     1       4.735  20.426 -15.944  1.00  0.00    -0.744 OA
ENDBRANCH  94  95
ENDBRANCH  62  87
ENDBRANCH  36  37
ENDBRANCH  28  31
ENDBRANCH  26  27
ENDBRANCH   1  26
TORSDOF 18
