REMARK SMILES C=CCN1C(=O)/C(=C\c2cccn2-c2ccc(C(=O)NCCCCNC(=O)c3ccc(-c4c5nc(c(-c6c(F)cc(S(=O)(=O)[O-])cc6F)c6ccc([nH]6)c(-c6c(F)cc(S(=O)(=O)[O-])cc6F)c6nc(c(-c7c(F)cc(S(=O)(=O)[O-])cc7F)c7ccc4[nH]7)C=C6)C=C5)cc3)cc2)C(O)=NC1=S
REMARK SMILES IDX 22 1 21 2 20 3 18 4 19 5 17 7 14 8 15 9 95 10 16 11 94 12
REMARK SMILES IDX 13 13 9 14 10 15 11 16 12 17 8 18 4 19 5 20 99 21 6 22 7 23
REMARK SMILES IDX 98 24 100 25 96 26 3 27 2 28 1 29 97 30 23 32 24 33 25 34
REMARK SMILES IDX 26 35 27 37 28 38 29 39 93 40 30 41 92 42 31 43 32 44 33 45
REMARK SMILES IDX 86 46 34 47 91 48 85 49 87 50 35 51 90 52 84 53 83 54 36 56
REMARK SMILES IDX 70 57 49 58 69 59 50 60 53 61 68 62 88 63 51 64 52 65 67 67
REMARK SMILES IDX 89 68 54 69 37 70 38 71 47 72 39 73 40 74 46 75 48 76 41 77
REMARK SMILES IDX 42 78 43 79 44 80 45 81 71 82 72 83 81 84 73 85 74 86 80 87
REMARK SMILES IDX 82 88 75 89 76 90 77 91 78 92 79 93 55 94 56 95 65 96 57 97
REMARK SMILES IDX 58 98 64 99 66 100 59 101 60 102 61 103 62 104 63 105
REMARK H PARENT 20 6 97 31 25 36 87 55 53 66
REMARK Flexibility Score: inf
ROOT
ATOM      1  C   UNL     1      -8.307  -5.533   0.802  1.00  0.00     0.023 C 
ENDROOT
BRANCH   1   2
ATOM      2  C   UNL     1      -7.826  -5.827   2.227  1.00  0.00     0.116 C 
BRANCH   2   3
ATOM      3  N   UNL     1      -7.421  -7.215   2.345  1.00  0.00    -0.352 N 
ATOM      4  C   UNL     1      -6.217  -7.856   2.217  1.00  0.00     0.251 C 
ATOM      5  O   UNL     1      -6.222  -9.085   2.306  1.00  0.00    -0.269 OA
ATOM      6  H   UNL     1      -8.165  -7.822   2.563  1.00  0.00     0.163 HD
BRANCH   4   7
ATOM      7  C   UNL     1      -4.909  -7.162   2.022  1.00  0.00     0.039 A 
ATOM      8  C   UNL     1      -2.358  -6.013   1.803  1.00  0.00     0.046 A 
ATOM      9  C   UNL     1      -2.479  -7.325   2.257  1.00  0.00     0.027 A 
ATOM     10  C   UNL     1      -3.483  -5.289   1.406  1.00  0.00     0.027 A 
ATOM     11  C   UNL     1      -3.755  -7.879   2.393  1.00  0.00     0.016 A 
ATOM     12  C   UNL     1      -4.747  -5.885   1.474  1.00  0.00     0.016 A 
BRANCH   8  13
ATOM     13  N   UNL     1      -1.080  -5.432   1.652  1.00  0.00    -0.317 N 
ATOM     14  C   UNL     1      -0.629  -4.224   2.169  1.00  0.00     0.047 A 
ATOM     15  C   UNL     1       0.602  -3.959   1.590  1.00  0.00     0.028 A 
ATOM     16  C   UNL     1       0.929  -5.043   0.746  1.00  0.00     0.020 A 
ATOM     17  C   UNL     1      -0.093  -5.959   0.844  1.00  0.00     0.092 A 
BRANCH  14  18
ATOM     18  C   UNL     1      -1.339  -3.551   3.205  1.00  0.00     0.046 C 
ATOM     19  N   UNL     1      -1.634  -0.088   2.079  1.00  0.00    -0.279 N 
ATOM     20  C   UNL     1      -1.685  -1.467   1.880  1.00  0.00     0.265 C 
ATOM     21  C   UNL     1      -2.006   0.523   3.285  1.00  0.00     0.206 C 
ATOM     22  O   UNL     1      -1.717  -1.991   0.767  1.00  0.00    -0.268 OA
ATOM     23  C   UNL     1      -1.767  -2.275   3.124  1.00  0.00     0.104 C 
ATOM     24  N   UNL     1      -2.400  -0.266   4.335  1.00  0.00    -0.184 NA
ATOM     25  S   UNL     1      -2.012   2.203   3.527  1.00  0.00    -0.038 S 
ATOM     26  C   UNL     1      -2.284  -1.540   4.279  1.00  0.00     0.226 C 
BRANCH  19  27
ATOM     27  C   UNL     1      -1.219   0.680   0.903  1.00  0.00     0.155 C 
BRANCH  27  28
ATOM     28  C   UNL     1       0.288   0.721   0.876  1.00  0.00    -0.013 C 
ATOM     29  C   UNL     1       1.042   0.102  -0.043  1.00  0.00     0.006 C 
ENDBRANCH  27  28
ENDBRANCH  19  27
BRANCH  26  30
ATOM     30  O   UNL     1      -2.674  -2.227   5.364  1.00  0.00    -0.493 OA
ATOM     31  H   UNL     1      -2.610  -3.161   5.375  1.00  0.00     0.295 HD
ENDBRANCH  26  30
ENDBRANCH  14  18
ENDBRANCH   8  13
ENDBRANCH   4   7
ENDBRANCH   2   3
ENDBRANCH   1   2
BRANCH   1  32
ATOM     32  C   UNL     1      -9.721  -6.054   0.499  1.00  0.00     0.023 C 
BRANCH  32  33
ATOM     33  C   UNL     1     -10.828  -5.296   1.227  1.00  0.00     0.116 C 
BRANCH  33  34
ATOM     34  N   UNL     1     -10.852  -3.891   0.845  1.00  0.00    -0.352 N 
ATOM     35  C   UNL     1     -11.523  -2.849   1.439  1.00  0.00     0.251 C 
ATOM     36  H   UNL     1     -10.314  -3.656   0.055  1.00  0.00     0.163 HD
ATOM     37  O   UNL     1     -11.745  -1.826   0.807  1.00  0.00    -0.269 OA
BRANCH  35  38
ATOM     38  C   UNL     1     -11.977  -2.972   2.837  1.00  0.00     0.039 A 
ATOM     39  C   UNL     1     -13.249  -2.505   3.180  1.00  0.00     0.014 A 
ATOM     40  C   UNL     1     -11.118  -3.499   3.808  1.00  0.00     0.014 A 
ATOM     41  C   UNL     1     -13.682  -2.625   4.495  1.00  0.00     0.010 A 
ATOM     42  C   UNL     1     -11.564  -3.666   5.106  1.00  0.00     0.010 A 
ATOM     43  C   UNL     1     -12.841  -3.218   5.447  1.00  0.00    -0.014 A 
BRANCH  43  44
ATOM     44  C   UNL     1     -13.329  -3.397   6.826  1.00  0.00     0.031 A 
ATOM     45  C   UNL     1     -14.306  -4.581   6.914  1.00  0.00     0.074 A 
ATOM     46  C   UNL     1     -12.880  -2.473   7.734  1.00  0.00     0.049 A 
ATOM     47  N   UNL     1     -15.458  -4.653   7.502  1.00  0.00    -0.248 NA
ATOM     48  C   UNL     1     -14.041  -5.814   6.122  1.00  0.00     0.031 C 
ATOM     49  C   UNL     1     -11.903  -1.400   7.427  1.00  0.00     0.029 A 
ATOM     50  N   UNL     1     -13.123  -2.225   9.069  1.00  0.00    -0.354 N 
ATOM     51  C   UNL     1     -15.949  -5.972   7.342  1.00  0.00     0.074 A 
ATOM     52  C   UNL     1     -15.115  -6.583   6.349  1.00  0.00     0.031 C 
ATOM     53  C   UNL     1     -11.714  -0.590   8.489  1.00  0.00     0.029 A 
ATOM     54  C   UNL     1     -12.533  -1.039   9.595  1.00  0.00     0.049 A 
ATOM     55  H   UNL     1     -13.670  -2.828   9.623  1.00  0.00     0.167 HD
ATOM     56  C   UNL     1     -16.892  -6.518   8.175  1.00  0.00     0.037 A 
ATOM     57  C   UNL     1     -12.747  -0.431  10.807  1.00  0.00     0.037 A 
ATOM     58  C   UNL     1     -17.109  -5.616   9.261  1.00  0.00     0.049 A 
ATOM     59  C   UNL     1     -13.653  -1.340  11.527  1.00  0.00     0.074 A 
ATOM     60  C   UNL     1     -17.720  -4.393   9.338  1.00  0.00     0.029 A 
ATOM     61  N   UNL     1     -16.272  -5.781  10.345  1.00  0.00    -0.354 N 
ATOM     62  N   UNL     1     -13.328  -2.506  12.003  1.00  0.00    -0.248 NA
ATOM     63  C   UNL     1     -15.076  -0.980  11.597  1.00  0.00     0.031 C 
ATOM     64  C   UNL     1     -16.838  -3.663  10.159  1.00  0.00     0.029 A 
ATOM     65  C   UNL     1     -15.927  -4.529  10.780  1.00  0.00     0.049 A 
ATOM     66  H   UNL     1     -15.978  -6.637  10.732  1.00  0.00     0.167 HD
ATOM     67  C   UNL     1     -14.549  -3.129  12.106  1.00  0.00     0.074 A 
ATOM     68  C   UNL     1     -15.552  -2.085  12.161  1.00  0.00     0.031 C 
ATOM     69  C   UNL     1     -14.716  -4.360  11.555  1.00  0.00     0.037 A 
BRANCH  56  70
ATOM     70  C   UNL     1     -17.476  -7.896   8.368  1.00  0.00     0.058 A 
ATOM     71  C   UNL     1     -18.705  -7.989   9.076  1.00  0.00     0.135 A 
ATOM     72  C   UNL     1     -16.761  -9.090   8.221  1.00  0.00     0.135 A 
ATOM     73  F   UNL     1     -19.500  -6.913   9.215  1.00  0.00    -0.206 F 
ATOM     74  C   UNL     1     -19.118  -9.148   9.724  1.00  0.00     0.059 A 
ATOM     75  C   UNL     1     -17.183 -10.281   8.829  1.00  0.00     0.059 A 
ATOM     76  F   UNL     1     -15.599  -9.119   7.556  1.00  0.00    -0.206 F 
ATOM     77  C   UNL     1     -18.329 -10.285   9.624  1.00  0.00     0.060 A 
BRANCH  77  78
ATOM     78  S   UNL     1     -18.815 -11.742  10.575  1.00  0.00     0.124 S 
ATOM     79  O   UNL     1     -18.515 -11.322  11.939  1.00  0.00    -0.237 OA
ATOM     80  O   UNL     1     -20.234 -11.864  10.251  1.00  0.00    -0.237 OA
ATOM     81  O   UNL     1     -17.965 -12.796  10.033  1.00  0.00    -0.744 OA
ENDBRANCH  77  78
ENDBRANCH  56  70
BRANCH  57  82
ATOM     82  C   UNL     1     -12.486   0.921  11.455  1.00  0.00     0.058 A 
ATOM     83  C   UNL     1     -11.679   1.951  10.954  1.00  0.00     0.135 A 
ATOM     84  C   UNL     1     -13.216   1.287  12.625  1.00  0.00     0.135 A 
ATOM     85  F   UNL     1     -10.796   1.724   9.975  1.00  0.00    -0.206 F 
ATOM     86  C   UNL     1     -11.746   3.272  11.446  1.00  0.00     0.059 A 
ATOM     87  C   UNL     1     -13.346   2.591  13.093  1.00  0.00     0.059 A 
ATOM     88  F   UNL     1     -13.875   0.379  13.359  1.00  0.00    -0.206 F 
ATOM     89  C   UNL     1     -12.635   3.594  12.470  1.00  0.00     0.060 A 
BRANCH  89  90
ATOM     90  S   UNL     1     -12.965   5.315  12.912  1.00  0.00     0.124 S 
ATOM     91  O   UNL     1     -11.864   5.614  13.819  1.00  0.00    -0.237 OA
ATOM     92  O   UNL     1     -12.925   5.984  11.616  1.00  0.00    -0.237 OA
ATOM     93  O   UNL     1     -14.289   5.252  13.527  1.00  0.00    -0.744 OA
ENDBRANCH  89  90
ENDBRANCH  57  82
BRANCH  69  94
ATOM     94  C   UNL     1     -13.469  -5.231  11.509  1.00  0.00     0.058 A 
ATOM     95  C   UNL     1     -12.783  -5.542  12.696  1.00  0.00     0.135 A 
ATOM     96  C   UNL     1     -12.882  -5.719  10.330  1.00  0.00     0.135 A 
ATOM     97  F   UNL     1     -13.269  -5.128  13.877  1.00  0.00    -0.206 F 
ATOM     98  C   UNL     1     -11.600  -6.291  12.710  1.00  0.00     0.059 A 
ATOM     99  C   UNL     1     -11.703  -6.476  10.310  1.00  0.00     0.059 A 
ATOM    100  F   UNL     1     -13.440  -5.468   9.148  1.00  0.00    -0.206 F 
ATOM    101  C   UNL     1     -11.068  -6.762  11.511  1.00  0.00     0.060 A 
BRANCH 101 102
ATOM    102  S   UNL     1      -9.575  -7.782  11.550  1.00  0.00     0.124 S 
ATOM    103  O   UNL     1      -8.595  -6.883  12.151  1.00  0.00    -0.237 OA
ATOM    104  O   UNL     1      -9.995  -8.905  12.382  1.00  0.00    -0.237 OA
ATOM    105  O   UNL     1      -9.338  -8.103  10.145  1.00  0.00    -0.744 OA
ENDBRANCH 101 102
ENDBRANCH  69  94
ENDBRANCH  43  44
ENDBRANCH  35  38
ENDBRANCH  33  34
ENDBRANCH  32  33
ENDBRANCH   1  32
TORSDOF 19
