REMARK SMILES O=C(NCCCCNC(=O)[C@H]1CSCN1C(=O)c1cnc2ccccn2c1=O)c1ccc(-c2c3nc(c(-c4c(F)cc(S(=O)(=O)[O-])cc4F)c4ccc([nH]4)c(-c4c(F)cc(S(=O)(=O)[O-])cc4F)c4nc(c(-c5c(F)cc(S(=O)(=O)[O-])cc5F)c5ccc2[nH]5)C=C4)C=C3)cc1
REMARK SMILES IDX 5 1 4 2 3 3 1 4 2 5 29 7 30 8 94 9 31 10 93 11 32 12 33 13
REMARK SMILES IDX 34 14 87 15 35 16 92 17 86 18 88 19 36 20 91 21 85 22 84 23
REMARK SMILES IDX 37 25 71 26 50 27 70 28 51 29 54 30 69 31 89 32 52 33 53 34
REMARK SMILES IDX 68 36 90 37 55 38 38 39 39 40 48 41 40 42 41 43 47 44 49 45
REMARK SMILES IDX 42 46 43 47 44 48 45 49 46 50 72 51 73 52 82 53 74 54 75 55
REMARK SMILES IDX 81 56 83 57 76 58 77 59 78 60 79 61 80 62 56 63 57 64 66 65
REMARK SMILES IDX 58 66 59 67 65 68 67 69 60 70 61 71 62 72 63 73 64 74 6 75
REMARK SMILES IDX 7 76 8 77 9 78 10 80 11 81 12 82 15 83 13 84 14 85 16 86
REMARK SMILES IDX 17 87 18 88 19 89 27 90 20 91 26 92 28 93 21 94 25 95 22 96
REMARK SMILES IDX 24 97 23 98
REMARK H PARENT 3 6 88 24 54 35 8 79
REMARK Flexibility Score: inf
ROOT
ATOM      1  C   UNL     1       4.974   0.220   2.522  1.00  0.00     0.023 C 
ENDROOT
BRANCH   1   2
ATOM      2  C   UNL     1       4.623  -0.373   1.161  1.00  0.00     0.116 C 
BRANCH   2   3
ATOM      3  N   UNL     1       3.191  -0.543   0.970  1.00  0.00    -0.352 N 
ATOM      4  O   UNL     1       1.180  -0.234   0.007  1.00  0.00    -0.269 OA
ATOM      5  C   UNL     1       2.400  -0.123  -0.072  1.00  0.00     0.251 C 
ATOM      6  H   UNL     1       2.723  -1.026   1.689  1.00  0.00     0.163 HD
BRANCH   5   7
ATOM      7  C   UNL     1       3.018   0.484  -1.271  1.00  0.00     0.039 A 
ATOM      8  C   UNL     1       4.126  -0.108  -1.886  1.00  0.00     0.014 A 
ATOM      9  C   UNL     1       2.472   1.661  -1.789  1.00  0.00     0.014 A 
ATOM     10  C   UNL     1       4.759   0.540  -2.943  1.00  0.00     0.010 A 
ATOM     11  C   UNL     1       3.069   2.274  -2.893  1.00  0.00     0.010 A 
ATOM     12  C   UNL     1       4.232   1.732  -3.462  1.00  0.00    -0.014 A 
BRANCH  12  13
ATOM     13  C   UNL     1       4.868   2.378  -4.638  1.00  0.00     0.031 A 
ATOM     14  C   UNL     1       5.510   3.731  -4.522  1.00  0.00     0.074 A 
ATOM     15  C   UNL     1       4.832   1.745  -5.826  1.00  0.00     0.049 A 
ATOM     16  N   UNL     1       6.049   4.470  -5.458  1.00  0.00    -0.248 NA
ATOM     17  C   UNL     1       5.541   4.339  -3.183  1.00  0.00     0.031 C 
ATOM     18  C   UNL     1       4.220   0.435  -6.061  1.00  0.00     0.029 A 
ATOM     19  N   UNL     1       5.303   2.119  -7.058  1.00  0.00    -0.354 N 
ATOM     20  C   UNL     1       6.462   5.639  -4.830  1.00  0.00     0.074 A 
ATOM     21  C   UNL     1       6.092   5.519  -3.435  1.00  0.00     0.031 C 
ATOM     22  C   UNL     1       4.354   0.115  -7.356  1.00  0.00     0.029 A 
ATOM     23  C   UNL     1       5.010   1.217  -8.052  1.00  0.00     0.049 A 
ATOM     24  H   UNL     1       5.801   2.954  -7.215  1.00  0.00     0.167 HD
ATOM     25  C   UNL     1       7.092   6.711  -5.370  1.00  0.00     0.037 A 
ATOM     26  C   UNL     1       5.212   1.280  -9.382  1.00  0.00     0.037 A 
ATOM     27  C   UNL     1       7.462   6.814  -6.759  1.00  0.00     0.049 A 
ATOM     28  C   UNL     1       5.898   2.480  -9.963  1.00  0.00     0.074 A 
ATOM     29  C   UNL     1       8.152   7.833  -7.393  1.00  0.00     0.029 A 
ATOM     30  N   UNL     1       7.160   5.872  -7.733  1.00  0.00    -0.354 N 
ATOM     31  N   UNL     1       6.331   3.555  -9.348  1.00  0.00    -0.248 NA
ATOM     32  C   UNL     1       6.127   2.481 -11.413  1.00  0.00     0.031 C 
ATOM     33  C   UNL     1       8.226   7.529  -8.757  1.00  0.00     0.029 A 
ATOM     34  C   UNL     1       7.625   6.298  -8.967  1.00  0.00     0.049 A 
ATOM     35  H   UNL     1       6.686   5.024  -7.571  1.00  0.00     0.167 HD
ATOM     36  C   UNL     1       6.897   4.355 -10.332  1.00  0.00     0.074 A 
ATOM     37  C   UNL     1       6.759   3.636 -11.583  1.00  0.00     0.031 C 
ATOM     38  C   UNL     1       7.482   5.571 -10.206  1.00  0.00     0.037 A 
BRANCH  25  39
ATOM     39  C   UNL     1       7.391   7.871  -4.460  1.00  0.00     0.058 A 
ATOM     40  C   UNL     1       8.376   7.798  -3.463  1.00  0.00     0.135 A 
ATOM     41  C   UNL     1       6.682   9.077  -4.591  1.00  0.00     0.135 A 
ATOM     42  F   UNL     1       9.078   6.668  -3.287  1.00  0.00    -0.206 F 
ATOM     43  C   UNL     1       8.616   8.863  -2.598  1.00  0.00     0.059 A 
ATOM     44  C   UNL     1       6.923  10.163  -3.755  1.00  0.00     0.059 A 
ATOM     45  F   UNL     1       5.734   9.204  -5.533  1.00  0.00    -0.206 F 
ATOM     46  C   UNL     1       7.876  10.037  -2.745  1.00  0.00     0.060 A 
BRANCH  46  47
ATOM     47  S   UNL     1       8.165  11.394  -1.590  1.00  0.00     0.124 S 
ATOM     48  O   UNL     1       7.486  10.905  -0.394  1.00  0.00    -0.237 OA
ATOM     49  O   UNL     1       9.622  11.441  -1.515  1.00  0.00    -0.237 OA
ATOM     50  O   UNL     1       7.537  12.538  -2.244  1.00  0.00    -0.744 OA
ENDBRANCH  46  47
ENDBRANCH  25  39
BRANCH  26  51
ATOM     51  C   UNL     1       4.734   0.160 -10.232  1.00  0.00     0.058 A 
ATOM     52  C   UNL     1       5.629  -0.771 -10.773  1.00  0.00     0.135 A 
ATOM     53  C   UNL     1       3.360  -0.052 -10.434  1.00  0.00     0.135 A 
ATOM     54  F   UNL     1       6.950  -0.607 -10.609  1.00  0.00    -0.206 F 
ATOM     55  C   UNL     1       5.179  -1.885 -11.476  1.00  0.00     0.059 A 
ATOM     56  C   UNL     1       2.886  -1.169 -11.112  1.00  0.00     0.059 A 
ATOM     57  F   UNL     1       2.465   0.803  -9.916  1.00  0.00    -0.206 F 
ATOM     58  C   UNL     1       3.805  -2.082 -11.629  1.00  0.00     0.060 A 
BRANCH  58  59
ATOM     59  S   UNL     1       3.230  -3.586 -12.447  1.00  0.00     0.124 S 
ATOM     60  O   UNL     1       3.521  -3.289 -13.845  1.00  0.00    -0.237 OA
ATOM     61  O   UNL     1       4.061  -4.611 -11.824  1.00  0.00    -0.237 OA
ATOM     62  O   UNL     1       1.814  -3.639 -12.093  1.00  0.00    -0.744 OA
ENDBRANCH  58  59
ENDBRANCH  26  51
BRANCH  38  63
ATOM     63  C   UNL     1       8.043   6.205 -11.447  1.00  0.00     0.058 A 
ATOM     64  C   UNL     1       7.213   6.809 -12.403  1.00  0.00     0.135 A 
ATOM     65  C   UNL     1       9.432   6.288 -11.634  1.00  0.00     0.135 A 
ATOM     66  F   UNL     1       5.878   6.747 -12.275  1.00  0.00    -0.206 F 
ATOM     67  C   UNL     1       7.742   7.476 -13.504  1.00  0.00     0.059 A 
ATOM     68  C   UNL     1       9.983   6.968 -12.716  1.00  0.00     0.059 A 
ATOM     69  F   UNL     1      10.268   5.730 -10.744  1.00  0.00    -0.206 F 
ATOM     70  C   UNL     1       9.129   7.557 -13.647  1.00  0.00     0.060 A 
BRANCH  70  71
ATOM     71  S   UNL     1       9.803   8.490 -15.038  1.00  0.00     0.124 S 
ATOM     72  O   UNL     1       9.560   7.577 -16.150  1.00  0.00    -0.237 OA
ATOM     73  O   UNL     1       8.992   9.703 -15.025  1.00  0.00    -0.237 OA
ATOM     74  O   UNL     1      11.205   8.677 -14.674  1.00  0.00    -0.744 OA
ENDBRANCH  70  71
ENDBRANCH  38  63
ENDBRANCH  12  13
ENDBRANCH   5   7
ENDBRANCH   2   3
ENDBRANCH   1   2
BRANCH   1  75
ATOM     75  C   UNL     1       4.522  -0.597   3.732  1.00  0.00     0.023 C 
BRANCH  75  76
ATOM     76  C   UNL     1       4.957  -2.059   3.722  1.00  0.00     0.116 C 
BRANCH  76  77
ATOM     77  N   UNL     1       6.399  -2.220   3.756  1.00  0.00    -0.354 N 
ATOM     78  C   UNL     1       7.184  -2.796   4.722  1.00  0.00     0.243 C 
ATOM     79  H   UNL     1       6.883  -1.864   2.975  1.00  0.00     0.163 HD
ATOM     80  O   UNL     1       8.388  -2.924   4.495  1.00  0.00    -0.273 OA
BRANCH  78  81
ATOM     81  C   UNL     1       6.504  -3.337   5.998  1.00  0.00     0.185 C 
ATOM     82  C   UNL     1       5.813  -4.656   5.634  1.00  0.00     0.106 C 
ATOM     83  N   UNL     1       7.426  -3.532   7.122  1.00  0.00    -0.316 N 
ATOM     84  S   UNL     1       6.373  -5.927   6.781  1.00  0.00    -0.138 SA
ATOM     85  C   UNL     1       7.266  -4.782   7.827  1.00  0.00     0.190 C 
BRANCH  83  86
ATOM     86  C   UNL     1       8.076  -2.423   7.640  1.00  0.00     0.262 C 
ATOM     87  O   UNL     1       7.833  -1.286   7.233  1.00  0.00    -0.269 OA
BRANCH  86  88
ATOM     88  C   UNL     1       8.994  -2.605   8.792  1.00  0.00     0.124 A 
ATOM     89  C   UNL     1       8.838  -1.789   9.841  1.00  0.00     0.133 A 
ATOM     90  C   UNL     1      10.082  -3.602   8.865  1.00  0.00     0.270 A 
ATOM     91  N   UNL     1       9.535  -1.867  11.018  1.00  0.00    -0.237 NA
ATOM     92  N   UNL     1      10.700  -3.724  10.107  1.00  0.00    -0.267 N 
ATOM     93  O   UNL     1      10.380  -4.282   7.884  1.00  0.00    -0.268 OA
ATOM     94  C   UNL     1      10.407  -2.821  11.123  1.00  0.00     0.139 A 
ATOM     95  C   UNL     1      11.623  -4.747  10.306  1.00  0.00     0.096 A 
ATOM     96  C   UNL     1      11.142  -2.987  12.408  1.00  0.00     0.048 A 
ATOM     97  C   UNL     1      12.254  -4.912  11.475  1.00  0.00     0.019 A 
ATOM     98  C   UNL     1      12.007  -3.998  12.557  1.00  0.00     0.005 A 
ENDBRANCH  86  88
ENDBRANCH  83  86
ENDBRANCH  78  81
ENDBRANCH  76  77
ENDBRANCH  75  76
ENDBRANCH   1  75
TORSDOF 16
