REMARK SMILES O=C(NCCCCNC(=O)[C@H](Cc1ccc(O)cc1)NC(=O)c1ccc(Cl)s1)c1ccc(-c2c3nc(c(-c4c(F)cc(S(=O)(=O)[O-])cc4F)c4ccc([nH]4)c(-c4c(F)cc(S(=O)(=O)[O-])cc4F)c4nc(c(-c5c(F)cc(S(=O)(=O)[O-])cc5F)c5ccc2[nH]5)C=C4)C=C3)cc1
REMARK SMILES IDX 5 1 4 2 3 3 1 4 2 5 29 7 30 8 94 9 31 10 93 11 32 12 33 13
REMARK SMILES IDX 34 14 87 15 35 16 92 17 86 18 88 19 36 20 91 21 85 22 84 23
REMARK SMILES IDX 37 25 71 26 50 27 70 28 51 29 54 30 69 31 89 32 52 33 53 34
REMARK SMILES IDX 68 36 90 37 55 38 38 39 39 40 48 41 40 42 41 43 47 44 49 45
REMARK SMILES IDX 42 46 43 47 44 48 45 49 46 50 72 51 73 52 82 53 74 54 75 55
REMARK SMILES IDX 81 56 83 57 76 58 77 59 78 60 79 61 80 62 56 63 57 64 66 65
REMARK SMILES IDX 58 66 59 67 65 68 67 69 60 70 61 71 62 72 63 73 64 74 6 75
REMARK SMILES IDX 7 76 8 77 9 78 10 80 11 81 20 82 21 83 22 85 23 86 24 87
REMARK SMILES IDX 28 88 25 89 26 90 27 91 12 92 13 93 14 94 19 95 15 96 18 97
REMARK SMILES IDX 16 98 17 99
REMARK H PARENT 3 6 88 24 54 35 8 79 20 84 17 100
REMARK Flexibility Score: inf
ROOT
ATOM      1  C   UNL     1       6.608  -7.240  -0.487  1.00  0.00     0.023 C 
ENDROOT
BRANCH   1   2
ATOM      2  C   UNL     1       7.161  -8.656  -0.470  1.00  0.00     0.116 C 
BRANCH   2   3
ATOM      3  N   UNL     1       8.621  -8.732  -0.489  1.00  0.00    -0.352 N 
ATOM      4  O   UNL     1      10.652  -9.560   0.077  1.00  0.00    -0.269 OA
ATOM      5  C   UNL     1       9.431  -9.650   0.145  1.00  0.00     0.251 C 
ATOM      6  H   UNL     1       9.082  -8.043  -1.020  1.00  0.00     0.163 HD
BRANCH   5   7
ATOM      7  C   UNL     1       8.777 -10.704   0.948  1.00  0.00     0.039 A 
ATOM      8  C   UNL     1       7.728 -11.431   0.386  1.00  0.00     0.014 A 
ATOM      9  C   UNL     1       9.082 -10.830   2.305  1.00  0.00     0.014 A 
ATOM     10  C   UNL     1       6.843 -12.091   1.223  1.00  0.00     0.010 A 
ATOM     11  C   UNL     1       8.254 -11.603   3.126  1.00  0.00     0.010 A 
ATOM     12  C   UNL     1       7.085 -12.181   2.606  1.00  0.00    -0.014 A 
BRANCH  12  13
ATOM     13  C   UNL     1       6.081 -12.873   3.462  1.00  0.00     0.031 A 
ATOM     14  C   UNL     1       5.352 -12.150   4.568  1.00  0.00     0.074 A 
ATOM     15  C   UNL     1       5.758 -14.149   3.169  1.00  0.00     0.049 A 
ATOM     16  N   UNL     1       4.404 -12.596   5.354  1.00  0.00    -0.248 NA
ATOM     17  C   UNL     1       5.737 -10.756   4.837  1.00  0.00     0.031 C 
ATOM     18  C   UNL     1       6.395 -14.959   2.125  1.00  0.00     0.029 A 
ATOM     19  N   UNL     1       4.787 -14.973   3.678  1.00  0.00    -0.354 N 
ATOM     20  C   UNL     1       4.113 -11.560   6.237  1.00  0.00     0.074 A 
ATOM     21  C   UNL     1       4.990 -10.462   5.893  1.00  0.00     0.031 C 
ATOM     22  C   UNL     1       5.741 -16.122   2.010  1.00  0.00     0.029 A 
ATOM     23  C   UNL     1       4.694 -16.178   3.022  1.00  0.00     0.049 A 
ATOM     24  H   UNL     1       4.214 -14.726   4.438  1.00  0.00     0.167 HD
ATOM     25  C   UNL     1       3.199 -11.528   7.238  1.00  0.00     0.037 A 
ATOM     26  C   UNL     1       3.865 -17.221   3.214  1.00  0.00     0.037 A 
ATOM     27  C   UNL     1       2.293 -12.607   7.545  1.00  0.00     0.049 A 
ATOM     28  C   UNL     1       2.841 -17.146   4.306  1.00  0.00     0.074 A 
ATOM     29  C   UNL     1       1.309 -12.655   8.518  1.00  0.00     0.029 A 
ATOM     30  N   UNL     1       2.253 -13.823   6.879  1.00  0.00    -0.354 N 
ATOM     31  N   UNL     1       2.588 -16.157   5.130  1.00  0.00    -0.248 NA
ATOM     32  C   UNL     1       1.998 -18.332   4.505  1.00  0.00     0.031 C 
ATOM     33  C   UNL     1       0.695 -13.911   8.460  1.00  0.00     0.029 A 
ATOM     34  C   UNL     1       1.269 -14.631   7.426  1.00  0.00     0.049 A 
ATOM     35  H   UNL     1       2.837 -14.074   6.127  1.00  0.00     0.167 HD
ATOM     36  C   UNL     1       1.551 -16.599   5.942  1.00  0.00     0.074 A 
ATOM     37  C   UNL     1       1.210 -17.934   5.494  1.00  0.00     0.031 C 
ATOM     38  C   UNL     1       0.943 -15.958   6.970  1.00  0.00     0.037 A 
BRANCH  25  39
ATOM     39  C   UNL     1       3.145 -10.295   8.101  1.00  0.00     0.058 A 
ATOM     40  C   UNL     1       2.595  -9.088   7.644  1.00  0.00     0.135 A 
ATOM     41  C   UNL     1       3.612 -10.340   9.426  1.00  0.00     0.135 A 
ATOM     42  F   UNL     1       2.147  -8.985   6.383  1.00  0.00    -0.206 F 
ATOM     43  C   UNL     1       2.532  -7.962   8.461  1.00  0.00     0.059 A 
ATOM     44  C   UNL     1       3.538  -9.233  10.268  1.00  0.00     0.059 A 
ATOM     45  F   UNL     1       4.145 -11.470   9.917  1.00  0.00    -0.206 F 
ATOM     46  C   UNL     1       3.009  -8.043   9.770  1.00  0.00     0.060 A 
BRANCH  46  47
ATOM     47  S   UNL     1       2.924  -6.575  10.819  1.00  0.00     0.124 S 
ATOM     48  O   UNL     1       4.021  -5.774  10.285  1.00  0.00    -0.237 OA
ATOM     49  O   UNL     1       1.582  -6.071  10.546  1.00  0.00    -0.237 OA
ATOM     50  O   UNL     1       3.130  -7.105  12.163  1.00  0.00    -0.744 OA
ENDBRANCH  46  47
ENDBRANCH  25  39
BRANCH  26  51
ATOM     51  C   UNL     1       3.979 -18.419   2.344  1.00  0.00     0.058 A 
ATOM     52  C   UNL     1       2.994 -18.717   1.393  1.00  0.00     0.135 A 
ATOM     53  C   UNL     1       5.100 -19.260   2.414  1.00  0.00     0.135 A 
ATOM     54  F   UNL     1       1.903 -17.942   1.290  1.00  0.00    -0.206 F 
ATOM     55  C   UNL     1       3.112 -19.812   0.544  1.00  0.00     0.059 A 
ATOM     56  C   UNL     1       5.254 -20.344   1.558  1.00  0.00     0.059 A 
ATOM     57  F   UNL     1       6.080 -19.003   3.295  1.00  0.00    -0.206 F 
ATOM     58  C   UNL     1       4.250 -20.617   0.631  1.00  0.00     0.060 A 
BRANCH  58  59
ATOM     59  S   UNL     1       4.436 -21.992  -0.524  1.00  0.00     0.124 S 
ATOM     60  O   UNL     1       3.554 -22.991   0.069  1.00  0.00    -0.237 OA
ATOM     61  O   UNL     1       3.983 -21.405  -1.781  1.00  0.00    -0.237 OA
ATOM     62  O   UNL     1       5.864 -22.289  -0.460  1.00  0.00    -0.744 OA
ENDBRANCH  58  59
ENDBRANCH  26  51
BRANCH  38  63
ATOM     63  C   UNL     1      -0.171 -16.691   7.660  1.00  0.00     0.058 A 
ATOM     64  C   UNL     1       0.083 -17.759   8.533  1.00  0.00     0.135 A 
ATOM     65  C   UNL     1      -1.507 -16.313   7.452  1.00  0.00     0.135 A 
ATOM     66  F   UNL     1       1.343 -18.164   8.758  1.00  0.00    -0.206 F 
ATOM     67  C   UNL     1      -0.953 -18.451   9.153  1.00  0.00     0.059 A 
ATOM     68  C   UNL     1      -2.557 -16.975   8.079  1.00  0.00     0.059 A 
ATOM     69  F   UNL     1      -1.801 -15.291   6.632  1.00  0.00    -0.206 F 
ATOM     70  C   UNL     1      -2.270 -18.054   8.915  1.00  0.00     0.060 A 
BRANCH  70  71
ATOM     71  S   UNL     1      -3.609 -18.953   9.726  1.00  0.00     0.124 S 
ATOM     72  O   UNL     1      -3.696 -20.154   8.901  1.00  0.00    -0.237 OA
ATOM     73  O   UNL     1      -3.087 -19.148  11.075  1.00  0.00    -0.237 OA
ATOM     74  O   UNL     1      -4.740 -18.036   9.626  1.00  0.00    -0.744 OA
ENDBRANCH  70  71
ENDBRANCH  38  63
ENDBRANCH  12  13
ENDBRANCH   5   7
ENDBRANCH   2   3
ENDBRANCH   1   2
BRANCH   1  75
ATOM     75  C   UNL     1       7.052  -6.424  -1.689  1.00  0.00     0.023 C 
BRANCH  75  76
ATOM     76  C   UNL     1       6.481  -6.881  -3.028  1.00  0.00     0.116 C 
BRANCH  76  77
ATOM     77  N   UNL     1       5.341  -6.060  -3.373  1.00  0.00    -0.354 N 
ATOM     78  C   UNL     1       5.327  -4.861  -4.019  1.00  0.00     0.242 C 
ATOM     79  H   UNL     1       4.462  -6.414  -3.106  1.00  0.00     0.163 HD
ATOM     80  O   UNL     1       4.298  -4.181  -3.947  1.00  0.00    -0.273 OA
BRANCH  78  81
ATOM     81  C   UNL     1       6.538  -4.388  -4.856  1.00  0.00     0.176 C 
BRANCH  81  82
ATOM     82  N   UNL     1       5.891  -3.661  -5.968  1.00  0.00    -0.339 N 
ATOM     83  C   UNL     1       6.148  -3.623  -7.307  1.00  0.00     0.262 C 
ATOM     84  H   UNL     1       5.132  -3.099  -5.690  1.00  0.00     0.164 HD
ATOM     85  O   UNL     1       5.540  -2.790  -7.982  1.00  0.00    -0.268 OA
BRANCH  83  86
ATOM     86  C   UNL     1       7.102  -4.553  -7.871  1.00  0.00     0.093 A 
ATOM     87  C   UNL     1       7.174  -5.931  -7.750  1.00  0.00     0.027 A 
ATOM     88  S   UNL     1       8.301  -3.956  -8.942  1.00  0.00    -0.118 S 
ATOM     89  C   UNL     1       8.245  -6.486  -8.514  1.00  0.00     0.033 A 
ATOM     90  C   UNL     1       8.917  -5.508  -9.200  1.00  0.00     0.094 A 
ATOM     91  Cl  UNL     1      10.253  -5.730 -10.254  1.00  0.00    -0.072 Cl
ENDBRANCH  83  86
ENDBRANCH  81  82
BRANCH  81  92
ATOM     92  C   UNL     1       7.467  -3.418  -4.092  1.00  0.00     0.070 C 
BRANCH  92  93
ATOM     93  C   UNL     1       8.615  -4.011  -3.299  1.00  0.00    -0.045 A 
ATOM     94  C   UNL     1       9.451  -5.018  -3.811  1.00  0.00     0.007 A 
ATOM     95  C   UNL     1       8.892  -3.509  -2.014  1.00  0.00     0.007 A 
ATOM     96  C   UNL     1      10.454  -5.591  -3.015  1.00  0.00     0.046 A 
ATOM     97  C   UNL     1       9.904  -4.067  -1.228  1.00  0.00     0.046 A 
ATOM     98  C   UNL     1      10.653  -5.126  -1.720  1.00  0.00     0.115 A 
BRANCH  98  99
ATOM     99  O   UNL     1      11.564  -5.698  -0.884  1.00  0.00    -0.508 OA
ATOM    100  H   UNL     1      12.088  -6.416  -1.183  1.00  0.00     0.293 HD
ENDBRANCH  98  99
ENDBRANCH  92  93
ENDBRANCH  81  92
ENDBRANCH  78  81
ENDBRANCH  76  77
ENDBRANCH  75  76
ENDBRANCH   1  75
TORSDOF 19
