REMARK SMILES C#CC[N@@H+](CC(=O)NCCCCNC(=O)c1ccc(-c2c3nc(c(-c4c(F)cc(S(=O)(=O)[O-])cc4F)c4ccc([nH]4)c(-c4c(F)cc(S(=O)(=O)[O-])cc4F)c4nc(c(-c5c(F)cc(S(=O)(=O)[O-])cc5F)c5ccc2[nH]5)C=C4)C=C3)cc1)CC(=O)NC(=O)NC
REMARK SMILES IDX 10 1 9 2 8 3 6 4 7 5 5 7 4 8 3 10 2 11 1 12 82 13 83 14
REMARK SMILES IDX 84 15 85 16 86 17 87 19 88 20 89 21 11 23 12 24 13 25 14 26
REMARK SMILES IDX 15 28 16 29 17 30 81 31 18 32 80 33 19 34 20 35 21 36 74 37
REMARK SMILES IDX 22 38 79 39 73 40 75 41 23 42 78 43 72 44 71 45 24 47 58 48
REMARK SMILES IDX 37 49 57 50 38 51 41 52 56 53 76 54 39 55 40 56 55 58 77 59
REMARK SMILES IDX 42 60 25 61 26 62 35 63 27 64 28 65 34 66 36 67 29 68 30 69
REMARK SMILES IDX 31 70 32 71 33 72 59 73 60 74 69 75 61 76 62 77 68 78 70 79
REMARK SMILES IDX 63 80 64 81 65 82 66 83 67 84 43 85 44 86 53 87 45 88 46 89
REMARK SMILES IDX 52 90 54 91 47 92 48 93 49 94 50 95 51 96
REMARK H PARENT 8 6 4 9 85 18 88 22 13 27 75 46 41 57
REMARK Flexibility Score: inf
ROOT
ATOM      1  C   UNL     1      -2.249   3.080  -0.045  1.00  0.00     0.023 C 
ENDROOT
BRANCH   1   2
ATOM      2  C   UNL     1      -3.582   2.441   0.406  1.00  0.00     0.116 C 
BRANCH   2   3
ATOM      3  N   UNL     1      -4.304   1.766  -0.661  1.00  0.00    -0.351 N 
ATOM      4  C   UNL     1      -4.593   0.456  -0.916  1.00  0.00     0.275 C 
ATOM      5  O   UNL     1      -5.418   0.250  -1.813  1.00  0.00    -0.269 OA
ATOM      6  H   UNL     1      -4.658   2.382  -1.342  1.00  0.00     0.163 HD
BRANCH   4   7
ATOM      7  C   UNL     1      -4.006  -0.752  -0.136  1.00  0.00     0.364 C 
BRANCH   7   8
ATOM      8  N   UNL     1      -2.566  -1.109  -0.361  1.00  0.00    -0.309 N 
ATOM      9  H   UNL     1      -2.376  -1.956   0.173  1.00  0.00     0.349 HD
BRANCH   8  10
ATOM     10  C   UNL     1      -1.786   0.022   0.090  1.00  0.00     0.354 C 
BRANCH  10  11
ATOM     11  C   UNL     1      -0.267   0.022   0.090  1.00  0.00    -0.047 C 
ATOM     12  C   UNL     1       1.037   0.022   0.090  1.00  0.00     0.010 C 
ENDBRANCH  10  11
ENDBRANCH   8  10
BRANCH   8  13
ATOM     13  C   UNL     1      -2.185  -1.542  -1.725  1.00  0.00     0.365 C 
BRANCH  13  14
ATOM     14  C   UNL     1      -2.921  -0.953  -2.912  1.00  0.00     0.283 C 
ATOM     15  O   UNL     1      -2.666   0.196  -3.292  1.00  0.00    -0.268 OA
ATOM     16  N   UNL     1      -3.857  -1.692  -3.615  1.00  0.00    -0.273 N 
ATOM     17  C   UNL     1      -4.928  -2.452  -3.254  1.00  0.00     0.321 C 
ATOM     18  H   UNL     1      -3.717  -1.662  -4.589  1.00  0.00     0.175 HD
ATOM     19  O   UNL     1      -6.029  -2.221  -3.760  1.00  0.00    -0.248 OA
ATOM     20  N   UNL     1      -4.858  -3.471  -2.383  1.00  0.00    -0.341 N 
ATOM     21  C   UNL     1      -3.766  -4.320  -1.989  1.00  0.00     0.144 C 
ATOM     22  H   UNL     1      -5.709  -3.675  -1.932  1.00  0.00     0.165 HD
ENDBRANCH  13  14
ENDBRANCH   8  13
ENDBRANCH   7   8
ENDBRANCH   4   7
ENDBRANCH   2   3
ENDBRANCH   1   2
BRANCH   1  23
ATOM     23  C   UNL     1      -2.373   4.364  -0.833  1.00  0.00     0.023 C 
BRANCH  23  24
ATOM     24  C   UNL     1      -3.038   5.470  -0.057  1.00  0.00     0.116 C 
BRANCH  24  25
ATOM     25  N   UNL     1      -2.435   5.683   1.260  1.00  0.00    -0.352 N 
ATOM     26  C   UNL     1      -2.039   6.877   1.817  1.00  0.00     0.251 C 
ATOM     27  H   UNL     1      -2.298   4.878   1.811  1.00  0.00     0.163 HD
ATOM     28  O   UNL     1      -1.432   6.928   2.873  1.00  0.00    -0.269 OA
BRANCH  26  29
ATOM     29  C   UNL     1      -2.364   8.086   1.045  1.00  0.00     0.039 A 
ATOM     30  C   UNL     1      -1.325   8.867   0.542  1.00  0.00     0.014 A 
ATOM     31  C   UNL     1      -3.683   8.249   0.618  1.00  0.00     0.014 A 
ATOM     32  C   UNL     1      -1.605   9.774  -0.477  1.00  0.00     0.010 A 
ATOM     33  C   UNL     1      -3.928   9.053  -0.479  1.00  0.00     0.010 A 
ATOM     34  C   UNL     1      -2.895   9.830  -1.029  1.00  0.00    -0.014 A 
BRANCH  34  35
ATOM     35  C   UNL     1      -3.228  10.721  -2.163  1.00  0.00     0.031 A 
ATOM     36  C   UNL     1      -4.294  11.761  -1.962  1.00  0.00     0.074 A 
ATOM     37  C   UNL     1      -2.663  10.529  -3.370  1.00  0.00     0.049 A 
ATOM     38  N   UNL     1      -4.869  12.536  -2.841  1.00  0.00    -0.248 NA
ATOM     39  C   UNL     1      -4.825  11.905  -0.594  1.00  0.00     0.031 C 
ATOM     40  C   UNL     1      -1.661   9.508  -3.692  1.00  0.00     0.029 A 
ATOM     41  N   UNL     1      -2.863  11.180  -4.560  1.00  0.00    -0.354 N 
ATOM     42  C   UNL     1      -5.849  13.227  -2.140  1.00  0.00     0.074 A 
ATOM     43  C   UNL     1      -5.843  12.727  -0.785  1.00  0.00     0.031 C 
ATOM     44  C   UNL     1      -1.311   9.626  -4.984  1.00  0.00     0.029 A 
ATOM     45  C   UNL     1      -2.092  10.698  -5.592  1.00  0.00     0.049 A 
ATOM     46  H   UNL     1      -3.500  11.922  -4.666  1.00  0.00     0.167 HD
ATOM     47  C   UNL     1      -6.656  14.219  -2.578  1.00  0.00     0.037 A 
ATOM     48  C   UNL     1      -2.031  11.081  -6.882  1.00  0.00     0.037 A 
ATOM     49  C   UNL     1      -6.605  14.748  -3.911  1.00  0.00     0.049 A 
ATOM     50  C   UNL     1      -2.928  12.197  -7.346  1.00  0.00     0.074 A 
ATOM     51  C   UNL     1      -7.306  15.813  -4.442  1.00  0.00     0.029 A 
ATOM     52  N   UNL     1      -5.793  14.251  -4.921  1.00  0.00    -0.354 N 
ATOM     53  N   UNL     1      -3.804  12.889  -6.657  1.00  0.00    -0.248 NA
ATOM     54  C   UNL     1      -2.836  12.579  -8.762  1.00  0.00     0.031 C 
ATOM     55  C   UNL     1      -6.940  15.941  -5.787  1.00  0.00     0.029 A 
ATOM     56  C   UNL     1      -5.990  14.974  -6.083  1.00  0.00     0.049 A 
ATOM     57  H   UNL     1      -5.170  13.495  -4.825  1.00  0.00     0.167 HD
ATOM     58  C   UNL     1      -4.361  13.796  -7.550  1.00  0.00     0.074 A 
ATOM     59  C   UNL     1      -3.711  13.574  -8.827  1.00  0.00     0.031 C 
ATOM     60  C   UNL     1      -5.325  14.725  -7.338  1.00  0.00     0.037 A 
BRANCH  47  61
ATOM     61  C   UNL     1      -7.632  14.792  -1.591  1.00  0.00     0.058 A 
ATOM     62  C   UNL     1      -7.203  15.559  -0.495  1.00  0.00     0.135 A 
ATOM     63  C   UNL     1      -9.008  14.546  -1.721  1.00  0.00     0.135 A 
ATOM     64  F   UNL     1      -5.896  15.803  -0.310  1.00  0.00    -0.206 F 
ATOM     65  C   UNL     1      -8.098  16.021   0.464  1.00  0.00     0.059 A 
ATOM     66  C   UNL     1      -9.924  15.025  -0.789  1.00  0.00     0.059 A 
ATOM     67  F   UNL     1      -9.470  13.815  -2.747  1.00  0.00    -0.206 F 
ATOM     68  C   UNL     1      -9.456  15.742   0.312  1.00  0.00     0.060 A 
BRANCH  68  69
ATOM     69  S   UNL     1     -10.603  16.326   1.577  1.00  0.00     0.124 S 
ATOM     70  O   UNL     1     -10.365  15.365   2.649  1.00  0.00    -0.237 OA
ATOM     71  O   UNL     1     -10.130  17.684   1.828  1.00  0.00    -0.237 OA
ATOM     72  O   UNL     1     -11.905  16.230   0.924  1.00  0.00    -0.744 OA
ENDBRANCH  68  69
ENDBRANCH  47  61
BRANCH  48  73
ATOM     73  C   UNL     1      -1.069  10.429  -7.808  1.00  0.00     0.058 A 
ATOM     74  C   UNL     1       0.083  11.107  -8.234  1.00  0.00     0.135 A 
ATOM     75  C   UNL     1      -1.256   9.113  -8.259  1.00  0.00     0.135 A 
ATOM     76  F   UNL     1       0.303  12.369  -7.835  1.00  0.00    -0.206 F 
ATOM     77  C   UNL     1       1.014  10.508  -9.076  1.00  0.00     0.059 A 
ATOM     78  C   UNL     1      -0.329   8.485  -9.088  1.00  0.00     0.059 A 
ATOM     79  F   UNL     1      -2.335   8.416  -7.870  1.00  0.00    -0.206 F 
ATOM     80  C   UNL     1       0.801   9.193  -9.495  1.00  0.00     0.060 A 
BRANCH  80  81
ATOM     81  S   UNL     1       2.051   8.403 -10.534  1.00  0.00     0.124 S 
ATOM     82  O   UNL     1       1.822   9.056 -11.817  1.00  0.00    -0.237 OA
ATOM     83  O   UNL     1       3.290   8.759  -9.849  1.00  0.00    -0.237 OA
ATOM     84  O   UNL     1       1.694   6.989 -10.471  1.00  0.00    -0.744 OA
ENDBRANCH  80  81
ENDBRANCH  48  73
BRANCH  60  85
ATOM     85  C   UNL     1      -5.735  15.572  -8.506  1.00  0.00     0.058 A 
ATOM     86  C   UNL     1      -6.579  15.068  -9.506  1.00  0.00     0.135 A 
ATOM     87  C   UNL     1      -5.358  16.922  -8.575  1.00  0.00     0.135 A 
ATOM     88  F   UNL     1      -6.958  13.780  -9.485  1.00  0.00    -0.206 F 
ATOM     89  C   UNL     1      -7.035  15.876 -10.541  1.00  0.00     0.059 A 
ATOM     90  C   UNL     1      -5.820  17.753  -9.589  1.00  0.00     0.059 A 
ATOM     91  F   UNL     1      -4.560  17.450  -7.634  1.00  0.00    -0.206 F 
ATOM     92  C   UNL     1      -6.656  17.220 -10.569  1.00  0.00     0.060 A 
BRANCH  92  93
ATOM     93  S   UNL     1      -7.312  18.275 -11.878  1.00  0.00     0.124 S 
ATOM     94  O   UNL     1      -6.520  17.846 -13.026  1.00  0.00    -0.237 OA
ATOM     95  O   UNL     1      -8.723  17.900 -11.905  1.00  0.00    -0.237 OA
ATOM     96  O   UNL     1      -7.038  19.625 -11.395  1.00  0.00    -0.744 OA
ENDBRANCH  92  93
ENDBRANCH  60  85
ENDBRANCH  34  35
ENDBRANCH  26  29
ENDBRANCH  24  25
ENDBRANCH  23  24
ENDBRANCH   1  23
TORSDOF 19
