REMARK SMILES Cc1ccccc1NC(=O)CSc1nc(C(=O)NCCCCNC(=O)c2ccc(-c3c4nc(c(-c5c(F)cc(S(=O)(=O)[O-])cc5F)c5ccc([nH]5)c(-c5c(F)cc(S(=O)(=O)[O-])cc5F)c5nc(c(-c6c(F)cc(S(=O)(=O)[O-])cc6F)c6ccc3[nH]6)C=C5)C=C4)cc2)c2ccccc2n1
REMARK SMILES IDX 20 1 19 2 18 3 16 4 17 5 15 7 13 8 14 9 98 10 97 11 92 12
REMARK SMILES IDX 96 13 93 14 95 15 94 16 12 17 11 18 9 19 8 20 10 22 7 23
REMARK SMILES IDX 1 24 2 25 3 26 4 27 6 28 5 29 21 30 22 31 23 32 24 33 25 35
REMARK SMILES IDX 26 36 27 37 91 38 28 39 90 40 29 41 30 42 31 43 84 44 32 45
REMARK SMILES IDX 89 46 83 47 85 48 33 49 88 50 82 51 81 52 34 54 68 55 47 56
REMARK SMILES IDX 67 57 48 58 51 59 66 60 86 61 49 62 50 63 65 65 87 66 52 67
REMARK SMILES IDX 35 68 36 69 45 70 37 71 38 72 44 73 46 74 39 75 40 76 41 77
REMARK SMILES IDX 42 78 43 79 69 80 70 81 79 82 71 83 72 84 78 85 80 86 73 87
REMARK SMILES IDX 74 88 75 89 76 90 77 91 53 92 54 93 63 94 55 95 56 96 62 97
REMARK SMILES IDX 64 98 57 99 58 100 59 101 60 102 61 103
REMARK H PARENT 18 6 8 21 23 34 85 53 51 64
REMARK Flexibility Score: inf
ROOT
ATOM      1  C   UNL     1      -2.662   7.291  -7.950  1.00  0.00     0.023 C 
ENDROOT
BRANCH   1   2
ATOM      2  C   UNL     1      -1.472   6.931  -7.062  1.00  0.00     0.116 C 
BRANCH   2   3
ATOM      3  N   UNL     1      -1.405   7.612  -5.774  1.00  0.00    -0.351 N 
ATOM      4  C   UNL     1      -1.009   7.149  -4.528  1.00  0.00     0.270 C 
ATOM      5  O   UNL     1      -0.960   7.956  -3.599  1.00  0.00    -0.267 OA
ATOM      6  H   UNL     1      -1.687   8.555  -5.792  1.00  0.00     0.163 HD
BRANCH   4   7
ATOM      7  C   UNL     1      -0.747   5.696  -4.259  1.00  0.00     0.140 A 
ATOM      8  C   UNL     1      -1.434   3.903  -3.040  1.00  0.00     0.189 A 
ATOM      9  N   UNL     1      -1.459   5.220  -3.207  1.00  0.00    -0.217 NA
ATOM     10  N   UNL     1      -0.874   3.032  -3.887  1.00  0.00    -0.222 NA
ATOM     11  C   UNL     1      -0.160   3.527  -4.902  1.00  0.00     0.076 A 
ATOM     12  C   UNL     1       0.042   4.895  -5.093  1.00  0.00     0.032 A 
ATOM     13  C   UNL     1       0.374   2.646  -5.834  1.00  0.00     0.029 A 
ATOM     14  C   UNL     1       0.941   5.334  -6.100  1.00  0.00     0.013 A 
ATOM     15  C   UNL     1       1.152   3.087  -6.908  1.00  0.00     0.002 A 
ATOM     16  C   UNL     1       1.468   4.434  -7.021  1.00  0.00     0.001 A 
BRANCH   8  17
ATOM     17  S   UNL     1      -2.339   3.215  -1.685  1.00  0.00    -0.076 SA
BRANCH  17  18
ATOM     18  C   UNL     1      -1.412   3.930  -0.296  1.00  0.00     0.178 C 
BRANCH  18  19
ATOM     19  C   UNL     1       0.059   3.580  -0.288  1.00  0.00     0.234 C 
ATOM     20  N   UNL     1       0.579   2.339  -0.083  1.00  0.00    -0.325 N 
ATOM     21  H   UNL     1       1.563   2.349  -0.086  1.00  0.00     0.169 HD
ATOM     22  O   UNL     1       0.895   4.482  -0.446  1.00  0.00    -0.274 OA
BRANCH  20  23
ATOM     23  C   UNL     1       0.070   1.043   0.132  1.00  0.00     0.044 A 
ATOM     24  C   UNL     1       2.440   0.030  -0.181  1.00  0.00     0.046 C 
ATOM     25  C   UNL     1       0.949  -0.063   0.030  1.00  0.00    -0.027 A 
ATOM     26  C   UNL     1       0.426  -1.372   0.089  1.00  0.00     0.005 A 
ATOM     27  C   UNL     1      -0.929  -1.599   0.299  1.00  0.00     0.000 A 
ATOM     28  C   UNL     1      -1.273   0.787   0.426  1.00  0.00     0.026 A 
ATOM     29  C   UNL     1      -1.773  -0.518   0.493  1.00  0.00     0.002 A 
ENDBRANCH  20  23
ENDBRANCH  18  19
ENDBRANCH  17  18
ENDBRANCH   8  17
ENDBRANCH   4   7
ENDBRANCH   2   3
ENDBRANCH   1   2
BRANCH   1  30
ATOM     30  C   UNL     1      -2.876   8.770  -8.242  1.00  0.00     0.023 C 
BRANCH  30  31
ATOM     31  C   UNL     1      -1.705   9.495  -8.896  1.00  0.00     0.116 C 
BRANCH  31  32
ATOM     32  N   UNL     1      -1.761   9.538 -10.351  1.00  0.00    -0.352 N 
ATOM     33  C   UNL     1      -0.994  10.296 -11.231  1.00  0.00     0.251 C 
ATOM     34  H   UNL     1      -2.432   8.951 -10.769  1.00  0.00     0.163 HD
ATOM     35  O   UNL     1      -1.240  10.301 -12.423  1.00  0.00    -0.269 OA
BRANCH  33  36
ATOM     36  C   UNL     1       0.164  11.051 -10.691  1.00  0.00     0.039 A 
ATOM     37  C   UNL     1       1.436  10.819 -11.225  1.00  0.00     0.014 A 
ATOM     38  C   UNL     1       0.016  11.828  -9.549  1.00  0.00     0.014 A 
ATOM     39  C   UNL     1       2.569  11.180 -10.490  1.00  0.00     0.010 A 
ATOM     40  C   UNL     1       1.124  12.068  -8.765  1.00  0.00     0.010 A 
ATOM     41  C   UNL     1       2.404  11.711  -9.215  1.00  0.00    -0.014 A 
BRANCH  41  42
ATOM     42  C   UNL     1       3.466  11.881  -8.226  1.00  0.00     0.031 A 
ATOM     43  C   UNL     1       3.816  13.239  -7.742  1.00  0.00     0.074 A 
ATOM     44  C   UNL     1       3.943  10.794  -7.583  1.00  0.00     0.049 A 
ATOM     45  N   UNL     1       4.786  13.514  -6.939  1.00  0.00    -0.248 NA
ATOM     46  C   UNL     1       3.097  14.428  -8.183  1.00  0.00     0.031 C 
ATOM     47  C   UNL     1       4.574  10.756  -6.266  1.00  0.00     0.029 A 
ATOM     48  N   UNL     1       4.129   9.507  -8.091  1.00  0.00    -0.354 N 
ATOM     49  C   UNL     1       4.644  14.823  -6.524  1.00  0.00     0.074 A 
ATOM     50  C   UNL     1       3.626  15.363  -7.391  1.00  0.00     0.031 C 
ATOM     51  C   UNL     1       5.274   9.618  -6.147  1.00  0.00     0.029 A 
ATOM     52  C   UNL     1       5.262   8.972  -7.446  1.00  0.00     0.049 A 
ATOM     53  H   UNL     1       3.574   9.059  -8.770  1.00  0.00     0.167 HD
ATOM     54  C   UNL     1       5.321  15.238  -5.411  1.00  0.00     0.037 A 
ATOM     55  C   UNL     1       6.391   8.661  -8.152  1.00  0.00     0.037 A 
ATOM     56  C   UNL     1       6.301  14.225  -5.003  1.00  0.00     0.049 A 
ATOM     57  C   UNL     1       7.616   9.451  -7.752  1.00  0.00     0.074 A 
ATOM     58  C   UNL     1       6.313  13.256  -4.013  1.00  0.00     0.029 A 
ATOM     59  N   UNL     1       7.361  13.925  -5.855  1.00  0.00    -0.354 N 
ATOM     60  N   UNL     1       7.582  10.551  -7.051  1.00  0.00    -0.248 NA
ATOM     61  C   UNL     1       8.977   9.067  -8.111  1.00  0.00     0.031 C 
ATOM     62  C   UNL     1       7.344  12.328  -4.318  1.00  0.00     0.029 A 
ATOM     63  C   UNL     1       7.973  12.746  -5.478  1.00  0.00     0.049 A 
ATOM     64  H   UNL     1       7.636  14.479  -6.622  1.00  0.00     0.167 HD
ATOM     65  C   UNL     1       8.854  11.039  -6.889  1.00  0.00     0.074 A 
ATOM     66  C   UNL     1       9.694  10.053  -7.544  1.00  0.00     0.031 C 
ATOM     67  C   UNL     1       9.101  12.217  -6.237  1.00  0.00     0.037 A 
BRANCH  54  68
ATOM     68  C   UNL     1       4.925  16.424  -4.534  1.00  0.00     0.058 A 
ATOM     69  C   UNL     1       5.329  16.483  -3.178  1.00  0.00     0.135 A 
ATOM     70  C   UNL     1       4.087  17.490  -4.920  1.00  0.00     0.135 A 
ATOM     71  F   UNL     1       6.199  15.602  -2.666  1.00  0.00    -0.206 F 
ATOM     72  C   UNL     1       4.858  17.443  -2.272  1.00  0.00     0.059 A 
ATOM     73  C   UNL     1       3.570  18.436  -4.028  1.00  0.00     0.059 A 
ATOM     74  F   UNL     1       3.765  17.714  -6.195  1.00  0.00    -0.206 F 
ATOM     75  C   UNL     1       3.948  18.399  -2.699  1.00  0.00     0.060 A 
BRANCH  75  76
ATOM     76  S   UNL     1       3.293  19.594  -1.521  1.00  0.00     0.124 S 
ATOM     77  O   UNL     1       2.664  18.731  -0.526  1.00  0.00    -0.237 OA
ATOM     78  O   UNL     1       4.499  20.291  -1.088  1.00  0.00    -0.237 OA
ATOM     79  O   UNL     1       2.368  20.391  -2.322  1.00  0.00    -0.744 OA
ENDBRANCH  75  76
ENDBRANCH  54  68
BRANCH  55  80
ATOM     80  C   UNL     1       6.092   8.132  -9.511  1.00  0.00     0.058 A 
ATOM     81  C   UNL     1       5.470   6.870  -9.578  1.00  0.00     0.135 A 
ATOM     82  C   UNL     1       5.933   8.997 -10.604  1.00  0.00     0.135 A 
ATOM     83  F   UNL     1       5.606   5.999  -8.565  1.00  0.00    -0.206 F 
ATOM     84  C   UNL     1       4.567   6.559 -10.586  1.00  0.00     0.059 A 
ATOM     85  C   UNL     1       5.039   8.697 -11.634  1.00  0.00     0.059 A 
ATOM     86  F   UNL     1       6.509  10.208 -10.598  1.00  0.00    -0.206 F 
ATOM     87  C   UNL     1       4.300   7.515 -11.563  1.00  0.00     0.060 A 
BRANCH  87  88
ATOM     88  S   UNL     1       2.817   7.279 -12.572  1.00  0.00     0.124 S 
ATOM     89  O   UNL     1       3.071   5.983 -13.190  1.00  0.00    -0.237 OA
ATOM     90  O   UNL     1       1.773   7.297 -11.549  1.00  0.00    -0.237 OA
ATOM     91  O   UNL     1       2.838   8.426 -13.473  1.00  0.00    -0.744 OA
ENDBRANCH  87  88
ENDBRANCH  55  80
BRANCH  67  92
ATOM     92  C   UNL     1      10.426  12.952  -6.175  1.00  0.00     0.058 A 
ATOM     93  C   UNL     1      11.433  12.861  -7.151  1.00  0.00     0.135 A 
ATOM     94  C   UNL     1      10.663  13.909  -5.154  1.00  0.00     0.135 A 
ATOM     95  F   UNL     1      11.289  12.088  -8.236  1.00  0.00    -0.206 F 
ATOM     96  C   UNL     1      12.616  13.604  -7.084  1.00  0.00     0.059 A 
ATOM     97  C   UNL     1      11.807  14.703  -5.101  1.00  0.00     0.059 A 
ATOM     98  F   UNL     1       9.775  14.120  -4.171  1.00  0.00    -0.206 F 
ATOM     99  C   UNL     1      12.795  14.524  -6.056  1.00  0.00     0.060 A 
BRANCH  99 100
ATOM    100  S   UNL     1      14.283  15.539  -6.002  1.00  0.00     0.124 S 
ATOM    101  O   UNL     1      15.154  14.734  -5.152  1.00  0.00    -0.237 OA
ATOM    102  O   UNL     1      14.674  15.620  -7.407  1.00  0.00    -0.237 OA
ATOM    103  O   UNL     1      13.809  16.791  -5.420  1.00  0.00    -0.744 OA
ENDBRANCH  99 100
ENDBRANCH  67  92
ENDBRANCH  41  42
ENDBRANCH  33  36
ENDBRANCH  31  32
ENDBRANCH  30  31
ENDBRANCH   1  30
TORSDOF 18
