REMARK SMILES O=C(CC1CN(C(=O)C[C@H]2CCCCO2)C1)NCCCCNC(=O)c1ccc(-c2c3nc(c(-c4c(F)cc(S(=O)(=O)[O-])cc4F)c4ccc([nH]4)c(-c4c(F)cc(S(=O)(=O)[O-])cc4F)c4nc(c(-c5c(F)cc(S(=O)(=O)[O-])cc5F)c5ccc2[nH]5)C=C4)C=C3)cc1
REMARK SMILES IDX 19 1 18 2 17 3 1 4 2 5 3 7 4 8 5 9 16 10 6 11 7 12 8 13 9 14
REMARK SMILES IDX 10 15 11 16 15 17 12 18 14 19 13 20 20 21 21 22 22 23 23 24
REMARK SMILES IDX 24 26 25 27 26 28 90 29 27 30 89 31 28 32 29 33 30 34 83 35
REMARK SMILES IDX 31 36 88 37 82 38 84 39 32 40 87 41 81 42 80 43 33 45 67 46
REMARK SMILES IDX 46 47 66 48 47 49 50 50 65 51 85 52 48 53 49 54 64 56 86 57
REMARK SMILES IDX 51 58 34 59 35 60 44 61 36 62 37 63 43 64 45 65 38 66 39 67
REMARK SMILES IDX 40 68 41 69 42 70 68 71 69 72 78 73 70 74 71 75 77 76 79 77
REMARK SMILES IDX 72 78 73 79 74 80 75 81 76 82 52 83 53 84 62 85 54 86 55 87
REMARK SMILES IDX 61 88 63 89 56 90 57 91 58 92 59 93 60 94
REMARK H PARENT 17 6 22 25 84 44 50 55
REMARK Flexibility Score: inf
ROOT
ATOM      1  C   UNL     1       5.966   4.338  -3.055  1.00  0.00     0.023 C 
ENDROOT
BRANCH   1   2
ATOM      2  C   UNL     1       7.197   3.499  -2.721  1.00  0.00     0.116 C 
BRANCH   2   3
ATOM      3  N   UNL     1       6.952   2.077  -2.874  1.00  0.00    -0.356 N 
ATOM      4  O   UNL     1       8.570   1.727  -4.467  1.00  0.00    -0.275 OA
ATOM      5  C   UNL     1       7.685   1.296  -3.735  1.00  0.00     0.220 C 
ATOM      6  H   UNL     1       6.236   1.658  -2.343  1.00  0.00     0.163 HD
BRANCH   5   7
ATOM      7  C   UNL     1       7.310  -0.169  -3.730  1.00  0.00     0.107 C 
BRANCH   7   8
ATOM      8  C   UNL     1       7.545  -0.854  -2.392  1.00  0.00     0.037 C 
ATOM      9  C   UNL     1       6.317  -1.028  -1.469  1.00  0.00     0.125 C 
ATOM     10  C   UNL     1       7.629  -2.394  -2.435  1.00  0.00     0.125 C 
ATOM     11  N   UNL     1       6.806  -2.375  -1.250  1.00  0.00    -0.342 N 
ATOM     12  C   UNL     1       6.596  -3.210  -0.193  1.00  0.00     0.225 C 
ATOM     13  O   UNL     1       5.877  -2.882   0.751  1.00  0.00    -0.275 OA
BRANCH  12  14
ATOM     14  C   UNL     1       7.366  -4.515  -0.185  1.00  0.00     0.132 C 
BRANCH  14  15
ATOM     15  C   UNL     1       6.948  -5.466  -1.305  1.00  0.00     0.127 C 
ATOM     16  C   UNL     1       7.952  -6.618  -1.430  1.00  0.00     0.033 C 
ATOM     17  O   UNL     1       5.656  -6.002  -1.006  1.00  0.00    -0.378 OA
ATOM     18  C   UNL     1       7.500  -7.606  -2.502  1.00  0.00     0.005 C 
ATOM     19  C   UNL     1       5.154  -6.832  -2.053  1.00  0.00     0.160 C 
ATOM     20  C   UNL     1       6.058  -8.039  -2.261  1.00  0.00     0.029 C 
ENDBRANCH  14  15
ENDBRANCH  12  14
ENDBRANCH   7   8
ENDBRANCH   5   7
ENDBRANCH   2   3
ENDBRANCH   1   2
BRANCH   1  21
ATOM     21  C   UNL     1       4.744   4.075  -2.171  1.00  0.00     0.023 C 
BRANCH  21  22
ATOM     22  C   UNL     1       4.960   4.270  -0.673  1.00  0.00     0.116 C 
BRANCH  22  23
ATOM     23  N   UNL     1       5.281   5.644  -0.321  1.00  0.00    -0.352 N 
ATOM     24  C   UNL     1       4.707   6.460   0.626  1.00  0.00     0.251 C 
ATOM     25  H   UNL     1       6.016   6.049  -0.836  1.00  0.00     0.163 HD
ATOM     26  O   UNL     1       5.022   7.646   0.675  1.00  0.00    -0.269 OA
BRANCH  24  27
ATOM     27  C   UNL     1       3.689   5.925   1.560  1.00  0.00     0.039 A 
ATOM     28  C   UNL     1       2.537   6.678   1.805  1.00  0.00     0.014 A 
ATOM     29  C   UNL     1       3.861   4.691   2.194  1.00  0.00     0.014 A 
ATOM     30  C   UNL     1       1.529   6.161   2.625  1.00  0.00     0.010 A 
ATOM     31  C   UNL     1       2.823   4.145   2.948  1.00  0.00     0.010 A 
ATOM     32  C   UNL     1       1.643   4.872   3.171  1.00  0.00    -0.014 A 
BRANCH  32  33
ATOM     33  C   UNL     1       0.537   4.265   3.960  1.00  0.00     0.031 A 
ATOM     34  C   UNL     1       0.744   3.897   5.405  1.00  0.00     0.074 A 
ATOM     35  C   UNL     1      -0.638   3.987   3.358  1.00  0.00     0.049 A 
ATOM     36  N   UNL     1      -0.077   3.300   6.232  1.00  0.00    -0.248 NA
ATOM     37  C   UNL     1       2.054   4.220   5.993  1.00  0.00     0.031 C 
ATOM     38  C   UNL     1      -0.951   4.253   1.951  1.00  0.00     0.029 A 
ATOM     39  N   UNL     1      -1.784   3.409   3.846  1.00  0.00    -0.354 N 
ATOM     40  C   UNL     1       0.618   3.166   7.429  1.00  0.00     0.074 A 
ATOM     41  C   UNL     1       1.945   3.696   7.205  1.00  0.00     0.031 C 
ATOM     42  C   UNL     1      -2.208   3.857   1.697  1.00  0.00     0.029 A 
ATOM     43  C   UNL     1      -2.779   3.271   2.906  1.00  0.00     0.049 A 
ATOM     44  H   UNL     1      -1.885   3.120   4.782  1.00  0.00     0.167 HD
ATOM     45  C   UNL     1       0.183   2.668   8.612  1.00  0.00     0.037 A 
ATOM     46  C   UNL     1      -4.007   2.723   2.999  1.00  0.00     0.037 A 
ATOM     47  C   UNL     1      -1.146   2.157   8.833  1.00  0.00     0.049 A 
ATOM     48  C   UNL     1      -4.462   2.162   4.320  1.00  0.00     0.074 A 
ATOM     49  C   UNL     1      -1.699   1.681  10.010  1.00  0.00     0.029 A 
ATOM     50  N   UNL     1      -2.129   2.048   7.859  1.00  0.00    -0.354 N 
ATOM     51  N   UNL     1      -3.814   2.106   5.460  1.00  0.00    -0.248 NA
ATOM     52  C   UNL     1      -5.817   1.596   4.372  1.00  0.00     0.031 C 
ATOM     53  C   UNL     1      -2.996   1.237   9.736  1.00  0.00     0.029 A 
ATOM     54  C   UNL     1      -3.275   1.491   8.403  1.00  0.00     0.049 A 
ATOM     55  H   UNL     1      -2.026   2.325   6.920  1.00  0.00     0.167 HD
ATOM     56  C   UNL     1      -4.692   1.527   6.369  1.00  0.00     0.074 A 
ATOM     57  C   UNL     1      -5.922   1.263   5.651  1.00  0.00     0.031 C 
ATOM     58  C   UNL     1      -4.498   1.241   7.681  1.00  0.00     0.037 A 
BRANCH  45  59
ATOM     59  C   UNL     1       1.151   2.655   9.765  1.00  0.00     0.058 A 
ATOM     60  C   UNL     1       1.572   3.840  10.389  1.00  0.00     0.135 A 
ATOM     61  C   UNL     1       1.627   1.440  10.285  1.00  0.00     0.135 A 
ATOM     62  F   UNL     1       1.160   5.032   9.926  1.00  0.00    -0.206 F 
ATOM     63  C   UNL     1       2.451   3.824  11.467  1.00  0.00     0.059 A 
ATOM     64  C   UNL     1       2.483   1.398  11.382  1.00  0.00     0.059 A 
ATOM     65  F   UNL     1       1.256   0.275   9.730  1.00  0.00    -0.206 F 
ATOM     66  C   UNL     1       2.900   2.597  11.958  1.00  0.00     0.060 A 
BRANCH  66  67
ATOM     67  S   UNL     1       4.031   2.596  13.365  1.00  0.00     0.124 S 
ATOM     68  O   UNL     1       5.258   3.098  12.754  1.00  0.00    -0.237 OA
ATOM     69  O   UNL     1       3.370   3.505  14.296  1.00  0.00    -0.237 OA
ATOM     70  O   UNL     1       4.063   1.196  13.776  1.00  0.00    -0.744 OA
ENDBRANCH  66  67
ENDBRANCH  45  59
BRANCH  46  71
ATOM     71  C   UNL     1      -4.900   2.687   1.809  1.00  0.00     0.058 A 
ATOM     72  C   UNL     1      -6.063   3.470   1.753  1.00  0.00     0.135 A 
ATOM     73  C   UNL     1      -4.609   1.873   0.703  1.00  0.00     0.135 A 
ATOM     74  F   UNL     1      -6.390   4.260   2.787  1.00  0.00    -0.206 F 
ATOM     75  C   UNL     1      -6.916   3.433   0.654  1.00  0.00     0.059 A 
ATOM     76  C   UNL     1      -5.431   1.841  -0.420  1.00  0.00     0.059 A 
ATOM     77  F   UNL     1      -3.501   1.117   0.697  1.00  0.00    -0.206 F 
ATOM     78  C   UNL     1      -6.590   2.616  -0.429  1.00  0.00     0.060 A 
BRANCH  78  79
ATOM     79  S   UNL     1      -7.681   2.608  -1.868  1.00  0.00     0.124 S 
ATOM     80  O   UNL     1      -8.835   1.877  -1.358  1.00  0.00    -0.237 OA
ATOM     81  O   UNL     1      -7.882   4.034  -2.107  1.00  0.00    -0.237 OA
ATOM     82  O   UNL     1      -6.893   1.916  -2.884  1.00  0.00    -0.744 OA
ENDBRANCH  78  79
ENDBRANCH  46  71
BRANCH  58  83
ATOM     83  C   UNL     1      -5.653   0.647   8.443  1.00  0.00     0.058 A 
ATOM     84  C   UNL     1      -6.081  -0.673   8.232  1.00  0.00     0.135 A 
ATOM     85  C   UNL     1      -6.306   1.396   9.436  1.00  0.00     0.135 A 
ATOM     86  F   UNL     1      -5.497  -1.431   7.291  1.00  0.00    -0.206 F 
ATOM     87  C   UNL     1      -7.131  -1.222   8.962  1.00  0.00     0.059 A 
ATOM     88  C   UNL     1      -7.337   0.858  10.199  1.00  0.00     0.059 A 
ATOM     89  F   UNL     1      -5.931   2.661   9.686  1.00  0.00    -0.206 F 
ATOM     90  C   UNL     1      -7.751  -0.449   9.946  1.00  0.00     0.060 A 
BRANCH  90  91
ATOM     91  S   UNL     1      -9.089  -1.185  10.909  1.00  0.00     0.124 S 
ATOM     92  O   UNL     1     -10.170  -1.224   9.929  1.00  0.00    -0.237 OA
ATOM     93  O   UNL     1      -8.528  -2.480  11.284  1.00  0.00    -0.237 OA
ATOM     94  O   UNL     1      -9.274  -0.246  12.011  1.00  0.00    -0.744 OA
ENDBRANCH  90  91
ENDBRANCH  58  83
ENDBRANCH  32  33
ENDBRANCH  24  27
ENDBRANCH  22  23
ENDBRANCH  21  22
ENDBRANCH   1  21
TORSDOF 17
