REMARK SMILES COc1cc(C(=O)NC2(C(=O)NCCCCNC(=O)c3ccc(-c4c5nc(c(-c6c(F)cc(S(=O)(=O)[O-])cc6F)c6ccc([nH]6)c(-c6c(F)cc(S(=O)(=O)[O-])cc6F)c6nc(c(-c7c(F)cc(S(=O)(=O)[O-])cc7F)c7ccc4[nH]7)C=C6)C=C5)cc3)CCCCC2)cc2c1OCCO2
REMARK SMILES IDX 14 1 13 2 12 3 10 4 11 5 9 7 86 8 90 9 87 10 89 11 88 12
REMARK SMILES IDX 8 13 6 14 7 15 5 17 3 18 4 19 93 20 92 21 94 22 91 23 97 24
REMARK SMILES IDX 95 25 96 26 2 27 1 28 15 29 16 30 17 31 18 32 19 34 20 35
REMARK SMILES IDX 21 36 85 37 22 38 84 39 23 40 24 41 25 42 78 43 26 44 83 45
REMARK SMILES IDX 77 46 79 47 27 48 82 49 76 50 75 51 28 53 62 54 41 55 61 56
REMARK SMILES IDX 42 57 45 58 60 59 80 60 43 61 44 62 59 64 81 65 46 66 29 67
REMARK SMILES IDX 30 68 39 69 31 70 32 71 38 72 40 73 33 74 34 75 35 76 36 77
REMARK SMILES IDX 37 78 63 79 64 80 73 81 65 82 66 83 72 84 74 85 67 86 68 87
REMARK SMILES IDX 69 88 70 89 71 90 47 91 48 92 57 93 49 94 50 95 56 96 58 97
REMARK SMILES IDX 51 98 52 99 53 100 54 101 55 102
REMARK H PARENT 12 6 8 16 17 33 79 52 45 63
REMARK Flexibility Score: inf
ROOT
ATOM      1  C   UNL     1      -2.268   2.644   0.256  1.00  0.00     0.023 C 
ENDROOT
BRANCH   1   2
ATOM      2  C   UNL     1      -2.913   1.312   0.630  1.00  0.00     0.116 C 
BRANCH   2   3
ATOM      3  N   UNL     1      -2.103   0.422   1.425  1.00  0.00    -0.354 N 
ATOM      4  C   UNL     1      -2.161   0.044   2.731  1.00  0.00     0.245 C 
ATOM      5  O   UNL     1      -1.661  -1.068   2.964  1.00  0.00    -0.272 OA
ATOM      6  H   UNL     1      -1.362   0.007   0.926  1.00  0.00     0.163 HD
BRANCH   4   7
ATOM      7  C   UNL     1      -2.804   0.876   3.901  1.00  0.00     0.119 C 
ATOM      8  C   UNL     1      -4.181   0.228   4.202  1.00  0.00     0.038 C 
ATOM      9  C   UNL     1      -2.965   2.408   3.824  1.00  0.00     0.038 C 
ATOM     10  C   UNL     1      -5.275   0.640   3.232  1.00  0.00     0.003 C 
ATOM     11  C   UNL     1      -4.224   2.995   3.183  1.00  0.00     0.003 C 
ATOM     12  C   UNL     1      -5.490   2.147   3.233  1.00  0.00     0.000 C 
BRANCH   7  13
ATOM     13  N   UNL     1      -1.958   0.623   5.132  1.00  0.00    -0.338 N 
ATOM     14  C   UNL     1      -0.637   0.770   5.480  1.00  0.00     0.252 C 
ATOM     15  O   UNL     1      -0.387   0.815   6.688  1.00  0.00    -0.269 OA
ATOM     16  H   UNL     1      -2.493   0.259   5.875  1.00  0.00     0.164 HD
BRANCH  14  17
ATOM     17  C   UNL     1       0.506   0.738   4.528  1.00  0.00     0.047 A 
ATOM     18  C   UNL     1       1.512   0.983   2.341  1.00  0.00     0.165 A 
ATOM     19  C   UNL     1       0.484   1.269   3.243  1.00  0.00     0.064 A 
ATOM     20  C   UNL     1       2.672   0.338   2.771  1.00  0.00     0.203 A 
ATOM     21  C   UNL     1       2.767  -0.067   4.104  1.00  0.00     0.166 A 
ATOM     22  O   UNL     1       3.686   0.150   1.867  1.00  0.00    -0.483 OA
ATOM     23  C   UNL     1       1.677   0.093   4.964  1.00  0.00     0.064 A 
ATOM     24  O   UNL     1       3.889  -0.659   4.630  1.00  0.00    -0.486 OA
ATOM     25  C   UNL     1       4.660  -0.782   2.337  1.00  0.00     0.271 C 
ATOM     26  C   UNL     1       5.025  -0.469   3.776  1.00  0.00     0.271 C 
BRANCH  18  27
ATOM     27  O   UNL     1       1.280   1.353   1.039  1.00  0.00    -0.493 OA
ATOM     28  C   UNL     1       1.452   0.259   0.130  1.00  0.00     0.278 C 
ENDBRANCH  18  27
ENDBRANCH  14  17
ENDBRANCH   7  13
ENDBRANCH   4   7
ENDBRANCH   2   3
ENDBRANCH   1   2
BRANCH   1  29
ATOM     29  C   UNL     1      -1.318   2.660  -0.940  1.00  0.00     0.023 C 
BRANCH  29  30
ATOM     30  C   UNL     1      -1.688   1.767  -2.113  1.00  0.00     0.116 C 
BRANCH  30  31
ATOM     31  N   UNL     1      -3.022   2.019  -2.638  1.00  0.00    -0.352 N 
ATOM     32  C   UNL     1      -3.457   1.872  -3.937  1.00  0.00     0.251 C 
ATOM     33  H   UNL     1      -3.693   2.331  -1.988  1.00  0.00     0.163 HD
ATOM     34  O   UNL     1      -4.598   2.172  -4.253  1.00  0.00    -0.269 OA
BRANCH  32  35
ATOM     35  C   UNL     1      -2.488   1.398  -4.945  1.00  0.00     0.039 A 
ATOM     36  C   UNL     1      -2.213   2.212  -6.045  1.00  0.00     0.014 A 
ATOM     37  C   UNL     1      -1.777   0.213  -4.736  1.00  0.00     0.014 A 
ATOM     38  C   UNL     1      -1.164   1.875  -6.900  1.00  0.00     0.010 A 
ATOM     39  C   UNL     1      -0.689  -0.083  -5.549  1.00  0.00     0.010 A 
ATOM     40  C   UNL     1      -0.366   0.750  -6.633  1.00  0.00    -0.014 A 
BRANCH  40  41
ATOM     41  C   UNL     1       0.822   0.434  -7.465  1.00  0.00     0.031 A 
ATOM     42  C   UNL     1       0.863  -0.845  -8.256  1.00  0.00     0.074 A 
ATOM     43  C   UNL     1       1.893   1.252  -7.439  1.00  0.00     0.049 A 
ATOM     44  N   UNL     1       1.840  -1.344  -8.966  1.00  0.00    -0.248 NA
ATOM     45  C   UNL     1      -0.342  -1.690  -8.213  1.00  0.00     0.031 C 
ATOM     46  C   UNL     1       1.999   2.486  -6.656  1.00  0.00     0.029 A 
ATOM     47  N   UNL     1       3.106   1.161  -8.075  1.00  0.00    -0.354 N 
ATOM     48  C   UNL     1       1.381  -2.570  -9.431  1.00  0.00     0.074 A 
ATOM     49  C   UNL     1       0.054  -2.760  -8.887  1.00  0.00     0.031 C 
ATOM     50  C   UNL     1       3.204   3.042  -6.868  1.00  0.00     0.029 A 
ATOM     51  C   UNL     1       3.967   2.191  -7.775  1.00  0.00     0.049 A 
ATOM     52  H   UNL     1       3.338   0.427  -8.688  1.00  0.00     0.167 HD
ATOM     53  C   UNL     1       2.002  -3.448 -10.254  1.00  0.00     0.037 A 
ATOM     54  C   UNL     1       5.232   2.419  -8.179  1.00  0.00     0.037 A 
ATOM     55  C   UNL     1       3.301  -3.228 -10.831  1.00  0.00     0.049 A 
ATOM     56  C   UNL     1       5.882   1.452  -9.131  1.00  0.00     0.074 A 
ATOM     57  C   UNL     1       3.976  -4.011 -11.751  1.00  0.00     0.029 A 
ATOM     58  N   UNL     1       4.120  -2.146 -10.548  1.00  0.00    -0.354 N 
ATOM     59  N   UNL     1       5.400   0.337  -9.628  1.00  0.00    -0.248 NA
ATOM     60  C   UNL     1       7.243   1.773  -9.584  1.00  0.00     0.031 C 
ATOM     61  C   UNL     1       5.220  -3.420 -11.996  1.00  0.00     0.029 A 
ATOM     62  C   UNL     1       5.303  -2.249 -11.260  1.00  0.00     0.049 A 
ATOM     63  H   UNL     1       3.895  -1.412  -9.931  1.00  0.00     0.167 HD
ATOM     64  C   UNL     1       6.388  -0.163 -10.468  1.00  0.00     0.074 A 
ATOM     65  C   UNL     1       7.490   0.776 -10.422  1.00  0.00     0.031 C 
ATOM     66  C   UNL     1       6.385  -1.298 -11.209  1.00  0.00     0.037 A 
BRANCH  53  67
ATOM     67  C   UNL     1       1.279  -4.721 -10.589  1.00  0.00     0.058 A 
ATOM     68  C   UNL     1       0.157  -4.731 -11.434  1.00  0.00     0.135 A 
ATOM     69  C   UNL     1       1.736  -5.952 -10.092  1.00  0.00     0.135 A 
ATOM     70  F   UNL     1      -0.331  -3.580 -11.922  1.00  0.00    -0.206 F 
ATOM     71  C   UNL     1      -0.502  -5.913 -11.753  1.00  0.00     0.059 A 
ATOM     72  C   UNL     1       1.108  -7.150 -10.420  1.00  0.00     0.059 A 
ATOM     73  F   UNL     1       2.802  -5.999  -9.279  1.00  0.00    -0.206 F 
ATOM     74  C   UNL     1      -0.019  -7.118 -11.241  1.00  0.00     0.060 A 
BRANCH  74  75
ATOM     75  S   UNL     1      -0.877  -8.646 -11.675  1.00  0.00     0.124 S 
ATOM     76  O   UNL     1      -2.075  -8.550 -10.847  1.00  0.00    -0.237 OA
ATOM     77  O   UNL     1      -1.087  -8.489 -13.111  1.00  0.00    -0.237 OA
ATOM     78  O   UNL     1       0.070  -9.688 -11.293  1.00  0.00    -0.744 OA
ENDBRANCH  74  75
ENDBRANCH  53  67
BRANCH  54  79
ATOM     79  C   UNL     1       5.963   3.623  -7.701  1.00  0.00     0.058 A 
ATOM     80  C   UNL     1       6.228   4.697  -8.564  1.00  0.00     0.135 A 
ATOM     81  C   UNL     1       6.405   3.727  -6.373  1.00  0.00     0.135 A 
ATOM     82  F   UNL     1       5.830   4.641  -9.844  1.00  0.00    -0.206 F 
ATOM     83  C   UNL     1       6.924   5.822  -8.135  1.00  0.00     0.059 A 
ATOM     84  C   UNL     1       7.082   4.853  -5.914  1.00  0.00     0.059 A 
ATOM     85  F   UNL     1       6.160   2.735  -5.503  1.00  0.00    -0.206 F 
ATOM     86  C   UNL     1       7.348   5.891  -6.807  1.00  0.00     0.060 A 
BRANCH  86  87
ATOM     87  S   UNL     1       8.214   7.374  -6.247  1.00  0.00     0.124 S 
ATOM     88  O   UNL     1       9.535   7.180  -6.833  1.00  0.00    -0.237 OA
ATOM     89  O   UNL     1       7.407   8.441  -6.830  1.00  0.00    -0.237 OA
ATOM     90  O   UNL     1       8.146   7.271  -4.792  1.00  0.00    -0.744 OA
ENDBRANCH  86  87
ENDBRANCH  54  79
BRANCH  66  91
ATOM     91  C   UNL     1       7.595  -1.578 -12.054  1.00  0.00     0.058 A 
ATOM     92  C   UNL     1       8.798  -2.025 -11.487  1.00  0.00     0.135 A 
ATOM     93  C   UNL     1       7.530  -1.457 -13.451  1.00  0.00     0.135 A 
ATOM     94  F   UNL     1       8.912  -2.150 -10.155  1.00  0.00    -0.206 F 
ATOM     95  C   UNL     1       9.902  -2.330 -12.277  1.00  0.00     0.059 A 
ATOM     96  C   UNL     1       8.613  -1.779 -14.261  1.00  0.00     0.059 A 
ATOM     97  F   UNL     1       6.398  -1.042 -14.042  1.00  0.00    -0.206 F 
ATOM     98  C   UNL     1       9.798  -2.206 -13.664  1.00  0.00     0.060 A 
BRANCH  98  99
ATOM     99  S   UNL     1      11.223  -2.646 -14.682  1.00  0.00     0.124 S 
ATOM    100  O   UNL     1      12.094  -1.493 -14.482  1.00  0.00    -0.237 OA
ATOM    101  O   UNL     1      11.672  -3.894 -14.071  1.00  0.00    -0.237 OA
ATOM    102  O   UNL     1      10.655  -2.780 -16.020  1.00  0.00    -0.744 OA
ENDBRANCH  98  99
ENDBRANCH  66  91
ENDBRANCH  40  41
ENDBRANCH  32  35
ENDBRANCH  30  31
ENDBRANCH  29  30
ENDBRANCH   1  29
TORSDOF 17
