REMARK SMILES O=C(NCCCCNC(=O)c1cc(F)c(F)cc1NS(=O)(=O)c1ccc2c(c1)CCC2)c1ccc(-c2c3nc(c(-c4c(F)cc(S(=O)(=O)[O-])cc4F)c4ccc([nH]4)c(-c4c(F)cc(S(=O)(=O)[O-])cc4F)c4nc(c(-c5c(F)cc(S(=O)(=O)[O-])cc5F)c5ccc2[nH]5)C=C4)C=C3)cc1
REMARK SMILES IDX 5 1 4 2 3 3 1 4 2 5 32 7 33 8 97 9 34 10 96 11 35 12 36 13
REMARK SMILES IDX 37 14 90 15 38 16 95 17 89 18 91 19 39 20 94 21 88 22 87 23
REMARK SMILES IDX 40 25 74 26 53 27 73 28 54 29 57 30 72 31 92 32 55 33 56 34
REMARK SMILES IDX 71 36 93 37 58 38 41 39 42 40 51 41 43 42 44 43 50 44 52 45
REMARK SMILES IDX 45 46 46 47 47 48 48 49 49 50 75 51 76 52 85 53 77 54 78 55
REMARK SMILES IDX 84 56 86 57 79 58 80 59 81 60 82 61 83 62 59 63 60 64 69 65
REMARK SMILES IDX 61 66 62 67 68 68 70 69 63 70 64 71 65 72 66 73 67 74 6 75
REMARK SMILES IDX 7 76 8 77 9 78 10 80 11 81 12 82 18 83 13 84 17 85 14 86
REMARK SMILES IDX 15 87 16 88 19 89 20 91 21 92 22 93 23 94 24 95 28 96 25 97
REMARK SMILES IDX 27 98 26 99 29 100 31 101 30 102
REMARK H PARENT 3 6 91 24 57 35 8 79 19 90
REMARK Flexibility Score: inf
ROOT
ATOM      1  C   UNL     1       4.949  -2.501  -0.603  1.00  0.00     0.023 C 
ENDROOT
BRANCH   1   2
ATOM      2  C   UNL     1       4.593  -1.025  -0.714  1.00  0.00     0.116 C 
BRANCH   2   3
ATOM      3  N   UNL     1       3.158  -0.771  -0.750  1.00  0.00    -0.352 N 
ATOM      4  O   UNL     1       1.172   0.046  -0.054  1.00  0.00    -0.269 OA
ATOM      5  C   UNL     1       2.394   0.039   0.062  1.00  0.00     0.251 C 
ATOM      6  H   UNL     1       2.664  -1.247  -1.457  1.00  0.00     0.163 HD
BRANCH   5   7
ATOM      7  C   UNL     1       3.052   0.864   1.099  1.00  0.00     0.039 A 
ATOM      8  C   UNL     1       4.211   1.579   0.801  1.00  0.00     0.014 A 
ATOM      9  C   UNL     1       2.536   0.877   2.398  1.00  0.00     0.014 A 
ATOM     10  C   UNL     1       4.966   2.121   1.833  1.00  0.00     0.010 A 
ATOM     11  C   UNL     1       3.240   1.528   3.417  1.00  0.00     0.010 A 
ATOM     12  C   UNL     1       4.492   2.107   3.156  1.00  0.00    -0.014 A 
BRANCH  12  13
ATOM     13  C   UNL     1       5.318   2.728   4.226  1.00  0.00     0.031 A 
ATOM     14  C   UNL     1       5.845   1.916   5.382  1.00  0.00     0.074 A 
ATOM     15  C   UNL     1       5.640   4.033   4.119  1.00  0.00     0.049 A 
ATOM     16  N   UNL     1       6.623   2.294   6.366  1.00  0.00    -0.248 NA
ATOM     17  C   UNL     1       5.444   0.503   5.453  1.00  0.00     0.031 C 
ATOM     18  C   UNL     1       5.183   4.927   3.050  1.00  0.00     0.029 A 
ATOM     19  N   UNL     1       6.445   4.831   4.891  1.00  0.00    -0.354 N 
ATOM     20  C   UNL     1       6.782   1.180   7.184  1.00  0.00     0.074 A 
ATOM     21  C   UNL     1       5.998   0.116   6.594  1.00  0.00     0.031 C 
ATOM     22  C   UNL     1       5.763   6.126   3.198  1.00  0.00     0.029 A 
ATOM     23  C   UNL     1       6.573   6.112   4.410  1.00  0.00     0.049 A 
ATOM     24  H   UNL     1       6.888   4.516   5.712  1.00  0.00     0.167 HD
ATOM     25  C   UNL     1       7.519   1.055   8.315  1.00  0.00     0.037 A 
ATOM     26  C   UNL     1       7.255   7.168   4.892  1.00  0.00     0.037 A 
ATOM     27  C   UNL     1       8.315   2.116   8.883  1.00  0.00     0.049 A 
ATOM     28  C   UNL     1       8.050   7.005   6.156  1.00  0.00     0.074 A 
ATOM     29  C   UNL     1       9.131   2.075  10.001  1.00  0.00     0.029 A 
ATOM     30  N   UNL     1       8.390   3.409   8.384  1.00  0.00    -0.354 N 
ATOM     31  N   UNL     1       8.216   5.932   6.893  1.00  0.00    -0.248 NA
ATOM     32  C   UNL     1       8.750   8.195   6.653  1.00  0.00     0.031 C 
ATOM     33  C   UNL     1       9.653   3.356  10.211  1.00  0.00     0.029 A 
ATOM     34  C   UNL     1       9.217   4.180   9.187  1.00  0.00     0.049 A 
ATOM     35  H   UNL     1       7.925   3.731   7.579  1.00  0.00     0.167 HD
ATOM     36  C   UNL     1       9.064   6.311   7.926  1.00  0.00     0.074 A 
ATOM     37  C   UNL     1       9.387   7.707   7.709  1.00  0.00     0.031 C 
ATOM     38  C   UNL     1       9.535   5.569   8.959  1.00  0.00     0.037 A 
BRANCH  25  39
ATOM     39  C   UNL     1       7.483  -0.268   9.039  1.00  0.00     0.058 A 
ATOM     40  C   UNL     1       8.087  -1.423   8.517  1.00  0.00     0.135 A 
ATOM     41  C   UNL     1       6.872  -0.367  10.301  1.00  0.00     0.135 A 
ATOM     42  F   UNL     1       8.676  -1.392   7.311  1.00  0.00    -0.206 F 
ATOM     43  C   UNL     1       8.060  -2.634   9.204  1.00  0.00     0.059 A 
ATOM     44  C   UNL     1       6.859  -1.561  11.019  1.00  0.00     0.059 A 
ATOM     45  F   UNL     1       6.282   0.704  10.853  1.00  0.00    -0.206 F 
ATOM     46  C   UNL     1       7.443  -2.693  10.454  1.00  0.00     0.060 A 
BRANCH  46  47
ATOM     47  S   UNL     1       7.413  -4.272  11.330  1.00  0.00     0.124 S 
ATOM     48  O   UNL     1       6.452  -5.028  10.533  1.00  0.00    -0.237 OA
ATOM     49  O   UNL     1       8.802  -4.710  11.231  1.00  0.00    -0.237 OA
ATOM     50  O   UNL     1       6.967  -3.910  12.672  1.00  0.00    -0.744 OA
ENDBRANCH  46  47
ENDBRANCH  25  39
BRANCH  26  51
ATOM     51  C   UNL     1       7.214   8.467   4.171  1.00  0.00     0.058 A 
ATOM     52  C   UNL     1       8.354   8.977   3.533  1.00  0.00     0.135 A 
ATOM     53  C   UNL     1       6.028   9.215   4.086  1.00  0.00     0.135 A 
ATOM     54  F   UNL     1       9.512   8.301   3.588  1.00  0.00    -0.206 F 
ATOM     55  C   UNL     1       8.327  10.190   2.853  1.00  0.00     0.059 A 
ATOM     56  C   UNL     1       5.967  10.413   3.384  1.00  0.00     0.059 A 
ATOM     57  F   UNL     1       4.904   8.761   4.662  1.00  0.00    -0.206 F 
ATOM     58  C   UNL     1       7.126  10.899   2.781  1.00  0.00     0.060 A 
BRANCH  58  59
ATOM     59  S   UNL     1       7.090  12.449   1.856  1.00  0.00     0.124 S 
ATOM     60  O   UNL     1       7.833  13.336   2.743  1.00  0.00    -0.237 OA
ATOM     61  O   UNL     1       7.759  12.079   0.613  1.00  0.00    -0.237 OA
ATOM     62  O   UNL     1       5.663  12.731   1.731  1.00  0.00    -0.744 OA
ENDBRANCH  58  59
ENDBRANCH  26  51
BRANCH  38  63
ATOM     63  C   UNL     1      10.491   6.240   9.907  1.00  0.00     0.058 A 
ATOM     64  C   UNL     1      10.075   7.239  10.802  1.00  0.00     0.135 A 
ATOM     65  C   UNL     1      11.844   5.861   9.933  1.00  0.00     0.135 A 
ATOM     66  F   UNL     1       8.795   7.645  10.814  1.00  0.00    -0.206 F 
ATOM     67  C   UNL     1      10.973   7.865  11.661  1.00  0.00     0.059 A 
ATOM     68  C   UNL     1      12.752   6.450  10.807  1.00  0.00     0.059 A 
ATOM     69  F   UNL     1      12.294   4.904   9.106  1.00  0.00    -0.206 F 
ATOM     70  C   UNL     1      12.310   7.464  11.655  1.00  0.00     0.060 A 
BRANCH  70  71
ATOM     71  S   UNL     1      13.463   8.275  12.783  1.00  0.00     0.124 S 
ATOM     72  O   UNL     1      13.629   9.577  12.146  1.00  0.00    -0.237 OA
ATOM     73  O   UNL     1      12.723   8.274  14.041  1.00  0.00    -0.237 OA
ATOM     74  O   UNL     1      14.636   7.407  12.752  1.00  0.00    -0.744 OA
ENDBRANCH  70  71
ENDBRANCH  38  63
ENDBRANCH  12  13
ENDBRANCH   5   7
ENDBRANCH   2   3
ENDBRANCH   1   2
BRANCH   1  75
ATOM     75  C   UNL     1       4.501  -3.369  -1.773  1.00  0.00     0.023 C 
BRANCH  75  76
ATOM     76  C   UNL     1       4.940  -2.878  -3.151  1.00  0.00     0.116 C 
BRANCH  76  77
ATOM     77  N   UNL     1       6.389  -2.888  -3.321  1.00  0.00    -0.352 N 
ATOM     78  C   UNL     1       7.153  -3.644  -4.179  1.00  0.00     0.253 C 
ATOM     79  H   UNL     1       6.889  -2.267  -2.743  1.00  0.00     0.163 HD
ATOM     80  O   UNL     1       8.371  -3.703  -4.070  1.00  0.00    -0.269 OA
BRANCH  78  81
ATOM     81  C   UNL     1       6.482  -4.462  -5.203  1.00  0.00     0.067 A 
ATOM     82  C   UNL     1       5.609  -3.818  -6.095  1.00  0.00     0.058 A 
ATOM     83  C   UNL     1       6.616  -5.864  -5.195  1.00  0.00     0.065 A 
ATOM     84  C   UNL     1       4.761  -4.585  -6.876  1.00  0.00     0.159 A 
ATOM     85  C   UNL     1       5.673  -6.605  -5.911  1.00  0.00     0.070 A 
ATOM     86  F   UNL     1       3.888  -3.979  -7.691  1.00  0.00    -0.204 F 
ATOM     87  C   UNL     1       4.768  -5.968  -6.759  1.00  0.00     0.160 A 
ATOM     88  F   UNL     1       3.900  -6.706  -7.463  1.00  0.00    -0.204 F 
BRANCH  83  89
ATOM     89  N   UNL     1       7.585  -6.555  -4.369  1.00  0.00    -0.279 N 
ATOM     90  H   UNL     1       7.521  -6.495  -3.388  1.00  0.00     0.180 HD
BRANCH  89  91
ATOM     91  S   UNL     1       8.848  -7.479  -5.088  1.00  0.00     0.261 S 
ATOM     92  O   UNL     1       9.800  -6.545  -5.645  1.00  0.00    -0.201 OA
ATOM     93  O   UNL     1       9.259  -8.437  -4.079  1.00  0.00    -0.201 OA
BRANCH  91  94
ATOM     94  C   UNL     1       8.180  -8.397  -6.458  1.00  0.00     0.088 A 
ATOM     95  C   UNL     1       7.887  -7.713  -7.656  1.00  0.00     0.022 A 
ATOM     96  C   UNL     1       8.009  -9.785  -6.362  1.00  0.00     0.026 A 
ATOM     97  C   UNL     1       7.258  -8.377  -8.709  1.00  0.00     0.005 A 
ATOM     98  C   UNL     1       7.465 -10.445  -7.453  1.00  0.00    -0.043 A 
ATOM     99  C   UNL     1       7.043  -9.739  -8.587  1.00  0.00    -0.045 A 
ATOM    100  C   UNL     1       7.208 -11.913  -7.620  1.00  0.00     0.036 C 
ATOM    101  C   UNL     1       6.341 -10.650  -9.544  1.00  0.00     0.036 C 
ATOM    102  C   UNL     1       6.931 -12.003  -9.131  1.00  0.00     0.010 C 
ENDBRANCH  91  94
ENDBRANCH  89  91
ENDBRANCH  83  89
ENDBRANCH  78  81
ENDBRANCH  76  77
ENDBRANCH  75  76
ENDBRANCH   1  75
TORSDOF 17
