REMARK SMILES C[C@@H]1CN(C(=O)NC[C@@H]2CCC[C@@H]2C(=O)NCCCCNC(=O)c2ccc(-c3c4nc(c(-c5c(F)cc(S(=O)(=O)[O-])cc5F)c5ccc([nH]5)c(-c5c(F)cc(S(=O)(=O)[O-])cc5F)c5nc(c(-c6c(F)cc(S(=O)(=O)[O-])cc6F)c6ccc3[nH]6)C=C5)C=C4)cc2)C[C@@H]1C
REMARK SMILES IDX 18 1 17 2 16 3 14 4 15 5 13 7 9 8 10 9 11 10 12 11 8 12 7 13
REMARK SMILES IDX 5 14 6 15 4 17 1 18 2 19 3 20 91 21 90 22 92 23 19 24 20 25
REMARK SMILES IDX 21 26 22 27 23 29 24 30 25 31 89 32 26 33 88 34 27 35 28 36
REMARK SMILES IDX 29 37 82 38 30 39 87 40 81 41 83 42 31 43 86 44 80 45 79 46
REMARK SMILES IDX 32 48 66 49 45 50 65 51 46 52 49 53 64 54 84 55 47 56 48 57
REMARK SMILES IDX 63 59 85 60 50 61 33 62 34 63 43 64 35 65 36 66 42 67 44 68
REMARK SMILES IDX 37 69 38 70 39 71 40 72 41 73 67 74 68 75 77 76 69 77 70 78
REMARK SMILES IDX 76 79 78 80 71 81 72 82 73 83 74 84 75 85 51 86 52 87 61 88
REMARK SMILES IDX 53 89 54 90 60 91 62 92 55 93 56 94 57 95 58 96 59 97
REMARK H PARENT 16 6 7 16 21 28 83 47 49 58
REMARK Flexibility Score: inf
ROOT
ATOM      1  C   UNL     1      -1.184  -1.723   4.485  1.00  0.00     0.023 C 
ENDROOT
BRANCH   1   2
ATOM      2  C   UNL     1      -2.309  -2.751   4.626  1.00  0.00     0.116 C 
BRANCH   2   3
ATOM      3  N   UNL     1      -3.432  -2.147   5.295  1.00  0.00    -0.356 N 
ATOM      4  C   UNL     1      -4.576  -1.602   4.825  1.00  0.00     0.223 C 
ATOM      5  O   UNL     1      -5.264  -1.037   5.683  1.00  0.00    -0.275 OA
ATOM      6  H   UNL     1      -3.352  -2.127   6.276  1.00  0.00     0.163 HD
BRANCH   4   7
ATOM      7  C   UNL     1      -5.067  -1.753   3.364  1.00  0.00     0.083 C 
ATOM      8  C   UNL     1      -4.419  -0.990   2.187  1.00  0.00     0.021 C 
ATOM      9  C   UNL     1      -4.684   0.471   2.546  1.00  0.00     0.006 C 
ATOM     10  C   UNL     1      -6.100   0.446   3.132  1.00  0.00     0.001 C 
ATOM     11  C   UNL     1      -6.451  -1.045   3.300  1.00  0.00     0.014 C 
BRANCH   8  12
ATOM     12  C   UNL     1      -3.014  -1.255   1.669  1.00  0.00     0.122 C 
BRANCH  12  13
ATOM     13  N   UNL     1      -2.822  -2.633   1.258  1.00  0.00    -0.338 N 
ATOM     14  C   UNL     1      -1.751  -3.322   0.809  1.00  0.00     0.317 C 
ATOM     15  O   UNL     1      -1.868  -4.549   0.774  1.00  0.00    -0.249 OA
ATOM     16  H   UNL     1      -3.640  -3.178   1.318  1.00  0.00     0.165 HD
BRANCH  14  17
ATOM     17  N   UNL     1      -0.607  -2.700   0.421  1.00  0.00    -0.324 N 
ATOM     18  C   UNL     1       1.667   0.071  -0.515  1.00  0.00     0.010 C 
ATOM     19  C   UNL     1       0.919  -1.245  -0.659  1.00  0.00     0.010 C 
ATOM     20  C   UNL     1      -0.357  -1.291   0.183  1.00  0.00     0.125 C 
ATOM     21  C   UNL     1       1.679  -2.513  -0.239  1.00  0.00     0.010 C 
ATOM     22  C   UNL     1       0.537  -3.504   0.003  1.00  0.00     0.125 C 
ATOM     23  C   UNL     1       2.555  -2.358   1.001  1.00  0.00     0.010 C 
ENDBRANCH  14  17
ENDBRANCH  12  13
ENDBRANCH   8  12
ENDBRANCH   4   7
ENDBRANCH   2   3
ENDBRANCH   1   2
BRANCH   1  24
ATOM     24  C   UNL     1      -0.270  -1.609   5.703  1.00  0.00     0.023 C 
BRANCH  24  25
ATOM     25  C   UNL     1       0.630  -2.816   5.910  1.00  0.00     0.116 C 
BRANCH  25  26
ATOM     26  N   UNL     1       1.565  -3.038   4.806  1.00  0.00    -0.352 N 
ATOM     27  C   UNL     1       2.816  -3.598   4.870  1.00  0.00     0.251 C 
ATOM     28  H   UNL     1       1.261  -2.752   3.914  1.00  0.00     0.163 HD
ATOM     29  O   UNL     1       3.548  -3.640   3.896  1.00  0.00    -0.269 OA
BRANCH  27  30
ATOM     30  C   UNL     1       3.273  -4.106   6.179  1.00  0.00     0.039 A 
ATOM     31  C   UNL     1       4.438  -3.581   6.742  1.00  0.00     0.014 A 
ATOM     32  C   UNL     1       2.466  -4.998   6.891  1.00  0.00     0.014 A 
ATOM     33  C   UNL     1       4.748  -3.884   8.067  1.00  0.00     0.010 A 
ATOM     34  C   UNL     1       2.737  -5.234   8.229  1.00  0.00     0.010 A 
ATOM     35  C   UNL     1       3.872  -4.670   8.833  1.00  0.00    -0.014 A 
BRANCH  35  36
ATOM     36  C   UNL     1       4.102  -4.920  10.276  1.00  0.00     0.031 A 
ATOM     37  C   UNL     1       4.310  -6.328  10.754  1.00  0.00     0.074 A 
ATOM     38  C   UNL     1       4.006  -3.904  11.156  1.00  0.00     0.049 A 
ATOM     39  N   UNL     1       4.341  -6.790  11.975  1.00  0.00    -0.248 NA
ATOM     40  C   UNL     1       4.458  -7.361   9.714  1.00  0.00     0.031 C 
ATOM     41  C   UNL     1       3.753  -2.502  10.813  1.00  0.00     0.029 A 
ATOM     42  N   UNL     1       4.085  -3.899  12.525  1.00  0.00    -0.354 N 
ATOM     43  C   UNL     1       4.471  -8.167  11.852  1.00  0.00     0.074 A 
ATOM     44  C   UNL     1       4.477  -8.470  10.438  1.00  0.00     0.031 C 
ATOM     45  C   UNL     1       3.714  -1.772  11.941  1.00  0.00     0.029 A 
ATOM     46  C   UNL     1       3.898  -2.658  13.086  1.00  0.00     0.049 A 
ATOM     47  H   UNL     1       4.260  -4.709  13.057  1.00  0.00     0.167 HD
ATOM     48  C   UNL     1       4.592  -9.094  12.832  1.00  0.00     0.037 A 
ATOM     49  C   UNL     1       3.866  -2.280  14.379  1.00  0.00     0.037 A 
ATOM     50  C   UNL     1       4.638  -8.777  14.233  1.00  0.00     0.049 A 
ATOM     51  C   UNL     1       4.063  -3.320  15.448  1.00  0.00     0.074 A 
ATOM     52  C   UNL     1       4.813  -9.634  15.305  1.00  0.00     0.029 A 
ATOM     53  N   UNL     1       4.525  -7.497  14.756  1.00  0.00    -0.354 N 
ATOM     54  N   UNL     1       4.220  -4.616  15.315  1.00  0.00    -0.248 NA
ATOM     55  C   UNL     1       4.084  -2.850  16.840  1.00  0.00     0.031 C 
ATOM     56  C   UNL     1       4.791  -8.872  16.479  1.00  0.00     0.029 A 
ATOM     57  C   UNL     1       4.632  -7.539  16.135  1.00  0.00     0.049 A 
ATOM     58  H   UNL     1       4.389  -6.680  14.224  1.00  0.00     0.167 HD
ATOM     59  C   UNL     1       4.388  -5.112  16.602  1.00  0.00     0.074 A 
ATOM     60  C   UNL     1       4.315  -3.977  17.500  1.00  0.00     0.031 C 
ATOM     61  C   UNL     1       4.585  -6.391  17.004  1.00  0.00     0.037 A 
BRANCH  48  62
ATOM     62  C   UNL     1       4.690 -10.532  12.411  1.00  0.00     0.058 A 
ATOM     63  C   UNL     1       5.845 -11.039  11.794  1.00  0.00     0.135 A 
ATOM     64  C   UNL     1       3.621 -11.415  12.630  1.00  0.00     0.135 A 
ATOM     65  F   UNL     1       6.888 -10.231  11.544  1.00  0.00    -0.206 F 
ATOM     66  C   UNL     1       5.923 -12.362  11.375  1.00  0.00     0.059 A 
ATOM     67  C   UNL     1       3.687 -12.750  12.242  1.00  0.00     0.059 A 
ATOM     68  F   UNL     1       2.493 -10.980  13.214  1.00  0.00    -0.206 F 
ATOM     69  C   UNL     1       4.836 -13.209  11.598  1.00  0.00     0.060 A 
BRANCH  69  70
ATOM     70  S   UNL     1       4.945 -14.922  11.041  1.00  0.00     0.124 S 
ATOM     71  O   UNL     1       4.699 -14.777   9.610  1.00  0.00    -0.237 OA
ATOM     72  O   UNL     1       6.307 -15.290  11.414  1.00  0.00    -0.237 OA
ATOM     73  O   UNL     1       3.890 -15.591  11.796  1.00  0.00    -0.744 OA
ENDBRANCH  69  70
ENDBRANCH  48  62
BRANCH  49  74
ATOM     74  C   UNL     1       3.675  -0.850  14.731  1.00  0.00     0.058 A 
ATOM     75  C   UNL     1       4.749  -0.079  15.199  1.00  0.00     0.135 A 
ATOM     76  C   UNL     1       2.429  -0.220  14.589  1.00  0.00     0.135 A 
ATOM     77  F   UNL     1       5.958  -0.639  15.354  1.00  0.00    -0.206 F 
ATOM     78  C   UNL     1       4.594   1.263  15.529  1.00  0.00     0.059 A 
ATOM     79  C   UNL     1       2.254   1.127  14.895  1.00  0.00     0.059 A 
ATOM     80  F   UNL     1       1.376  -0.910  14.127  1.00  0.00    -0.206 F 
ATOM     81  C   UNL     1       3.341   1.858  15.373  1.00  0.00     0.060 A 
BRANCH  81  82
ATOM     82  S   UNL     1       3.161   3.615  15.753  1.00  0.00     0.124 S 
ATOM     83  O   UNL     1       3.119   3.596  17.210  1.00  0.00    -0.237 OA
ATOM     84  O   UNL     1       4.364   4.186  15.156  1.00  0.00    -0.237 OA
ATOM     85  O   UNL     1       1.911   3.972  15.088  1.00  0.00    -0.744 OA
ENDBRANCH  81  82
ENDBRANCH  49  74
BRANCH  61  86
ATOM     86  C   UNL     1       4.789  -6.631  18.471  1.00  0.00     0.058 A 
ATOM     87  C   UNL     1       3.714  -6.642  19.370  1.00  0.00     0.135 A 
ATOM     88  C   UNL     1       6.068  -6.933  18.964  1.00  0.00     0.135 A 
ATOM     89  F   UNL     1       2.474  -6.353  18.946  1.00  0.00    -0.206 F 
ATOM     90  C   UNL     1       3.901  -6.938  20.716  1.00  0.00     0.059 A 
ATOM     91  C   UNL     1       6.275  -7.250  20.302  1.00  0.00     0.059 A 
ATOM     92  F   UNL     1       7.127  -6.942  18.138  1.00  0.00    -0.206 F 
ATOM     93  C   UNL     1       5.185  -7.245  21.172  1.00  0.00     0.060 A 
BRANCH  93  94
ATOM     94  S   UNL     1       5.410  -7.688  22.908  1.00  0.00     0.124 S 
ATOM     95  O   UNL     1       5.366  -6.379  23.552  1.00  0.00    -0.237 OA
ATOM     96  O   UNL     1       4.265  -8.557  23.162  1.00  0.00    -0.237 OA
ATOM     97  O   UNL     1       6.709  -8.354  22.922  1.00  0.00    -0.744 OA
ENDBRANCH  93  94
ENDBRANCH  61  86
ENDBRANCH  35  36
ENDBRANCH  27  30
ENDBRANCH  25  26
ENDBRANCH  24  25
ENDBRANCH   1  24
TORSDOF 17
