REMARK SMILES O=C(NCCCCNC(=O)c1c(S(=O)(=O)N2CCO[C@@H](CCO)C2)sc2c1CC[NH2+]C2)c1ccc(-c2c3nc(c(-c4c(F)cc(S(=O)(=O)[O-])cc4F)c4ccc([nH]4)c(-c4c(F)cc(S(=O)(=O)[O-])cc4F)c4nc(c(-c5c(F)cc(S(=O)(=O)[O-])cc5F)c5ccc2[nH]5)C=C4)C=C3)cc1
REMARK SMILES IDX 6 1 5 2 4 3 3 4 1 5 2 6 32 8 33 9 97 10 34 11 96 12 35 13
REMARK SMILES IDX 36 14 37 15 90 16 38 17 95 18 89 19 91 20 39 21 94 22 88 23
REMARK SMILES IDX 87 24 40 26 74 27 53 28 73 29 54 30 57 31 72 32 92 33 55 34
REMARK SMILES IDX 56 35 71 37 93 38 58 39 41 40 42 41 51 42 43 43 44 44 50 45
REMARK SMILES IDX 52 46 45 47 46 48 47 49 48 50 49 51 75 52 76 53 85 54 77 55
REMARK SMILES IDX 78 56 84 57 86 58 79 59 80 60 81 61 82 62 83 63 59 64 60 65
REMARK SMILES IDX 69 66 61 67 62 68 68 69 70 70 63 71 64 72 65 73 66 74 67 75
REMARK SMILES IDX 7 76 8 77 9 78 10 80 11 81 12 82 27 83 25 84 26 85 28 86
REMARK SMILES IDX 31 87 29 88 30 89 13 92 14 93 15 94 16 95 17 96 24 97 18 98
REMARK SMILES IDX 20 99 19 100 21 101 22 102 23 103
REMARK H PARENT 3 7 91 25 57 36 8 79 30 90 30 91 23 104
REMARK Flexibility Score: inf
ROOT
ATOM      1  C   UNL     1       4.927   1.105   3.156  1.00  0.00     0.023 C 
ENDROOT
BRANCH   1   2
ATOM      2  C   UNL     1       5.410   1.088   1.709  1.00  0.00     0.023 C 
BRANCH   2   3
ATOM      3  C   UNL     1       4.902  -0.056   0.826  1.00  0.00     0.116 C 
BRANCH   3   4
ATOM      4  N   UNL     1       3.480  -0.338   0.904  1.00  0.00    -0.352 N 
ATOM      5  O   UNL     1       1.321  -0.513   0.474  1.00  0.00    -0.269 OA
ATOM      6  C   UNL     1       2.353   0.139   0.286  1.00  0.00     0.251 C 
ATOM      7  H   UNL     1       3.275  -1.043   1.560  1.00  0.00     0.163 HD
BRANCH   6   8
ATOM      8  C   UNL     1       2.274   1.373  -0.547  1.00  0.00     0.039 A 
ATOM      9  C   UNL     1       3.355   2.176  -0.897  1.00  0.00     0.014 A 
ATOM     10  C   UNL     1       0.991   1.765  -0.985  1.00  0.00     0.014 A 
ATOM     11  C   UNL     1       3.161   3.361  -1.606  1.00  0.00     0.010 A 
ATOM     12  C   UNL     1       0.794   2.940  -1.720  1.00  0.00     0.010 A 
ATOM     13  C   UNL     1       1.883   3.754  -2.017  1.00  0.00    -0.014 A 
BRANCH  13  14
ATOM     14  C   UNL     1       1.794   4.975  -2.821  1.00  0.00     0.031 A 
ATOM     15  C   UNL     1       2.510   4.968  -4.130  1.00  0.00     0.074 A 
ATOM     16  C   UNL     1       1.054   6.065  -2.540  1.00  0.00     0.049 A 
ATOM     17  N   UNL     1       3.521   5.689  -4.498  1.00  0.00    -0.248 NA
ATOM     18  C   UNL     1       2.043   4.020  -5.150  1.00  0.00     0.031 C 
ATOM     19  C   UNL     1       0.002   6.215  -1.538  1.00  0.00     0.029 A 
ATOM     20  N   UNL     1       1.052   7.270  -3.189  1.00  0.00    -0.354 N 
ATOM     21  C   UNL     1       3.716   5.419  -5.851  1.00  0.00     0.074 A 
ATOM     22  C   UNL     1       2.838   4.321  -6.178  1.00  0.00     0.031 C 
ATOM     23  C   UNL     1      -0.668   7.366  -1.776  1.00  0.00     0.029 A 
ATOM     24  C   UNL     1      -0.010   8.091  -2.854  1.00  0.00     0.049 A 
ATOM     25  H   UNL     1       1.747   7.530  -3.837  1.00  0.00     0.167 HD
ATOM     26  C   UNL     1       4.474   6.207  -6.662  1.00  0.00     0.037 A 
ATOM     27  C   UNL     1      -0.360   9.253  -3.456  1.00  0.00     0.037 A 
ATOM     28  C   UNL     1       5.295   7.135  -5.934  1.00  0.00     0.049 A 
ATOM     29  C   UNL     1       0.820   9.789  -4.181  1.00  0.00     0.074 A 
ATOM     30  C   UNL     1       6.287   7.031  -4.980  1.00  0.00     0.029 A 
ATOM     31  N   UNL     1       4.959   8.466  -5.973  1.00  0.00    -0.354 N 
ATOM     32  N   UNL     1       1.878  10.299  -3.616  1.00  0.00    -0.248 NA
ATOM     33  C   UNL     1       0.950   9.511  -5.605  1.00  0.00     0.031 C 
ATOM     34  C   UNL     1       6.177   8.209  -4.185  1.00  0.00     0.029 A 
ATOM     35  C   UNL     1       5.115   8.952  -4.699  1.00  0.00     0.049 A 
ATOM     36  H   UNL     1       4.664   8.973  -6.763  1.00  0.00     0.167 HD
ATOM     37  C   UNL     1       2.913  10.049  -4.502  1.00  0.00     0.074 A 
ATOM     38  C   UNL     1       2.261   9.699  -5.756  1.00  0.00     0.031 C 
ATOM     39  C   UNL     1       4.195   9.873  -4.067  1.00  0.00     0.037 A 
BRANCH  26  40
ATOM     40  C   UNL     1       4.279   6.332  -8.151  1.00  0.00     0.058 A 
ATOM     41  C   UNL     1       5.320   6.830  -8.960  1.00  0.00     0.135 A 
ATOM     42  C   UNL     1       3.012   6.232  -8.765  1.00  0.00     0.135 A 
ATOM     43  F   UNL     1       6.557   6.984  -8.461  1.00  0.00    -0.206 F 
ATOM     44  C   UNL     1       5.108   7.247 -10.274  1.00  0.00     0.059 A 
ATOM     45  C   UNL     1       2.788   6.597 -10.089  1.00  0.00     0.059 A 
ATOM     46  F   UNL     1       1.927   5.862  -8.071  1.00  0.00    -0.206 F 
ATOM     47  C   UNL     1       3.833   7.144 -10.823  1.00  0.00     0.060 A 
BRANCH  47  48
ATOM     48  S   UNL     1       3.527   7.782 -12.482  1.00  0.00     0.124 S 
ATOM     49  O   UNL     1       3.426   9.214 -12.223  1.00  0.00    -0.237 OA
ATOM     50  O   UNL     1       4.717   7.347 -13.208  1.00  0.00    -0.237 OA
ATOM     51  O   UNL     1       2.288   7.117 -12.870  1.00  0.00    -0.744 OA
ENDBRANCH  47  48
ENDBRANCH  26  40
BRANCH  27  52
ATOM     52  C   UNL     1      -1.713   9.838  -3.623  1.00  0.00     0.058 A 
ATOM     53  C   UNL     1      -1.883  11.184  -3.996  1.00  0.00     0.135 A 
ATOM     54  C   UNL     1      -2.862   9.025  -3.683  1.00  0.00     0.135 A 
ATOM     55  F   UNL     1      -0.837  12.023  -4.000  1.00  0.00    -0.206 F 
ATOM     56  C   UNL     1      -3.110  11.683  -4.442  1.00  0.00     0.059 A 
ATOM     57  C   UNL     1      -4.100   9.505  -4.105  1.00  0.00     0.059 A 
ATOM     58  F   UNL     1      -2.796   7.711  -3.422  1.00  0.00    -0.206 F 
ATOM     59  C   UNL     1      -4.210  10.830  -4.508  1.00  0.00     0.060 A 
BRANCH  59  60
ATOM     60  S   UNL     1      -5.748  11.425  -5.245  1.00  0.00     0.124 S 
ATOM     61  O   UNL     1      -6.229  12.354  -4.229  1.00  0.00    -0.237 OA
ATOM     62  O   UNL     1      -5.282  12.026  -6.490  1.00  0.00    -0.237 OA
ATOM     63  O   UNL     1      -6.540  10.208  -5.404  1.00  0.00    -0.744 OA
ENDBRANCH  59  60
ENDBRANCH  27  52
BRANCH  39  64
ATOM     64  C   UNL     1       4.570  10.393  -2.708  1.00  0.00     0.058 A 
ATOM     65  C   UNL     1       4.000   9.944  -1.505  1.00  0.00     0.135 A 
ATOM     66  C   UNL     1       5.646  11.292  -2.613  1.00  0.00     0.135 A 
ATOM     67  F   UNL     1       3.048   8.999  -1.503  1.00  0.00    -0.206 F 
ATOM     68  C   UNL     1       4.444  10.408  -0.266  1.00  0.00     0.059 A 
ATOM     69  C   UNL     1       6.128  11.742  -1.386  1.00  0.00     0.059 A 
ATOM     70  F   UNL     1       6.277  11.708  -3.724  1.00  0.00    -0.206 F 
ATOM     71  C   UNL     1       5.510  11.308  -0.215  1.00  0.00     0.060 A 
BRANCH  71  72
ATOM     72  S   UNL     1       6.147  11.830   1.392  1.00  0.00     0.124 S 
ATOM     73  O   UNL     1       5.181  12.850   1.788  1.00  0.00    -0.237 OA
ATOM     74  O   UNL     1       6.117  10.594   2.169  1.00  0.00    -0.237 OA
ATOM     75  O   UNL     1       7.487  12.323   1.082  1.00  0.00    -0.744 OA
ENDBRANCH  71  72
ENDBRANCH  39  64
ENDBRANCH  13  14
ENDBRANCH   6   8
ENDBRANCH   3   4
ENDBRANCH   2   3
ENDBRANCH   1   2
BRANCH   1  76
ATOM     76  C   UNL     1       5.069  -0.192   3.935  1.00  0.00     0.116 C 
BRANCH  76  77
ATOM     77  N   UNL     1       6.434  -0.601   4.216  1.00  0.00    -0.352 N 
ATOM     78  C   UNL     1       6.993  -1.034   5.397  1.00  0.00     0.253 C 
ATOM     79  H   UNL     1       7.049  -0.563   3.448  1.00  0.00     0.163 HD
ATOM     80  O   UNL     1       8.181  -1.351   5.410  1.00  0.00    -0.269 OA
BRANCH  78  81
ATOM     81  C   UNL     1       6.202  -0.988   6.624  1.00  0.00     0.074 A 
ATOM     82  C   UNL     1       4.966  -1.609   6.811  1.00  0.00     0.148 A 
ATOM     83  C   UNL     1       6.652  -0.427   7.882  1.00  0.00    -0.009 A 
ATOM     84  S   UNL     1       4.180  -0.922   8.167  1.00  0.00    -0.120 S 
ATOM     85  C   UNL     1       5.658  -0.461   8.838  1.00  0.00     0.064 A 
ATOM     86  C   UNL     1       7.992   0.159   8.229  1.00  0.00     0.099 C 
ATOM     87  C   UNL     1       5.829  -0.114  10.281  1.00  0.00     0.308 C 
ATOM     88  C   UNL     1       8.167   0.278   9.766  1.00  0.00     0.265 C 
ATOM     89  N   UNL     1       6.971   0.796  10.468  1.00  0.00    -0.342 N 
ATOM     90  H   UNL     1       6.734   1.714  10.093  1.00  0.00     0.346 HD
ATOM     91  H   UNL     1       7.178   0.866  11.464  1.00  0.00     0.346 HD
BRANCH  82  92
ATOM     92  S   UNL     1       4.038  -2.822   5.892  1.00  0.00     0.253 S 
ATOM     93  O   UNL     1       3.071  -2.067   5.129  1.00  0.00    -0.206 OA
ATOM     94  O   UNL     1       5.063  -3.607   5.232  1.00  0.00    -0.206 OA
BRANCH  92  95
ATOM     95  N   UNL     1       3.185  -3.861   6.907  1.00  0.00    -0.192 NA
ATOM     96  C   UNL     1       1.854  -3.499   7.446  1.00  0.00     0.131 C 
ATOM     97  C   UNL     1       3.903  -4.863   7.719  1.00  0.00     0.134 C 
ATOM     98  C   UNL     1       1.842  -3.329   8.976  1.00  0.00     0.177 C 
ATOM     99  C   UNL     1       3.965  -4.389   9.176  1.00  0.00     0.135 C 
ATOM    100  O   UNL     1       2.618  -4.306   9.690  1.00  0.00    -0.375 OA
BRANCH  99 101
ATOM    101  C   UNL     1       4.782  -5.289  10.106  1.00  0.00     0.061 C 
BRANCH 101 102
ATOM    102  C   UNL     1       6.127  -5.719   9.536  1.00  0.00     0.159 C 
BRANCH 102 103
ATOM    103  O   UNL     1       6.765  -4.615   8.912  1.00  0.00    -0.396 OA
ATOM    104  H   UNL     1       6.207  -4.284   8.190  1.00  0.00     0.210 HD
ENDBRANCH 102 103
ENDBRANCH 101 102
ENDBRANCH  99 101
ENDBRANCH  92  95
ENDBRANCH  82  92
ENDBRANCH  78  81
ENDBRANCH  76  77
ENDBRANCH   1  76
TORSDOF 19
