REMARK SMILES CCc1ccc2[nH]c(C(=O)c3cc(C)ccn3)c(CC(=O)NCCCCNC(=O)c3ccc(-c4c5nc(c(-c6c(F)cc(S(=O)(=O)[O-])cc6F)c6ccc([nH]6)c(-c6c(F)cc(S(=O)(=O)[O-])cc6F)c6nc(c(-c7c(F)cc(S(=O)(=O)[O-])cc7F)c7ccc4[nH]7)C=C6)C=C5)cc3)c2c1
REMARK SMILES IDX 24 1 23 2 22 3 20 4 21 5 19 7 18 8 3 9 4 10 97 11 5 12 96 13
REMARK SMILES IDX 6 14 7 15 8 16 2 18 1 19 9 20 10 21 11 22 12 23 17 24 13 25
REMARK SMILES IDX 16 26 14 27 15 28 25 29 26 30 27 31 28 32 29 34 30 35 31 36
REMARK SMILES IDX 95 37 32 38 94 39 33 40 34 41 35 42 88 43 36 44 93 45 87 46
REMARK SMILES IDX 89 47 37 48 92 49 86 50 85 51 38 53 72 54 51 55 71 56 52 57
REMARK SMILES IDX 55 58 70 59 90 60 53 61 54 62 69 64 91 65 56 66 39 67 40 68
REMARK SMILES IDX 49 69 41 70 42 71 48 72 50 73 43 74 44 75 45 76 46 77 47 78
REMARK SMILES IDX 73 79 74 80 83 81 75 82 76 83 82 84 84 85 77 86 78 87 79 88
REMARK SMILES IDX 80 89 81 90 57 91 58 92 67 93 59 94 60 95 66 96 68 97 61 98
REMARK SMILES IDX 62 99 63 100 64 101 65 102
REMARK H PARENT 22 6 7 17 27 33 89 52 55 63
REMARK Flexibility Score: inf
ROOT
ATOM      1  C   UNL     1      -2.065   2.106   5.069  1.00  0.00     0.023 C 
ENDROOT
BRANCH   1   2
ATOM      2  C   UNL     1      -2.135   2.981   3.819  1.00  0.00     0.116 C 
BRANCH   2   3
ATOM      3  N   UNL     1      -1.878   4.377   4.099  1.00  0.00    -0.356 N 
ATOM      4  C   UNL     1      -0.763   5.127   3.850  1.00  0.00     0.224 C 
ATOM      5  O   UNL     1      -0.866   6.347   4.003  1.00  0.00    -0.275 OA
ATOM      6  H   UNL     1      -2.618   4.860   4.535  1.00  0.00     0.163 HD
BRANCH   4   7
ATOM      7  C   UNL     1       0.506   4.505   3.275  1.00  0.00     0.138 C 
BRANCH   7   8
ATOM      8  C   UNL     1       1.099   3.385   4.088  1.00  0.00    -0.002 A 
ATOM      9  C   UNL     1       1.064  -0.058   2.371  1.00  0.00    -0.048 A 
ATOM     10  C   UNL     1       1.560  -0.755   3.480  1.00  0.00     0.006 A 
ATOM     11  C   UNL     1       0.896   1.333   2.465  1.00  0.00     0.014 A 
ATOM     12  C   UNL     1       1.904  -0.100   4.669  1.00  0.00     0.027 A 
ATOM     13  C   UNL     1       1.219   2.020   3.657  1.00  0.00     0.004 A 
ATOM     14  C   UNL     1       1.720   1.286   4.725  1.00  0.00     0.046 A 
ATOM     15  N   UNL     1       1.932   2.170   5.755  1.00  0.00    -0.352 N 
ATOM     16  C   UNL     1       1.653   3.465   5.368  1.00  0.00     0.093 A 
ATOM     17  H   UNL     1       2.244   1.912   6.652  1.00  0.00     0.167 HD
BRANCH   9  18
ATOM     18  C   UNL     1       0.629  -0.815   1.137  1.00  0.00     0.032 C 
ATOM     19  C   UNL     1       1.097  -0.205  -0.179  1.00  0.00     0.009 C 
ENDBRANCH   9  18
BRANCH  16  20
ATOM     20  C   UNL     1       1.881   4.654   6.182  1.00  0.00     0.227 C 
ATOM     21  O   UNL     1       1.710   5.801   5.765  1.00  0.00    -0.285 OA
BRANCH  20  22
ATOM     22  C   UNL     1       2.426   4.501   7.556  1.00  0.00     0.113 A 
ATOM     23  C   UNL     1       3.732   4.049   7.730  1.00  0.00     0.036 A 
ATOM     24  N   UNL     1       1.603   4.845   8.575  1.00  0.00    -0.253 NA
ATOM     25  C   UNL     1       4.226   3.938   9.031  1.00  0.00    -0.047 A 
ATOM     26  C   UNL     1       2.114   4.760   9.819  1.00  0.00     0.112 A 
ATOM     27  C   UNL     1       5.621   3.458   9.294  1.00  0.00     0.044 C 
ATOM     28  C   UNL     1       3.399   4.314  10.094  1.00  0.00     0.023 A 
ENDBRANCH  20  22
ENDBRANCH  16  20
ENDBRANCH   7   8
ENDBRANCH   4   7
ENDBRANCH   2   3
ENDBRANCH   1   2
BRANCH   1  29
ATOM     29  C   UNL     1      -3.201   2.319   6.073  1.00  0.00     0.023 C 
BRANCH  29  30
ATOM     30  C   UNL     1      -4.612   2.142   5.523  1.00  0.00     0.116 C 
BRANCH  30  31
ATOM     31  N   UNL     1      -4.839   0.835   4.926  1.00  0.00    -0.352 N 
ATOM     32  C   UNL     1      -5.977   0.064   4.941  1.00  0.00     0.251 C 
ATOM     33  H   UNL     1      -4.072   0.449   4.445  1.00  0.00     0.163 HD
ATOM     34  O   UNL     1      -5.953  -1.069   4.463  1.00  0.00    -0.269 OA
BRANCH  32  35
ATOM     35  C   UNL     1      -7.215   0.579   5.568  1.00  0.00     0.039 A 
ATOM     36  C   UNL     1      -7.923  -0.256   6.437  1.00  0.00     0.014 A 
ATOM     37  C   UNL     1      -7.673   1.875   5.316  1.00  0.00     0.014 A 
ATOM     38  C   UNL     1      -9.047   0.231   7.107  1.00  0.00     0.010 A 
ATOM     39  C   UNL     1      -8.758   2.380   6.031  1.00  0.00     0.010 A 
ATOM     40  C   UNL     1      -9.453   1.565   6.937  1.00  0.00    -0.014 A 
BRANCH  40  41
ATOM     41  C   UNL     1     -10.585   2.127   7.718  1.00  0.00     0.031 A 
ATOM     42  C   UNL     1     -11.845   2.567   7.026  1.00  0.00     0.074 A 
ATOM     43  C   UNL     1     -10.451   2.296   9.049  1.00  0.00     0.049 A 
ATOM     44  N   UNL     1     -12.915   3.122   7.536  1.00  0.00    -0.248 NA
ATOM     45  C   UNL     1     -11.901   2.383   5.568  1.00  0.00     0.031 C 
ATOM     46  C   UNL     1      -9.256   1.962   9.829  1.00  0.00     0.029 A 
ATOM     47  N   UNL     1     -11.323   2.800   9.981  1.00  0.00    -0.354 N 
ATOM     48  C   UNL     1     -13.765   3.364   6.463  1.00  0.00     0.074 A 
ATOM     49  C   UNL     1     -13.067   2.938   5.269  1.00  0.00     0.031 C 
ATOM     50  C   UNL     1      -9.478   2.252  11.121  1.00  0.00     0.029 A 
ATOM     51  C   UNL     1     -10.816   2.818  11.259  1.00  0.00     0.049 A 
ATOM     52  H   UNL     1     -12.227   3.120   9.755  1.00  0.00     0.167 HD
ATOM     53  C   UNL     1     -15.020   3.876   6.474  1.00  0.00     0.037 A 
ATOM     54  C   UNL     1     -11.366   3.245  12.413  1.00  0.00     0.037 A 
ATOM     55  C   UNL     1     -15.721   4.274   7.667  1.00  0.00     0.049 A 
ATOM     56  C   UNL     1     -12.768   3.789  12.402  1.00  0.00     0.074 A 
ATOM     57  C   UNL     1     -17.017   4.745   7.788  1.00  0.00     0.029 A 
ATOM     58  N   UNL     1     -15.185   4.249   8.947  1.00  0.00    -0.354 N 
ATOM     59  N   UNL     1     -13.582   3.949  11.386  1.00  0.00    -0.248 NA
ATOM     60  C   UNL     1     -13.330   4.203  13.695  1.00  0.00     0.031 C 
ATOM     61  C   UNL     1     -17.255   5.035   9.136  1.00  0.00     0.029 A 
ATOM     62  C   UNL     1     -16.120   4.709   9.861  1.00  0.00     0.049 A 
ATOM     63  H   UNL     1     -14.275   3.949   9.172  1.00  0.00     0.167 HD
ATOM     64  C   UNL     1     -14.758   4.462  11.919  1.00  0.00     0.074 A 
ATOM     65  C   UNL     1     -14.556   4.572  13.350  1.00  0.00     0.031 C 
ATOM     66  C   UNL     1     -15.903   4.810  11.282  1.00  0.00     0.037 A 
BRANCH  53  67
ATOM     67  C   UNL     1     -15.720   4.023   5.152  1.00  0.00     0.058 A 
ATOM     68  C   UNL     1     -16.190   2.906   4.443  1.00  0.00     0.135 A 
ATOM     69  C   UNL     1     -15.953   5.294   4.603  1.00  0.00     0.135 A 
ATOM     70  F   UNL     1     -15.981   1.668   4.917  1.00  0.00    -0.206 F 
ATOM     71  C   UNL     1     -16.840   3.042   3.221  1.00  0.00     0.059 A 
ATOM     72  C   UNL     1     -16.624   5.454   3.393  1.00  0.00     0.059 A 
ATOM     73  F   UNL     1     -15.526   6.395   5.240  1.00  0.00    -0.206 F 
ATOM     74  C   UNL     1     -17.050   4.321   2.702  1.00  0.00     0.060 A 
BRANCH  74  75
ATOM     75  S   UNL     1     -17.897   4.481   1.116  1.00  0.00     0.124 S 
ATOM     76  O   UNL     1     -16.846   4.082   0.184  1.00  0.00    -0.237 OA
ATOM     77  O   UNL     1     -19.006   3.543   1.256  1.00  0.00    -0.237 OA
ATOM     78  O   UNL     1     -18.273   5.890   1.073  1.00  0.00    -0.744 OA
ENDBRANCH  74  75
ENDBRANCH  53  67
BRANCH  54  79
ATOM     79  C   UNL     1     -10.598   3.145  13.681  1.00  0.00     0.058 A 
ATOM     80  C   UNL     1     -10.933   2.190  14.652  1.00  0.00     0.135 A 
ATOM     81  C   UNL     1      -9.507   3.989  13.941  1.00  0.00     0.135 A 
ATOM     82  F   UNL     1     -11.972   1.365  14.449  1.00  0.00    -0.206 F 
ATOM     83  C   UNL     1     -10.224   2.082  15.843  1.00  0.00     0.059 A 
ATOM     84  C   UNL     1      -8.769   3.886  15.116  1.00  0.00     0.059 A 
ATOM     85  F   UNL     1      -9.137   4.907  13.036  1.00  0.00    -0.206 F 
ATOM     86  C   UNL     1      -9.141   2.935  16.066  1.00  0.00     0.060 A 
BRANCH  86  87
ATOM     87  S   UNL     1      -8.191   2.753  17.591  1.00  0.00     0.124 S 
ATOM     88  O   UNL     1      -9.076   3.382  18.564  1.00  0.00    -0.237 OA
ATOM     89  O   UNL     1      -8.053   1.303  17.698  1.00  0.00    -0.237 OA
ATOM     90  O   UNL     1      -6.954   3.472  17.302  1.00  0.00    -0.744 OA
ENDBRANCH  86  87
ENDBRANCH  54  79
BRANCH  66  91
ATOM     91  C   UNL     1     -17.034   5.320  12.131  1.00  0.00     0.058 A 
ATOM     92  C   UNL     1     -17.013   6.607  12.689  1.00  0.00     0.135 A 
ATOM     93  C   UNL     1     -18.168   4.523  12.358  1.00  0.00     0.135 A 
ATOM     94  F   UNL     1     -15.949   7.405  12.506  1.00  0.00    -0.206 F 
ATOM     95  C   UNL     1     -18.066   7.079  13.465  1.00  0.00     0.059 A 
ATOM     96  C   UNL     1     -19.242   4.983  13.112  1.00  0.00     0.059 A 
ATOM     97  F   UNL     1     -18.241   3.287  11.839  1.00  0.00    -0.206 F 
ATOM     98  C   UNL     1     -19.176   6.258  13.673  1.00  0.00     0.060 A 
BRANCH  98  99
ATOM     99  S   UNL     1     -20.549   6.888  14.664  1.00  0.00     0.124 S 
ATOM    100  O   UNL     1     -20.022   6.747  16.017  1.00  0.00    -0.237 OA
ATOM    101  O   UNL     1     -20.688   8.257  14.176  1.00  0.00    -0.237 OA
ATOM    102  O   UNL     1     -21.651   5.994  14.322  1.00  0.00    -0.744 OA
ENDBRANCH  98  99
ENDBRANCH  66  91
ENDBRANCH  40  41
ENDBRANCH  32  35
ENDBRANCH  30  31
ENDBRANCH  29  30
ENDBRANCH   1  29
TORSDOF 18
