REMARK SMILES O=C(NCCCCNC(=O)c1ccccc1C[N@H+]1CCCC[C@@H]1CCn1cccn1)c1ccc(-c2c3nc(c(-c4c(F)cc(S(=O)(=O)[O-])cc4F)c4ccc([nH]4)c(-c4c(F)cc(S(=O)(=O)[O-])cc4F)c4nc(c(-c5c(F)cc(S(=O)(=O)[O-])cc5F)c5ccc2[nH]5)C=C4)C=C3)cc1
REMARK SMILES IDX 6 1 5 2 4 3 3 4 1 5 2 6 31 8 32 9 96 10 33 11 95 12 34 13
REMARK SMILES IDX 35 14 36 15 89 16 37 17 94 18 88 19 90 20 38 21 93 22 87 23
REMARK SMILES IDX 86 24 39 26 73 27 52 28 72 29 53 30 56 31 71 32 91 33 54 34
REMARK SMILES IDX 55 35 70 37 92 38 57 39 40 40 41 41 50 42 42 43 43 44 49 45
REMARK SMILES IDX 51 46 44 47 45 48 46 49 47 50 48 51 74 52 75 53 84 54 76 55
REMARK SMILES IDX 77 56 83 57 85 58 78 59 79 60 80 61 81 62 82 63 58 64 59 65
REMARK SMILES IDX 68 66 60 67 61 68 67 69 69 70 62 71 63 72 64 73 65 74 66 75
REMARK SMILES IDX 7 76 8 77 9 78 10 80 11 81 12 82 16 83 13 84 15 85 14 86
REMARK SMILES IDX 17 87 18 88 19 89 23 90 20 92 22 93 21 94 24 95 25 96 26 97
REMARK SMILES IDX 27 98 30 99 28 100 29 101
REMARK H PARENT 3 7 90 25 56 36 8 79 18 91
REMARK Flexibility Score: inf
ROOT
ATOM      1  C   UNL     1       4.654  -3.467  -0.980  1.00  0.00     0.023 C 
ENDROOT
BRANCH   1   2
ATOM      2  C   UNL     1       5.113  -2.273  -0.146  1.00  0.00     0.023 C 
BRANCH   2   3
ATOM      3  C   UNL     1       4.848  -0.881  -0.731  1.00  0.00     0.116 C 
BRANCH   3   4
ATOM      4  N   UNL     1       3.476  -0.576  -1.086  1.00  0.00    -0.352 N 
ATOM      5  O   UNL     1       1.428   0.261  -1.055  1.00  0.00    -0.269 OA
ATOM      6  C   UNL     1       2.377  -0.152  -0.384  1.00  0.00     0.251 C 
ATOM      7  H   UNL     1       3.292  -0.702  -2.045  1.00  0.00     0.163 HD
BRANCH   6   8
ATOM      8  C   UNL     1       2.234  -0.232   1.095  1.00  0.00     0.039 A 
ATOM      9  C   UNL     1       3.275  -0.478   1.987  1.00  0.00     0.014 A 
ATOM     10  C   UNL     1       0.931  -0.098   1.609  1.00  0.00     0.014 A 
ATOM     11  C   UNL     1       3.013  -0.738   3.327  1.00  0.00     0.010 A 
ATOM     12  C   UNL     1       0.668  -0.302   2.962  1.00  0.00     0.010 A 
ATOM     13  C   UNL     1       1.706  -0.675   3.811  1.00  0.00    -0.014 A 
BRANCH  13  14
ATOM     14  C   UNL     1       1.515  -0.898   5.243  1.00  0.00     0.031 A 
ATOM     15  C   UNL     1       2.184   0.085   6.145  1.00  0.00     0.074 A 
ATOM     16  C   UNL     1       0.689  -1.833   5.752  1.00  0.00     0.049 A 
ATOM     17  N   UNL     1       3.054  -0.127   7.080  1.00  0.00    -0.248 NA
ATOM     18  C   UNL     1       1.894   1.508   5.911  1.00  0.00     0.031 C 
ATOM     19  C   UNL     1      -0.276  -2.663   5.030  1.00  0.00     0.029 A 
ATOM     20  N   UNL     1       0.460  -2.148   7.059  1.00  0.00    -0.354 N 
ATOM     21  C   UNL     1       3.277   1.111   7.686  1.00  0.00     0.074 A 
ATOM     22  C   UNL     1       2.647   2.092   6.843  1.00  0.00     0.031 C 
ATOM     23  C   UNL     1      -1.135  -3.211   5.918  1.00  0.00     0.029 A 
ATOM     24  C   UNL     1      -0.706  -2.871   7.265  1.00  0.00     0.049 A 
ATOM     25  H   UNL     1       1.066  -1.886   7.789  1.00  0.00     0.167 HD
ATOM     26  C   UNL     1       3.798   1.226   8.940  1.00  0.00     0.037 A 
ATOM     27  C   UNL     1      -1.322  -3.095   8.451  1.00  0.00     0.037 A 
ATOM     28  C   UNL     1       4.485   0.029   9.346  1.00  0.00     0.049 A 
ATOM     29  C   UNL     1      -0.326  -2.887   9.532  1.00  0.00     0.074 A 
ATOM     30  C   UNL     1       5.553  -0.700   8.858  1.00  0.00     0.029 A 
ATOM     31  N   UNL     1       3.892  -0.777  10.287  1.00  0.00    -0.354 N 
ATOM     32  N   UNL     1       0.703  -3.659   9.751  1.00  0.00    -0.248 NA
ATOM     33  C   UNL     1      -0.268  -1.580  10.170  1.00  0.00     0.031 C 
ATOM     34  C   UNL     1       5.258  -2.058   9.176  1.00  0.00     0.029 A 
ATOM     35  C   UNL     1       4.039  -2.069   9.855  1.00  0.00     0.049 A 
ATOM     36  H   UNL     1       3.447  -0.482  11.114  1.00  0.00     0.167 HD
ATOM     37  C   UNL     1       1.700  -2.807  10.200  1.00  0.00     0.074 A 
ATOM     38  C   UNL     1       1.012  -1.569  10.548  1.00  0.00     0.031 C 
ATOM     39  C   UNL     1       3.021  -3.085   9.993  1.00  0.00     0.037 A 
BRANCH  26  40
ATOM     40  C   UNL     1       3.393   2.294   9.939  1.00  0.00     0.058 A 
ATOM     41  C   UNL     1       4.074   2.380  11.174  1.00  0.00     0.135 A 
ATOM     42  C   UNL     1       2.181   3.017   9.866  1.00  0.00     0.135 A 
ATOM     43  F   UNL     1       5.246   1.751  11.355  1.00  0.00    -0.206 F 
ATOM     44  C   UNL     1       3.531   3.027  12.285  1.00  0.00     0.059 A 
ATOM     45  C   UNL     1       1.650   3.715  10.946  1.00  0.00     0.059 A 
ATOM     46  F   UNL     1       1.398   2.998   8.781  1.00  0.00    -0.206 F 
ATOM     47  C   UNL     1       2.301   3.663  12.167  1.00  0.00     0.060 A 
BRANCH  47  48
ATOM     48  S   UNL     1       1.506   4.340  13.635  1.00  0.00     0.124 S 
ATOM     49  O   UNL     1       1.101   3.121  14.326  1.00  0.00    -0.237 OA
ATOM     50  O   UNL     1       2.592   5.094  14.251  1.00  0.00    -0.237 OA
ATOM     51  O   UNL     1       0.422   5.148  13.085  1.00  0.00    -0.744 OA
ENDBRANCH  47  48
ENDBRANCH  26  40
BRANCH  27  52
ATOM     52  C   UNL     1      -2.783  -3.167   8.710  1.00  0.00     0.058 A 
ATOM     53  C   UNL     1      -3.286  -3.675   9.920  1.00  0.00     0.135 A 
ATOM     54  C   UNL     1      -3.710  -2.497   7.885  1.00  0.00     0.135 A 
ATOM     55  F   UNL     1      -2.469  -4.301  10.781  1.00  0.00    -0.206 F 
ATOM     56  C   UNL     1      -4.619  -3.498  10.305  1.00  0.00     0.059 A 
ATOM     57  C   UNL     1      -5.045  -2.324   8.238  1.00  0.00     0.059 A 
ATOM     58  F   UNL     1      -3.324  -1.904   6.745  1.00  0.00    -0.206 F 
ATOM     59  C   UNL     1      -5.489  -2.806   9.462  1.00  0.00     0.060 A 
BRANCH  59  60
ATOM     60  S   UNL     1      -7.165  -2.431  10.023  1.00  0.00     0.124 S 
ATOM     61  O   UNL     1      -7.791  -3.749  10.003  1.00  0.00    -0.237 OA
ATOM     62  O   UNL     1      -6.929  -1.857  11.343  1.00  0.00    -0.237 OA
ATOM     63  O   UNL     1      -7.657  -1.493   9.017  1.00  0.00    -0.744 OA
ENDBRANCH  59  60
ENDBRANCH  27  52
BRANCH  39  64
ATOM     64  C   UNL     1       3.406  -4.484   9.598  1.00  0.00     0.058 A 
ATOM     65  C   UNL     1       3.019  -5.097   8.394  1.00  0.00     0.135 A 
ATOM     66  C   UNL     1       4.338  -5.167  10.396  1.00  0.00     0.135 A 
ATOM     67  F   UNL     1       2.219  -4.464   7.524  1.00  0.00    -0.206 F 
ATOM     68  C   UNL     1       3.506  -6.350   8.020  1.00  0.00     0.059 A 
ATOM     69  C   UNL     1       4.861  -6.404  10.027  1.00  0.00     0.059 A 
ATOM     70  F   UNL     1       4.796  -4.604  11.527  1.00  0.00    -0.206 F 
ATOM     71  C   UNL     1       4.431  -6.994   8.841  1.00  0.00     0.060 A 
BRANCH  71  72
ATOM     72  S   UNL     1       5.141  -8.564   8.299  1.00  0.00     0.124 S 
ATOM     73  O   UNL     1       4.039  -9.493   8.523  1.00  0.00    -0.237 OA
ATOM     74  O   UNL     1       5.473  -8.299   6.902  1.00  0.00    -0.237 OA
ATOM     75  O   UNL     1       6.295  -8.739   9.178  1.00  0.00    -0.744 OA
ENDBRANCH  71  72
ENDBRANCH  39  64
ENDBRANCH  13  14
ENDBRANCH   6   8
ENDBRANCH   3   4
ENDBRANCH   2   3
ENDBRANCH   1   2
BRANCH   1  76
ATOM     76  C   UNL     1       5.070  -3.444  -2.439  1.00  0.00     0.116 C 
BRANCH  76  77
ATOM     77  N   UNL     1       6.507  -3.348  -2.651  1.00  0.00    -0.352 N 
ATOM     78  C   UNL     1       7.246  -3.837  -3.703  1.00  0.00     0.251 C 
ATOM     79  H   UNL     1       7.014  -2.873  -1.953  1.00  0.00     0.163 HD
ATOM     80  O   UNL     1       8.456  -3.639  -3.774  1.00  0.00    -0.269 OA
BRANCH  78  81
ATOM     81  C   UNL     1       6.579  -4.671  -4.725  1.00  0.00     0.048 A 
ATOM     82  C   UNL     1       7.006  -6.009  -4.791  1.00  0.00     0.014 A 
ATOM     83  C   UNL     1       5.528  -4.201  -5.535  1.00  0.00     0.019 A 
ATOM     84  C   UNL     1       6.339  -6.919  -5.604  1.00  0.00     0.001 A 
ATOM     85  C   UNL     1       4.823  -5.163  -6.274  1.00  0.00     0.010 A 
ATOM     86  C   UNL     1       5.226  -6.501  -6.321  1.00  0.00     0.001 A 
BRANCH  83  87
ATOM     87  C   UNL     1       5.126  -2.736  -5.575  1.00  0.00     0.300 C 
BRANCH  87  88
ATOM     88  N   UNL     1       5.251  -2.008  -6.855  1.00  0.00    -0.329 N 
ATOM     89  C   UNL     1       6.654  -2.009  -7.304  1.00  0.00     0.262 C 
ATOM     90  C   UNL     1       4.301  -2.371  -7.927  1.00  0.00     0.186 C 
ATOM     91  H   UNL     1       4.960  -1.054  -6.644  1.00  0.00     0.348 HD
ATOM     92  C   UNL     1       6.875  -1.067  -8.483  1.00  0.00     0.062 C 
ATOM     93  C   UNL     1       4.492  -1.411  -9.124  1.00  0.00     0.065 C 
ATOM     94  C   UNL     1       5.931  -1.403  -9.624  1.00  0.00     0.012 C 
BRANCH  90  95
ATOM     95  C   UNL     1       2.815  -2.329  -7.471  1.00  0.00     0.088 C 
BRANCH  95  96
ATOM     96  C   UNL     1       1.808  -2.876  -8.491  1.00  0.00     0.150 C 
BRANCH  96  97
ATOM     97  N   UNL     1       1.973  -4.295  -8.751  1.00  0.00    -0.273 N 
ATOM     98  C   UNL     1       2.763  -4.872  -9.705  1.00  0.00     0.108 A 
ATOM     99  N   UNL     1       1.350  -5.196  -7.969  1.00  0.00    -0.182 NA
ATOM    100  C   UNL     1       2.673  -6.230  -9.505  1.00  0.00     0.042 A 
ATOM    101  C   UNL     1       1.776  -6.373  -8.432  1.00  0.00     0.135 A 
ENDBRANCH  96  97
ENDBRANCH  95  96
ENDBRANCH  90  95
ENDBRANCH  87  88
ENDBRANCH  83  87
ENDBRANCH  78  81
ENDBRANCH  76  77
ENDBRANCH   1  76
TORSDOF 19
