REMARK SMILES Cc1ccccc1/[NH+]=C1\S[C@@H](CC(=O)Nc2ccc(C(=O)NCCCCNC(=O)c3ccc(-c4c5nc(c(-c6c(F)cc(S(=O)(=O)[O-])cc6F)c6ccc([nH]6)c(-c6c(F)cc(S(=O)(=O)[O-])cc6F)c6nc(c(-c7c(F)cc(S(=O)(=O)[O-])cc7F)c7ccc4[nH]7)C=C6)C=C5)cc3)cc2)C(=O)N1C
REMARK SMILES IDX 24 1 23 2 22 3 20 4 21 5 19 7 16 8 17 9 97 10 18 11 96 12
REMARK SMILES IDX 15 13 13 14 14 15 12 17 11 18 8 19 9 20 10 22 100 23 98 24
REMARK SMILES IDX 101 25 99 26 7 27 1 28 2 29 3 30 4 31 6 32 5 33 25 34 26 35
REMARK SMILES IDX 27 36 28 37 29 39 30 40 31 41 95 42 32 43 94 44 33 45 34 46
REMARK SMILES IDX 35 47 88 48 36 49 93 50 87 51 89 52 37 53 92 54 86 55 85 56
REMARK SMILES IDX 38 58 72 59 51 60 71 61 52 62 55 63 70 64 90 65 53 66 54 67
REMARK SMILES IDX 69 69 91 70 56 71 39 72 40 73 49 74 41 75 42 76 48 77 50 78
REMARK SMILES IDX 43 79 44 80 45 81 46 82 47 83 73 84 74 85 83 86 75 87 76 88
REMARK SMILES IDX 82 89 84 90 77 91 78 92 79 93 80 94 81 95 57 96 58 97 67 98
REMARK SMILES IDX 59 99 60 100 66 101 68 102 61 103 62 104 63 105 64 106
REMARK SMILES IDX 65 107
REMARK H PARENT 22 6 15 16 8 21 27 38 89 57 55 68
REMARK Flexibility Score: inf
ROOT
ATOM      1  C   UNL     1       2.159   6.885  -1.303  1.00  0.00     0.023 C 
ENDROOT
BRANCH   1   2
ATOM      2  C   UNL     1       2.993   6.013  -2.382  1.00  0.00     0.116 C 
BRANCH   2   3
ATOM      3  N   UNL     1       4.198   6.628  -2.977  1.00  0.00    -0.352 N 
ATOM      4  C   UNL     1       5.531   6.283  -2.981  1.00  0.00     0.251 C 
ATOM      5  O   UNL     1       6.250   6.669  -3.905  1.00  0.00    -0.269 OA
ATOM      6  H   UNL     1       4.008   7.456  -3.473  1.00  0.00     0.163 HD
BRANCH   4   7
ATOM      7  C   UNL     1       6.168   5.508  -1.885  1.00  0.00     0.039 A 
ATOM      8  C   UNL     1       7.404   4.012   0.157  1.00  0.00     0.041 A 
ATOM      9  C   UNL     1       6.090   4.433   0.248  1.00  0.00     0.027 A 
ATOM     10  C   UNL     1       8.177   4.497  -0.885  1.00  0.00     0.027 A 
ATOM     11  C   UNL     1       5.467   5.140  -0.757  1.00  0.00     0.016 A 
ATOM     12  C   UNL     1       7.551   5.226  -1.917  1.00  0.00     0.016 A 
BRANCH   8  13
ATOM     13  N   UNL     1       7.905   3.146   1.138  1.00  0.00    -0.326 N 
ATOM     14  C   UNL     1       7.226   2.079   1.699  1.00  0.00     0.226 C 
ATOM     15  O   UNL     1       7.611   1.570   2.751  1.00  0.00    -0.275 OA
ATOM     16  H   UNL     1       8.822   3.312   1.456  1.00  0.00     0.169 HD
BRANCH  14  17
ATOM     17  C   UNL     1       6.138   1.416   0.864  1.00  0.00     0.128 C 
BRANCH  17  18
ATOM     18  C   UNL     1       4.728   1.438   1.419  1.00  0.00     0.183 C 
ATOM     19  N   UNL     1       1.106   1.744   1.200  1.00  0.00    -0.234 N 
ATOM     20  C   UNL     1       2.337   2.009   0.951  1.00  0.00     0.319 C 
ATOM     21  H   UNL     1       0.641   2.410   1.757  1.00  0.00     0.313 HD
ATOM     22  S   UNL     1       3.559   1.195   0.039  1.00  0.00    -0.022 SA
ATOM     23  N   UNL     1       2.959   3.045   1.577  1.00  0.00    -0.193 N 
ATOM     24  C   UNL     1       4.194   2.701   2.082  1.00  0.00     0.324 C 
ATOM     25  C   UNL     1       2.324   4.311   1.868  1.00  0.00     0.301 C 
ATOM     26  O   UNL     1       4.754   3.287   3.002  1.00  0.00    -0.245 OA
BRANCH  19  27
ATOM     27  C   UNL     1       0.318   0.649   0.803  1.00  0.00     0.128 A 
ATOM     28  C   UNL     1       2.039  -1.294   0.862  1.00  0.00     0.049 C 
ATOM     29  C   UNL     1       0.674  -0.709   0.655  1.00  0.00    -0.004 A 
ATOM     30  C   UNL     1      -0.313  -1.651   0.287  1.00  0.00     0.008 A 
ATOM     31  C   UNL     1      -1.652  -1.299   0.177  1.00  0.00     0.001 A 
ATOM     32  C   UNL     1      -1.052   0.966   0.705  1.00  0.00     0.052 A 
ATOM     33  C   UNL     1      -2.028   0.012   0.405  1.00  0.00     0.004 A 
ENDBRANCH  19  27
ENDBRANCH  17  18
ENDBRANCH  14  17
ENDBRANCH   8  13
ENDBRANCH   4   7
ENDBRANCH   2   3
ENDBRANCH   1   2
BRANCH   1  34
ATOM     34  C   UNL     1       0.546   7.415  -1.260  1.00  0.00     0.023 C 
BRANCH  34  35
ATOM     35  C   UNL     1      -0.740   6.410  -1.146  1.00  0.00     0.116 C 
BRANCH  35  36
ATOM     36  N   UNL     1      -2.306   6.668  -1.624  1.00  0.00    -0.352 N 
ATOM     37  C   UNL     1      -3.465   6.353  -2.509  1.00  0.00     0.251 C 
ATOM     38  H   UNL     1      -2.632   7.383  -1.031  1.00  0.00     0.163 HD
ATOM     39  O   UNL     1      -4.552   6.630  -1.960  1.00  0.00    -0.269 OA
BRANCH  37  40
ATOM     40  C   UNL     1      -3.688   5.622  -3.951  1.00  0.00     0.039 A 
ATOM     41  C   UNL     1      -4.275   4.345  -4.109  1.00  0.00     0.014 A 
ATOM     42  C   UNL     1      -3.304   6.141  -5.179  1.00  0.00     0.014 A 
ATOM     43  C   UNL     1      -3.783   3.447  -5.122  1.00  0.00     0.010 A 
ATOM     44  C   UNL     1      -2.747   5.264  -6.147  1.00  0.00     0.010 A 
ATOM     45  C   UNL     1      -2.803   3.877  -6.019  1.00  0.00    -0.014 A 
BRANCH  45  46
ATOM     46  C   UNL     1      -1.839   2.998  -6.771  1.00  0.00     0.031 A 
ATOM     47  C   UNL     1      -1.976   2.816  -8.211  1.00  0.00     0.074 A 
ATOM     48  C   UNL     1      -0.691   2.423  -6.316  1.00  0.00     0.049 A 
ATOM     49  N   UNL     1      -1.956   1.683  -8.829  1.00  0.00    -0.248 NA
ATOM     50  C   UNL     1      -2.026   3.972  -9.083  1.00  0.00     0.031 C 
ATOM     51  C   UNL     1       0.309   1.522  -6.928  1.00  0.00     0.029 A 
ATOM     52  N   UNL     1      -0.205   2.454  -5.036  1.00  0.00    -0.354 N 
ATOM     53  C   UNL     1      -1.609   1.977 -10.131  1.00  0.00     0.074 A 
ATOM     54  C   UNL     1      -1.847   3.397 -10.270  1.00  0.00     0.031 C 
ATOM     55  C   UNL     1       0.874   0.760  -5.961  1.00  0.00     0.029 A 
ATOM     56  C   UNL     1       0.295   1.186  -4.713  1.00  0.00     0.049 A 
ATOM     57  H   UNL     1      -0.208   3.238  -4.441  1.00  0.00     0.167 HD
ATOM     58  C   UNL     1      -0.919   1.073 -10.894  1.00  0.00     0.037 A 
ATOM     59  C   UNL     1      -0.381   0.483  -3.756  1.00  0.00     0.037 A 
ATOM     60  C   UNL     1      -0.534  -0.109 -10.098  1.00  0.00     0.049 A 
ATOM     61  C   UNL     1      -1.117  -0.658  -4.418  1.00  0.00     0.074 A 
ATOM     62  C   UNL     1       0.685  -0.561  -9.611  1.00  0.00     0.029 A 
ATOM     63  N   UNL     1      -1.505  -0.824  -9.392  1.00  0.00    -0.354 N 
ATOM     64  N   UNL     1      -1.277  -0.704  -5.715  1.00  0.00    -0.248 NA
ATOM     65  C   UNL     1      -1.607  -1.877  -3.778  1.00  0.00     0.031 C 
ATOM     66  C   UNL     1       0.434  -1.438  -8.519  1.00  0.00     0.029 A 
ATOM     67  C   UNL     1      -0.937  -1.534  -8.347  1.00  0.00     0.049 A 
ATOM     68  H   UNL     1      -2.466  -0.823  -9.608  1.00  0.00     0.167 HD
ATOM     69  C   UNL     1      -1.714  -1.932  -6.103  1.00  0.00     0.074 A 
ATOM     70  C   UNL     1      -1.963  -2.620  -4.848  1.00  0.00     0.031 C 
ATOM     71  C   UNL     1      -1.761  -2.305  -7.418  1.00  0.00     0.037 A 
BRANCH  58  72
ATOM     72  C   UNL     1      -0.318   1.447 -12.245  1.00  0.00     0.058 A 
ATOM     73  C   UNL     1       0.812   0.790 -12.777  1.00  0.00     0.135 A 
ATOM     74  C   UNL     1      -0.839   2.458 -13.085  1.00  0.00     0.135 A 
ATOM     75  F   UNL     1       1.353  -0.276 -12.175  1.00  0.00    -0.206 F 
ATOM     76  C   UNL     1       1.423   1.169 -13.978  1.00  0.00     0.059 A 
ATOM     77  C   UNL     1      -0.203   2.910 -14.245  1.00  0.00     0.059 A 
ATOM     78  F   UNL     1      -2.048   2.995 -12.861  1.00  0.00    -0.206 F 
ATOM     79  C   UNL     1       0.924   2.247 -14.696  1.00  0.00     0.060 A 
BRANCH  79  80
ATOM     80  S   UNL     1       1.687   2.686 -16.269  1.00  0.00     0.124 S 
ATOM     81  O   UNL     1       3.080   2.903 -15.892  1.00  0.00    -0.237 OA
ATOM     82  O   UNL     1       1.424   1.496 -17.071  1.00  0.00    -0.237 OA
ATOM     83  O   UNL     1       0.960   3.885 -16.679  1.00  0.00    -0.744 OA
ENDBRANCH  79  80
ENDBRANCH  58  72
BRANCH  59  84
ATOM     84  C   UNL     1      -0.733   1.439  -2.622  1.00  0.00     0.058 A 
ATOM     85  C   UNL     1       0.392   2.207  -2.239  1.00  0.00     0.135 A 
ATOM     86  C   UNL     1      -1.898   2.181  -2.635  1.00  0.00     0.135 A 
ATOM     87  F   UNL     1       1.552   1.583  -2.015  1.00  0.00    -0.206 F 
ATOM     88  C   UNL     1       0.483   3.566  -2.576  1.00  0.00     0.059 A 
ATOM     89  C   UNL     1      -1.823   3.588  -2.741  1.00  0.00     0.059 A 
ATOM     90  F   UNL     1      -3.101   1.582  -2.639  1.00  0.00    -0.206 F 
ATOM     91  C   UNL     1      -0.627   4.228  -3.065  1.00  0.00     0.060 A 
BRANCH  91  92
ATOM     92  S   UNL     1      -0.276   5.806  -4.144  1.00  0.00     0.124 S 
ATOM     93  O   UNL     1       0.881   6.389  -3.540  1.00  0.00    -0.237 OA
ATOM     94  O   UNL     1       0.015   5.253  -5.462  1.00  0.00    -0.237 OA
ATOM     95  O   UNL     1      -1.319   6.788  -4.028  1.00  0.00    -0.744 OA
ENDBRANCH  91  92
ENDBRANCH  59  84
BRANCH  71  96
ATOM     96  C   UNL     1      -2.464  -3.527  -7.939  1.00  0.00     0.058 A 
ATOM     97  C   UNL     1      -3.594  -4.084  -7.322  1.00  0.00     0.135 A 
ATOM     98  C   UNL     1      -2.101  -4.088  -9.188  1.00  0.00     0.135 A 
ATOM     99  F   UNL     1      -4.110  -3.558  -6.201  1.00  0.00    -0.206 F 
ATOM    100  C   UNL     1      -4.262  -5.183  -7.856  1.00  0.00     0.059 A 
ATOM    101  C   UNL     1      -2.792  -5.142  -9.769  1.00  0.00     0.059 A 
ATOM    102  F   UNL     1      -1.062  -3.623  -9.898  1.00  0.00    -0.206 F 
ATOM    103  C   UNL     1      -3.849  -5.709  -9.076  1.00  0.00     0.060 A 
BRANCH 103 104
ATOM    104  S   UNL     1      -4.718  -7.124  -9.765  1.00  0.00     0.124 S 
ATOM    105  O   UNL     1      -4.084  -8.225  -9.046  1.00  0.00    -0.237 OA
ATOM    106  O   UNL     1      -6.106  -6.851  -9.405  1.00  0.00    -0.237 OA
ATOM    107  O   UNL     1      -4.420  -7.045 -11.191  1.00  0.00    -0.744 OA
ENDBRANCH 103 104
ENDBRANCH  71  96
ENDBRANCH  45  46
ENDBRANCH  37  40
ENDBRANCH  35  36
ENDBRANCH  34  35
ENDBRANCH   1  34
TORSDOF 18
