REMARK SMILES Cc1cc(N[C@@H]2C=C[C@@H](C(=O)NCCCCNC(=O)c3ccc(-c4c5nc(c(-c6c(F)cc(S(=O)(=O)[O-])cc6F)c6ccc([nH]6)c(-c6c(F)cc(S(=O)(=O)[O-])cc6F)c6nc(c(-c7c(F)cc(S(=O)(=O)[O-])cc7F)c7ccc4[nH]7)C=C6)C=C5)cc3)C2)nc(C)n1
REMARK SMILES IDX 15 1 14 2 13 3 12 4 10 5 11 6 9 8 6 9 7 10 86 11 8 12 5 13
REMARK SMILES IDX 4 15 1 16 2 17 3 18 90 19 88 20 87 21 89 22 16 23 17 24
REMARK SMILES IDX 18 25 19 27 20 28 21 29 85 30 22 31 84 32 23 33 24 34 25 35
REMARK SMILES IDX 78 36 26 37 83 38 77 39 79 40 27 41 82 42 76 43 75 44 28 46
REMARK SMILES IDX 62 47 41 48 61 49 42 50 45 51 60 52 80 53 43 54 44 55 59 57
REMARK SMILES IDX 81 58 46 59 29 60 30 61 39 62 31 63 32 64 38 65 40 66 33 67
REMARK SMILES IDX 34 68 35 69 36 70 37 71 63 72 64 73 73 74 65 75 66 76 72 77
REMARK SMILES IDX 74 78 67 79 68 80 69 81 70 82 71 83 47 84 48 85 57 86 49 87
REMARK SMILES IDX 50 88 56 89 58 90 51 91 52 92 53 93 54 94 55 95
REMARK H PARENT 12 7 5 14 17 26 79 45 45 56
REMARK Flexibility Score: inf
ROOT
ATOM      1  C   UNL     1       2.542   0.484   1.714  1.00  0.00     0.023 C 
ENDROOT
BRANCH   1   2
ATOM      2  C   UNL     1       2.041  -0.960   1.740  1.00  0.00     0.023 C 
BRANCH   2   3
ATOM      3  C   UNL     1       1.594  -1.494   0.384  1.00  0.00     0.116 C 
BRANCH   3   4
ATOM      4  N   UNL     1       2.695  -1.555  -0.555  1.00  0.00    -0.356 N 
ATOM      5  C   UNL     1       3.211  -2.603  -1.246  1.00  0.00     0.227 C 
ATOM      6  O   UNL     1       4.146  -2.374  -2.019  1.00  0.00    -0.274 OA
ATOM      7  H   UNL     1       3.144  -0.694  -0.718  1.00  0.00     0.163 HD
BRANCH   5   8
ATOM      8  C   UNL     1       2.666  -4.021  -1.108  1.00  0.00     0.103 C 
ATOM      9  C   UNL     1       1.414  -5.291   0.577  1.00  0.00     0.104 C 
ATOM     10  C   UNL     1       0.540  -4.858  -0.554  1.00  0.00    -0.006 C 
ATOM     11  C   UNL     1       2.776  -4.640   0.293  1.00  0.00     0.046 C 
ATOM     12  C   UNL     1       1.212  -4.143  -1.465  1.00  0.00    -0.016 C 
BRANCH   9  13
ATOM     13  N   UNL     1       1.452  -6.729   0.699  1.00  0.00    -0.364 N 
ATOM     14  H   UNL     1       1.053  -7.077   1.529  1.00  0.00     0.162 HD
BRANCH  13  15
ATOM     15  C   UNL     1       1.947  -7.689  -0.135  1.00  0.00     0.130 A 
ATOM     16  C   UNL     1       3.236  -8.356  -3.582  1.00  0.00     0.067 C 
ATOM     17  C   UNL     1       2.819  -8.552  -2.156  1.00  0.00     0.043 A 
ATOM     18  C   UNL     1       2.268  -7.497  -1.458  1.00  0.00     0.070 A 
ATOM     19  N   UNL     1       3.005  -9.759  -1.598  1.00  0.00    -0.238 NA
ATOM     20  C   UNL     1       2.630  -9.879  -0.314  1.00  0.00     0.127 A 
ATOM     21  N   UNL     1       2.112  -8.890   0.440  1.00  0.00    -0.216 NA
ATOM     22  C   UNL     1       2.788 -11.218   0.333  1.00  0.00     0.090 C 
ENDBRANCH  13  15
ENDBRANCH   9  13
ENDBRANCH   5   8
ENDBRANCH   3   4
ENDBRANCH   2   3
ENDBRANCH   1   2
BRANCH   1  23
ATOM     23  C   UNL     1       1.590   1.477   1.058  1.00  0.00     0.116 C 
BRANCH  23  24
ATOM     24  N   UNL     1       0.277   1.483   1.686  1.00  0.00    -0.352 N 
ATOM     25  C   UNL     1      -0.425   2.558   2.170  1.00  0.00     0.251 C 
ATOM     26  H   UNL     1      -0.163   0.606   1.774  1.00  0.00     0.163 HD
ATOM     27  O   UNL     1      -1.458   2.398   2.811  1.00  0.00    -0.269 OA
BRANCH  25  28
ATOM     28  C   UNL     1       0.107   3.908   1.919  1.00  0.00     0.039 A 
ATOM     29  C   UNL     1       0.389   4.740   3.003  1.00  0.00     0.014 A 
ATOM     30  C   UNL     1       0.386   4.310   0.608  1.00  0.00     0.014 A 
ATOM     31  C   UNL     1       1.004   5.970   2.776  1.00  0.00     0.010 A 
ATOM     32  C   UNL     1       1.044   5.513   0.389  1.00  0.00     0.010 A 
ATOM     33  C   UNL     1       1.351   6.354   1.470  1.00  0.00    -0.014 A 
BRANCH  33  34
ATOM     34  C   UNL     1       1.989   7.662   1.205  1.00  0.00     0.031 A 
ATOM     35  C   UNL     1       1.198   8.735   0.515  1.00  0.00     0.074 A 
ATOM     36  C   UNL     1       3.277   7.864   1.538  1.00  0.00     0.049 A 
ATOM     37  N   UNL     1       1.578   9.925   0.134  1.00  0.00    -0.248 NA
ATOM     38  C   UNL     1      -0.204   8.417   0.194  1.00  0.00     0.031 C 
ATOM     39  C   UNL     1       4.149   6.883   2.187  1.00  0.00     0.029 A 
ATOM     40  N   UNL     1       4.080   8.963   1.369  1.00  0.00    -0.354 N 
ATOM     41  C   UNL     1       0.468  10.497  -0.472  1.00  0.00     0.074 A 
ATOM     42  C   UNL     1      -0.585   9.505  -0.458  1.00  0.00     0.031 C 
ATOM     43  C   UNL     1       5.362   7.431   2.375  1.00  0.00     0.029 A 
ATOM     44  C   UNL     1       5.359   8.789   1.839  1.00  0.00     0.049 A 
ATOM     45  H   UNL     1       3.768   9.798   0.951  1.00  0.00     0.167 HD
ATOM     46  C   UNL     1       0.330  11.747  -0.971  1.00  0.00     0.037 A 
ATOM     47  C   UNL     1       6.409   9.634   1.835  1.00  0.00     0.037 A 
ATOM     48  C   UNL     1       1.374  12.735  -0.965  1.00  0.00     0.049 A 
ATOM     49  C   UNL     1       6.239  11.009   1.251  1.00  0.00     0.074 A 
ATOM     50  C   UNL     1       1.325  14.044  -1.409  1.00  0.00     0.029 A 
ATOM     51  N   UNL     1       2.659  12.520  -0.489  1.00  0.00    -0.354 N 
ATOM     52  N   UNL     1       5.171  11.551   0.716  1.00  0.00    -0.248 NA
ATOM     53  C   UNL     1       7.416  11.889   1.270  1.00  0.00     0.031 C 
ATOM     54  C   UNL     1       2.590  14.613  -1.226  1.00  0.00     0.029 A 
ATOM     55  C   UNL     1       3.418  13.667  -0.641  1.00  0.00     0.049 A 
ATOM     56  H   UNL     1       2.983  11.675  -0.100  1.00  0.00     0.167 HD
ATOM     57  C   UNL     1       5.541  12.838   0.347  1.00  0.00     0.074 A 
ATOM     58  C   UNL     1       6.929  13.000   0.731  1.00  0.00     0.031 C 
ATOM     59  C   UNL     1       4.800  13.801  -0.256  1.00  0.00     0.037 A 
BRANCH  46  60
ATOM     60  C   UNL     1      -1.007  12.111  -1.548  1.00  0.00     0.058 A 
ATOM     61  C   UNL     1      -2.121  12.332  -0.722  1.00  0.00     0.135 A 
ATOM     62  C   UNL     1      -1.180  12.243  -2.934  1.00  0.00     0.135 A 
ATOM     63  F   UNL     1      -2.013  12.195   0.610  1.00  0.00    -0.206 F 
ATOM     64  C   UNL     1      -3.367  12.646  -1.251  1.00  0.00     0.059 A 
ATOM     65  C   UNL     1      -2.413  12.579  -3.485  1.00  0.00     0.059 A 
ATOM     66  F   UNL     1      -0.148  12.034  -3.767  1.00  0.00    -0.206 F 
ATOM     67  C   UNL     1      -3.504  12.764  -2.635  1.00  0.00     0.060 A 
BRANCH  67  68
ATOM     68  S   UNL     1      -5.130  13.165  -3.308  1.00  0.00     0.124 S 
ATOM     69  O   UNL     1      -5.835  11.898  -3.138  1.00  0.00    -0.237 OA
ATOM     70  O   UNL     1      -5.567  14.255  -2.441  1.00  0.00    -0.237 OA
ATOM     71  O   UNL     1      -4.843  13.543  -4.688  1.00  0.00    -0.744 OA
ENDBRANCH  67  68
ENDBRANCH  46  60
BRANCH  47  72
ATOM     72  C   UNL     1       7.702   9.210   2.429  1.00  0.00     0.058 A 
ATOM     73  C   UNL     1       8.119   9.716   3.669  1.00  0.00     0.135 A 
ATOM     74  C   UNL     1       8.532   8.278   1.788  1.00  0.00     0.135 A 
ATOM     75  F   UNL     1       7.361  10.615   4.315  1.00  0.00    -0.206 F 
ATOM     76  C   UNL     1       9.317   9.316   4.253  1.00  0.00     0.059 A 
ATOM     77  C   UNL     1       9.727   7.850   2.360  1.00  0.00     0.059 A 
ATOM     78  F   UNL     1       8.169   7.757   0.606  1.00  0.00    -0.206 F 
ATOM     79  C   UNL     1      10.112   8.379   3.591  1.00  0.00     0.060 A 
BRANCH  79  80
ATOM     80  S   UNL     1      11.633   7.820   4.390  1.00  0.00     0.124 S 
ATOM     81  O   UNL     1      12.496   8.984   4.227  1.00  0.00    -0.237 OA
ATOM     82  O   UNL     1      11.181   7.545   5.750  1.00  0.00    -0.237 OA
ATOM     83  O   UNL     1      12.006   6.642   3.612  1.00  0.00    -0.744 OA
ENDBRANCH  79  80
ENDBRANCH  47  72
BRANCH  59  84
ATOM     84  C   UNL     1       5.472  15.114  -0.534  1.00  0.00     0.058 A 
ATOM     85  C   UNL     1       6.370  15.261  -1.602  1.00  0.00     0.135 A 
ATOM     86  C   UNL     1       5.162  16.250   0.230  1.00  0.00     0.135 A 
ATOM     87  F   UNL     1       6.702  14.201  -2.356  1.00  0.00    -0.206 F 
ATOM     88  C   UNL     1       6.948  16.490  -1.897  1.00  0.00     0.059 A 
ATOM     89  C   UNL     1       5.713  17.494  -0.061  1.00  0.00     0.059 A 
ATOM     90  F   UNL     1       4.301  16.162   1.256  1.00  0.00    -0.206 F 
ATOM     91  C   UNL     1       6.612  17.602  -1.122  1.00  0.00     0.060 A 
BRANCH  91  92
ATOM     92  S   UNL     1       7.333  19.202  -1.546  1.00  0.00     0.124 S 
ATOM     93  O   UNL     1       8.695  19.052  -1.045  1.00  0.00    -0.237 OA
ATOM     94  O   UNL     1       7.191  19.235  -2.998  1.00  0.00    -0.237 OA
ATOM     95  O   UNL     1       6.497  20.154  -0.820  1.00  0.00    -0.744 OA
ENDBRANCH  91  92
ENDBRANCH  59  84
ENDBRANCH  33  34
ENDBRANCH  25  28
ENDBRANCH  23  24
ENDBRANCH   1  23
TORSDOF 16
