REMARK SMILES C=CCN(CC(=O)NCCCCNC(=O)c1ccc(-c2c3nc(c(-c4c(F)cc(S(=O)(=O)[O-])cc4F)c4ccc([nH]4)c(-c4c(F)cc(S(=O)(=O)[O-])cc4F)c4nc(c(-c5c(F)cc(S(=O)(=O)[O-])cc5F)c5ccc2[nH]5)C=C4)C=C3)cc1)C(=O)c1sc(N)nc1C
REMARK SMILES IDX 10 1 9 2 8 3 6 4 7 5 5 7 4 8 3 9 2 10 1 11 82 12 83 13 84 14
REMARK SMILES IDX 85 15 89 16 86 17 88 18 90 19 87 20 11 23 12 24 13 25 14 26
REMARK SMILES IDX 15 28 16 29 17 30 81 31 18 32 80 33 19 34 20 35 21 36 74 37
REMARK SMILES IDX 22 38 79 39 73 40 75 41 23 42 78 43 72 44 71 45 24 47 58 48
REMARK SMILES IDX 37 49 57 50 38 51 41 52 56 53 76 54 39 55 40 56 55 58 77 59
REMARK SMILES IDX 42 60 25 61 26 62 35 63 27 64 28 65 34 66 36 67 29 68 30 69
REMARK SMILES IDX 31 70 32 71 33 72 59 73 60 74 69 75 61 76 62 77 68 78 70 79
REMARK SMILES IDX 63 80 64 81 65 82 66 83 67 84 43 85 44 86 53 87 45 88 46 89
REMARK SMILES IDX 52 90 54 91 47 92 48 93 49 94 50 95 51 96
REMARK H PARENT 8 6 87 21 87 22 13 27 75 46 41 57
REMARK Flexibility Score: inf
ROOT
ATOM      1  C   UNL     1      -4.185  -0.649  -0.036  1.00  0.00     0.023 C 
ENDROOT
BRANCH   1   2
ATOM      2  C   UNL     1      -4.356   0.706   0.649  1.00  0.00     0.116 C 
BRANCH   2   3
ATOM      3  N   UNL     1      -4.663   0.621   2.061  1.00  0.00    -0.355 N 
ATOM      4  C   UNL     1      -3.873   0.803   3.156  1.00  0.00     0.239 C 
ATOM      5  O   UNL     1      -4.454   1.049   4.219  1.00  0.00    -0.273 OA
ATOM      6  H   UNL     1      -5.599   0.393   2.264  1.00  0.00     0.163 HD
BRANCH   4   7
ATOM      7  C   UNL     1      -2.336   0.867   3.097  1.00  0.00     0.220 C 
BRANCH   7   8
ATOM      8  N   UNL     1      -1.656  -0.115   2.247  1.00  0.00    -0.325 N 
BRANCH   8   9
ATOM      9  C   UNL     1      -1.065   0.351   0.998  1.00  0.00     0.147 C 
BRANCH   9  10
ATOM     10  C   UNL     1       0.427   0.440   1.099  1.00  0.00    -0.014 C 
ATOM     11  C   UNL     1       1.247  -0.097   0.183  1.00  0.00     0.006 C 
ENDBRANCH   9  10
ENDBRANCH   8   9
BRANCH   8  12
ATOM     12  C   UNL     1      -1.520  -1.472   2.584  1.00  0.00     0.266 C 
ATOM     13  O   UNL     1      -1.021  -2.267   1.787  1.00  0.00    -0.268 OA
BRANCH  12  14
ATOM     14  C   UNL     1      -1.965  -1.918   3.888  1.00  0.00     0.117 A 
ATOM     15  S   UNL     1      -0.801  -2.169   5.126  1.00  0.00    -0.092 S 
ATOM     16  C   UNL     1      -3.205  -2.351   4.326  1.00  0.00     0.063 A 
ATOM     17  C   UNL     1      -2.023  -2.815   6.139  1.00  0.00     0.180 A 
ATOM     18  N   UNL     1      -3.228  -2.816   5.632  1.00  0.00    -0.225 NA
ATOM     19  C   UNL     1      -4.479  -2.419   3.571  1.00  0.00     0.068 C 
BRANCH  17  20
ATOM     20  N   UNL     1      -1.758  -3.304   7.354  1.00  0.00    -0.375 N 
ATOM     21  H   UNL     1      -0.837  -3.285   7.702  1.00  0.00     0.159 HD
ATOM     22  H   UNL     1      -2.483  -3.684   7.901  1.00  0.00     0.159 HD
ENDBRANCH  17  20
ENDBRANCH  12  14
ENDBRANCH   8  12
ENDBRANCH   7   8
ENDBRANCH   4   7
ENDBRANCH   2   3
ENDBRANCH   1   2
BRANCH   1  23
ATOM     23  C   UNL     1      -5.455  -1.489  -0.175  1.00  0.00     0.023 C 
BRANCH  23  24
ATOM     24  C   UNL     1      -6.637  -0.803  -0.844  1.00  0.00     0.116 C 
BRANCH  24  25
ATOM     25  N   UNL     1      -6.336  -0.290  -2.170  1.00  0.00    -0.352 N 
ATOM     26  C   UNL     1      -7.108  -0.326  -3.306  1.00  0.00     0.251 C 
ATOM     27  H   UNL     1      -5.457   0.143  -2.268  1.00  0.00     0.163 HD
ATOM     28  O   UNL     1      -6.643   0.075  -4.370  1.00  0.00    -0.269 OA
BRANCH  26  29
ATOM     29  C   UNL     1      -8.479  -0.883  -3.253  1.00  0.00     0.039 A 
ATOM     30  C   UNL     1      -8.882  -1.772  -4.254  1.00  0.00     0.014 A 
ATOM     31  C   UNL     1      -9.355  -0.554  -2.216  1.00  0.00     0.014 A 
ATOM     32  C   UNL     1     -10.135  -2.385  -4.172  1.00  0.00     0.010 A 
ATOM     33  C   UNL     1     -10.568  -1.227  -2.093  1.00  0.00     0.010 A 
ATOM     34  C   UNL     1     -10.972  -2.150  -3.069  1.00  0.00    -0.014 A 
BRANCH  34  35
ATOM     35  C   UNL     1     -12.266  -2.866  -2.915  1.00  0.00     0.031 A 
ATOM     36  C   UNL     1     -13.560  -2.098  -2.893  1.00  0.00     0.074 A 
ATOM     37  C   UNL     1     -12.271  -4.202  -2.726  1.00  0.00     0.049 A 
ATOM     38  N   UNL     1     -14.777  -2.537  -2.698  1.00  0.00    -0.248 NA
ATOM     39  C   UNL     1     -13.473  -0.642  -3.090  1.00  0.00     0.031 C 
ATOM     40  C   UNL     1     -11.080  -5.053  -2.676  1.00  0.00     0.029 A 
ATOM     41  N   UNL     1     -13.310  -5.077  -2.528  1.00  0.00    -0.354 N 
ATOM     42  C   UNL     1     -15.597  -1.414  -2.736  1.00  0.00     0.074 A 
ATOM     43  C   UNL     1     -14.732  -0.268  -2.916  1.00  0.00     0.031 C 
ATOM     44  C   UNL     1     -11.457  -6.328  -2.485  1.00  0.00     0.029 A 
ATOM     45  C   UNL     1     -12.910  -6.381  -2.354  1.00  0.00     0.049 A 
ATOM     46  H   UNL     1     -14.254  -4.797  -2.512  1.00  0.00     0.167 HD
ATOM     47  C   UNL     1     -16.947  -1.346  -2.651  1.00  0.00     0.037 A 
ATOM     48  C   UNL     1     -13.628  -7.494  -2.106  1.00  0.00     0.037 A 
ATOM     49  C   UNL     1     -17.803  -2.494  -2.492  1.00  0.00     0.049 A 
ATOM     50  C   UNL     1     -15.127  -7.393  -2.007  1.00  0.00     0.074 A 
ATOM     51  C   UNL     1     -19.186  -2.535  -2.455  1.00  0.00     0.029 A 
ATOM     52  N   UNL     1     -17.361  -3.800  -2.338  1.00  0.00    -0.354 N 
ATOM     53  N   UNL     1     -15.890  -6.330  -2.114  1.00  0.00    -0.248 NA
ATOM     54  C   UNL     1     -15.864  -8.640  -1.761  1.00  0.00     0.031 C 
ATOM     55  C   UNL     1     -19.578  -3.858  -2.226  1.00  0.00     0.029 A 
ATOM     56  C   UNL     1     -18.443  -4.651  -2.180  1.00  0.00     0.049 A 
ATOM     57  H   UNL     1     -16.417  -4.081  -2.340  1.00  0.00     0.167 HD
ATOM     58  C   UNL     1     -17.197  -6.786  -1.978  1.00  0.00     0.074 A 
ATOM     59  C   UNL     1     -17.122  -8.221  -1.794  1.00  0.00     0.031 C 
ATOM     60  C   UNL     1     -18.355  -6.080  -2.005  1.00  0.00     0.037 A 
BRANCH  47  61
ATOM     61  C   UNL     1     -17.586   0.015  -2.730  1.00  0.00     0.058 A 
ATOM     62  C   UNL     1     -17.592   0.760  -3.921  1.00  0.00     0.135 A 
ATOM     63  C   UNL     1     -18.236   0.565  -1.613  1.00  0.00     0.135 A 
ATOM     64  F   UNL     1     -16.974   0.290  -5.016  1.00  0.00    -0.206 F 
ATOM     65  C   UNL     1     -18.192   2.013  -3.993  1.00  0.00     0.059 A 
ATOM     66  C   UNL     1     -18.869   1.803  -1.671  1.00  0.00     0.059 A 
ATOM     67  F   UNL     1     -18.261  -0.103  -0.449  1.00  0.00    -0.206 F 
ATOM     68  C   UNL     1     -18.829   2.526  -2.862  1.00  0.00     0.060 A 
BRANCH  68  69
ATOM     69  S   UNL     1     -19.607   4.151  -2.975  1.00  0.00     0.124 S 
ATOM     70  O   UNL     1     -18.441   5.027  -3.035  1.00  0.00    -0.237 OA
ATOM     71  O   UNL     1     -20.380   4.041  -4.208  1.00  0.00    -0.237 OA
ATOM     72  O   UNL     1     -20.395   4.238  -1.750  1.00  0.00    -0.744 OA
ENDBRANCH  68  69
ENDBRANCH  47  61
BRANCH  48  73
ATOM     73  C   UNL     1     -12.940  -8.805  -1.950  1.00  0.00     0.058 A 
ATOM     74  C   UNL     1     -13.076  -9.812  -2.917  1.00  0.00     0.135 A 
ATOM     75  C   UNL     1     -12.126  -9.073  -0.839  1.00  0.00     0.135 A 
ATOM     76  F   UNL     1     -13.850  -9.607  -3.994  1.00  0.00    -0.206 F 
ATOM     77  C   UNL     1     -12.445 -11.044  -2.781  1.00  0.00     0.059 A 
ATOM     78  C   UNL     1     -11.461 -10.287  -0.694  1.00  0.00     0.059 A 
ATOM     79  F   UNL     1     -11.949  -8.137   0.107  1.00  0.00    -0.206 F 
ATOM     80  C   UNL     1     -11.636 -11.271  -1.666  1.00  0.00     0.060 A 
BRANCH  80  81
ATOM     81  S   UNL     1     -10.784 -12.857  -1.524  1.00  0.00     0.124 S 
ATOM     82  O   UNL     1     -11.888 -13.756  -1.209  1.00  0.00    -0.237 OA
ATOM     83  O   UNL     1     -10.195 -13.008  -2.851  1.00  0.00    -0.237 OA
ATOM     84  O   UNL     1      -9.828 -12.629  -0.445  1.00  0.00    -0.744 OA
ENDBRANCH  80  81
ENDBRANCH  48  73
BRANCH  60  85
ATOM     85  C   UNL     1     -19.642  -6.848  -1.871  1.00  0.00     0.058 A 
ATOM     86  C   UNL     1     -20.039  -7.424  -0.654  1.00  0.00     0.135 A 
ATOM     87  C   UNL     1     -20.517  -6.962  -2.964  1.00  0.00     0.135 A 
ATOM     88  F   UNL     1     -19.238  -7.351   0.422  1.00  0.00    -0.206 F 
ATOM     89  C   UNL     1     -21.245  -8.106  -0.532  1.00  0.00     0.059 A 
ATOM     90  C   UNL     1     -21.741  -7.613  -2.857  1.00  0.00     0.059 A 
ATOM     91  F   UNL     1     -20.192  -6.421  -4.149  1.00  0.00    -0.206 F 
ATOM     92  C   UNL     1     -22.092  -8.192  -1.639  1.00  0.00     0.060 A 
BRANCH  92  93
ATOM     93  S   UNL     1     -23.670  -9.049  -1.456  1.00  0.00     0.124 S 
ATOM     94  O   UNL     1     -23.242 -10.443  -1.386  1.00  0.00    -0.237 OA
ATOM     95  O   UNL     1     -24.191  -8.482  -0.216  1.00  0.00    -0.237 OA
ATOM     96  O   UNL     1     -24.401  -8.678  -2.664  1.00  0.00    -0.744 OA
ENDBRANCH  92  93
ENDBRANCH  60  85
ENDBRANCH  34  35
ENDBRANCH  26  29
ENDBRANCH  24  25
ENDBRANCH  23  24
ENDBRANCH   1  23
TORSDOF 20
