REMARK SMILES O=C(COc1ccc([N+](=O)[O-])cc1)Nc1ccc(C(=O)NCCCCNC(=O)c2ccc(-c3c4nc(c(-c5c(F)cc(S(=O)(=O)[O-])cc5F)c5ccc([nH]5)c(-c5c(F)cc(S(=O)(=O)[O-])cc5F)c5nc(c(-c6c(F)cc(S(=O)(=O)[O-])cc6F)c6ccc3[nH]6)C=C5)C=C4)cc2)c(O)c1
REMARK SMILES IDX 22 1 21 2 19 3 20 4 18 6 15 7 16 8 97 9 17 10 95 11 14 12
REMARK SMILES IDX 1 13 2 14 3 16 4 17 5 18 6 19 13 20 7 21 12 22 8 23 9 24
REMARK SMILES IDX 10 25 11 26 96 27 23 29 24 30 25 31 26 32 27 33 28 35 29 36
REMARK SMILES IDX 30 37 94 38 31 39 93 40 32 41 33 42 34 43 87 44 35 45 92 46
REMARK SMILES IDX 86 47 88 48 36 49 91 50 85 51 84 52 37 54 71 55 50 56 70 57
REMARK SMILES IDX 51 58 54 59 69 60 89 61 52 62 53 63 68 65 90 66 55 67 38 68
REMARK SMILES IDX 39 69 48 70 40 71 41 72 47 73 49 74 42 75 43 76 44 77 45 78
REMARK SMILES IDX 46 79 72 80 73 81 82 82 74 83 75 84 81 85 83 86 76 87 77 88
REMARK SMILES IDX 78 89 79 90 80 91 56 92 57 93 66 94 58 95 59 96 65 97 67 98
REMARK SMILES IDX 60 99 61 100 62 101 63 102 64 103
REMARK H PARENT 21 5 14 15 96 28 26 34 88 53 54 64
REMARK Flexibility Score: inf
ROOT
ATOM      1  C   UNL     1      -1.365  -5.505   2.270  1.00  0.00     0.116 C 
ENDROOT
BRANCH   1   2
ATOM      2  N   UNL     1      -0.334  -5.729   3.261  1.00  0.00    -0.352 N 
ATOM      3  C   UNL     1       0.915  -5.181   3.418  1.00  0.00     0.255 C 
ATOM      4  O   UNL     1       1.594  -5.599   4.360  1.00  0.00    -0.269 OA
ATOM      5  H   UNL     1      -0.571  -6.394   3.947  1.00  0.00     0.163 HD
BRANCH   3   6
ATOM      6  C   UNL     1       1.465  -4.058   2.599  1.00  0.00     0.081 A 
ATOM      7  C   UNL     1       2.616  -1.799   1.324  1.00  0.00     0.045 A 
ATOM      8  C   UNL     1       2.909  -2.072   2.658  1.00  0.00     0.027 A 
ATOM      9  C   UNL     1       1.818  -2.689   0.617  1.00  0.00     0.073 A 
ATOM     10  C   UNL     1       2.323  -3.178   3.290  1.00  0.00     0.020 A 
ATOM     11  C   UNL     1       1.274  -3.818   1.236  1.00  0.00     0.130 A 
BRANCH   7  12
ATOM     12  N   UNL     1       3.131  -0.629   0.742  1.00  0.00    -0.323 N 
ATOM     13  O   UNL     1       1.712  -0.400  -1.101  1.00  0.00    -0.271 OA
ATOM     14  C   UNL     1       2.635  -0.003  -0.394  1.00  0.00     0.262 C 
ATOM     15  H   UNL     1       3.913  -0.216   1.176  1.00  0.00     0.170 HD
BRANCH  14  16
ATOM     16  C   UNL     1       3.323   1.323  -0.707  1.00  0.00     0.329 C 
BRANCH  16  17
ATOM     17  O   UNL     1       4.152   1.851   0.320  1.00  0.00    -0.484 OA
BRANCH  17  18
ATOM     18  C   UNL     1       3.524   2.675   1.214  1.00  0.00     0.120 A 
ATOM     19  C   UNL     1       4.191   3.865   1.511  1.00  0.00     0.053 A 
ATOM     20  C   UNL     1       2.367   2.327   1.916  1.00  0.00     0.053 A 
ATOM     21  C   UNL     1       3.715   4.707   2.517  1.00  0.00     0.089 A 
ATOM     22  C   UNL     1       1.895   3.152   2.942  1.00  0.00     0.089 A 
ATOM     23  C   UNL     1       2.578   4.335   3.246  1.00  0.00     0.269 A 
BRANCH  23  24
ATOM     24  N   UNL     1       2.122   5.172   4.362  1.00  0.00     0.062 N 
ATOM     25  O   UNL     1       2.700   6.253   4.543  1.00  0.00    -0.258 OA
ATOM     26  O   UNL     1       1.196   4.742   5.063  1.00  0.00    -0.258 OA
ENDBRANCH  23  24
ENDBRANCH  17  18
ENDBRANCH  16  17
ENDBRANCH  14  16
ENDBRANCH   7  12
BRANCH  11  27
ATOM     27  O   UNL     1       0.614  -4.681   0.417  1.00  0.00    -0.507 OA
ATOM     28  H   UNL     1       0.226  -5.457   0.770  1.00  0.00     0.293 HD
ENDBRANCH  11  27
ENDBRANCH   3   6
ENDBRANCH   1   2
BRANCH   1  29
ATOM     29  C   UNL     1      -1.243  -6.520   1.128  1.00  0.00     0.023 C 
BRANCH  29  30
ATOM     30  C   UNL     1      -1.965  -7.843   1.347  1.00  0.00     0.023 C 
BRANCH  30  31
ATOM     31  C   UNL     1      -3.479  -7.731   1.380  1.00  0.00     0.116 C 
BRANCH  31  32
ATOM     32  N   UNL     1      -4.050  -7.158   0.168  1.00  0.00    -0.352 N 
ATOM     33  C   UNL     1      -5.284  -7.405  -0.382  1.00  0.00     0.251 C 
ATOM     34  H   UNL     1      -3.482  -6.516  -0.315  1.00  0.00     0.163 HD
ATOM     35  O   UNL     1      -5.592  -6.912  -1.464  1.00  0.00    -0.269 OA
BRANCH  33  36
ATOM     36  C   UNL     1      -6.212  -8.309   0.326  1.00  0.00     0.039 A 
ATOM     37  C   UNL     1      -6.827  -9.340  -0.386  1.00  0.00     0.014 A 
ATOM     38  C   UNL     1      -6.428  -8.169   1.700  1.00  0.00     0.014 A 
ATOM     39  C   UNL     1      -7.620 -10.265   0.295  1.00  0.00     0.010 A 
ATOM     40  C   UNL     1      -7.140  -9.141   2.388  1.00  0.00     0.010 A 
ATOM     41  C   UNL     1      -7.761 -10.186   1.690  1.00  0.00    -0.014 A 
BRANCH  41  42
ATOM     42  C   UNL     1      -8.604 -11.152   2.435  1.00  0.00     0.031 A 
ATOM     43  C   UNL     1      -9.832 -10.659   3.152  1.00  0.00     0.074 A 
ATOM     44  C   UNL     1      -8.239 -12.446   2.512  1.00  0.00     0.049 A 
ATOM     45  N   UNL     1     -10.670 -11.321   3.907  1.00  0.00    -0.248 NA
ATOM     46  C   UNL     1     -10.139  -9.224   3.034  1.00  0.00     0.031 C 
ATOM     47  C   UNL     1      -7.040 -13.028   1.905  1.00  0.00     0.029 A 
ATOM     48  N   UNL     1      -8.841 -13.507   3.138  1.00  0.00    -0.354 N 
ATOM     49  C   UNL     1     -11.587 -10.382   4.365  1.00  0.00     0.074 A 
ATOM     50  C   UNL     1     -11.165  -9.095   3.859  1.00  0.00     0.031 C 
ATOM     51  C   UNL     1      -7.012 -14.346   2.161  1.00  0.00     0.029 A 
ATOM     52  C   UNL     1      -8.174 -14.697   2.973  1.00  0.00     0.049 A 
ATOM     53  H   UNL     1      -9.674 -13.424   3.657  1.00  0.00     0.167 HD
ATOM     54  C   UNL     1     -12.700 -10.577   5.111  1.00  0.00     0.037 A 
ATOM     55  C   UNL     1      -8.473 -15.932   3.421  1.00  0.00     0.037 A 
ATOM     56  C   UNL     1     -13.133 -11.867   5.576  1.00  0.00     0.049 A 
ATOM     57  C   UNL     1      -9.732 -16.132   4.221  1.00  0.00     0.074 A 
ATOM     58  C   UNL     1     -14.268 -12.186   6.300  1.00  0.00     0.029 A 
ATOM     59  N   UNL     1     -12.453 -13.055   5.351  1.00  0.00    -0.354 N 
ATOM     60  N   UNL     1     -10.616 -15.241   4.603  1.00  0.00    -0.248 NA
ATOM     61  C   UNL     1     -10.041 -17.505   4.640  1.00  0.00     0.031 C 
ATOM     62  C   UNL     1     -14.260 -13.565   6.535  1.00  0.00     0.029 A 
ATOM     63  C   UNL     1     -13.142 -14.110   5.923  1.00  0.00     0.049 A 
ATOM     64  H   UNL     1     -11.605 -13.136   4.857  1.00  0.00     0.167 HD
ATOM     65  C   UNL     1     -11.606 -15.951   5.274  1.00  0.00     0.074 A 
ATOM     66  C   UNL     1     -11.212 -17.345   5.242  1.00  0.00     0.031 C 
ATOM     67  C   UNL     1     -12.740 -15.493   5.859  1.00  0.00     0.037 A 
BRANCH  54  68
ATOM     68  C   UNL     1     -13.525  -9.366   5.449  1.00  0.00     0.058 A 
ATOM     69  C   UNL     1     -14.258  -8.679   4.467  1.00  0.00     0.135 A 
ATOM     70  C   UNL     1     -13.585  -8.885   6.766  1.00  0.00     0.135 A 
ATOM     71  F   UNL     1     -14.221  -9.085   3.188  1.00  0.00    -0.206 F 
ATOM     72  C   UNL     1     -14.988  -7.535   4.771  1.00  0.00     0.059 A 
ATOM     73  C   UNL     1     -14.333  -7.759   7.099  1.00  0.00     0.059 A 
ATOM     74  F   UNL     1     -12.902  -9.502   7.744  1.00  0.00    -0.206 F 
ATOM     75  C   UNL     1     -15.015  -7.080   6.090  1.00  0.00     0.060 A 
BRANCH  75  76
ATOM     76  S   UNL     1     -15.957  -5.587   6.467  1.00  0.00     0.124 S 
ATOM     77  O   UNL     1     -15.080  -4.549   5.936  1.00  0.00    -0.237 OA
ATOM     78  O   UNL     1     -17.199  -5.805   5.732  1.00  0.00    -0.237 OA
ATOM     79  O   UNL     1     -16.080  -5.622   7.921  1.00  0.00    -0.744 OA
ENDBRANCH  75  76
ENDBRANCH  54  68
BRANCH  55  80
ATOM     80  C   UNL     1      -7.597 -17.082   3.074  1.00  0.00     0.058 A 
ATOM     81  C   UNL     1      -8.017 -18.051   2.150  1.00  0.00     0.135 A 
ATOM     82  C   UNL     1      -6.324 -17.233   3.646  1.00  0.00     0.135 A 
ATOM     83  F   UNL     1      -9.227 -17.952   1.579  1.00  0.00    -0.206 F 
ATOM     84  C   UNL     1      -7.217 -19.139   1.819  1.00  0.00     0.059 A 
ATOM     85  C   UNL     1      -5.496 -18.300   3.313  1.00  0.00     0.059 A 
ATOM     86  F   UNL     1      -5.868 -16.323   4.521  1.00  0.00    -0.206 F 
ATOM     87  C   UNL     1      -5.956 -19.255   2.406  1.00  0.00     0.060 A 
BRANCH  87  88
ATOM     88  S   UNL     1      -4.907 -20.649   1.937  1.00  0.00     0.124 S 
ATOM     89  O   UNL     1      -5.549 -21.750   2.644  1.00  0.00    -0.237 OA
ATOM     90  O   UNL     1      -5.041 -20.658   0.483  1.00  0.00    -0.237 OA
ATOM     91  O   UNL     1      -3.591 -20.259   2.434  1.00  0.00    -0.744 OA
ENDBRANCH  87  88
ENDBRANCH  55  80
BRANCH  67  92
ATOM     92  C   UNL     1     -13.664 -16.512   6.464  1.00  0.00     0.058 A 
ATOM     93  C   UNL     1     -13.363 -17.160   7.670  1.00  0.00     0.135 A 
ATOM     94  C   UNL     1     -14.891 -16.805   5.846  1.00  0.00     0.135 A 
ATOM     95  F   UNL     1     -12.201 -16.917   8.297  1.00  0.00    -0.206 F 
ATOM     96  C   UNL     1     -14.235 -18.086   8.233  1.00  0.00     0.059 A 
ATOM     97  C   UNL     1     -15.790 -17.708   6.404  1.00  0.00     0.059 A 
ATOM     98  F   UNL     1     -15.231 -16.202   4.696  1.00  0.00    -0.206 F 
ATOM     99  C   UNL     1     -15.447 -18.354   7.591  1.00  0.00     0.060 A 
BRANCH  99 100
ATOM    100  S   UNL     1     -16.584 -19.536   8.343  1.00  0.00     0.124 S 
ATOM    101  O   UNL     1     -15.950 -20.807   8.008  1.00  0.00    -0.237 OA
ATOM    102  O   UNL     1     -16.544 -19.159   9.753  1.00  0.00    -0.237 OA
ATOM    103  O   UNL     1     -17.849 -19.267   7.666  1.00  0.00    -0.744 OA
ENDBRANCH  99 100
ENDBRANCH  67  92
ENDBRANCH  41  42
ENDBRANCH  33  36
ENDBRANCH  31  32
ENDBRANCH  30  31
ENDBRANCH  29  30
ENDBRANCH   1  29
TORSDOF 20
