REMARK SMILES O=C(NCCCCNC(=O)c1ccccc1C(=O)OC[C@@H]1C[C@H]2CC[C@@H]1C2)c1ccc(-c2c3nc(c(-c4c(F)cc(S(=O)(=O)[O-])cc4F)c4ccc([nH]4)c(-c4c(F)cc(S(=O)(=O)[O-])cc4F)c4nc(c(-c5c(F)cc(S(=O)(=O)[O-])cc5F)c5ccc2[nH]5)C=C4)C=C3)cc1
REMARK SMILES IDX 6 1 5 2 4 3 3 4 1 5 2 6 28 8 29 9 93 10 30 11 92 12 31 13
REMARK SMILES IDX 32 14 33 15 86 16 34 17 91 18 85 19 87 20 35 21 90 22 84 23
REMARK SMILES IDX 83 24 36 26 70 27 49 28 69 29 50 30 53 31 68 32 88 33 51 34
REMARK SMILES IDX 52 35 67 37 89 38 54 39 37 40 38 41 47 42 39 43 40 44 46 45
REMARK SMILES IDX 48 46 41 47 42 48 43 49 44 50 45 51 71 52 72 53 81 54 73 55
REMARK SMILES IDX 74 56 80 57 82 58 75 59 76 60 77 61 78 62 79 63 55 64 56 65
REMARK SMILES IDX 65 66 57 67 58 68 64 69 66 70 59 71 60 72 61 73 62 74 63 75
REMARK SMILES IDX 7 76 8 77 9 78 10 80 11 81 12 82 16 83 13 84 15 85 14 86
REMARK SMILES IDX 17 87 18 88 19 89 20 90 21 91 22 92 26 93 23 94 25 95 27 96
REMARK SMILES IDX 24 97
REMARK H PARENT 3 7 87 25 53 36 8 79
REMARK Flexibility Score: inf
ROOT
ATOM      1  C   UNL     1       4.436  -2.203  -3.389  1.00  0.00     0.023 C 
ENDROOT
BRANCH   1   2
ATOM      2  C   UNL     1       4.894  -1.961  -1.950  1.00  0.00     0.023 C 
BRANCH   2   3
ATOM      3  C   UNL     1       4.587  -0.583  -1.376  1.00  0.00     0.116 C 
BRANCH   3   4
ATOM      4  N   UNL     1       3.163  -0.326  -1.228  1.00  0.00    -0.352 N 
ATOM      5  O   UNL     1       1.194  -0.097  -0.152  1.00  0.00    -0.269 OA
ATOM      6  C   UNL     1       2.418  -0.160  -0.083  1.00  0.00     0.251 C 
ATOM      7  H   UNL     1       2.658  -0.260  -2.071  1.00  0.00     0.163 HD
BRANCH   6   8
ATOM      8  C   UNL     1       3.091  -0.091   1.234  1.00  0.00     0.039 A 
ATOM      9  C   UNL     1       4.206   0.728   1.422  1.00  0.00     0.014 A 
ATOM     10  C   UNL     1       2.601  -0.860   2.294  1.00  0.00     0.014 A 
ATOM     11  C   UNL     1       4.924   0.654   2.611  1.00  0.00     0.010 A 
ATOM     12  C   UNL     1       3.274  -0.863   3.520  1.00  0.00     0.010 A 
ATOM     13  C   UNL     1       4.463  -0.134   3.679  1.00  0.00    -0.014 A 
BRANCH  13  14
ATOM     14  C   UNL     1       5.207  -0.130   4.967  1.00  0.00     0.031 A 
ATOM     15  C   UNL     1       5.853  -1.380   5.503  1.00  0.00     0.074 A 
ATOM     16  C   UNL     1       5.312   1.029   5.648  1.00  0.00     0.049 A 
ATOM     17  N   UNL     1       6.541  -1.542   6.605  1.00  0.00    -0.248 NA
ATOM     18  C   UNL     1       5.705  -2.607   4.706  1.00  0.00     0.031 C 
ATOM     19  C   UNL     1       4.716   2.303   5.236  1.00  0.00     0.029 A 
ATOM     20  N   UNL     1       5.960   1.331   6.818  1.00  0.00    -0.354 N 
ATOM     21  C   UNL     1       6.893  -2.887   6.645  1.00  0.00     0.074 A 
ATOM     22  C   UNL     1       6.319  -3.503   5.468  1.00  0.00     0.031 C 
ATOM     23  C   UNL     1       5.057   3.254   6.117  1.00  0.00     0.029 A 
ATOM     24  C   UNL     1       5.838   2.649   7.189  1.00  0.00     0.049 A 
ATOM     25  H   UNL     1       6.465   0.667   7.343  1.00  0.00     0.167 HD
ATOM     26  C   UNL     1       7.631  -3.542   7.575  1.00  0.00     0.037 A 
ATOM     27  C   UNL     1       6.283   3.300   8.280  1.00  0.00     0.037 A 
ATOM     28  C   UNL     1       8.207  -2.915   8.740  1.00  0.00     0.049 A 
ATOM     29  C   UNL     1       7.075   2.544   9.308  1.00  0.00     0.074 A 
ATOM     30  C   UNL     1       9.004  -3.486   9.718  1.00  0.00     0.029 A 
ATOM     31  N   UNL     1       8.041  -1.583   9.092  1.00  0.00    -0.354 N 
ATOM     32  N   UNL     1       7.431   1.282   9.308  1.00  0.00    -0.248 NA
ATOM     33  C   UNL     1       7.527   3.299  10.483  1.00  0.00     0.031 C 
ATOM     34  C   UNL     1       9.275  -2.514  10.687  1.00  0.00     0.029 A 
ATOM     35  C   UNL     1       8.698  -1.321  10.285  1.00  0.00     0.049 A 
ATOM     36  H   UNL     1       7.533  -0.921   8.570  1.00  0.00     0.167 HD
ATOM     37  C   UNL     1       8.165   1.095  10.473  1.00  0.00     0.074 A 
ATOM     38  C   UNL     1       8.216   2.378  11.143  1.00  0.00     0.031 C 
ATOM     39  C   UNL     1       8.742  -0.038  10.944  1.00  0.00     0.037 A 
BRANCH  26  40
ATOM     40  C   UNL     1       7.850  -5.021   7.389  1.00  0.00     0.058 A 
ATOM     41  C   UNL     1       8.688  -5.528   6.383  1.00  0.00     0.135 A 
ATOM     42  C   UNL     1       7.257  -5.944   8.268  1.00  0.00     0.135 A 
ATOM     43  F   UNL     1       9.273  -4.695   5.507  1.00  0.00    -0.206 F 
ATOM     44  C   UNL     1       8.911  -6.894   6.239  1.00  0.00     0.059 A 
ATOM     45  C   UNL     1       7.487  -7.314   8.159  1.00  0.00     0.059 A 
ATOM     46  F   UNL     1       6.449  -5.518   9.251  1.00  0.00    -0.206 F 
ATOM     47  C   UNL     1       8.305  -7.780   7.132  1.00  0.00     0.060 A 
BRANCH  47  48
ATOM     48  S   UNL     1       8.608  -9.549   6.933  1.00  0.00     0.124 S 
ATOM     49  O   UNL     1       7.842  -9.840   5.724  1.00  0.00    -0.237 OA
ATOM     50  O   UNL     1      10.059  -9.603   6.789  1.00  0.00    -0.237 OA
ATOM     51  O   UNL     1       8.080 -10.127   8.164  1.00  0.00    -0.744 OA
ENDBRANCH  47  48
ENDBRANCH  26  40
BRANCH  27  52
ATOM     52  C   UNL     1       5.973   4.743   8.451  1.00  0.00     0.058 A 
ATOM     53  C   UNL     1       6.978   5.716   8.360  1.00  0.00     0.135 A 
ATOM     54  C   UNL     1       4.657   5.180   8.675  1.00  0.00     0.135 A 
ATOM     55  F   UNL     1       8.252   5.349   8.152  1.00  0.00    -0.206 F 
ATOM     56  C   UNL     1       6.693   7.071   8.496  1.00  0.00     0.059 A 
ATOM     57  C   UNL     1       4.343   6.529   8.784  1.00  0.00     0.059 A 
ATOM     58  F   UNL     1       3.657   4.288   8.752  1.00  0.00    -0.206 F 
ATOM     59  C   UNL     1       5.370   7.468   8.702  1.00  0.00     0.060 A 
BRANCH  59  60
ATOM     60  S   UNL     1       5.003   9.231   8.821  1.00  0.00     0.124 S 
ATOM     61  O   UNL     1       5.538   9.554  10.139  1.00  0.00    -0.237 OA
ATOM     62  O   UNL     1       5.737   9.774   7.683  1.00  0.00    -0.237 OA
ATOM     63  O   UNL     1       3.549   9.280   8.700  1.00  0.00    -0.744 OA
ENDBRANCH  59  60
ENDBRANCH  27  52
BRANCH  39  64
ATOM     64  C   UNL     1       9.508   0.064  12.235  1.00  0.00     0.058 A 
ATOM     65  C   UNL     1       8.859   0.231  13.468  1.00  0.00     0.135 A 
ATOM     66  C   UNL     1      10.908  -0.045  12.240  1.00  0.00     0.135 A 
ATOM     67  F   UNL     1       7.523   0.351  13.519  1.00  0.00    -0.206 F 
ATOM     68  C   UNL     1       9.573   0.312  14.659  1.00  0.00     0.059 A 
ATOM     69  C   UNL     1      11.640   0.003  13.422  1.00  0.00     0.059 A 
ATOM     70  F   UNL     1      11.578  -0.213  11.089  1.00  0.00    -0.206 F 
ATOM     71  C   UNL     1      10.964   0.195  14.626  1.00  0.00     0.060 A 
BRANCH  71  72
ATOM     72  S   UNL     1      11.877   0.271  16.182  1.00  0.00     0.124 S 
ATOM     73  O   UNL     1      11.787   1.690  16.507  1.00  0.00    -0.237 OA
ATOM     74  O   UNL     1      11.107  -0.625  17.039  1.00  0.00    -0.237 OA
ATOM     75  O   UNL     1      13.207  -0.208  15.820  1.00  0.00    -0.744 OA
ENDBRANCH  71  72
ENDBRANCH  39  64
ENDBRANCH  13  14
ENDBRANCH   6   8
ENDBRANCH   3   4
ENDBRANCH   2   3
ENDBRANCH   1   2
BRANCH   1  76
ATOM     76  C   UNL     1       4.841  -1.136  -4.401  1.00  0.00     0.116 C 
BRANCH  76  77
ATOM     77  N   UNL     1       6.271  -0.884  -4.438  1.00  0.00    -0.352 N 
ATOM     78  C   UNL     1       7.029  -0.389  -5.469  1.00  0.00     0.252 C 
ATOM     79  H   UNL     1       6.762  -1.096  -3.612  1.00  0.00     0.163 HD
ATOM     80  O   UNL     1       8.240  -0.235  -5.338  1.00  0.00    -0.269 OA
BRANCH  78  81
ATOM     81  C   UNL     1       6.413  -0.121  -6.781  1.00  0.00     0.054 A 
ATOM     82  C   UNL     1       6.875  -0.920  -7.841  1.00  0.00     0.015 A 
ATOM     83  C   UNL     1       5.421   0.841  -7.007  1.00  0.00     0.072 A 
ATOM     84  C   UNL     1       6.311  -0.803  -9.111  1.00  0.00     0.001 A 
ATOM     85  C   UNL     1       4.851   0.938  -8.290  1.00  0.00     0.016 A 
ATOM     86  C   UNL     1       5.291   0.118  -9.332  1.00  0.00     0.001 A 
BRANCH  83  87
ATOM     87  C   UNL     1       4.866   1.732  -5.963  1.00  0.00     0.338 C 
ATOM     88  O   UNL     1       3.715   2.157  -6.015  1.00  0.00    -0.246 OA
BRANCH  87  89
ATOM     89  O   UNL     1       5.752   1.971  -4.973  1.00  0.00    -0.462 OA
BRANCH  89  90
ATOM     90  C   UNL     1       5.203   2.574  -3.785  1.00  0.00     0.237 C 
BRANCH  90  91
ATOM     91  C   UNL     1       5.231   4.094  -3.909  1.00  0.00     0.030 C 
ATOM     92  C   UNL     1       6.367   4.741  -3.080  1.00  0.00     0.011 C 
ATOM     93  C   UNL     1       3.966   4.765  -3.313  1.00  0.00    -0.004 C 
ATOM     94  C   UNL     1       5.625   5.815  -2.268  1.00  0.00    -0.010 C 
ATOM     95  C   UNL     1       3.880   6.187  -3.888  1.00  0.00     0.004 C 
ATOM     96  C   UNL     1       4.362   5.056  -1.866  1.00  0.00     0.007 C 
ATOM     97  C   UNL     1       5.079   6.886  -3.231  1.00  0.00     0.004 C 
ENDBRANCH  90  91
ENDBRANCH  89  90
ENDBRANCH  87  89
ENDBRANCH  83  87
ENDBRANCH  78  81
ENDBRANCH  76  77
ENDBRANCH   1  76
TORSDOF 18
