REMARK SMILES COc1cc(NC(=O)/C=C/c2cccc([N+](=O)[O-])c2)c(C(=O)NCCCCNC(=O)c2ccc(-c3c4nc(c(-c5c(F)cc(S(=O)(=O)[O-])cc5F)c5ccc([nH]5)c(-c5c(F)cc(S(=O)(=O)[O-])cc5F)c5nc(c(-c6c(F)cc(S(=O)(=O)[O-])cc6F)c6ccc3[nH]6)C=C5)C=C4)cc2)cc1OC
REMARK SMILES IDX 25 1 24 2 23 3 21 4 22 5 20 7 3 8 4 9 98 10 5 11 97 12 2 13
REMARK SMILES IDX 1 14 99 15 100 16 6 17 7 18 8 20 9 21 10 22 11 23 12 24
REMARK SMILES IDX 19 25 13 26 15 27 14 28 16 29 17 30 18 31 26 32 27 33 28 34
REMARK SMILES IDX 29 35 30 37 31 38 32 39 96 40 33 41 95 42 34 43 35 44 36 45
REMARK SMILES IDX 89 46 37 47 94 48 88 49 90 50 38 51 93 52 87 53 86 54 39 56
REMARK SMILES IDX 73 57 52 58 72 59 53 60 56 61 71 62 91 63 54 64 55 65 70 67
REMARK SMILES IDX 92 68 57 69 40 70 41 71 50 72 42 73 43 74 49 75 51 76 44 77
REMARK SMILES IDX 45 78 46 79 47 80 48 81 74 82 75 83 84 84 76 85 77 86 83 87
REMARK SMILES IDX 85 88 78 89 79 90 80 91 81 92 82 93 58 94 59 95 68 96 60 97
REMARK SMILES IDX 61 98 67 99 69 100 62 101 63 102 64 103 65 104 66 105
REMARK H PARENT 23 6 6 19 28 36 90 55 56 66
REMARK Flexibility Score: inf
ROOT
ATOM      1  C   UNL     1       5.463   2.846   5.177  1.00  0.00     0.023 C 
ENDROOT
BRANCH   1   2
ATOM      2  C   UNL     1       4.321   1.999   5.743  1.00  0.00     0.116 C 
BRANCH   2   3
ATOM      3  N   UNL     1       3.202   2.854   6.091  1.00  0.00    -0.352 N 
ATOM      4  C   UNL     1       2.081   3.206   5.383  1.00  0.00     0.253 C 
ATOM      5  O   UNL     1       1.285   3.982   5.913  1.00  0.00    -0.269 OA
ATOM      6  H   UNL     1       3.257   3.249   6.991  1.00  0.00     0.163 HD
BRANCH   4   7
ATOM      7  C   UNL     1       1.752   2.611   4.051  1.00  0.00     0.067 A 
ATOM      8  C   UNL     1       1.185   1.293   1.635  1.00  0.00     0.162 A 
ATOM      9  C   UNL     1       0.173   1.588   2.556  1.00  0.00     0.077 A 
ATOM     10  C   UNL     1       2.490   1.674   1.913  1.00  0.00     0.161 A 
ATOM     11  C   UNL     1       0.409   2.366   3.695  1.00  0.00     0.058 A 
ATOM     12  C   UNL     1       2.756   2.327   3.115  1.00  0.00     0.066 A 
BRANCH   8  13
ATOM     13  O   UNL     1       0.845   0.909   0.365  1.00  0.00    -0.493 OA
ATOM     14  C   UNL     1       0.329  -0.411   0.253  1.00  0.00     0.278 C 
ENDBRANCH   8  13
BRANCH  10  15
ATOM     15  O   UNL     1       3.582   1.516   1.105  1.00  0.00    -0.493 OA
ATOM     16  C   UNL     1       3.611   0.319   0.338  1.00  0.00     0.278 C 
ENDBRANCH  10  15
BRANCH  11  17
ATOM     17  N   UNL     1      -0.623   3.018   4.426  1.00  0.00    -0.322 N 
ATOM     18  C   UNL     1      -1.950   3.273   4.221  1.00  0.00     0.248 C 
ATOM     19  H   UNL     1      -0.304   3.370   5.288  1.00  0.00     0.170 HD
ATOM     20  O   UNL     1      -2.583   3.958   5.023  1.00  0.00    -0.270 OA
BRANCH  18  21
ATOM     21  C   UNL     1      -2.687   2.686   3.088  1.00  0.00     0.072 C 
ATOM     22  C   UNL     1      -2.428   2.989   1.807  1.00  0.00     0.014 C 
BRANCH  22  23
ATOM     23  C   UNL     1      -2.995   2.211   0.695  1.00  0.00    -0.019 A 
ATOM     24  C   UNL     1      -3.054   0.805   0.756  1.00  0.00     0.008 A 
ATOM     25  C   UNL     1      -3.355   2.851  -0.492  1.00  0.00     0.093 A 
ATOM     26  C   UNL     1      -3.445   0.045  -0.347  1.00  0.00     0.008 A 
ATOM     27  C   UNL     1      -3.778   2.085  -1.589  1.00  0.00     0.270 A 
ATOM     28  C   UNL     1      -3.808   0.684  -1.527  1.00  0.00     0.085 A 
BRANCH  27  29
ATOM     29  N   UNL     1      -4.199   2.757  -2.822  1.00  0.00     0.062 N 
ATOM     30  O   UNL     1      -4.486   2.045  -3.796  1.00  0.00    -0.258 OA
ATOM     31  O   UNL     1      -4.256   3.994  -2.816  1.00  0.00    -0.258 OA
ENDBRANCH  27  29
ENDBRANCH  22  23
ENDBRANCH  18  21
ENDBRANCH  11  17
ENDBRANCH   4   7
ENDBRANCH   2   3
ENDBRANCH   1   2
BRANCH   1  32
ATOM     32  C   UNL     1       6.336   3.504   6.242  1.00  0.00     0.023 C 
BRANCH  32  33
ATOM     33  C   UNL     1       7.079   2.522   7.133  1.00  0.00     0.116 C 
BRANCH  33  34
ATOM     34  N   UNL     1       7.907   1.589   6.383  1.00  0.00    -0.352 N 
ATOM     35  C   UNL     1       9.089   1.011   6.770  1.00  0.00     0.251 C 
ATOM     36  H   UNL     1       7.579   1.343   5.488  1.00  0.00     0.163 HD
ATOM     37  O   UNL     1       9.741   0.339   5.977  1.00  0.00    -0.269 OA
BRANCH  35  38
ATOM     38  C   UNL     1       9.577   1.246   8.142  1.00  0.00     0.039 A 
ATOM     39  C   UNL     1      10.893   1.670   8.326  1.00  0.00     0.014 A 
ATOM     40  C   UNL     1       8.716   1.096   9.234  1.00  0.00     0.014 A 
ATOM     41  C   UNL     1      11.334   1.987   9.609  1.00  0.00     0.010 A 
ATOM     42  C   UNL     1       9.132   1.496  10.497  1.00  0.00     0.010 A 
ATOM     43  C   UNL     1      10.450   1.928  10.700  1.00  0.00    -0.014 A 
BRANCH  43  44
ATOM     44  C   UNL     1      10.900   2.290  12.065  1.00  0.00     0.031 A 
ATOM     45  C   UNL     1      10.911   1.250  13.152  1.00  0.00     0.074 A 
ATOM     46  C   UNL     1      11.247   3.563  12.335  1.00  0.00     0.049 A 
ATOM     47  N   UNL     1      11.246   1.374  14.409  1.00  0.00    -0.248 NA
ATOM     48  C   UNL     1      10.453  -0.100  12.784  1.00  0.00     0.031 C 
ATOM     49  C   UNL     1      11.207   4.672  11.379  1.00  0.00     0.029 A 
ATOM     50  N   UNL     1      11.695   4.141  13.495  1.00  0.00    -0.354 N 
ATOM     51  C   UNL     1      11.032   0.126  14.982  1.00  0.00     0.074 A 
ATOM     52  C   UNL     1      10.471  -0.721  13.953  1.00  0.00     0.031 C 
ATOM     53  C   UNL     1      11.633   5.791  11.986  1.00  0.00     0.029 A 
ATOM     54  C   UNL     1      11.948   5.487  13.379  1.00  0.00     0.049 A 
ATOM     55  H   UNL     1      11.824   3.639  14.332  1.00  0.00     0.167 HD
ATOM     56  C   UNL     1      11.307  -0.286  16.242  1.00  0.00     0.037 A 
ATOM     57  C   UNL     1      12.383   6.375  14.293  1.00  0.00     0.037 A 
ATOM     58  C   UNL     1      11.882   0.561  17.253  1.00  0.00     0.049 A 
ATOM     59  C   UNL     1      12.705   5.894  15.681  1.00  0.00     0.074 A 
ATOM     60  C   UNL     1      12.256   0.232  18.543  1.00  0.00     0.029 A 
ATOM     61  N   UNL     1      12.162   1.911  17.087  1.00  0.00    -0.354 N 
ATOM     62  N   UNL     1      12.575   4.689  16.185  1.00  0.00    -0.248 NA
ATOM     63  C   UNL     1      13.248   6.884  16.619  1.00  0.00     0.031 C 
ATOM     64  C   UNL     1      12.719   1.393  19.173  1.00  0.00     0.029 A 
ATOM     65  C   UNL     1      12.686   2.434  18.258  1.00  0.00     0.049 A 
ATOM     66  H   UNL     1      12.011   2.422  16.259  1.00  0.00     0.167 HD
ATOM     67  C   UNL     1      13.040   4.771  17.493  1.00  0.00     0.074 A 
ATOM     68  C   UNL     1      13.470   6.140  17.694  1.00  0.00     0.031 C 
ATOM     69  C   UNL     1      13.107   3.802  18.441  1.00  0.00     0.037 A 
BRANCH  56  70
ATOM     70  C   UNL     1      10.987  -1.716  16.587  1.00  0.00     0.058 A 
ATOM     71  C   UNL     1      11.692  -2.790  16.015  1.00  0.00     0.135 A 
ATOM     72  C   UNL     1       9.964  -2.021  17.498  1.00  0.00     0.135 A 
ATOM     73  F   UNL     1      12.670  -2.559  15.125  1.00  0.00    -0.206 F 
ATOM     74  C   UNL     1      11.363  -4.111  16.297  1.00  0.00     0.059 A 
ATOM     75  C   UNL     1       9.639  -3.336  17.821  1.00  0.00     0.059 A 
ATOM     76  F   UNL     1       9.258  -1.037  18.077  1.00  0.00    -0.206 F 
ATOM     77  C   UNL     1      10.330  -4.375  17.198  1.00  0.00     0.060 A 
BRANCH  77  78
ATOM     78  S   UNL     1       9.900  -6.095  17.536  1.00  0.00     0.124 S 
ATOM     79  O   UNL     1       9.223  -6.472  16.299  1.00  0.00    -0.237 OA
ATOM     80  O   UNL     1      11.207  -6.707  17.754  1.00  0.00    -0.237 OA
ATOM     81  O   UNL     1       9.047  -6.006  18.717  1.00  0.00    -0.744 OA
ENDBRANCH  77  78
ENDBRANCH  56  70
BRANCH  57  82
ATOM     82  C   UNL     1      12.562   7.800  13.907  1.00  0.00     0.058 A 
ATOM     83  C   UNL     1      13.839   8.360  13.765  1.00  0.00     0.135 A 
ATOM     84  C   UNL     1      11.455   8.619  13.631  1.00  0.00     0.135 A 
ATOM     85  F   UNL     1      14.928   7.619  14.021  1.00  0.00    -0.206 F 
ATOM     86  C   UNL     1      14.016   9.684  13.374  1.00  0.00     0.059 A 
ATOM     87  C   UNL     1      11.606   9.938  13.213  1.00  0.00     0.059 A 
ATOM     88  F   UNL     1      10.211   8.125  13.732  1.00  0.00    -0.206 F 
ATOM     89  C   UNL     1      12.892  10.463  13.094  1.00  0.00     0.060 A 
BRANCH  89  90
ATOM     90  S   UNL     1      13.135  12.158  12.520  1.00  0.00     0.124 S 
ATOM     91  O   UNL     1      13.568  12.823  13.743  1.00  0.00    -0.237 OA
ATOM     92  O   UNL     1      14.153  11.989  11.489  1.00  0.00    -0.237 OA
ATOM     93  O   UNL     1      11.814  12.538  12.029  1.00  0.00    -0.744 OA
ENDBRANCH  89  90
ENDBRANCH  57  82
BRANCH  69  94
ATOM     94  C   UNL     1      13.692   4.181  19.774  1.00  0.00     0.058 A 
ATOM     95  C   UNL     1      13.003   5.005  20.677  1.00  0.00     0.135 A 
ATOM     96  C   UNL     1      14.942   3.676  20.169  1.00  0.00     0.135 A 
ATOM     97  F   UNL     1      11.807   5.518  20.347  1.00  0.00    -0.206 F 
ATOM     98  C   UNL     1      13.546   5.341  21.912  1.00  0.00     0.059 A 
ATOM     99  C   UNL     1      15.490   3.974  21.412  1.00  0.00     0.059 A 
ATOM    100  F   UNL     1      15.637   2.872  19.348  1.00  0.00    -0.206 F 
ATOM    101  C   UNL     1      14.791   4.821  22.271  1.00  0.00     0.060 A 
BRANCH 101 102
ATOM    102  S   UNL     1      15.476   5.247  23.885  1.00  0.00     0.124 S 
ATOM    103  O   UNL     1      15.886   6.631  23.674  1.00  0.00    -0.237 OA
ATOM    104  O   UNL     1      14.333   5.052  24.771  1.00  0.00    -0.237 OA
ATOM    105  O   UNL     1      16.565   4.289  24.057  1.00  0.00    -0.744 OA
ENDBRANCH 101 102
ENDBRANCH  69  94
ENDBRANCH  43  44
ENDBRANCH  35  38
ENDBRANCH  33  34
ENDBRANCH  32  33
ENDBRANCH   1  32
TORSDOF 20
