REMARK SMILES CC[C@@](O)(C(=O)NCCCCNC(=O)c1ccc(-c2c3nc(c(-c4c(F)cc(S(=O)(=O)[O-])cc4F)c4ccc([nH]4)c(-c4c(F)cc(S(=O)(=O)[O-])cc4F)c4nc(c(-c5c(F)cc(S(=O)(=O)[O-])cc5F)c5ccc2[nH]5)C=C4)C=C3)cc1)[C@@H]1CCOc2ccccc21
REMARK SMILES IDX 10 1 9 2 8 3 7 4 5 5 6 6 3 8 2 9 1 10 4 11 81 13 82 14 90 15
REMARK SMILES IDX 83 16 85 17 89 18 84 19 86 20 88 21 87 22 11 23 12 24 13 25
REMARK SMILES IDX 14 27 15 28 16 29 80 30 17 31 79 32 18 33 19 34 20 35 73 36
REMARK SMILES IDX 21 37 78 38 72 39 74 40 22 41 77 42 71 43 70 44 23 46 57 47
REMARK SMILES IDX 36 48 56 49 37 50 40 51 55 52 75 53 38 54 39 55 54 57 76 58
REMARK SMILES IDX 41 59 24 60 25 61 34 62 26 63 27 64 33 65 35 66 28 67 29 68
REMARK SMILES IDX 30 69 31 70 32 71 58 72 59 73 68 74 60 75 61 76 67 77 69 78
REMARK SMILES IDX 62 79 63 80 64 81 65 82 66 83 42 84 43 85 52 86 44 87 45 88
REMARK SMILES IDX 51 89 53 90 46 91 47 92 48 93 49 94 50 95
REMARK H PARENT 7 7 4 12 12 26 74 45 40 56
REMARK Flexibility Score: inf
ROOT
ATOM      1  C   UNL     1      -3.987   2.599  -3.071  1.00  0.00     0.023 C 
ENDROOT
BRANCH   1   2
ATOM      2  C   UNL     1      -3.261   1.824  -1.972  1.00  0.00     0.023 C 
BRANCH   2   3
ATOM      3  C   UNL     1      -2.322   0.731  -2.468  1.00  0.00     0.116 C 
BRANCH   3   4
ATOM      4  N   UNL     1      -1.227   1.278  -3.247  1.00  0.00    -0.354 N 
ATOM      5  C   UNL     1       0.117   1.086  -3.117  1.00  0.00     0.252 C 
ATOM      6  O   UNL     1       0.845   1.698  -3.905  1.00  0.00    -0.272 OA
ATOM      7  H   UNL     1      -1.495   1.877  -3.981  1.00  0.00     0.163 HD
BRANCH   5   8
ATOM      8  C   UNL     1       0.707   0.188  -1.970  1.00  0.00     0.149 C 
BRANCH   8   9
ATOM      9  C   UNL     1       0.683   1.084  -0.701  1.00  0.00     0.043 C 
ATOM     10  C   UNL     1       0.681   0.384   0.654  1.00  0.00     0.007 C 
ENDBRANCH   8   9
BRANCH   8  11
ATOM     11  O   UNL     1      -0.114  -0.968  -1.752  1.00  0.00    -0.379 OA
ATOM     12  H   UNL     1      -0.992  -0.688  -1.449  1.00  0.00     0.212 HD
ENDBRANCH   8  11
BRANCH   8  13
ATOM     13  C   UNL     1       2.140  -0.264  -2.466  1.00  0.00     0.068 C 
ATOM     14  C   UNL     1       2.003  -1.131  -3.753  1.00  0.00     0.053 C 
ATOM     15  C   UNL     1       2.943  -1.016  -1.423  1.00  0.00     0.001 A 
ATOM     16  C   UNL     1       2.460  -2.573  -3.588  1.00  0.00     0.230 C 
ATOM     17  C   UNL     1       2.832  -2.408  -1.346  1.00  0.00     0.122 A 
ATOM     18  C   UNL     1       3.760  -0.358  -0.498  1.00  0.00     0.008 A 
ATOM     19  O   UNL     1       2.120  -3.092  -2.296  1.00  0.00    -0.493 OA
ATOM     20  C   UNL     1       3.409  -3.127  -0.307  1.00  0.00     0.047 A 
ATOM     21  C   UNL     1       4.369  -1.077   0.533  1.00  0.00     0.001 A 
ATOM     22  C   UNL     1       4.177  -2.455   0.641  1.00  0.00     0.004 A 
ENDBRANCH   8  13
ENDBRANCH   5   8
ENDBRANCH   3   4
ENDBRANCH   2   3
ENDBRANCH   1   2
BRANCH   1  23
ATOM     23  C   UNL     1      -4.742   1.737  -4.077  1.00  0.00     0.116 C 
BRANCH  23  24
ATOM     24  N   UNL     1      -5.707   0.846  -3.445  1.00  0.00    -0.352 N 
ATOM     25  C   UNL     1      -7.063   0.748  -3.653  1.00  0.00     0.251 C 
ATOM     26  H   UNL     1      -5.336   0.227  -2.776  1.00  0.00     0.163 HD
ATOM     27  O   UNL     1      -7.757   0.042  -2.935  1.00  0.00    -0.269 OA
BRANCH  25  28
ATOM     28  C   UNL     1      -7.671   1.539  -4.741  1.00  0.00     0.039 A 
ATOM     29  C   UNL     1      -8.714   2.416  -4.439  1.00  0.00     0.014 A 
ATOM     30  C   UNL     1      -7.149   1.464  -6.035  1.00  0.00     0.014 A 
ATOM     31  C   UNL     1      -9.171   3.298  -5.420  1.00  0.00     0.010 A 
ATOM     32  C   UNL     1      -7.563   2.385  -6.991  1.00  0.00     0.010 A 
ATOM     33  C   UNL     1      -8.561   3.324  -6.685  1.00  0.00    -0.014 A 
BRANCH  33  34
ATOM     34  C   UNL     1      -8.901   4.361  -7.691  1.00  0.00     0.031 A 
ATOM     35  C   UNL     1      -9.511   3.962  -9.004  1.00  0.00     0.074 A 
ATOM     36  C   UNL     1      -8.545   5.642  -7.463  1.00  0.00     0.049 A 
ATOM     37  N   UNL     1      -9.740   4.696 -10.061  1.00  0.00    -0.248 NA
ATOM     38  C   UNL     1      -9.884   2.547  -9.162  1.00  0.00     0.031 C 
ATOM     39  C   UNL     1      -7.887   6.137  -6.250  1.00  0.00     0.029 A 
ATOM     40  N   UNL     1      -8.653   6.758  -8.256  1.00  0.00    -0.354 N 
ATOM     41  C   UNL     1     -10.254   3.830 -11.018  1.00  0.00     0.074 A 
ATOM     42  C   UNL     1     -10.282   2.511 -10.426  1.00  0.00     0.031 C 
ATOM     43  C   UNL     1      -7.646   7.452  -6.383  1.00  0.00     0.029 A 
ATOM     44  C   UNL     1      -8.095   7.887  -7.701  1.00  0.00     0.049 A 
ATOM     45  H   UNL     1      -9.089   6.751  -9.139  1.00  0.00     0.167 HD
ATOM     46  C   UNL     1     -10.677   4.118 -12.271  1.00  0.00     0.037 A 
ATOM     47  C   UNL     1      -7.937   9.125  -8.208  1.00  0.00     0.037 A 
ATOM     48  C   UNL     1     -10.694   5.442 -12.832  1.00  0.00     0.049 A 
ATOM     49  C   UNL     1      -8.433   9.417  -9.598  1.00  0.00     0.074 A 
ATOM     50  C   UNL     1     -11.218   5.853 -14.045  1.00  0.00     0.029 A 
ATOM     51  N   UNL     1     -10.160   6.568 -12.224  1.00  0.00    -0.354 N 
ATOM     52  N   UNL     1      -9.012   8.607 -10.451  1.00  0.00    -0.248 NA
ATOM     53  C   UNL     1      -8.253  10.788 -10.096  1.00  0.00     0.031 C 
ATOM     54  C   UNL     1     -10.963   7.220 -14.190  1.00  0.00     0.029 A 
ATOM     55  C   UNL     1     -10.312   7.667 -13.052  1.00  0.00     0.049 A 
ATOM     56  H   UNL     1      -9.736   6.583 -11.336  1.00  0.00     0.167 HD
ATOM     57  C   UNL     1      -9.275   9.372 -11.581  1.00  0.00     0.074 A 
ATOM     58  C   UNL     1      -8.811  10.714 -11.297  1.00  0.00     0.031 C 
ATOM     59  C   UNL     1      -9.846   8.996 -12.751  1.00  0.00     0.037 A 
BRANCH  46  60
ATOM     60  C   UNL     1     -11.170   2.988 -13.128  1.00  0.00     0.058 A 
ATOM     61  C   UNL     1     -12.424   2.397 -12.914  1.00  0.00     0.135 A 
ATOM     62  C   UNL     1     -10.415   2.551 -14.228  1.00  0.00     0.135 A 
ATOM     63  F   UNL     1     -13.177   2.768 -11.866  1.00  0.00    -0.206 F 
ATOM     64  C   UNL     1     -12.912   1.406 -13.759  1.00  0.00     0.059 A 
ATOM     65  C   UNL     1     -10.892   1.576 -15.098  1.00  0.00     0.059 A 
ATOM     66  F   UNL     1      -9.206   3.082 -14.472  1.00  0.00    -0.206 F 
ATOM     67  C   UNL     1     -12.141   1.007 -14.853  1.00  0.00     0.060 A 
BRANCH  67  68
ATOM     68  S   UNL     1     -12.811  -0.245 -15.968  1.00  0.00     0.124 S 
ATOM     69  O   UNL     1     -12.666  -1.456 -15.166  1.00  0.00    -0.237 OA
ATOM     70  O   UNL     1     -14.180   0.218 -16.172  1.00  0.00    -0.237 OA
ATOM     71  O   UNL     1     -11.942  -0.159 -17.137  1.00  0.00    -0.744 OA
ENDBRANCH  67  68
ENDBRANCH  46  60
BRANCH  47  72
ATOM     72  C   UNL     1      -7.259  10.181  -7.410  1.00  0.00     0.058 A 
ATOM     73  C   UNL     1      -7.977  11.266  -6.888  1.00  0.00     0.135 A 
ATOM     74  C   UNL     1      -5.876  10.136  -7.171  1.00  0.00     0.135 A 
ATOM     75  F   UNL     1      -9.300  11.356  -7.096  1.00  0.00    -0.206 F 
ATOM     76  C   UNL     1      -7.347  12.284  -6.180  1.00  0.00     0.059 A 
ATOM     77  C   UNL     1      -5.227  11.130  -6.446  1.00  0.00     0.059 A 
ATOM     78  F   UNL     1      -5.147   9.109  -7.634  1.00  0.00    -0.206 F 
ATOM     79  C   UNL     1      -5.969  12.210  -5.969  1.00  0.00     0.060 A 
BRANCH  79  80
ATOM     80  S   UNL     1      -5.159  13.524  -5.032  1.00  0.00     0.124 S 
ATOM     81  O   UNL     1      -5.074  14.584  -6.030  1.00  0.00    -0.237 OA
ATOM     82  O   UNL     1      -6.099  13.751  -3.939  1.00  0.00    -0.237 OA
ATOM     83  O   UNL     1      -3.889  12.919  -4.641  1.00  0.00    -0.744 OA
ENDBRANCH  79  80
ENDBRANCH  47  72
BRANCH  59  84
ATOM     84  C   UNL     1     -10.012  10.047 -13.810  1.00  0.00     0.058 A 
ATOM     85  C   UNL     1      -8.922  10.489 -14.575  1.00  0.00     0.135 A 
ATOM     86  C   UNL     1     -11.282  10.565 -14.109  1.00  0.00     0.135 A 
ATOM     87  F   UNL     1      -7.687  10.030 -14.319  1.00  0.00    -0.206 F 
ATOM     88  C   UNL     1      -9.084  11.416 -15.598  1.00  0.00     0.059 A 
ATOM     89  C   UNL     1     -11.470  11.476 -15.143  1.00  0.00     0.059 A 
ATOM     90  F   UNL     1     -12.357  10.167 -13.410  1.00  0.00    -0.206 F 
ATOM     91  C   UNL     1     -10.364  11.901 -15.878  1.00  0.00     0.060 A 
BRANCH  91  92
ATOM     92  S   UNL     1     -10.570  13.062 -17.244  1.00  0.00     0.124 S 
ATOM     93  O   UNL     1     -10.058  14.297 -16.661  1.00  0.00    -0.237 OA
ATOM     94  O   UNL     1      -9.746  12.466 -18.291  1.00  0.00    -0.237 OA
ATOM     95  O   UNL     1     -12.008  13.036 -17.497  1.00  0.00    -0.744 OA
ENDBRANCH  91  92
ENDBRANCH  59  84
ENDBRANCH  33  34
ENDBRANCH  25  28
ENDBRANCH  23  24
ENDBRANCH   1  23
TORSDOF 17
