REMARK SMILES CC1(C)[C@@](C)(C(=O)NCCCCNC(=O)c2ccc(-c3c4nc(c(-c5c(F)cc(S(=O)(=O)[O-])cc5F)c5ccc([nH]5)c(-c5c(F)cc(S(=O)(=O)[O-])cc5F)c5nc(c(-c6c(F)cc(S(=O)(=O)[O-])cc6F)c6ccc3[nH]6)C=C5)C=C4)cc2)[C@@]12CC[C@@H]2C(=O)NCc1ccco1
REMARK SMILES IDX 10 1 9 2 8 3 6 4 7 5 4 7 1 8 2 9 3 10 82 11 5 12 83 13 85 14
REMARK SMILES IDX 84 15 86 16 87 17 88 18 89 20 90 21 91 22 94 23 92 24 93 25
REMARK SMILES IDX 11 26 12 27 13 28 14 29 15 31 16 32 17 33 81 34 18 35 80 36
REMARK SMILES IDX 19 37 20 38 21 39 74 40 22 41 79 42 73 43 75 44 23 45 78 46
REMARK SMILES IDX 72 47 71 48 24 50 58 51 37 52 57 53 38 54 41 55 56 56 76 57
REMARK SMILES IDX 39 58 40 59 55 61 77 62 42 63 25 64 26 65 35 66 27 67 28 68
REMARK SMILES IDX 34 69 36 70 29 71 30 72 31 73 32 74 33 75 59 76 60 77 69 78
REMARK SMILES IDX 61 79 62 80 68 81 70 82 63 83 64 84 65 85 66 86 67 87 43 88
REMARK SMILES IDX 44 89 53 90 45 91 46 92 52 93 54 94 47 95 48 96 49 97 50 98
REMARK SMILES IDX 51 99
REMARK H PARENT 8 6 88 19 13 30 75 49 41 60
REMARK Flexibility Score: inf
ROOT
ATOM      1  C   UNL     1       0.356   3.041   2.399  1.00  0.00     0.023 C 
ENDROOT
BRANCH   1   2
ATOM      2  C   UNL     1      -0.144   1.707   2.957  1.00  0.00     0.116 C 
BRANCH   2   3
ATOM      3  N   UNL     1      -1.384   1.317   2.322  1.00  0.00    -0.356 N 
ATOM      4  C   UNL     1      -1.738   0.151   1.707  1.00  0.00     0.227 C 
ATOM      5  O   UNL     1      -2.877   0.038   1.272  1.00  0.00    -0.274 OA
ATOM      6  H   UNL     1      -2.088   2.005   2.336  1.00  0.00     0.163 HD
BRANCH   4   7
ATOM      7  C   UNL     1      -0.794  -1.023   1.681  1.00  0.00     0.059 C 
ATOM      8  C   UNL     1       0.935   0.206   0.104  1.00  0.00     0.013 C 
ATOM      9  C   UNL     1       0.505  -1.048   0.844  1.00  0.00    -0.013 C 
ATOM     10  C   UNL     1       1.708  -1.855   1.286  1.00  0.00     0.013 C 
ATOM     11  C   UNL     1      -0.732  -1.788   0.350  1.00  0.00     0.003 C 
ATOM     12  C   UNL     1      -0.815  -1.811   2.983  1.00  0.00     0.023 C 
ATOM     13  C   UNL     1      -1.289  -1.458  -0.999  1.00  0.00     0.010 C 
ATOM     14  C   UNL     1      -0.928  -3.267   0.154  1.00  0.00     0.086 C 
ATOM     15  C   UNL     1      -1.266  -2.955  -1.304  1.00  0.00     0.015 C 
BRANCH  14  16
ATOM     16  C   UNL     1      -1.910  -4.069   1.038  1.00  0.00     0.224 C 
ATOM     17  O   UNL     1      -1.510  -5.025   1.728  1.00  0.00    -0.275 OA
ATOM     18  N   UNL     1      -3.263  -3.844   1.107  1.00  0.00    -0.349 N 
ATOM     19  H   UNL     1      -3.757  -4.515   1.631  1.00  0.00     0.163 HD
BRANCH  18  20
ATOM     20  C   UNL     1      -4.093  -2.799   0.550  1.00  0.00     0.191 C 
BRANCH  20  21
ATOM     21  C   UNL     1      -4.907  -3.299  -0.586  1.00  0.00     0.122 A 
ATOM     22  C   UNL     1      -5.122  -4.530  -1.173  1.00  0.00     0.047 A 
ATOM     23  O   UNL     1      -5.637  -2.348  -1.242  1.00  0.00    -0.467 OA
ATOM     24  C   UNL     1      -6.029  -4.316  -2.241  1.00  0.00     0.042 A 
ATOM     25  C   UNL     1      -6.311  -2.971  -2.240  1.00  0.00     0.195 A 
ENDBRANCH  20  21
ENDBRANCH  18  20
ENDBRANCH  14  16
ENDBRANCH   4   7
ENDBRANCH   2   3
ENDBRANCH   1   2
BRANCH   1  26
ATOM     26  C   UNL     1      -0.574   4.236   2.651  1.00  0.00     0.023 C 
BRANCH  26  27
ATOM     27  C   UNL     1      -0.807   4.582   4.119  1.00  0.00     0.116 C 
BRANCH  27  28
ATOM     28  N   UNL     1       0.412   5.012   4.781  1.00  0.00    -0.352 N 
ATOM     29  C   UNL     1       0.650   6.126   5.548  1.00  0.00     0.251 C 
ATOM     30  H   UNL     1       1.185   4.413   4.662  1.00  0.00     0.163 HD
ATOM     31  O   UNL     1       1.806   6.398   5.863  1.00  0.00    -0.269 OA
BRANCH  29  32
ATOM     32  C   UNL     1      -0.461   7.006   5.981  1.00  0.00     0.039 A 
ATOM     33  C   UNL     1      -0.262   8.390   5.964  1.00  0.00     0.014 A 
ATOM     34  C   UNL     1      -1.673   6.485   6.445  1.00  0.00     0.014 A 
ATOM     35  C   UNL     1      -1.288   9.249   6.367  1.00  0.00     0.010 A 
ATOM     36  C   UNL     1      -2.717   7.344   6.790  1.00  0.00     0.010 A 
ATOM     37  C   UNL     1      -2.533   8.734   6.763  1.00  0.00    -0.014 A 
BRANCH  37  38
ATOM     38  C   UNL     1      -3.643   9.643   7.150  1.00  0.00     0.031 A 
ATOM     39  C   UNL     1      -4.160   9.664   8.562  1.00  0.00     0.074 A 
ATOM     40  C   UNL     1      -4.228  10.414   6.213  1.00  0.00     0.049 A 
ATOM     41  N   UNL     1      -5.133  10.373   9.077  1.00  0.00    -0.248 NA
ATOM     42  C   UNL     1      -3.518   8.746   9.516  1.00  0.00     0.031 C 
ATOM     43  C   UNL     1      -3.870  10.435   4.793  1.00  0.00     0.029 A 
ATOM     44  N   UNL     1      -5.254  11.319   6.311  1.00  0.00    -0.354 N 
ATOM     45  C   UNL     1      -5.230   9.979  10.406  1.00  0.00     0.074 A 
ATOM     46  C   UNL     1      -4.248   8.933  10.605  1.00  0.00     0.031 C 
ATOM     47  C   UNL     1      -4.658  11.316   4.155  1.00  0.00     0.029 A 
ATOM     48  C   UNL     1      -5.586  11.908   5.115  1.00  0.00     0.049 A 
ATOM     49  H   UNL     1      -5.710  11.527   7.158  1.00  0.00     0.167 HD
ATOM     50  C   UNL     1      -6.047  10.456  11.377  1.00  0.00     0.037 A 
ATOM     51  C   UNL     1      -6.529  12.824   4.821  1.00  0.00     0.037 A 
ATOM     52  C   UNL     1      -7.008  11.510  11.184  1.00  0.00     0.049 A 
ATOM     53  C   UNL     1      -7.382  13.385   5.922  1.00  0.00     0.074 A 
ATOM     54  C   UNL     1      -7.837  12.106  12.119  1.00  0.00     0.029 A 
ATOM     55  N   UNL     1      -7.271  12.128   9.970  1.00  0.00    -0.354 N 
ATOM     56  N   UNL     1      -7.408  13.056   7.192  1.00  0.00    -0.248 NA
ATOM     57  C   UNL     1      -8.318  14.456   5.557  1.00  0.00     0.031 C 
ATOM     58  C   UNL     1      -8.620  13.065  11.465  1.00  0.00     0.029 A 
ATOM     59  C   UNL     1      -8.255  13.091  10.128  1.00  0.00     0.049 A 
ATOM     60  H   UNL     1      -6.824  11.913   9.119  1.00  0.00     0.167 HD
ATOM     61  C   UNL     1      -8.352  13.888   7.781  1.00  0.00     0.074 A 
ATOM     62  C   UNL     1      -8.862  14.748   6.731  1.00  0.00     0.031 C 
ATOM     63  C   UNL     1      -8.759  13.935   9.074  1.00  0.00     0.037 A 
BRANCH  50  64
ATOM     64  C   UNL     1      -5.926   9.829  12.739  1.00  0.00     0.058 A 
ATOM     65  C   UNL     1      -4.801  10.048  13.552  1.00  0.00     0.135 A 
ATOM     66  C   UNL     1      -6.936   8.988  13.233  1.00  0.00     0.135 A 
ATOM     67  F   UNL     1      -3.800  10.833  13.123  1.00  0.00    -0.206 F 
ATOM     68  C   UNL     1      -4.659   9.416  14.783  1.00  0.00     0.059 A 
ATOM     69  C   UNL     1      -6.826   8.365  14.473  1.00  0.00     0.059 A 
ATOM     70  F   UNL     1      -8.034   8.747  12.500  1.00  0.00    -0.206 F 
ATOM     71  C   UNL     1      -5.671   8.566  15.229  1.00  0.00     0.060 A 
BRANCH  71  72
ATOM     72  S   UNL     1      -5.458   7.717  16.808  1.00  0.00     0.124 S 
ATOM     73  O   UNL     1      -4.553   6.635  16.434  1.00  0.00    -0.237 OA
ATOM     74  O   UNL     1      -4.883   8.758  17.654  1.00  0.00    -0.237 OA
ATOM     75  O   UNL     1      -6.815   7.309  17.158  1.00  0.00    -0.744 OA
ENDBRANCH  71  72
ENDBRANCH  50  64
BRANCH  51  76
ATOM     76  C   UNL     1      -6.677  13.290   3.418  1.00  0.00     0.058 A 
ATOM     77  C   UNL     1      -6.194  14.544   3.020  1.00  0.00     0.135 A 
ATOM     78  C   UNL     1      -7.252  12.465   2.439  1.00  0.00     0.135 A 
ATOM     79  F   UNL     1      -5.641  15.368   3.924  1.00  0.00    -0.206 F 
ATOM     80  C   UNL     1      -6.273  14.967   1.698  1.00  0.00     0.059 A 
ATOM     81  C   UNL     1      -7.325  12.858   1.107  1.00  0.00     0.059 A 
ATOM     82  F   UNL     1      -7.712  11.249   2.771  1.00  0.00    -0.206 F 
ATOM     83  C   UNL     1      -6.835  14.113   0.746  1.00  0.00     0.060 A 
BRANCH  83  84
ATOM     84  S   UNL     1      -6.851  14.631  -0.984  1.00  0.00     0.124 S 
ATOM     85  O   UNL     1      -7.956  15.582  -0.996  1.00  0.00    -0.237 OA
ATOM     86  O   UNL     1      -5.516  15.199  -1.149  1.00  0.00    -0.237 OA
ATOM     87  O   UNL     1      -7.082  13.381  -1.704  1.00  0.00    -0.744 OA
ENDBRANCH  83  84
ENDBRANCH  51  76
BRANCH  63  88
ATOM     88  C   UNL     1      -9.797  14.964   9.426  1.00  0.00     0.058 A 
ATOM     89  C   UNL     1     -11.141  14.811   9.052  1.00  0.00     0.135 A 
ATOM     90  C   UNL     1      -9.446  16.108  10.160  1.00  0.00     0.135 A 
ATOM     91  F   UNL     1     -11.527  13.737   8.344  1.00  0.00    -0.206 F 
ATOM     92  C   UNL     1     -12.096  15.773   9.364  1.00  0.00     0.059 A 
ATOM     93  C   UNL     1     -10.389  17.072  10.503  1.00  0.00     0.059 A 
ATOM     94  F   UNL     1      -8.176  16.297  10.552  1.00  0.00    -0.206 F 
ATOM     95  C   UNL     1     -11.709  16.904  10.085  1.00  0.00     0.060 A 
BRANCH  95  96
ATOM     96  S   UNL     1     -12.954  18.147  10.492  1.00  0.00     0.124 S 
ATOM     97  O   UNL     1     -13.070  18.869   9.229  1.00  0.00    -0.237 OA
ATOM     98  O   UNL     1     -14.106  17.332  10.865  1.00  0.00    -0.237 OA
ATOM     99  O   UNL     1     -12.341  18.892  11.588  1.00  0.00    -0.744 OA
ENDBRANCH  95  96
ENDBRANCH  63  88
ENDBRANCH  37  38
ENDBRANCH  29  32
ENDBRANCH  27  28
ENDBRANCH  26  27
ENDBRANCH   1  26
TORSDOF 17
