REMARK SMILES C[C@H](NC(=O)CCN1C(=O)/C(=C/c2ccc([N+](=O)[O-])cc2)SC1=S)C(=O)NCCCCNC(=O)c1ccc(-c2c3nc(c(-c4c(F)cc(S(=O)(=O)[O-])cc4F)c4ccc([nH]4)c(-c4c(F)cc(S(=O)(=O)[O-])cc4F)c4nc(c(-c5c(F)cc(S(=O)(=O)[O-])cc5F)c5ccc2[nH]5)C=C4)C=C3)cc1
REMARK SMILES IDX 28 1 27 2 25 3 26 4 2 6 1 7 3 8 4 9 5 11 6 12 7 13 8 14 9 15
REMARK SMILES IDX 23 16 10 17 11 18 22 19 24 20 12 21 13 22 14 23 21 24 15 25
REMARK SMILES IDX 20 26 16 27 17 28 18 29 19 30 29 31 30 32 31 33 32 34 33 35
REMARK SMILES IDX 34 37 35 38 36 39 100 40 37 41 99 42 38 43 39 44 40 45 93 46
REMARK SMILES IDX 41 47 98 48 92 49 94 50 42 51 97 52 91 53 90 54 43 56 77 57
REMARK SMILES IDX 56 58 76 59 57 60 60 61 75 62 95 63 58 64 59 65 74 67 96 68
REMARK SMILES IDX 61 69 44 70 45 71 54 72 46 73 47 74 53 75 55 76 48 77 49 78
REMARK SMILES IDX 50 79 51 80 52 81 78 82 79 83 88 84 80 85 81 86 87 87 89 88
REMARK SMILES IDX 82 89 83 90 84 91 85 92 86 93 62 94 63 95 72 96 64 97 65 98
REMARK SMILES IDX 71 99 73 100 66 101 67 102 68 103 69 104 70 105
REMARK H PARENT 27 5 3 10 32 36 94 55 60 66
REMARK Flexibility Score: inf
ROOT
ATOM      1  C   UNL     1      -0.930   1.515  -1.212  1.00  0.00     0.116 C 
ENDROOT
BRANCH   1   2
ATOM      2  N   UNL     1      -1.286   0.309  -0.486  1.00  0.00    -0.354 N 
ATOM      3  C   UNL     1      -0.569  -0.413   0.427  1.00  0.00     0.242 C 
ATOM      4  O   UNL     1      -1.182  -1.295   1.040  1.00  0.00    -0.273 OA
ATOM      5  H   UNL     1      -2.184  -0.044  -0.682  1.00  0.00     0.163 HD
BRANCH   3   6
ATOM      6  C   UNL     1       0.974  -0.281   0.608  1.00  0.00     0.168 C 
ATOM      7  C   UNL     1       1.434  -0.619   2.024  1.00  0.00     0.041 C 
BRANCH   6   8
ATOM      8  N   UNL     1       1.650   0.867   0.008  1.00  0.00    -0.345 N 
ATOM      9  C   UNL     1       1.830   2.166   0.339  1.00  0.00     0.222 C 
ATOM     10  H   UNL     1       2.080   0.638  -0.848  1.00  0.00     0.164 HD
ATOM     11  O   UNL     1       2.160   2.922  -0.580  1.00  0.00    -0.275 OA
BRANCH   9  12
ATOM     12  C   UNL     1       1.711   2.700   1.745  1.00  0.00     0.122 C 
BRANCH  12  13
ATOM     13  C   UNL     1       0.326   3.200   2.171  1.00  0.00     0.137 C 
BRANCH  13  14
ATOM     14  N   UNL     1      -0.399   2.283   3.066  1.00  0.00    -0.292 N 
ATOM     15  C   UNL     1      -1.620   1.771   2.678  1.00  0.00     0.266 C 
ATOM     16  C   UNL     1      -0.018   1.969   4.357  1.00  0.00     0.148 C 
ATOM     17  O   UNL     1      -2.266   2.112   1.694  1.00  0.00    -0.268 OA
ATOM     18  C   UNL     1      -2.080   0.726   3.621  1.00  0.00     0.081 C 
ATOM     19  S   UNL     1      -1.075   0.716   5.007  1.00  0.00    -0.054 SA
ATOM     20  S   UNL     1       1.249   2.600   5.242  1.00  0.00    -0.052 S 
ATOM     21  C   UNL     1      -3.070  -0.110   3.278  1.00  0.00     0.029 C 
BRANCH  21  22
ATOM     22  C   UNL     1      -3.493  -1.311   4.000  1.00  0.00    -0.024 A 
ATOM     23  C   UNL     1      -3.427  -2.545   3.334  1.00  0.00     0.015 A 
ATOM     24  C   UNL     1      -3.976  -1.261   5.311  1.00  0.00     0.015 A 
ATOM     25  C   UNL     1      -3.804  -3.724   3.979  1.00  0.00     0.086 A 
ATOM     26  C   UNL     1      -4.354  -2.436   5.968  1.00  0.00     0.086 A 
ATOM     27  C   UNL     1      -4.259  -3.665   5.301  1.00  0.00     0.269 A 
BRANCH  27  28
ATOM     28  N   UNL     1      -4.624  -4.904   5.998  1.00  0.00     0.062 N 
ATOM     29  O   UNL     1      -4.553  -5.967   5.365  1.00  0.00    -0.258 OA
ATOM     30  O   UNL     1      -4.965  -4.818   7.187  1.00  0.00    -0.258 OA
ENDBRANCH  27  28
ENDBRANCH  21  22
ENDBRANCH  13  14
ENDBRANCH  12  13
ENDBRANCH   9  12
ENDBRANCH   6   8
ENDBRANCH   3   6
ENDBRANCH   1   2
BRANCH   1  31
ATOM     31  C   UNL     1      -1.885   1.914  -2.333  1.00  0.00     0.023 C 
BRANCH  31  32
ATOM     32  C   UNL     1      -3.290   2.368  -1.940  1.00  0.00     0.023 C 
BRANCH  32  33
ATOM     33  C   UNL     1      -3.414   3.565  -1.000  1.00  0.00     0.116 C 
BRANCH  33  34
ATOM     34  N   UNL     1      -2.796   4.795  -1.467  1.00  0.00    -0.352 N 
ATOM     35  C   UNL     1      -3.333   6.052  -1.635  1.00  0.00     0.251 C 
ATOM     36  H   UNL     1      -1.843   4.717  -1.701  1.00  0.00     0.163 HD
ATOM     37  O   UNL     1      -2.608   6.976  -1.994  1.00  0.00    -0.269 OA
BRANCH  35  38
ATOM     38  C   UNL     1      -4.785   6.289  -1.457  1.00  0.00     0.039 A 
ATOM     39  C   UNL     1      -5.473   6.939  -2.486  1.00  0.00     0.014 A 
ATOM     40  C   UNL     1      -5.476   5.866  -0.320  1.00  0.00     0.014 A 
ATOM     41  C   UNL     1      -6.863   7.063  -2.427  1.00  0.00     0.010 A 
ATOM     42  C   UNL     1      -6.872   5.929  -0.292  1.00  0.00     0.010 A 
ATOM     43  C   UNL     1      -7.582   6.506  -1.357  1.00  0.00    -0.014 A 
BRANCH  43  44
ATOM     44  C   UNL     1      -9.070   6.473  -1.375  1.00  0.00     0.031 A 
ATOM     45  C   UNL     1      -9.872   7.225  -0.348  1.00  0.00     0.074 A 
ATOM     46  C   UNL     1      -9.704   5.712  -2.291  1.00  0.00     0.049 A 
ATOM     47  N   UNL     1     -11.171   7.277  -0.192  1.00  0.00    -0.248 NA
ATOM     48  C   UNL     1      -9.117   8.004   0.645  1.00  0.00     0.031 C 
ATOM     49  C   UNL     1      -9.045   4.891  -3.311  1.00  0.00     0.029 A 
ATOM     50  N   UNL     1     -11.043   5.495  -2.511  1.00  0.00    -0.354 N 
ATOM     51  C   UNL     1     -11.390   8.079   0.921  1.00  0.00     0.074 A 
ATOM     52  C   UNL     1     -10.087   8.458   1.427  1.00  0.00     0.031 C 
ATOM     53  C   UNL     1      -9.979   4.285  -4.061  1.00  0.00     0.029 A 
ATOM     54  C   UNL     1     -11.302   4.641  -3.558  1.00  0.00     0.049 A 
ATOM     55  H   UNL     1     -11.751   5.913  -1.970  1.00  0.00     0.167 HD
ATOM     56  C   UNL     1     -12.567   8.479   1.461  1.00  0.00     0.037 A 
ATOM     57  C   UNL     1     -12.470   4.191  -4.057  1.00  0.00     0.037 A 
ATOM     58  C   UNL     1     -13.862   8.124   0.941  1.00  0.00     0.049 A 
ATOM     59  C   UNL     1     -13.763   4.655  -3.444  1.00  0.00     0.074 A 
ATOM     60  C   UNL     1     -15.108   8.537   1.381  1.00  0.00     0.029 A 
ATOM     61  N   UNL     1     -14.082   7.270  -0.130  1.00  0.00    -0.354 N 
ATOM     62  N   UNL     1     -13.949   5.470  -2.434  1.00  0.00    -0.248 NA
ATOM     63  C   UNL     1     -15.004   4.142  -4.040  1.00  0.00     0.031 C 
ATOM     64  C   UNL     1     -16.082   7.904   0.601  1.00  0.00     0.029 A 
ATOM     65  C   UNL     1     -15.442   7.128  -0.351  1.00  0.00     0.049 A 
ATOM     66  H   UNL     1     -13.375   6.830  -0.655  1.00  0.00     0.167 HD
ATOM     67  C   UNL     1     -15.327   5.589  -2.291  1.00  0.00     0.074 A 
ATOM     68  C   UNL     1     -15.927   4.769  -3.323  1.00  0.00     0.031 C 
ATOM     69  C   UNL     1     -16.030   6.314  -1.386  1.00  0.00     0.037 A 
BRANCH  56  70
ATOM     70  C   UNL     1     -12.508   9.354   2.683  1.00  0.00     0.058 A 
ATOM     71  C   UNL     1     -12.097  10.694   2.608  1.00  0.00     0.135 A 
ATOM     72  C   UNL     1     -12.902   8.858   3.936  1.00  0.00     0.135 A 
ATOM     73  F   UNL     1     -11.699  11.215   1.437  1.00  0.00    -0.206 F 
ATOM     74  C   UNL     1     -12.048  11.503   3.738  1.00  0.00     0.059 A 
ATOM     75  C   UNL     1     -12.885   9.657   5.076  1.00  0.00     0.059 A 
ATOM     76  F   UNL     1     -13.306   7.584   4.063  1.00  0.00    -0.206 F 
ATOM     77  C   UNL     1     -12.440  10.974   4.969  1.00  0.00     0.060 A 
BRANCH  77  78
ATOM     78  S   UNL     1     -12.366  12.035   6.428  1.00  0.00     0.124 S 
ATOM     79  O   UNL     1     -10.930  12.070   6.688  1.00  0.00    -0.237 OA
ATOM     80  O   UNL     1     -12.953  13.280   5.942  1.00  0.00    -0.237 OA
ATOM     81  O   UNL     1     -13.165  11.313   7.414  1.00  0.00    -0.744 OA
ENDBRANCH  77  78
ENDBRANCH  56  70
BRANCH  57  82
ATOM     82  C   UNL     1     -12.473   3.266  -5.221  1.00  0.00     0.058 A 
ATOM     83  C   UNL     1     -12.887   3.705  -6.487  1.00  0.00     0.135 A 
ATOM     84  C   UNL     1     -12.053   1.933  -5.096  1.00  0.00     0.135 A 
ATOM     85  F   UNL     1     -13.305   4.969  -6.655  1.00  0.00    -0.206 F 
ATOM     86  C   UNL     1     -12.899   2.853  -7.587  1.00  0.00     0.059 A 
ATOM     87  C   UNL     1     -12.034   1.068  -6.185  1.00  0.00     0.059 A 
ATOM     88  F   UNL     1     -11.632   1.470  -3.909  1.00  0.00    -0.206 F 
ATOM     89  C   UNL     1     -12.469   1.535  -7.425  1.00  0.00     0.060 A 
BRANCH  89  90
ATOM     90  S   UNL     1     -12.438   0.450  -8.869  1.00  0.00     0.124 S 
ATOM     91  O   UNL     1     -13.854   0.147  -9.039  1.00  0.00    -0.237 OA
ATOM     92  O   UNL     1     -11.841   1.308  -9.887  1.00  0.00    -0.237 OA
ATOM     93  O   UNL     1     -11.600  -0.663  -8.431  1.00  0.00    -0.744 OA
ENDBRANCH  89  90
ENDBRANCH  57  82
BRANCH  69  94
ATOM     94  C   UNL     1     -17.529   6.282  -1.488  1.00  0.00     0.058 A 
ATOM     95  C   UNL     1     -18.271   5.161  -1.086  1.00  0.00     0.135 A 
ATOM     96  C   UNL     1     -18.235   7.406  -1.948  1.00  0.00     0.135 A 
ATOM     97  F   UNL     1     -17.645   4.058  -0.646  1.00  0.00    -0.206 F 
ATOM     98  C   UNL     1     -19.661   5.148  -1.153  1.00  0.00     0.059 A 
ATOM     99  C   UNL     1     -19.625   7.423  -2.001  1.00  0.00     0.059 A 
ATOM    100  F   UNL     1     -17.573   8.507  -2.337  1.00  0.00    -0.206 F 
ATOM    101  C   UNL     1     -20.329   6.285  -1.612  1.00  0.00     0.060 A 
BRANCH 101 102
ATOM    102  S   UNL     1     -22.134   6.271  -1.661  1.00  0.00     0.124 S 
ATOM    103  O   UNL     1     -22.390   5.451  -2.841  1.00  0.00    -0.237 OA
ATOM    104  O   UNL     1     -22.479   5.662  -0.380  1.00  0.00    -0.237 OA
ATOM    105  O   UNL     1     -22.481   7.683  -1.789  1.00  0.00    -0.744 OA
ENDBRANCH 101 102
ENDBRANCH  69  94
ENDBRANCH  43  44
ENDBRANCH  35  38
ENDBRANCH  33  34
ENDBRANCH  32  33
ENDBRANCH  31  32
ENDBRANCH   1  31
TORSDOF 20
