REMARK SMILES O=C(NCCCCNC(=O)[C@@H](NC(=O)[C@H]1CC[C@@H]2CCCC[C@H]2[NH2+]1)C1CC1)c1ccc(-c2c3nc(c(-c4c(F)cc(S(=O)(=O)[O-])cc4F)c4ccc([nH]4)c(-c4c(F)cc(S(=O)(=O)[O-])cc4F)c4nc(c(-c5c(F)cc(S(=O)(=O)[O-])cc5F)c5ccc2[nH]5)C=C4)C=C3)cc1
REMARK SMILES IDX 5 1 4 2 3 3 1 4 2 5 28 7 29 8 93 9 30 10 92 11 31 12 32 13
REMARK SMILES IDX 33 14 86 15 34 16 91 17 85 18 87 19 35 20 90 21 84 22 83 23
REMARK SMILES IDX 36 25 70 26 49 27 69 28 50 29 53 30 68 31 88 32 51 33 52 34
REMARK SMILES IDX 67 36 89 37 54 38 37 39 38 40 47 41 39 42 40 43 46 44 48 45
REMARK SMILES IDX 41 46 42 47 43 48 44 49 45 50 71 51 72 52 81 53 73 54 74 55
REMARK SMILES IDX 80 56 82 57 75 58 76 59 77 60 78 61 79 62 55 63 56 64 65 65
REMARK SMILES IDX 57 66 58 67 64 68 66 69 59 70 60 71 61 72 62 73 63 74 6 75
REMARK SMILES IDX 7 76 8 77 9 78 10 80 11 81 12 82 13 83 14 85 15 86 16 87
REMARK SMILES IDX 24 88 17 89 23 90 18 93 22 94 19 95 21 96 20 97 25 98 26 99
REMARK SMILES IDX 27 100
REMARK H PARENT 3 6 87 24 53 35 8 79 12 84 24 91 24 92
REMARK Flexibility Score: inf
ROOT
ATOM      1  C   UNL     1      -1.002   7.582   0.403  1.00  0.00     0.023 C 
ENDROOT
BRANCH   1   2
ATOM      2  C   UNL     1      -0.246   8.858   0.742  1.00  0.00     0.116 C 
BRANCH   2   3
ATOM      3  N   UNL     1       0.944   9.055  -0.072  1.00  0.00    -0.352 N 
ATOM      4  O   UNL     1       2.162   9.875  -1.788  1.00  0.00    -0.269 OA
ATOM      5  C   UNL     1       1.157   9.948  -1.104  1.00  0.00     0.251 C 
ATOM      6  H   UNL     1       1.706   8.469   0.144  1.00  0.00     0.163 HD
BRANCH   5   7
ATOM      7  C   UNL     1       0.130  10.978  -1.378  1.00  0.00     0.039 A 
ATOM      8  C   UNL     1      -0.360  11.767  -0.337  1.00  0.00     0.014 A 
ATOM      9  C   UNL     1      -0.362  11.134  -2.676  1.00  0.00     0.014 A 
ATOM     10  C   UNL     1      -1.453  12.594  -0.559  1.00  0.00     0.010 A 
ATOM     11  C   UNL     1      -1.401  12.040  -2.916  1.00  0.00     0.010 A 
ATOM     12  C   UNL     1      -1.974  12.757  -1.854  1.00  0.00    -0.014 A 
BRANCH  12  13
ATOM     13  C   UNL     1      -3.044  13.762  -2.078  1.00  0.00     0.031 A 
ATOM     14  C   UNL     1      -4.416  13.364  -2.550  1.00  0.00     0.074 A 
ATOM     15  C   UNL     1      -2.756  15.055  -1.826  1.00  0.00     0.049 A 
ATOM     16  N   UNL     1      -5.450  14.129  -2.796  1.00  0.00    -0.248 NA
ATOM     17  C   UNL     1      -4.665  11.932  -2.783  1.00  0.00     0.031 C 
ATOM     18  C   UNL     1      -1.449  15.553  -1.384  1.00  0.00     0.029 A 
ATOM     19  N   UNL     1      -3.532  16.183  -1.894  1.00  0.00    -0.354 N 
ATOM     20  C   UNL     1      -6.461  13.281  -3.234  1.00  0.00     0.074 A 
ATOM     21  C   UNL     1      -5.916  11.941  -3.229  1.00  0.00     0.031 C 
ATOM     22  C   UNL     1      -1.524  16.876  -1.187  1.00  0.00     0.029 A 
ATOM     23  C   UNL     1      -2.857  17.332  -1.558  1.00  0.00     0.049 A 
ATOM     24  H   UNL     1      -4.480  16.171  -2.157  1.00  0.00     0.167 HD
ATOM     25  C   UNL     1      -7.726  13.601  -3.602  1.00  0.00     0.037 A 
ATOM     26  C   UNL     1      -3.250  18.619  -1.580  1.00  0.00     0.037 A 
ATOM     27  C   UNL     1      -8.262  14.940  -3.574  1.00  0.00     0.049 A 
ATOM     28  C   UNL     1      -4.651  18.939  -2.012  1.00  0.00     0.074 A 
ATOM     29  C   UNL     1      -9.552  15.354  -3.861  1.00  0.00     0.029 A 
ATOM     30  N   UNL     1      -7.541  16.081  -3.250  1.00  0.00    -0.354 N 
ATOM     31  N   UNL     1      -5.609  18.116  -2.368  1.00  0.00    -0.248 NA
ATOM     32  C   UNL     1      -5.024  20.358  -2.056  1.00  0.00     0.031 C 
ATOM     33  C   UNL     1      -9.597  16.749  -3.764  1.00  0.00     0.029 A 
ATOM     34  C   UNL     1      -8.349  17.201  -3.367  1.00  0.00     0.049 A 
ATOM     35  H   UNL     1      -6.595  16.093  -2.978  1.00  0.00     0.167 HD
ATOM     36  C   UNL     1      -6.700  18.919  -2.674  1.00  0.00     0.074 A 
ATOM     37  C   UNL     1      -6.294  20.288  -2.430  1.00  0.00     0.031 C 
ATOM     38  C   UNL     1      -7.925  18.556  -3.126  1.00  0.00     0.037 A 
BRANCH  25  39
ATOM     39  C   UNL     1      -8.635  12.504  -4.085  1.00  0.00     0.058 A 
ATOM     40  C   UNL     1      -9.226  11.588  -3.202  1.00  0.00     0.135 A 
ATOM     41  C   UNL     1      -9.015  12.446  -5.438  1.00  0.00     0.135 A 
ATOM     42  F   UNL     1      -8.890  11.590  -1.902  1.00  0.00    -0.206 F 
ATOM     43  C   UNL     1     -10.164  10.656  -3.640  1.00  0.00     0.059 A 
ATOM     44  C   UNL     1      -9.966  11.537  -5.894  1.00  0.00     0.059 A 
ATOM     45  F   UNL     1      -8.480  13.298  -6.326  1.00  0.00    -0.206 F 
ATOM     46  C   UNL     1     -10.534  10.645  -4.987  1.00  0.00     0.060 A 
BRANCH  46  47
ATOM     47  S   UNL     1     -11.793   9.467  -5.526  1.00  0.00     0.124 S 
ATOM     48  O   UNL     1     -11.063   8.205  -5.451  1.00  0.00    -0.237 OA
ATOM     49  O   UNL     1     -12.841   9.652  -4.527  1.00  0.00    -0.237 OA
ATOM     50  O   UNL     1     -12.128   9.918  -6.873  1.00  0.00    -0.744 OA
ENDBRANCH  46  47
ENDBRANCH  25  39
BRANCH  26  51
ATOM     51  C   UNL     1      -2.287  19.696  -1.233  1.00  0.00     0.058 A 
ATOM     52  C   UNL     1      -2.453  20.479  -0.082  1.00  0.00     0.135 A 
ATOM     53  C   UNL     1      -1.178  19.963  -2.053  1.00  0.00     0.135 A 
ATOM     54  F   UNL     1      -3.498  20.262   0.732  1.00  0.00    -0.206 F 
ATOM     55  C   UNL     1      -1.571  21.508   0.230  1.00  0.00     0.059 A 
ATOM     56  C   UNL     1      -0.265  20.964  -1.745  1.00  0.00     0.059 A 
ATOM     57  F   UNL     1      -0.962  19.227  -3.154  1.00  0.00    -0.206 F 
ATOM     58  C   UNL     1      -0.482  21.745  -0.611  1.00  0.00     0.060 A 
BRANCH  58  59
ATOM     59  S   UNL     1       0.668  23.072  -0.194  1.00  0.00     0.124 S 
ATOM     60  O   UNL     1      -0.095  24.251  -0.586  1.00  0.00    -0.237 OA
ATOM     61  O   UNL     1       0.855  22.880   1.241  1.00  0.00    -0.237 OA
ATOM     62  O   UNL     1       1.836  22.773  -1.016  1.00  0.00    -0.744 OA
ENDBRANCH  58  59
ENDBRANCH  26  51
BRANCH  38  63
ATOM     63  C   UNL     1      -8.913  19.660  -3.376  1.00  0.00     0.058 A 
ATOM     64  C   UNL     1      -8.783  20.523  -4.475  1.00  0.00     0.135 A 
ATOM     65  C   UNL     1     -10.015  19.839  -2.525  1.00  0.00     0.135 A 
ATOM     66  F   UNL     1      -7.739  20.401  -5.310  1.00  0.00    -0.206 F 
ATOM     67  C   UNL     1      -9.698  21.542  -4.709  1.00  0.00     0.059 A 
ATOM     68  C   UNL     1     -10.959  20.834  -2.756  1.00  0.00     0.059 A 
ATOM     69  F   UNL     1     -10.189  19.035  -1.464  1.00  0.00    -0.206 F 
ATOM     70  C   UNL     1     -10.785  21.689  -3.844  1.00  0.00     0.060 A 
BRANCH  70  71
ATOM     71  S   UNL     1     -11.982  22.999  -4.175  1.00  0.00     0.124 S 
ATOM     72  O   UNL     1     -11.240  24.185  -3.761  1.00  0.00    -0.237 OA
ATOM     73  O   UNL     1     -12.208  22.860  -5.610  1.00  0.00    -0.237 OA
ATOM     74  O   UNL     1     -13.117  22.642  -3.329  1.00  0.00    -0.744 OA
ENDBRANCH  70  71
ENDBRANCH  38  63
ENDBRANCH  12  13
ENDBRANCH   5   7
ENDBRANCH   2   3
ENDBRANCH   1   2
BRANCH   1  75
ATOM     75  C   UNL     1      -0.255   6.280   0.677  1.00  0.00     0.023 C 
BRANCH  75  76
ATOM     76  C   UNL     1       0.283   6.101   2.093  1.00  0.00     0.116 C 
BRANCH  76  77
ATOM     77  N   UNL     1      -0.726   6.203   3.133  1.00  0.00    -0.354 N 
ATOM     78  C   UNL     1      -0.555   6.282   4.494  1.00  0.00     0.242 C 
ATOM     79  H   UNL     1      -1.660   6.218   2.820  1.00  0.00     0.163 HD
ATOM     80  O   UNL     1      -1.563   6.429   5.191  1.00  0.00    -0.273 OA
BRANCH  78  81
ATOM     81  C   UNL     1       0.874   6.316   5.123  1.00  0.00     0.174 C 
BRANCH  81  82
ATOM     82  N   UNL     1       1.663   5.276   4.434  1.00  0.00    -0.339 N 
ATOM     83  C   UNL     1       2.851   4.660   4.614  1.00  0.00     0.278 C 
ATOM     84  H   UNL     1       1.201   4.944   3.632  1.00  0.00     0.164 HD
ATOM     85  O   UNL     1       2.787   3.420   4.668  1.00  0.00    -0.268 OA
BRANCH  83  86
ATOM     86  C   UNL     1       4.234   5.328   4.521  1.00  0.00     0.272 C 
ATOM     87  C   UNL     1       4.328   6.759   3.996  1.00  0.00     0.076 C 
ATOM     88  N   UNL     1       5.038   4.990   5.712  1.00  0.00    -0.333 N 
ATOM     89  C   UNL     1       4.769   7.824   5.002  1.00  0.00     0.016 C 
ATOM     90  C   UNL     1       6.091   5.964   5.987  1.00  0.00     0.186 C 
ATOM     91  H   UNL     1       5.470   4.078   5.563  1.00  0.00     0.347 HD
ATOM     92  H   UNL     1       4.408   4.988   6.514  1.00  0.00     0.347 HD
ATOM     93  C   UNL     1       5.359   7.271   6.299  1.00  0.00     0.048 C 
ATOM     94  C   UNL     1       6.992   5.492   7.129  1.00  0.00     0.065 C 
ATOM     95  C   UNL     1       6.199   8.350   6.988  1.00  0.00     0.010 C 
ATOM     96  C   UNL     1       7.904   6.622   7.599  1.00  0.00     0.006 C 
ATOM     97  C   UNL     1       7.071   7.793   8.104  1.00  0.00     0.001 C 
ENDBRANCH  83  86
ENDBRANCH  81  82
BRANCH  81  98
ATOM     98  C   UNL     1       1.436   7.706   5.303  1.00  0.00     0.021 C 
ATOM     99  C   UNL     1       1.669   8.792   4.263  1.00  0.00     0.006 C 
ATOM    100  C   UNL     1       0.502   8.909   5.180  1.00  0.00     0.006 C 
ENDBRANCH  81  98
ENDBRANCH  78  81
ENDBRANCH  76  77
ENDBRANCH  75  76
ENDBRANCH   1  75
TORSDOF 17
