REMARK SMILES CC[C@](C)(C(=O)NCCCCNC(=O)c1ccc(-c2c3nc(c(-c4c(F)cc(S(=O)(=O)[O-])cc4F)c4ccc([nH]4)c(-c4c(F)cc(S(=O)(=O)[O-])cc4F)c4nc(c(-c5c(F)cc(S(=O)(=O)[O-])cc5F)c5ccc2[nH]5)C=C4)C=C3)cc1)n1nnnc1-c1ccco1
REMARK SMILES IDX 10 1 9 2 8 3 7 4 5 5 6 6 3 8 4 9 2 10 1 11 81 12 82 13 85 14
REMARK SMILES IDX 83 15 84 16 86 17 87 18 90 19 88 20 89 21 11 22 12 23 13 24
REMARK SMILES IDX 14 26 15 27 16 28 80 29 17 30 79 31 18 32 19 33 20 34 73 35
REMARK SMILES IDX 21 36 78 37 72 38 74 39 22 40 77 41 71 42 70 43 23 45 57 46
REMARK SMILES IDX 36 47 56 48 37 49 40 50 55 51 75 52 38 53 39 54 54 56 76 57
REMARK SMILES IDX 41 58 24 59 25 60 34 61 26 62 27 63 33 64 35 65 28 66 29 67
REMARK SMILES IDX 30 68 31 69 32 70 58 71 59 72 68 73 60 74 61 75 67 76 69 77
REMARK SMILES IDX 62 78 63 79 64 80 65 81 66 82 42 83 43 84 52 85 44 86 45 87
REMARK SMILES IDX 51 88 53 89 46 90 47 91 48 92 49 93 50 94
REMARK H PARENT 7 7 12 25 74 44 40 55
REMARK Flexibility Score: inf
ROOT
ATOM      1  C   UNL     1      -3.497   2.602   3.365  1.00  0.00     0.023 C 
ENDROOT
BRANCH   1   2
ATOM      2  C   UNL     1      -2.677   1.923   2.273  1.00  0.00     0.023 C 
BRANCH   2   3
ATOM      3  C   UNL     1      -1.904   2.887   1.370  1.00  0.00     0.116 C 
BRANCH   3   4
ATOM      4  N   UNL     1      -0.726   3.414   2.043  1.00  0.00    -0.354 N 
ATOM      5  C   UNL     1       0.607   3.102   1.968  1.00  0.00     0.247 C 
ATOM      6  O   UNL     1       1.303   3.571   2.872  1.00  0.00    -0.272 OA
ATOM      7  H   UNL     1      -0.926   4.138   2.679  1.00  0.00     0.163 HD
BRANCH   5   8
ATOM      8  C   UNL     1       1.191   2.197   0.841  1.00  0.00     0.142 C 
ATOM      9  C   UNL     1       0.542   0.811   1.015  1.00  0.00     0.048 C 
BRANCH   8  10
ATOM     10  C   UNL     1       0.855   2.846  -0.542  1.00  0.00     0.037 C 
ATOM     11  C   UNL     1       1.571   2.262  -1.757  1.00  0.00     0.007 C 
ENDBRANCH   8  10
BRANCH   8  12
ATOM     12  N   UNL     1       2.668   2.138   0.967  1.00  0.00    -0.207 N 
ATOM     13  N   UNL     1       3.385   3.288   0.881  1.00  0.00    -0.044 NA
ATOM     14  C   UNL     1       3.557   1.080   0.913  1.00  0.00     0.218 A 
ATOM     15  N   UNL     1       4.658   2.926   0.873  1.00  0.00    -0.023 NA
ATOM     16  N   UNL     1       4.781   1.564   0.878  1.00  0.00    -0.105 NA
BRANCH  14  17
ATOM     17  C   UNL     1       3.262  -0.313   0.858  1.00  0.00     0.172 A 
ATOM     18  C   UNL     1       2.864  -1.078  -0.229  1.00  0.00     0.054 A 
ATOM     19  O   UNL     1       3.268  -1.113   1.971  1.00  0.00    -0.461 OA
ATOM     20  C   UNL     1       2.531  -2.364   0.263  1.00  0.00     0.043 A 
ATOM     21  C   UNL     1       2.827  -2.342   1.604  1.00  0.00     0.196 A 
ENDBRANCH  14  17
ENDBRANCH   8  12
ENDBRANCH   5   8
ENDBRANCH   3   4
ENDBRANCH   2   3
ENDBRANCH   1   2
BRANCH   1  22
ATOM     22  C   UNL     1      -4.500   3.629   2.859  1.00  0.00     0.116 C 
BRANCH  22  23
ATOM     23  N   UNL     1      -5.405   3.094   1.853  1.00  0.00    -0.352 N 
ATOM     24  C   UNL     1      -6.756   3.289   1.715  1.00  0.00     0.251 C 
ATOM     25  H   UNL     1      -4.990   2.510   1.177  1.00  0.00     0.163 HD
ATOM     26  O   UNL     1      -7.382   2.636   0.883  1.00  0.00    -0.269 OA
BRANCH  24  27
ATOM     27  C   UNL     1      -7.452   4.255   2.591  1.00  0.00     0.039 A 
ATOM     28  C   UNL     1      -8.678   3.891   3.147  1.00  0.00     0.014 A 
ATOM     29  C   UNL     1      -6.890   5.503   2.881  1.00  0.00     0.014 A 
ATOM     30  C   UNL     1      -9.310   4.756   4.040  1.00  0.00     0.010 A 
ATOM     31  C   UNL     1      -7.474   6.320   3.843  1.00  0.00     0.010 A 
ATOM     32  C   UNL     1      -8.695   5.960   4.426  1.00  0.00    -0.014 A 
BRANCH  32  33
ATOM     33  C   UNL     1      -9.329   6.833   5.447  1.00  0.00     0.031 A 
ATOM     34  C   UNL     1      -9.772   8.228   5.097  1.00  0.00     0.074 A 
ATOM     35  C   UNL     1      -9.492   6.363   6.700  1.00  0.00     0.049 A 
ATOM     36  N   UNL     1     -10.383   9.109   5.847  1.00  0.00    -0.248 NA
ATOM     37  C   UNL     1      -9.469   8.708   3.739  1.00  0.00     0.031 C 
ATOM     38  C   UNL     1      -9.030   5.058   7.181  1.00  0.00     0.029 A 
ATOM     39  N   UNL     1     -10.095   6.923   7.798  1.00  0.00    -0.354 N 
ATOM     40  C   UNL     1     -10.547  10.237   5.051  1.00  0.00     0.074 A 
ATOM     41  C   UNL     1      -9.903   9.959   3.787  1.00  0.00     0.031 C 
ATOM     42  C   UNL     1      -9.401   4.902   8.461  1.00  0.00     0.029 A 
ATOM     43  C   UNL     1     -10.097   6.105   8.904  1.00  0.00     0.049 A 
ATOM     44  H   UNL     1     -10.489   7.825   7.795  1.00  0.00     0.167 HD
ATOM     45  C   UNL     1     -11.208  11.385   5.334  1.00  0.00     0.037 A 
ATOM     46  C   UNL     1     -10.604   6.301  10.136  1.00  0.00     0.037 A 
ATOM     47  C   UNL     1     -11.851  11.653   6.594  1.00  0.00     0.049 A 
ATOM     48  C   UNL     1     -11.341   7.581  10.422  1.00  0.00     0.074 A 
ATOM     49  C   UNL     1     -12.576  12.770   6.971  1.00  0.00     0.029 A 
ATOM     50  N   UNL     1     -11.847  10.795   7.685  1.00  0.00    -0.354 N 
ATOM     51  N   UNL     1     -11.552   8.607   9.630  1.00  0.00    -0.248 NA
ATOM     52  C   UNL     1     -11.925   7.724  11.762  1.00  0.00     0.031 C 
ATOM     53  C   UNL     1     -12.971  12.608   8.304  1.00  0.00     0.029 A 
ATOM     54  C   UNL     1     -12.542  11.365   8.740  1.00  0.00     0.049 A 
ATOM     55  H   UNL     1     -11.414   9.911   7.706  1.00  0.00     0.167 HD
ATOM     56  C   UNL     1     -12.306   9.510  10.372  1.00  0.00     0.074 A 
ATOM     57  C   UNL     1     -12.542   8.892  11.661  1.00  0.00     0.031 C 
ATOM     58  C   UNL     1     -12.758  10.741  10.022  1.00  0.00     0.037 A 
BRANCH  45  59
ATOM     59  C   UNL     1     -11.287  12.430   4.252  1.00  0.00     0.058 A 
ATOM     60  C   UNL     1     -12.051  12.224   3.090  1.00  0.00     0.135 A 
ATOM     61  C   UNL     1     -10.635  13.665   4.392  1.00  0.00     0.135 A 
ATOM     62  F   UNL     1     -12.681  11.055   2.893  1.00  0.00    -0.206 F 
ATOM     63  C   UNL     1     -12.147  13.195   2.099  1.00  0.00     0.059 A 
ATOM     64  C   UNL     1     -10.742  14.663   3.427  1.00  0.00     0.059 A 
ATOM     65  F   UNL     1      -9.888  13.915   5.479  1.00  0.00    -0.206 F 
ATOM     66  C   UNL     1     -11.492  14.414   2.279  1.00  0.00     0.060 A 
BRANCH  66  67
ATOM     67  S   UNL     1     -11.648  15.670   0.991  1.00  0.00     0.124 S 
ATOM     68  O   UNL     1     -10.854  15.085  -0.085  1.00  0.00    -0.237 OA
ATOM     69  O   UNL     1     -13.090  15.706   0.766  1.00  0.00    -0.237 OA
ATOM     70  O   UNL     1     -11.082  16.864   1.610  1.00  0.00    -0.744 OA
ENDBRANCH  66  67
ENDBRANCH  45  59
BRANCH  46  71
ATOM     71  C   UNL     1     -10.447   5.255  11.182  1.00  0.00     0.058 A 
ATOM     72  C   UNL     1     -11.547   4.532  11.666  1.00  0.00     0.135 A 
ATOM     73  C   UNL     1      -9.184   4.955  11.718  1.00  0.00     0.135 A 
ATOM     74  F   UNL     1     -12.776   4.781  11.188  1.00  0.00    -0.206 F 
ATOM     75  C   UNL     1     -11.408   3.571  12.662  1.00  0.00     0.059 A 
ATOM     76  C   UNL     1      -9.015   3.976  12.691  1.00  0.00     0.059 A 
ATOM     77  F   UNL     1      -8.094   5.601  11.275  1.00  0.00    -0.206 F 
ATOM     78  C   UNL     1     -10.136   3.299  13.168  1.00  0.00     0.060 A 
BRANCH  78  79
ATOM     79  S   UNL     1      -9.959   2.025  14.435  1.00  0.00     0.124 S 
ATOM     80  O   UNL     1     -10.529   2.690  15.601  1.00  0.00    -0.237 OA
ATOM     81  O   UNL     1     -10.744   0.928  13.877  1.00  0.00    -0.237 OA
ATOM     82  O   UNL     1      -8.518   1.795  14.481  1.00  0.00    -0.744 OA
ENDBRANCH  78  79
ENDBRANCH  46  71
BRANCH  58  83
ATOM     83  C   UNL     1     -13.569  11.486  11.048  1.00  0.00     0.058 A 
ATOM     84  C   UNL     1     -12.991  11.987  12.226  1.00  0.00     0.135 A 
ATOM     85  C   UNL     1     -14.942  11.706  10.849  1.00  0.00     0.135 A 
ATOM     86  F   UNL     1     -11.683  11.803  12.467  1.00  0.00    -0.206 F 
ATOM     87  C   UNL     1     -13.754  12.630  13.194  1.00  0.00     0.059 A 
ATOM     88  C   UNL     1     -15.718  12.379  11.787  1.00  0.00     0.059 A 
ATOM     89  F   UNL     1     -15.544  11.265   9.733  1.00  0.00    -0.206 F 
ATOM     90  C   UNL     1     -15.119  12.816  12.968  1.00  0.00     0.060 A 
BRANCH  90  91
ATOM     91  S   UNL     1     -16.102  13.639  14.239  1.00  0.00     0.124 S 
ATOM     92  O   UNL     1     -16.191  12.599  15.258  1.00  0.00    -0.237 OA
ATOM     93  O   UNL     1     -15.272  14.791  14.579  1.00  0.00    -0.237 OA
ATOM     94  O   UNL     1     -17.351  13.954  13.552  1.00  0.00    -0.744 OA
ENDBRANCH  90  91
ENDBRANCH  58  83
ENDBRANCH  32  33
ENDBRANCH  24  27
ENDBRANCH  22  23
ENDBRANCH   1  22
TORSDOF 17
