REMARK SMILES O=C(NCCCCNC(=O)c1cc(Cl)nc(I)c1C(F)(F)F)c1ccc(-c2c3nc(c(-c4c(F)cc(S(=O)(=O)[O-])cc4F)c4ccc([nH]4)c(-c4c(F)cc(S(=O)(=O)[O-])cc4F)c4nc(c(-c5c(F)cc(S(=O)(=O)[O-])cc5F)c5ccc2[nH]5)C=C4)C=C3)cc1
REMARK SMILES IDX 4 1 3 2 1 3 2 4 23 6 24 7 88 8 25 9 87 10 26 11 27 12 28 13
REMARK SMILES IDX 81 14 29 15 86 16 80 17 82 18 30 19 85 20 79 21 78 22 31 24
REMARK SMILES IDX 65 25 44 26 64 27 45 28 48 29 63 30 83 31 46 32 47 33 62 35
REMARK SMILES IDX 84 36 49 37 32 38 33 39 42 40 34 41 35 42 41 43 43 44 36 45
REMARK SMILES IDX 37 46 38 47 39 48 40 49 66 50 67 51 76 52 68 53 69 54 75 55
REMARK SMILES IDX 77 56 70 57 71 58 72 59 73 60 74 61 50 62 51 63 60 64 52 65
REMARK SMILES IDX 53 66 59 67 61 68 54 69 55 70 56 71 57 72 58 73 5 74 6 75
REMARK SMILES IDX 7 76 8 77 9 78 10 80 11 81 12 82 18 83 13 84 16 85 14 86
REMARK SMILES IDX 15 87 17 88 19 89 20 90 21 91 22 92
REMARK H PARENT 3 5 82 23 48 34 8 79
REMARK Flexibility Score: inf
ROOT
ATOM      1  C   UNL     1       4.468  -1.055  -0.527  1.00  0.00     0.116 C 
ENDROOT
BRANCH   1   2
ATOM      2  N   UNL     1       3.020  -0.921  -0.553  1.00  0.00    -0.352 N 
ATOM      3  O   UNL     1       1.000  -0.136   0.059  1.00  0.00    -0.269 OA
ATOM      4  C   UNL     1       2.218   0.012   0.059  1.00  0.00     0.251 C 
ATOM      5  H   UNL     1       2.545  -1.598  -1.087  1.00  0.00     0.163 HD
BRANCH   4   6
ATOM      6  C   UNL     1       2.823   1.180   0.736  1.00  0.00     0.039 A 
ATOM      7  C   UNL     1       3.767   1.976   0.081  1.00  0.00     0.014 A 
ATOM      8  C   UNL     1       2.426   1.490   2.040  1.00  0.00     0.014 A 
ATOM      9  C   UNL     1       4.400   3.009   0.772  1.00  0.00     0.010 A 
ATOM     10  C   UNL     1       3.031   2.554   2.717  1.00  0.00     0.010 A 
ATOM     11  C   UNL     1       4.051   3.296   2.101  1.00  0.00    -0.014 A 
BRANCH  11  12
ATOM     12  C   UNL     1       4.774   4.367   2.832  1.00  0.00     0.031 A 
ATOM     13  C   UNL     1       5.757   4.018   3.917  1.00  0.00     0.074 A 
ATOM     14  C   UNL     1       4.575   5.655   2.490  1.00  0.00     0.049 A 
ATOM     15  N   UNL     1       6.539   4.810   4.604  1.00  0.00    -0.248 NA
ATOM     16  C   UNL     1       5.879   2.596   4.280  1.00  0.00     0.031 C 
ATOM     17  C   UNL     1       3.633   6.118   1.470  1.00  0.00     0.029 A 
ATOM     18  N   UNL     1       5.155   6.808   2.956  1.00  0.00    -0.354 N 
ATOM     19  C   UNL     1       7.249   3.989   5.472  1.00  0.00     0.074 A 
ATOM     20  C   UNL     1       6.778   2.638   5.255  1.00  0.00     0.031 C 
ATOM     21  C   UNL     1       3.709   7.456   1.378  1.00  0.00     0.029 A 
ATOM     22  C   UNL     1       4.685   7.947   2.347  1.00  0.00     0.049 A 
ATOM     23  H   UNL     1       5.843   6.818   3.661  1.00  0.00     0.167 HD
ATOM     24  C   UNL     1       8.219   4.330   6.353  1.00  0.00     0.037 A 
ATOM     25  C   UNL     1       5.000   9.242   2.550  1.00  0.00     0.037 A 
ATOM     26  C   UNL     1       8.695   5.673   6.554  1.00  0.00     0.049 A 
ATOM     27  C   UNL     1       6.055   9.595   3.564  1.00  0.00     0.074 A 
ATOM     28  C   UNL     1       9.726   6.103   7.372  1.00  0.00     0.029 A 
ATOM     29  N   UNL     1       8.171   6.802   5.945  1.00  0.00    -0.354 N 
ATOM     30  N   UNL     1       6.780   8.794   4.309  1.00  0.00    -0.248 NA
ATOM     31  C   UNL     1       6.336  11.023   3.767  1.00  0.00     0.031 C 
ATOM     32  C   UNL     1       9.790   7.497   7.298  1.00  0.00     0.029 A 
ATOM     33  C   UNL     1       8.829   7.933   6.400  1.00  0.00     0.049 A 
ATOM     34  H   UNL     1       7.439   6.801   5.287  1.00  0.00     0.167 HD
ATOM     35  C   UNL     1       7.606   9.621   5.062  1.00  0.00     0.074 A 
ATOM     36  C   UNL     1       7.311  10.982   4.666  1.00  0.00     0.031 C 
ATOM     37  C   UNL     1       8.522   9.283   6.002  1.00  0.00     0.037 A 
BRANCH  24  38
ATOM     38  C   UNL     1       8.856   3.240   7.167  1.00  0.00     0.058 A 
ATOM     39  C   UNL     1       9.791   2.359   6.602  1.00  0.00     0.135 A 
ATOM     40  C   UNL     1       8.617   3.147   8.548  1.00  0.00     0.135 A 
ATOM     41  F   UNL     1      10.045   2.397   5.284  1.00  0.00    -0.206 F 
ATOM     42  C   UNL     1      10.469   1.425   7.378  1.00  0.00     0.059 A 
ATOM     43  C   UNL     1       9.297   2.232   9.347  1.00  0.00     0.059 A 
ATOM     44  F   UNL     1       7.729   3.964   9.136  1.00  0.00    -0.206 F 
ATOM     45  C   UNL     1      10.222   1.376   8.751  1.00  0.00     0.060 A 
BRANCH  45  46
ATOM     46  S   UNL     1      11.152   0.191   9.747  1.00  0.00     0.124 S 
ATOM     47  O   UNL     1      10.585  -1.077   9.296  1.00  0.00    -0.237 OA
ATOM     48  O   UNL     1      12.527   0.451   9.334  1.00  0.00    -0.237 OA
ATOM     49  O   UNL     1      10.829   0.569  11.119  1.00  0.00    -0.744 OA
ENDBRANCH  45  46
ENDBRANCH  24  38
BRANCH  25  50
ATOM     50  C   UNL     1       4.300  10.306   1.783  1.00  0.00     0.058 A 
ATOM     51  C   UNL     1       4.968  11.060   0.809  1.00  0.00     0.135 A 
ATOM     52  C   UNL     1       2.945  10.591   2.017  1.00  0.00     0.135 A 
ATOM     53  F   UNL     1       6.265  10.830   0.555  1.00  0.00    -0.206 F 
ATOM     54  C   UNL     1       4.325  12.075   0.106  1.00  0.00     0.059 A 
ATOM     55  C   UNL     1       2.274  11.583   1.310  1.00  0.00     0.059 A 
ATOM     56  F   UNL     1       2.257   9.888   2.930  1.00  0.00    -0.206 F 
ATOM     57  C   UNL     1       2.977  12.328   0.365  1.00  0.00     0.060 A 
BRANCH  57  58
ATOM     58  S   UNL     1       2.145  13.629  -0.573  1.00  0.00     0.124 S 
ATOM     59  O   UNL     1       2.729  14.830   0.012  1.00  0.00    -0.237 OA
ATOM     60  O   UNL     1       2.548  13.323  -1.942  1.00  0.00    -0.237 OA
ATOM     61  O   UNL     1       0.733  13.404  -0.278  1.00  0.00    -0.744 OA
ENDBRANCH  57  58
ENDBRANCH  25  50
BRANCH  37  62
ATOM     62  C   UNL     1       9.269  10.394   6.684  1.00  0.00     0.058 A 
ATOM     63  C   UNL     1       8.651  11.192   7.659  1.00  0.00     0.135 A 
ATOM     64  C   UNL     1      10.634  10.604   6.432  1.00  0.00     0.135 A 
ATOM     65  F   UNL     1       7.345  11.036   7.931  1.00  0.00    -0.206 F 
ATOM     66  C   UNL     1       9.360  12.162   8.360  1.00  0.00     0.059 A 
ATOM     67  C   UNL     1      11.369  11.552   7.138  1.00  0.00     0.059 A 
ATOM     68  F   UNL     1      11.274   9.861   5.514  1.00  0.00    -0.206 F 
ATOM     69  C   UNL     1      10.721  12.328   8.098  1.00  0.00     0.060 A 
BRANCH  69  70
ATOM     70  S   UNL     1      11.641  13.544   9.065  1.00  0.00     0.124 S 
ATOM     71  O   UNL     1      11.129  14.799   8.524  1.00  0.00    -0.237 OA
ATOM     72  O   UNL     1      11.234  13.229  10.430  1.00  0.00    -0.237 OA
ATOM     73  O   UNL     1      13.035  13.248   8.748  1.00  0.00    -0.744 OA
ENDBRANCH  69  70
ENDBRANCH  37  62
ENDBRANCH  11  12
ENDBRANCH   4   6
ENDBRANCH   1   2
BRANCH   1  74
ATOM     74  C   UNL     1       4.923  -2.404   0.027  1.00  0.00     0.023 C 
BRANCH  74  75
ATOM     75  C   UNL     1       4.460  -3.639  -0.753  1.00  0.00     0.023 C 
BRANCH  75  76
ATOM     76  C   UNL     1       4.768  -3.634  -2.248  1.00  0.00     0.116 C 
BRANCH  76  77
ATOM     77  N   UNL     1       6.188  -3.534  -2.541  1.00  0.00    -0.352 N 
ATOM     78  C   UNL     1       6.937  -4.180  -3.487  1.00  0.00     0.252 C 
ATOM     79  H   UNL     1       6.688  -2.905  -1.972  1.00  0.00     0.163 HD
ATOM     80  O   UNL     1       8.138  -3.968  -3.609  1.00  0.00    -0.269 OA
BRANCH  78  81
ATOM     81  C   UNL     1       6.323  -5.207  -4.343  1.00  0.00     0.057 A 
ATOM     82  C   UNL     1       6.822  -6.499  -4.160  1.00  0.00     0.055 A 
ATOM     83  C   UNL     1       5.341  -4.928  -5.307  1.00  0.00     0.100 A 
ATOM     84  C   UNL     1       6.263  -7.497  -4.915  1.00  0.00     0.131 A 
ATOM     85  C   UNL     1       4.812  -6.034  -5.965  1.00  0.00     0.116 A 
ATOM     86  Cl  UNL     1       6.799  -9.118  -4.788  1.00  0.00    -0.062 Cl
ATOM     87  N   UNL     1       5.259  -7.302  -5.784  1.00  0.00    -0.229 NA
ATOM     88  I   UNL     1       3.167  -5.915  -7.287  1.00  0.00    -0.021 I 
BRANCH  83  89
ATOM     89  C   UNL     1       4.887  -3.533  -5.606  1.00  0.00     0.419 C 
ATOM     90  F   UNL     1       4.818  -3.266  -6.939  1.00  0.00    -0.166 F 
ATOM     91  F   UNL     1       3.645  -3.286  -5.103  1.00  0.00    -0.166 F 
ATOM     92  F   UNL     1       5.682  -2.550  -5.107  1.00  0.00    -0.166 F 
ENDBRANCH  83  89
ENDBRANCH  78  81
ENDBRANCH  76  77
ENDBRANCH  75  76
ENDBRANCH  74  75
ENDBRANCH   1  74
TORSDOF 15
