REMARK SMILES Cc1ccc(NC(=O)N[C@@H]2C=C[C@@H](C(=O)NCCCCNC(=O)c3ccc(-c4c5nc(c(-c6c(F)cc(S(=O)(=O)[O-])cc6F)c6ccc([nH]6)c(-c6c(F)cc(S(=O)(=O)[O-])cc6F)c6nc(c(-c7c(F)cc(S(=O)(=O)[O-])cc7F)c7ccc4[nH]7)C=C6)C=C5)cc3)C2)c(F)c1
REMARK SMILES IDX 19 1 18 2 17 3 16 4 14 5 15 6 13 8 10 9 11 10 90 11 12 12
REMARK SMILES IDX 9 13 6 14 7 15 8 17 5 19 1 20 2 21 3 22 93 23 4 24 91 25
REMARK SMILES IDX 92 26 20 27 21 28 22 29 23 31 24 32 25 33 89 34 26 35 88 36
REMARK SMILES IDX 27 37 28 38 29 39 82 40 30 41 87 42 81 43 83 44 31 45 86 46
REMARK SMILES IDX 80 47 79 48 32 50 66 51 45 52 65 53 46 54 49 55 64 56 84 57
REMARK SMILES IDX 47 58 48 59 63 61 85 62 50 63 33 64 34 65 43 66 35 67 36 68
REMARK SMILES IDX 42 69 44 70 37 71 38 72 39 73 40 74 41 75 67 76 68 77 77 78
REMARK SMILES IDX 69 79 70 80 76 81 78 82 71 83 72 84 73 85 74 86 75 87 51 88
REMARK SMILES IDX 52 89 61 90 53 91 54 92 60 93 62 94 55 95 56 96 57 97 58 98
REMARK SMILES IDX 59 99
REMARK H PARENT 16 7 6 16 9 18 21 30 83 49 49 60
REMARK Flexibility Score: inf
ROOT
ATOM      1  C   UNL     1      -4.326  -0.338   5.506  1.00  0.00     0.023 C 
ENDROOT
BRANCH   1   2
ATOM      2  C   UNL     1      -4.024  -0.481   4.012  1.00  0.00     0.023 C 
BRANCH   2   3
ATOM      3  C   UNL     1      -3.073   0.565   3.432  1.00  0.00     0.116 C 
BRANCH   3   4
ATOM      4  N   UNL     1      -1.740   0.472   3.988  1.00  0.00    -0.356 N 
ATOM      5  C   UNL     1      -0.492   0.457   3.467  1.00  0.00     0.227 C 
ATOM      6  O   UNL     1       0.422   0.476   4.306  1.00  0.00    -0.274 OA
ATOM      7  H   UNL     1      -1.742   0.405   4.970  1.00  0.00     0.163 HD
BRANCH   5   8
ATOM      8  C   UNL     1      -0.112   0.494   1.980  1.00  0.00     0.103 C 
ATOM      9  C   UNL     1      -1.614   1.374   0.265  1.00  0.00     0.107 C 
ATOM     10  C   UNL     1      -0.540   2.352   0.605  1.00  0.00    -0.006 C 
ATOM     11  C   UNL     1      -1.048   0.065   0.849  1.00  0.00     0.047 C 
ATOM     12  C   UNL     1       0.253   1.894   1.578  1.00  0.00    -0.016 C 
BRANCH   9  13
ATOM     13  N   UNL     1      -1.882   1.334  -1.156  1.00  0.00    -0.332 N 
ATOM     14  N   UNL     1      -2.770   3.486  -1.669  1.00  0.00    -0.305 N 
ATOM     15  C   UNL     1      -2.386   2.236  -2.029  1.00  0.00     0.319 C 
ATOM     16  H   UNL     1      -2.744   4.148  -2.397  1.00  0.00     0.171 HD
ATOM     17  O   UNL     1      -2.346   1.954  -3.230  1.00  0.00    -0.248 OA
ATOM     18  H   UNL     1      -1.650   0.474  -1.574  1.00  0.00     0.165 HD
BRANCH  14  19
ATOM     19  C   UNL     1      -3.196   3.991  -0.434  1.00  0.00     0.078 A 
ATOM     20  C   UNL     1      -3.440   4.990   3.715  1.00  0.00     0.044 C 
ATOM     21  C   UNL     1      -3.523   4.768   2.233  1.00  0.00    -0.048 A 
ATOM     22  C   UNL     1      -2.753   5.544   1.357  1.00  0.00     0.006 A 
ATOM     23  C   UNL     1      -4.257   3.693   1.722  1.00  0.00     0.045 A 
ATOM     24  C   UNL     1      -2.625   5.184   0.012  1.00  0.00     0.029 A 
ATOM     25  C   UNL     1      -4.092   3.314   0.394  1.00  0.00     0.147 A 
ATOM     26  F   UNL     1      -4.731   2.218  -0.044  1.00  0.00    -0.205 F 
ENDBRANCH  14  19
ENDBRANCH   9  13
ENDBRANCH   5   8
ENDBRANCH   3   4
ENDBRANCH   2   3
ENDBRANCH   1   2
BRANCH   1  27
ATOM     27  C   UNL     1      -4.938   0.996   5.928  1.00  0.00     0.116 C 
BRANCH  27  28
ATOM     28  N   UNL     1      -6.241   1.237   5.326  1.00  0.00    -0.352 N 
ATOM     29  C   UNL     1      -7.468   1.410   5.924  1.00  0.00     0.251 C 
ATOM     30  H   UNL     1      -6.245   1.284   4.343  1.00  0.00     0.163 HD
ATOM     31  O   UNL     1      -8.480   1.454   5.229  1.00  0.00    -0.269 OA
BRANCH  29  32
ATOM     32  C   UNL     1      -7.576   1.511   7.396  1.00  0.00     0.039 A 
ATOM     33  C   UNL     1      -8.549   0.753   8.056  1.00  0.00     0.014 A 
ATOM     34  C   UNL     1      -6.722   2.340   8.127  1.00  0.00     0.014 A 
ATOM     35  C   UNL     1      -8.605   0.761   9.453  1.00  0.00     0.010 A 
ATOM     36  C   UNL     1      -6.733   2.291   9.520  1.00  0.00     0.010 A 
ATOM     37  C   UNL     1      -7.668   1.494  10.199  1.00  0.00    -0.014 A 
BRANCH  37  38
ATOM     38  C   UNL     1      -7.631   1.419  11.684  1.00  0.00     0.031 A 
ATOM     39  C   UNL     1      -7.886   2.645  12.516  1.00  0.00     0.074 A 
ATOM     40  C   UNL     1      -7.285   0.261  12.282  1.00  0.00     0.049 A 
ATOM     41  N   UNL     1      -7.808   2.794  13.814  1.00  0.00    -0.248 NA
ATOM     42  C   UNL     1      -8.251   3.874  11.793  1.00  0.00     0.031 C 
ATOM     43  C   UNL     1      -6.957  -0.987  11.587  1.00  0.00     0.029 A 
ATOM     44  N   UNL     1      -7.134  -0.053  13.611  1.00  0.00    -0.354 N 
ATOM     45  C   UNL     1      -8.093   4.131  14.062  1.00  0.00     0.074 A 
ATOM     46  C   UNL     1      -8.303   4.762  12.776  1.00  0.00     0.031 C 
ATOM     47  C   UNL     1      -6.660  -1.932  12.494  1.00  0.00     0.029 A 
ATOM     48  C   UNL     1      -6.740  -1.353  13.831  1.00  0.00     0.049 A 
ATOM     49  H   UNL     1      -7.294   0.591  14.337  1.00  0.00     0.167 HD
ATOM     50  C   UNL     1      -8.191   4.771  15.252  1.00  0.00     0.037 A 
ATOM     51  C   UNL     1      -6.465  -2.004  14.978  1.00  0.00     0.037 A 
ATOM     52  C   UNL     1      -8.014   4.133  16.531  1.00  0.00     0.049 A 
ATOM     53  C   UNL     1      -6.601  -1.278  16.288  1.00  0.00     0.074 A 
ATOM     54  C   UNL     1      -8.161   4.683  17.794  1.00  0.00     0.029 A 
ATOM     55  N   UNL     1      -7.654   2.806  16.713  1.00  0.00    -0.354 N 
ATOM     56  N   UNL     1      -6.935  -0.028  16.506  1.00  0.00    -0.248 NA
ATOM     57  C   UNL     1      -6.332  -2.050  17.509  1.00  0.00     0.031 C 
ATOM     58  C   UNL     1      -7.854   3.698  18.738  1.00  0.00     0.029 A 
ATOM     59  C   UNL     1      -7.558   2.523  18.066  1.00  0.00     0.049 A 
ATOM     60  H   UNL     1      -7.491   2.161  15.988  1.00  0.00     0.167 HD
ATOM     61  C   UNL     1      -6.939   0.129  17.887  1.00  0.00     0.074 A 
ATOM     62  C   UNL     1      -6.585  -1.156  18.455  1.00  0.00     0.031 C 
ATOM     63  C   UNL     1      -7.211   1.237  18.619  1.00  0.00     0.037 A 
BRANCH  50  64
ATOM     64  C   UNL     1      -8.511   6.240  15.229  1.00  0.00     0.058 A 
ATOM     65  C   UNL     1      -9.786   6.710  14.874  1.00  0.00     0.135 A 
ATOM     66  C   UNL     1      -7.545   7.188  15.602  1.00  0.00     0.135 A 
ATOM     67  F   UNL     1     -10.742   5.848  14.495  1.00  0.00    -0.206 F 
ATOM     68  C   UNL     1     -10.083   8.068  14.861  1.00  0.00     0.059 A 
ATOM     69  C   UNL     1      -7.828   8.551  15.622  1.00  0.00     0.059 A 
ATOM     70  F   UNL     1      -6.310   6.794  15.951  1.00  0.00    -0.206 F 
ATOM     71  C   UNL     1      -9.096   8.982  15.235  1.00  0.00     0.060 A 
BRANCH  71  72
ATOM     72  S   UNL     1      -9.497  10.742  15.214  1.00  0.00     0.124 S 
ATOM     73  O   UNL     1      -9.494  11.023  13.782  1.00  0.00    -0.237 OA
ATOM     74  O   UNL     1     -10.804  10.773  15.863  1.00  0.00    -0.237 OA
ATOM     75  O   UNL     1      -8.409  11.348  15.975  1.00  0.00    -0.744 OA
ENDBRANCH  71  72
ENDBRANCH  50  64
BRANCH  51  76
ATOM     76  C   UNL     1      -6.053  -3.432  14.938  1.00  0.00     0.058 A 
ATOM     77  C   UNL     1      -6.923  -4.445  15.366  1.00  0.00     0.135 A 
ATOM     78  C   UNL     1      -4.792  -3.813  14.455  1.00  0.00     0.135 A 
ATOM     79  F   UNL     1      -8.137  -4.128  15.843  1.00  0.00    -0.206 F 
ATOM     80  C   UNL     1      -6.555  -5.786  15.329  1.00  0.00     0.059 A 
ATOM     81  C   UNL     1      -4.409  -5.149  14.386  1.00  0.00     0.059 A 
ATOM     82  F   UNL     1      -3.929  -2.883  14.017  1.00  0.00    -0.206 F 
ATOM     83  C   UNL     1      -5.296  -6.128  14.835  1.00  0.00     0.060 A 
BRANCH  83  84
ATOM     84  S   UNL     1      -4.848  -7.876  14.737  1.00  0.00     0.124 S 
ATOM     85  O   UNL     1      -4.579  -8.188  16.136  1.00  0.00    -0.237 OA
ATOM     86  O   UNL     1      -6.055  -8.471  14.170  1.00  0.00    -0.237 OA
ATOM     87  O   UNL     1      -3.686  -7.874  13.854  1.00  0.00    -0.744 OA
ENDBRANCH  83  84
ENDBRANCH  51  76
BRANCH  63  88
ATOM     88  C   UNL     1      -7.170   1.107  20.116  1.00  0.00     0.058 A 
ATOM     89  C   UNL     1      -5.957   1.008  20.813  1.00  0.00     0.135 A 
ATOM     90  C   UNL     1      -8.358   1.135  20.864  1.00  0.00     0.135 A 
ATOM     91  F   UNL     1      -4.793   0.971  20.144  1.00  0.00    -0.206 F 
ATOM     92  C   UNL     1      -5.923   0.921  22.201  1.00  0.00     0.059 A 
ATOM     93  C   UNL     1      -8.346   1.073  22.254  1.00  0.00     0.059 A 
ATOM     94  F   UNL     1      -9.545   1.238  20.245  1.00  0.00    -0.206 F 
ATOM     95  C   UNL     1      -7.123   0.955  22.913  1.00  0.00     0.060 A 
BRANCH  95  96
ATOM     96  S   UNL     1      -7.066   0.878  24.716  1.00  0.00     0.124 S 
ATOM     97  O   UNL     1      -6.781  -0.535  24.940  1.00  0.00    -0.237 OA
ATOM     98  O   UNL     1      -5.981   1.802  25.036  1.00  0.00    -0.237 OA
ATOM     99  O   UNL     1      -8.397   1.322  25.118  1.00  0.00    -0.744 OA
ENDBRANCH  95  96
ENDBRANCH  63  88
ENDBRANCH  37  38
ENDBRANCH  29  32
ENDBRANCH  27  28
ENDBRANCH   1  27
TORSDOF 16
