REMARK SMILES Cc1cc([N+](=O)[O-])ccc1NC(=O)[C@@H]1[C@@H](C(=O)NCCCCNC(=O)c2ccc(-c3c4nc(c(-c5c(F)cc(S(=O)(=O)[O-])cc5F)c5ccc([nH]5)c(-c5c(F)cc(S(=O)(=O)[O-])cc5F)c5nc(c(-c6c(F)cc(S(=O)(=O)[O-])cc6F)c6ccc3[nH]6)C=C5)C=C4)cc2)[C@H]2C=C[C@@H]1C2
REMARK SMILES IDX 20 1 19 2 18 3 16 4 17 5 15 7 14 8 95 9 92 10 94 11 96 12
REMARK SMILES IDX 93 13 12 14 11 15 13 17 10 18 1 19 2 20 3 21 4 22 9 23 8 24
REMARK SMILES IDX 5 25 6 26 7 27 21 28 22 29 23 30 24 31 25 33 26 34 27 35
REMARK SMILES IDX 91 36 28 37 90 38 29 39 30 40 31 41 84 42 32 43 89 44 83 45
REMARK SMILES IDX 85 46 33 47 88 48 82 49 81 50 34 52 68 53 47 54 67 55 48 56
REMARK SMILES IDX 51 57 66 58 86 59 49 60 50 61 65 63 87 64 52 65 35 66 36 67
REMARK SMILES IDX 45 68 37 69 38 70 44 71 46 72 39 73 40 74 41 75 42 76 43 77
REMARK SMILES IDX 69 78 70 79 79 80 71 81 72 82 78 83 80 84 73 85 74 86 75 87
REMARK SMILES IDX 76 88 77 89 53 90 54 91 63 92 55 93 56 94 62 95 64 96 57 97
REMARK SMILES IDX 58 98 59 99 60 100 61 101
REMARK H PARENT 18 6 11 16 23 32 85 51 51 62
REMARK Flexibility Score: inf
ROOT
ATOM      1  C   UNL     1      -3.131   9.327   0.289  1.00  0.00     0.023 C 
ENDROOT
BRANCH   1   2
ATOM      2  C   UNL     1      -3.475   7.871   0.620  1.00  0.00     0.116 C 
BRANCH   2   3
ATOM      3  N   UNL     1      -3.307   6.963  -0.502  1.00  0.00    -0.356 N 
ATOM      4  C   UNL     1      -2.655   5.774  -0.615  1.00  0.00     0.224 C 
ATOM      5  O   UNL     1      -2.672   5.237  -1.727  1.00  0.00    -0.275 OA
ATOM      6  H   UNL     1      -3.745   7.262  -1.332  1.00  0.00     0.163 HD
BRANCH   4   7
ATOM      7  C   UNL     1      -1.857   5.186   0.545  1.00  0.00     0.098 C 
ATOM      8  C   UNL     1      -1.392   3.699   0.231  1.00  0.00     0.099 C 
ATOM      9  C   UNL     1      -1.830   2.939   1.512  1.00  0.00     0.025 C 
ATOM     10  C   UNL     1      -2.636   4.988   1.872  1.00  0.00     0.025 C 
ATOM     11  C   UNL     1      -3.336   2.835   1.461  1.00  0.00    -0.027 C 
ATOM     12  C   UNL     1      -1.702   4.012   2.591  1.00  0.00     0.017 C 
ATOM     13  C   UNL     1      -3.818   4.070   1.660  1.00  0.00    -0.027 C 
BRANCH   8  14
ATOM     14  C   UNL     1       0.090   3.525  -0.052  1.00  0.00     0.228 C 
ATOM     15  N   UNL     1       0.649   2.294  -0.294  1.00  0.00    -0.326 N 
ATOM     16  H   UNL     1       1.621   2.336  -0.449  1.00  0.00     0.169 HD
ATOM     17  O   UNL     1       0.865   4.487  -0.036  1.00  0.00    -0.274 OA
BRANCH  15  18
ATOM     18  C   UNL     1       0.134   0.980  -0.368  1.00  0.00     0.044 A 
ATOM     19  C   UNL     1       2.475  -0.005   0.135  1.00  0.00     0.047 C 
ATOM     20  C   UNL     1       0.988  -0.114  -0.089  1.00  0.00    -0.021 A 
ATOM     21  C   UNL     1       0.446  -1.418  -0.014  1.00  0.00     0.091 A 
ATOM     22  C   UNL     1      -0.918  -1.637  -0.229  1.00  0.00     0.269 A 
ATOM     23  C   UNL     1      -1.203   0.708  -0.689  1.00  0.00     0.033 A 
ATOM     24  C   UNL     1      -1.741  -0.580  -0.598  1.00  0.00     0.088 A 
BRANCH  22  25
ATOM     25  N   UNL     1      -1.481  -2.981  -0.066  1.00  0.00     0.062 N 
ATOM     26  O   UNL     1      -0.687  -3.923   0.081  1.00  0.00    -0.258 OA
ATOM     27  O   UNL     1      -2.714  -3.096  -0.071  1.00  0.00    -0.258 OA
ENDBRANCH  22  25
ENDBRANCH  15  18
ENDBRANCH   8  14
ENDBRANCH   4   7
ENDBRANCH   2   3
ENDBRANCH   1   2
BRANCH   1  28
ATOM     28  C   UNL     1      -3.824   9.920  -0.936  1.00  0.00     0.023 C 
BRANCH  28  29
ATOM     29  C   UNL     1      -5.338  10.035  -0.815  1.00  0.00     0.116 C 
BRANCH  29  30
ATOM     30  N   UNL     1      -5.786  11.376  -0.473  1.00  0.00    -0.352 N 
ATOM     31  C   UNL     1      -7.058  11.907  -0.610  1.00  0.00     0.251 C 
ATOM     32  H   UNL     1      -5.103  11.978  -0.099  1.00  0.00     0.163 HD
ATOM     33  O   UNL     1      -7.274  13.106  -0.591  1.00  0.00    -0.269 OA
BRANCH  31  34
ATOM     34  C   UNL     1      -8.179  10.944  -0.633  1.00  0.00     0.039 A 
ATOM     35  C   UNL     1      -9.006  10.904   0.496  1.00  0.00     0.014 A 
ATOM     36  C   UNL     1      -8.230   9.944  -1.599  1.00  0.00     0.014 A 
ATOM     37  C   UNL     1      -9.757   9.761   0.754  1.00  0.00     0.010 A 
ATOM     38  C   UNL     1      -8.902   8.777  -1.297  1.00  0.00     0.010 A 
ATOM     39  C   UNL     1      -9.629   8.669  -0.102  1.00  0.00    -0.014 A 
BRANCH  39  40
ATOM     40  C   UNL     1     -10.154   7.343   0.199  1.00  0.00     0.031 A 
ATOM     41  C   UNL     1     -11.339   6.833  -0.525  1.00  0.00     0.074 A 
ATOM     42  C   UNL     1      -9.478   6.542   1.050  1.00  0.00     0.049 A 
ATOM     43  N   UNL     1     -12.078   5.851  -0.132  1.00  0.00    -0.248 NA
ATOM     44  C   UNL     1     -11.811   7.443  -1.761  1.00  0.00     0.031 C 
ATOM     45  C   UNL     1      -9.622   5.098   1.208  1.00  0.00     0.029 A 
ATOM     46  N   UNL     1      -8.636   6.922   2.096  1.00  0.00    -0.354 N 
ATOM     47  C   UNL     1     -12.921   5.515  -1.170  1.00  0.00     0.074 A 
ATOM     48  C   UNL     1     -12.759   6.579  -2.133  1.00  0.00     0.031 C 
ATOM     49  C   UNL     1      -9.106   4.736   2.393  1.00  0.00     0.029 A 
ATOM     50  C   UNL     1      -8.763   5.953   3.108  1.00  0.00     0.049 A 
ATOM     51  H   UNL     1      -8.060   7.720   2.121  1.00  0.00     0.167 HD
ATOM     52  C   UNL     1     -13.550   4.301  -1.157  1.00  0.00     0.037 A 
ATOM     53  C   UNL     1      -9.260   6.290   4.336  1.00  0.00     0.037 A 
ATOM     54  C   UNL     1     -13.291   3.596   0.100  1.00  0.00     0.049 A 
ATOM     55  C   UNL     1     -10.566   5.607   4.678  1.00  0.00     0.074 A 
ATOM     56  C   UNL     1     -12.372   2.618   0.447  1.00  0.00     0.029 A 
ATOM     57  N   UNL     1     -13.804   4.092   1.295  1.00  0.00    -0.354 N 
ATOM     58  N   UNL     1     -11.329   5.009   3.806  1.00  0.00    -0.248 NA
ATOM     59  C   UNL     1     -11.122   5.556   6.028  1.00  0.00     0.031 C 
ATOM     60  C   UNL     1     -12.272   2.588   1.859  1.00  0.00     0.029 A 
ATOM     61  C   UNL     1     -13.146   3.529   2.374  1.00  0.00     0.049 A 
ATOM     62  H   UNL     1     -14.533   4.750   1.363  1.00  0.00     0.167 HD
ATOM     63  C   UNL     1     -12.459   4.543   4.425  1.00  0.00     0.074 A 
ATOM     64  C   UNL     1     -12.268   4.885   5.822  1.00  0.00     0.031 C 
ATOM     65  C   UNL     1     -13.465   3.924   3.738  1.00  0.00     0.037 A 
BRANCH  52  66
ATOM     66  C   UNL     1     -14.107   3.628  -2.403  1.00  0.00     0.058 A 
ATOM     67  C   UNL     1     -14.105   2.220  -2.526  1.00  0.00     0.135 A 
ATOM     68  C   UNL     1     -14.581   4.304  -3.545  1.00  0.00     0.135 A 
ATOM     69  F   UNL     1     -13.806   1.425  -1.489  1.00  0.00    -0.206 F 
ATOM     70  C   UNL     1     -14.403   1.553  -3.717  1.00  0.00     0.059 A 
ATOM     71  C   UNL     1     -14.831   3.668  -4.767  1.00  0.00     0.059 A 
ATOM     72  F   UNL     1     -14.881   5.609  -3.507  1.00  0.00    -0.206 F 
ATOM     73  C   UNL     1     -14.722   2.288  -4.849  1.00  0.00     0.060 A 
BRANCH  73  74
ATOM     74  S   UNL     1     -15.009   1.420  -6.403  1.00  0.00     0.124 S 
ATOM     75  O   UNL     1     -13.780   0.647  -6.556  1.00  0.00    -0.237 OA
ATOM     76  O   UNL     1     -16.211   0.650  -6.104  1.00  0.00    -0.237 OA
ATOM     77  O   UNL     1     -15.182   2.501  -7.370  1.00  0.00    -0.744 OA
ENDBRANCH  73  74
ENDBRANCH  52  66
BRANCH  53  78
ATOM     78  C   UNL     1      -8.860   7.657   4.770  1.00  0.00     0.058 A 
ATOM     79  C   UNL     1      -7.495   7.880   5.039  1.00  0.00     0.135 A 
ATOM     80  C   UNL     1      -9.657   8.777   4.493  1.00  0.00     0.135 A 
ATOM     81  F   UNL     1      -6.690   6.843   5.325  1.00  0.00    -0.206 F 
ATOM     82  C   UNL     1      -6.911   9.129   4.872  1.00  0.00     0.059 A 
ATOM     83  C   UNL     1      -9.092  10.044   4.328  1.00  0.00     0.059 A 
ATOM     84  F   UNL     1     -10.965   8.628   4.235  1.00  0.00    -0.206 F 
ATOM     85  C   UNL     1      -7.708  10.190   4.447  1.00  0.00     0.060 A 
BRANCH  85  86
ATOM     86  S   UNL     1      -6.872  11.690   3.878  1.00  0.00     0.124 S 
ATOM     87  O   UNL     1      -6.173  12.122   5.082  1.00  0.00    -0.237 OA
ATOM     88  O   UNL     1      -6.020  11.167   2.809  1.00  0.00    -0.237 OA
ATOM     89  O   UNL     1      -7.972  12.542   3.444  1.00  0.00    -0.744 OA
ENDBRANCH  85  86
ENDBRANCH  53  78
BRANCH  65  90
ATOM     90  C   UNL     1     -14.803   3.544   4.319  1.00  0.00     0.058 A 
ATOM     91  C   UNL     1     -15.471   4.298   5.299  1.00  0.00     0.135 A 
ATOM     92  C   UNL     1     -15.522   2.445   3.793  1.00  0.00     0.135 A 
ATOM     93  F   UNL     1     -14.936   5.425   5.792  1.00  0.00    -0.206 F 
ATOM     94  C   UNL     1     -16.732   3.945   5.781  1.00  0.00     0.059 A 
ATOM     95  C   UNL     1     -16.802   2.105   4.223  1.00  0.00     0.059 A 
ATOM     96  F   UNL     1     -15.000   1.665   2.834  1.00  0.00    -0.206 F 
ATOM     97  C   UNL     1     -17.389   2.843   5.241  1.00  0.00     0.060 A 
BRANCH  97  98
ATOM     98  S   UNL     1     -19.034   2.402   5.829  1.00  0.00     0.124 S 
ATOM     99  O   UNL     1     -18.717   1.476   6.911  1.00  0.00    -0.237 OA
ATOM    100  O   UNL     1     -19.588   3.688   6.243  1.00  0.00    -0.237 OA
ATOM    101  O   UNL     1     -19.660   1.810   4.651  1.00  0.00    -0.744 OA
ENDBRANCH  97  98
ENDBRANCH  65  90
ENDBRANCH  39  40
ENDBRANCH  31  34
ENDBRANCH  29  30
ENDBRANCH  28  29
ENDBRANCH   1  28
TORSDOF 17
