REMARK SMILES CCC[C@]1(C(=O)NCCCCNC(=O)c2ccc(-c3c4nc(c(-c5c(F)cc(S(=O)(=O)[O-])cc5F)c5ccc([nH]5)c(-c5c(F)cc(S(=O)(=O)[O-])cc5F)c5nc(c(-c6c(F)cc(S(=O)(=O)[O-])cc6F)c6ccc3[nH]6)C=C5)C=C4)cc2)CCN(c2cncc(C(=O)OC)n2)C1
REMARK SMILES IDX 9 1 8 2 7 3 5 4 6 5 4 7 81 8 94 9 82 10 83 11 3 12 2 13 1 14
REMARK SMILES IDX 84 15 85 16 93 17 86 18 88 19 87 20 89 21 90 22 91 23 92 24
REMARK SMILES IDX 10 25 11 26 12 27 13 28 14 30 15 31 16 32 80 33 17 34 79 35
REMARK SMILES IDX 18 36 19 37 20 38 73 39 21 40 78 41 72 42 74 43 22 44 77 45
REMARK SMILES IDX 71 46 70 47 23 49 57 50 36 51 56 52 37 53 40 54 55 55 75 56
REMARK SMILES IDX 38 57 39 58 54 60 76 61 41 62 24 63 25 64 34 65 26 66 27 67
REMARK SMILES IDX 33 68 35 69 28 70 29 71 30 72 31 73 32 74 58 75 59 76 68 77
REMARK SMILES IDX 60 78 61 79 67 80 69 81 62 82 63 83 64 84 65 85 66 86 42 87
REMARK SMILES IDX 43 88 52 89 44 90 45 91 51 92 53 93 46 94 47 95 48 96 49 97
REMARK SMILES IDX 50 98
REMARK H PARENT 7 6 12 29 74 48 40 59
REMARK Flexibility Score: inf
ROOT
ATOM      1  C   UNL     1       0.360  -5.542  -0.165  1.00  0.00     0.023 C 
ENDROOT
BRANCH   1   2
ATOM      2  C   UNL     1      -0.664  -4.484  -0.581  1.00  0.00     0.116 C 
BRANCH   2   3
ATOM      3  N   UNL     1      -0.273  -3.176  -0.104  1.00  0.00    -0.356 N 
ATOM      4  C   UNL     1       0.684  -2.372  -0.635  1.00  0.00     0.228 C 
ATOM      5  O   UNL     1       1.521  -1.944   0.166  1.00  0.00    -0.274 OA
ATOM      6  H   UNL     1      -0.749  -2.833   0.687  1.00  0.00     0.163 HD
BRANCH   4   7
ATOM      7  C   UNL     1       0.798  -2.062  -2.137  1.00  0.00     0.068 C 
ATOM      8  C   UNL     1       1.795  -3.076  -2.759  1.00  0.00     0.040 C 
ATOM      9  C   UNL     1      -0.500  -2.213  -2.977  1.00  0.00     0.135 C 
ATOM     10  C   UNL     1       1.117  -3.654  -3.994  1.00  0.00     0.119 C 
ATOM     11  N   UNL     1      -0.291  -3.443  -3.737  1.00  0.00    -0.354 N 
BRANCH   7  12
ATOM     12  C   UNL     1       1.371  -0.618  -2.287  1.00  0.00     0.018 C 
BRANCH  12  13
ATOM     13  C   UNL     1       0.536   0.530  -1.685  1.00  0.00    -0.002 C 
ATOM     14  C   UNL     1       0.775   0.799  -0.202  1.00  0.00     0.004 C 
ENDBRANCH  12  13
ENDBRANCH   7  12
BRANCH  11  15
ATOM     15  C   UNL     1      -1.179  -3.895  -4.691  1.00  0.00     0.148 A 
ATOM     16  C   UNL     1      -1.637  -5.221  -4.607  1.00  0.00     0.157 A 
ATOM     17  N   UNL     1      -1.546  -3.116  -5.734  1.00  0.00    -0.221 NA
ATOM     18  N   UNL     1      -2.461  -5.811  -5.506  1.00  0.00    -0.258 NA
ATOM     19  C   UNL     1      -2.361  -3.709  -6.661  1.00  0.00     0.169 A 
ATOM     20  C   UNL     1      -2.812  -5.018  -6.540  1.00  0.00     0.147 A 
BRANCH  19  21
ATOM     21  C   UNL     1      -2.762  -2.980  -7.893  1.00  0.00     0.358 C 
ATOM     22  O   UNL     1      -3.542  -3.443  -8.713  1.00  0.00    -0.244 OA
BRANCH  21  23
ATOM     23  O   UNL     1      -2.127  -1.784  -8.008  1.00  0.00    -0.464 OA
ATOM     24  C   UNL     1      -2.443  -1.093  -9.218  1.00  0.00     0.282 C 
ENDBRANCH  21  23
ENDBRANCH  19  21
ENDBRANCH  11  15
ENDBRANCH   4   7
ENDBRANCH   2   3
ENDBRANCH   1   2
BRANCH   1  25
ATOM     25  C   UNL     1       0.469  -5.754   1.346  1.00  0.00     0.023 C 
BRANCH  25  26
ATOM     26  C   UNL     1      -0.840  -6.117   2.032  1.00  0.00     0.116 C 
BRANCH  26  27
ATOM     27  N   UNL     1      -1.479  -7.280   1.436  1.00  0.00    -0.352 N 
ATOM     28  C   UNL     1      -2.046  -8.366   2.055  1.00  0.00     0.251 C 
ATOM     29  H   UNL     1      -1.508  -7.290   0.452  1.00  0.00     0.163 HD
ATOM     30  O   UNL     1      -2.397  -9.336   1.392  1.00  0.00    -0.269 OA
BRANCH  28  31
ATOM     31  C   UNL     1      -2.199  -8.363   3.523  1.00  0.00     0.039 A 
ATOM     32  C   UNL     1      -1.822  -9.498   4.243  1.00  0.00     0.014 A 
ATOM     33  C   UNL     1      -2.687  -7.233   4.186  1.00  0.00     0.014 A 
ATOM     34  C   UNL     1      -1.876  -9.475   5.637  1.00  0.00     0.010 A 
ATOM     35  C   UNL     1      -2.658  -7.183   5.575  1.00  0.00     0.010 A 
ATOM     36  C   UNL     1      -2.260  -8.306   6.315  1.00  0.00    -0.014 A 
BRANCH  36  37
ATOM     37  C   UNL     1      -2.253  -8.241   7.798  1.00  0.00     0.031 A 
ATOM     38  C   UNL     1      -3.536  -8.004   8.547  1.00  0.00     0.074 A 
ATOM     39  C   UNL     1      -1.085  -8.337   8.463  1.00  0.00     0.049 A 
ATOM     40  N   UNL     1      -3.727  -7.866   9.834  1.00  0.00    -0.248 NA
ATOM     41  C   UNL     1      -4.764  -7.878   7.744  1.00  0.00     0.031 C 
ATOM     42  C   UNL     1       0.231  -8.513   7.841  1.00  0.00     0.029 A 
ATOM     43  N   UNL     1      -0.811  -8.294   9.807  1.00  0.00    -0.354 N 
ATOM     44  C   UNL     1      -5.087  -7.627   9.992  1.00  0.00     0.074 A 
ATOM     45  C   UNL     1      -5.664  -7.576   8.667  1.00  0.00     0.031 C 
ATOM     46  C   UNL     1       1.165  -8.591   8.802  1.00  0.00     0.029 A 
ATOM     47  C   UNL     1       0.525  -8.428  10.104  1.00  0.00     0.049 A 
ATOM     48  H   UNL     1      -1.506  -8.177  10.494  1.00  0.00     0.167 HD
ATOM     49  C   UNL     1      -5.795  -7.489  11.138  1.00  0.00     0.037 A 
ATOM     50  C   UNL     1       1.163  -8.415  11.290  1.00  0.00     0.037 A 
ATOM     51  C   UNL     1      -5.213  -7.562  12.453  1.00  0.00     0.049 A 
ATOM     52  C   UNL     1       0.356  -8.254  12.550  1.00  0.00     0.074 A 
ATOM     53  C   UNL     1      -5.849  -7.493  13.680  1.00  0.00     0.029 A 
ATOM     54  N   UNL     1      -3.858  -7.716  12.714  1.00  0.00    -0.354 N 
ATOM     55  N   UNL     1      -0.940  -8.100  12.685  1.00  0.00    -0.248 NA
ATOM     56  C   UNL     1       1.095  -8.272  13.820  1.00  0.00     0.031 C 
ATOM     57  C   UNL     1      -4.875  -7.549  14.681  1.00  0.00     0.029 A 
ATOM     58  C   UNL     1      -3.637  -7.718  14.082  1.00  0.00     0.049 A 
ATOM     59  H   UNL     1      -3.158  -7.809  12.029  1.00  0.00     0.167 HD
ATOM     60  C   UNL     1      -1.175  -8.033  14.054  1.00  0.00     0.074 A 
ATOM     61  C   UNL     1       0.112  -8.178  14.704  1.00  0.00     0.031 C 
ATOM     62  C   UNL     1      -2.349  -7.869  14.714  1.00  0.00     0.037 A 
BRANCH  49  63
ATOM     63  C   UNL     1      -7.276  -7.249  11.022  1.00  0.00     0.058 A 
ATOM     64  C   UNL     1      -8.152  -8.242  10.553  1.00  0.00     0.135 A 
ATOM     65  C   UNL     1      -7.834  -6.023  11.418  1.00  0.00     0.135 A 
ATOM     66  F   UNL     1      -7.673  -9.429  10.144  1.00  0.00    -0.206 F 
ATOM     67  C   UNL     1      -9.521  -8.018  10.451  1.00  0.00     0.059 A 
ATOM     68  C   UNL     1      -9.205  -5.788  11.356  1.00  0.00     0.059 A 
ATOM     69  F   UNL     1      -7.045  -5.036  11.873  1.00  0.00    -0.206 F 
ATOM     70  C   UNL     1     -10.038  -6.788  10.857  1.00  0.00     0.060 A 
BRANCH  70  71
ATOM     71  S   UNL     1     -11.818  -6.518  10.727  1.00  0.00     0.124 S 
ATOM     72  O   UNL     1     -11.992  -6.415   9.281  1.00  0.00    -0.237 OA
ATOM     73  O   UNL     1     -12.361  -7.723  11.346  1.00  0.00    -0.237 OA
ATOM     74  O   UNL     1     -12.031  -5.282  11.474  1.00  0.00    -0.744 OA
ENDBRANCH  70  71
ENDBRANCH  49  63
BRANCH  50  75
ATOM     75  C   UNL     1       2.641  -8.581  11.343  1.00  0.00     0.058 A 
ATOM     76  C   UNL     1       3.221  -9.742  11.876  1.00  0.00     0.135 A 
ATOM     77  C   UNL     1       3.504  -7.589  10.851  1.00  0.00     0.135 A 
ATOM     78  F   UNL     1       2.440 -10.718  12.364  1.00  0.00    -0.206 F 
ATOM     79  C   UNL     1       4.601  -9.906  11.940  1.00  0.00     0.059 A 
ATOM     80  C   UNL     1       4.887  -7.742  10.877  1.00  0.00     0.059 A 
ATOM     81  F   UNL     1       3.002  -6.466  10.314  1.00  0.00    -0.206 F 
ATOM     82  C   UNL     1       5.426  -8.900  11.435  1.00  0.00     0.060 A 
BRANCH  82  83
ATOM     83  S   UNL     1       7.215  -9.144  11.483  1.00  0.00     0.124 S 
ATOM     84  O   UNL     1       7.492  -9.004  12.908  1.00  0.00    -0.237 OA
ATOM     85  O   UNL     1       7.355 -10.488  10.933  1.00  0.00    -0.237 OA
ATOM     86  O   UNL     1       7.723  -8.071  10.633  1.00  0.00    -0.744 OA
ENDBRANCH  82  83
ENDBRANCH  50  75
BRANCH  62  87
ATOM     87  C   UNL     1      -2.307  -7.877  16.218  1.00  0.00     0.058 A 
ATOM     88  C   UNL     1      -1.753  -6.815  16.950  1.00  0.00     0.135 A 
ATOM     89  C   UNL     1      -2.877  -8.941  16.937  1.00  0.00     0.135 A 
ATOM     90  F   UNL     1      -1.190  -5.776  16.313  1.00  0.00    -0.206 F 
ATOM     91  C   UNL     1      -1.742  -6.820  18.341  1.00  0.00     0.059 A 
ATOM     92  C   UNL     1      -2.905  -8.952  18.327  1.00  0.00     0.059 A 
ATOM     93  F   UNL     1      -3.430  -9.977  16.287  1.00  0.00    -0.206 F 
ATOM     94  C   UNL     1      -2.323  -7.892  19.021  1.00  0.00     0.060 A 
BRANCH  94  95
ATOM     95  S   UNL     1      -2.330  -7.870  20.826  1.00  0.00     0.124 S 
ATOM     96  O   UNL     1      -0.926  -8.131  21.128  1.00  0.00    -0.237 OA
ATOM     97  O   UNL     1      -2.801  -6.520  21.119  1.00  0.00    -0.237 OA
ATOM     98  O   UNL     1      -3.257  -8.941  21.177  1.00  0.00    -0.744 OA
ENDBRANCH  94  95
ENDBRANCH  62  87
ENDBRANCH  36  37
ENDBRANCH  28  31
ENDBRANCH  26  27
ENDBRANCH  25  26
ENDBRANCH   1  25
TORSDOF 19
