REMARK SMILES N#C[C@@H]1CN(C(=O)NCCCC(=O)NCCCCNC(=O)c2ccc(-c3c4nc(c(-c5c(F)cc(S(=O)(=O)[O-])cc5F)c5ccc([nH]5)c(-c5c(F)cc(S(=O)(=O)[O-])cc5F)c5nc(c(-c6c(F)cc(S(=O)(=O)[O-])cc6F)c6ccc3[nH]6)C=C5)C=C4)cc2)CCO1
REMARK SMILES IDX 15 1 14 2 12 3 13 4 11 6 10 7 9 8 8 9 6 10 7 11 5 13 3 14
REMARK SMILES IDX 4 15 90 16 89 17 88 18 2 19 1 20 16 21 17 22 18 23 19 24
REMARK SMILES IDX 20 25 21 27 22 28 23 29 87 30 24 31 86 32 25 33 26 34 27 35
REMARK SMILES IDX 80 36 28 37 85 38 79 39 81 40 29 41 84 42 78 43 77 44 30 46
REMARK SMILES IDX 64 47 43 48 63 49 44 50 47 51 62 52 82 53 45 54 46 55 61 57
REMARK SMILES IDX 83 58 48 59 31 60 32 61 41 62 33 63 34 64 40 65 42 66 35 67
REMARK SMILES IDX 36 68 37 69 38 70 39 71 65 72 66 73 75 74 67 75 68 76 74 77
REMARK SMILES IDX 76 78 69 79 70 80 71 81 72 82 73 83 49 84 50 85 59 86 51 87
REMARK SMILES IDX 52 88 58 89 60 90 53 91 54 92 55 93 56 94 57 95
REMARK H PARENT 14 5 8 12 19 26 81 45 47 56
REMARK Flexibility Score: inf
ROOT
ATOM      1  C   UNL     1       0.369   4.174  -1.953  1.00  0.00     0.116 C 
ENDROOT
BRANCH   1   2
ATOM      2  N   UNL     1       0.742   5.446  -1.360  1.00  0.00    -0.356 N 
ATOM      3  C   UNL     1       1.806   6.253  -1.618  1.00  0.00     0.220 C 
ATOM      4  O   UNL     1       2.019   7.210  -0.872  1.00  0.00    -0.275 OA
ATOM      5  H   UNL     1       0.130   5.776  -0.663  1.00  0.00     0.163 HD
BRANCH   3   6
ATOM      6  C   UNL     1       2.713   5.984  -2.802  1.00  0.00     0.102 C 
BRANCH   6   7
ATOM      7  C   UNL     1       4.072   5.409  -2.396  1.00  0.00     0.031 C 
BRANCH   7   8
ATOM      8  C   UNL     1       4.045   3.944  -1.965  1.00  0.00     0.118 C 
BRANCH   8   9
ATOM      9  N   UNL     1       3.610   3.051  -3.025  1.00  0.00    -0.338 N 
ATOM     10  C   UNL     1       3.677   1.723  -3.235  1.00  0.00     0.317 C 
ATOM     11  O   UNL     1       3.385   1.358  -4.376  1.00  0.00    -0.249 OA
ATOM     12  H   UNL     1       3.163   3.528  -3.761  1.00  0.00     0.165 HD
BRANCH  10  13
ATOM     13  N   UNL     1       4.067   0.840  -2.272  1.00  0.00    -0.319 N 
ATOM     14  C   UNL     1       3.707  -0.057   0.035  1.00  0.00     0.240 C 
ATOM     15  C   UNL     1       4.256   1.080  -0.838  1.00  0.00     0.169 C 
ATOM     16  O   UNL     1       4.239  -1.330  -0.394  1.00  0.00    -0.360 OA
ATOM     17  C   UNL     1       3.903  -1.606  -1.764  1.00  0.00     0.183 C 
ATOM     18  C   UNL     1       4.434  -0.520  -2.702  1.00  0.00     0.150 C 
BRANCH  14  19
ATOM     19  C   UNL     1       2.187  -0.057   0.035  1.00  0.00     0.096 C 
ATOM     20  N   UNL     1       0.926  -0.057   0.035  1.00  0.00    -0.195 NA
ENDBRANCH  14  19
ENDBRANCH  10  13
ENDBRANCH   8   9
ENDBRANCH   7   8
ENDBRANCH   6   7
ENDBRANCH   3   6
ENDBRANCH   1   2
BRANCH   1  21
ATOM     21  C   UNL     1       0.613   3.035  -0.968  1.00  0.00     0.023 C 
BRANCH  21  22
ATOM     22  C   UNL     1      -0.509   2.831   0.050  1.00  0.00     0.023 C 
BRANCH  22  23
ATOM     23  C   UNL     1      -1.772   2.191  -0.515  1.00  0.00     0.116 C 
BRANCH  23  24
ATOM     24  N   UNL     1      -1.567   0.877  -1.108  1.00  0.00    -0.352 N 
ATOM     25  C   UNL     1      -2.426  -0.196  -1.163  1.00  0.00     0.251 C 
ATOM     26  H   UNL     1      -0.689   0.736  -1.529  1.00  0.00     0.163 HD
ATOM     27  O   UNL     1      -2.080  -1.260  -1.663  1.00  0.00    -0.269 OA
BRANCH  25  28
ATOM     28  C   UNL     1      -3.751  -0.077  -0.524  1.00  0.00     0.039 A 
ATOM     29  C   UNL     1      -4.141  -1.066   0.383  1.00  0.00     0.014 A 
ATOM     30  C   UNL     1      -4.550   1.046  -0.738  1.00  0.00     0.014 A 
ATOM     31  C   UNL     1      -5.299  -0.888   1.138  1.00  0.00     0.010 A 
ATOM     32  C   UNL     1      -5.652   1.264   0.078  1.00  0.00     0.010 A 
ATOM     33  C   UNL     1      -6.038   0.299   1.022  1.00  0.00    -0.014 A 
BRANCH  33  34
ATOM     34  C   UNL     1      -7.231   0.555   1.866  1.00  0.00     0.031 A 
ATOM     35  C   UNL     1      -8.573   0.732   1.212  1.00  0.00     0.074 A 
ATOM     36  C   UNL     1      -7.092   0.711   3.197  1.00  0.00     0.049 A 
ATOM     37  N   UNL     1      -9.713   1.078   1.748  1.00  0.00    -0.248 NA
ATOM     38  C   UNL     1      -8.630   0.532  -0.246  1.00  0.00     0.031 C 
ATOM     39  C   UNL     1      -5.830   0.620   3.937  1.00  0.00     0.029 A 
ATOM     40  N   UNL     1      -8.021   0.993   4.165  1.00  0.00    -0.354 N 
ATOM     41  C   UNL     1     -10.613   1.167   0.693  1.00  0.00     0.074 A 
ATOM     42  C   UNL     1      -9.875   0.891  -0.519  1.00  0.00     0.031 C 
ATOM     43  C   UNL     1      -6.070   0.819   5.244  1.00  0.00     0.029 A 
ATOM     44  C   UNL     1      -7.492   1.086   5.431  1.00  0.00     0.049 A 
ATOM     45  H   UNL     1      -8.979   1.118   3.972  1.00  0.00     0.167 HD
ATOM     46  C   UNL     1     -11.940   1.429   0.734  1.00  0.00     0.037 A 
ATOM     47  C   UNL     1      -8.088   1.360   6.608  1.00  0.00     0.037 A 
ATOM     48  C   UNL     1     -12.676   1.651   1.949  1.00  0.00     0.049 A 
ATOM     49  C   UNL     1      -9.572   1.606   6.633  1.00  0.00     0.074 A 
ATOM     50  C   UNL     1     -14.034   1.857   2.109  1.00  0.00     0.029 A 
ATOM     51  N   UNL     1     -12.113   1.686   3.217  1.00  0.00    -0.354 N 
ATOM     52  N   UNL     1     -10.419   1.633   5.632  1.00  0.00    -0.248 NA
ATOM     53  C   UNL     1     -10.183   1.850   7.946  1.00  0.00     0.031 C 
ATOM     54  C   UNL     1     -14.290   2.042   3.472  1.00  0.00     0.029 A 
ATOM     55  C   UNL     1     -13.095   1.917   4.164  1.00  0.00     0.049 A 
ATOM     56  H   UNL     1     -11.156   1.565   3.413  1.00  0.00     0.167 HD
ATOM     57  C   UNL     1     -11.667   1.874   6.196  1.00  0.00     0.074 A 
ATOM     58  C   UNL     1     -11.465   1.973   7.627  1.00  0.00     0.031 C 
ATOM     59  C   UNL     1     -12.871   2.001   5.585  1.00  0.00     0.037 A 
BRANCH  46  60
ATOM     60  C   UNL     1     -12.677   1.472  -0.576  1.00  0.00     0.058 A 
ATOM     61  C   UNL     1     -12.913   0.308  -1.325  1.00  0.00     0.135 A 
ATOM     62  C   UNL     1     -13.161   2.688  -1.083  1.00  0.00     0.135 A 
ATOM     63  F   UNL     1     -12.454  -0.878  -0.895  1.00  0.00    -0.206 F 
ATOM     64  C   UNL     1     -13.573   0.352  -2.548  1.00  0.00     0.059 A 
ATOM     65  C   UNL     1     -13.849   2.751  -2.292  1.00  0.00     0.059 A 
ATOM     66  F   UNL     1     -12.961   3.831  -0.409  1.00  0.00    -0.206 F 
ATOM     67  C   UNL     1     -14.034   1.580  -3.026  1.00  0.00     0.060 A 
BRANCH  67  68
ATOM     68  S   UNL     1     -14.888   1.622  -4.615  1.00  0.00     0.124 S 
ATOM     69  O   UNL     1     -13.772   1.488  -5.547  1.00  0.00    -0.237 OA
ATOM     70  O   UNL     1     -15.779   0.470  -4.525  1.00  0.00    -0.237 OA
ATOM     71  O   UNL     1     -15.549   2.924  -4.610  1.00  0.00    -0.744 OA
ENDBRANCH  67  68
ENDBRANCH  46  60
BRANCH  47  72
ATOM     72  C   UNL     1      -7.288   1.382   7.860  1.00  0.00     0.058 A 
ATOM     73  C   UNL     1      -7.405   0.351   8.804  1.00  0.00     0.135 A 
ATOM     74  C   UNL     1      -6.382   2.418   8.133  1.00  0.00     0.135 A 
ATOM     75  F   UNL     1      -8.262  -0.659   8.590  1.00  0.00    -0.206 F 
ATOM     76  C   UNL     1      -6.665   0.352   9.982  1.00  0.00     0.059 A 
ATOM     77  C   UNL     1      -5.615   2.431   9.294  1.00  0.00     0.059 A 
ATOM     78  F   UNL     1      -6.221   3.419   7.254  1.00  0.00    -0.206 F 
ATOM     79  C   UNL     1      -5.771   1.398  10.218  1.00  0.00     0.060 A 
BRANCH  79  80
ATOM     80  S   UNL     1      -4.777   1.366  11.726  1.00  0.00     0.124 S 
ATOM     81  O   UNL     1      -5.757   1.759  12.732  1.00  0.00    -0.237 OA
ATOM     82  O   UNL     1      -4.334  -0.024  11.775  1.00  0.00    -0.237 OA
ATOM     83  O   UNL     1      -3.724   2.341  11.453  1.00  0.00    -0.744 OA
ENDBRANCH  79  80
ENDBRANCH  47  72
BRANCH  59  84
ATOM     84  C   UNL     1     -14.067   2.230   6.464  1.00  0.00     0.058 A 
ATOM     85  C   UNL     1     -14.312   3.475   7.062  1.00  0.00     0.135 A 
ATOM     86  C   UNL     1     -15.007   1.206   6.663  1.00  0.00     0.135 A 
ATOM     87  F   UNL     1     -13.439   4.483   6.906  1.00  0.00    -0.206 F 
ATOM     88  C   UNL     1     -15.439   3.692   7.846  1.00  0.00     0.059 A 
ATOM     89  C   UNL     1     -16.153   1.408   7.424  1.00  0.00     0.059 A 
ATOM     90  F   UNL     1     -14.822  -0.000   6.103  1.00  0.00    -0.206 F 
ATOM     91  C   UNL     1     -16.355   2.652   8.021  1.00  0.00     0.060 A 
BRANCH  91  92
ATOM     92  S   UNL     1     -17.834   2.956   9.011  1.00  0.00     0.124 S 
ATOM     93  O   UNL     1     -17.296   2.904  10.366  1.00  0.00    -0.237 OA
ATOM     94  O   UNL     1     -18.258   4.273   8.547  1.00  0.00    -0.237 OA
ATOM     95  O   UNL     1     -18.719   1.854   8.643  1.00  0.00    -0.744 OA
ENDBRANCH  91  92
ENDBRANCH  59  84
ENDBRANCH  33  34
ENDBRANCH  25  28
ENDBRANCH  23  24
ENDBRANCH  22  23
ENDBRANCH  21  22
ENDBRANCH   1  21
TORSDOF 19
