REMARK SMILES C[C@@H](Sc1nncn1C)[C@@H](C)C(=O)NCCCCNC(=O)c1ccc(-c2c3nc(c(-c4c(F)cc(S(=O)(=O)[O-])cc4F)c4ccc([nH]4)c(-c4c(F)cc(S(=O)(=O)[O-])cc4F)c4nc(c(-c5c(F)cc(S(=O)(=O)[O-])cc5F)c5ccc2[nH]5)C=C4)C=C3)cc1
REMARK SMILES IDX 16 1 15 2 14 3 12 4 13 5 10 7 11 8 2 9 1 10 3 11 4 12 5 13
REMARK SMILES IDX 8 14 6 15 7 16 9 17 17 18 18 19 19 20 20 21 21 23 22 24
REMARK SMILES IDX 23 25 87 26 24 27 86 28 25 29 26 30 27 31 80 32 28 33 85 34
REMARK SMILES IDX 79 35 81 36 29 37 84 38 78 39 77 40 30 42 64 43 43 44 63 45
REMARK SMILES IDX 44 46 47 47 62 48 82 49 45 50 46 51 61 53 83 54 48 55 31 56
REMARK SMILES IDX 32 57 41 58 33 59 34 60 40 61 42 62 35 63 36 64 37 65 38 66
REMARK SMILES IDX 39 67 65 68 66 69 75 70 67 71 68 72 74 73 76 74 69 75 70 76
REMARK SMILES IDX 71 77 72 78 73 79 49 80 50 81 59 82 51 83 52 84 58 85 60 86
REMARK SMILES IDX 53 87 54 88 55 89 56 90 57 91
REMARK H PARENT 14 6 19 22 81 41 47 52
REMARK Flexibility Score: inf
ROOT
ATOM      1  C   UNL     1       0.720   4.630  -0.799  1.00  0.00     0.023 C 
ENDROOT
BRANCH   1   2
ATOM      2  C   UNL     1      -0.573   4.037  -0.247  1.00  0.00     0.116 C 
BRANCH   2   3
ATOM      3  N   UNL     1      -1.375   3.441  -1.293  1.00  0.00    -0.356 N 
ATOM      4  C   UNL     1      -1.581   2.145  -1.647  1.00  0.00     0.223 C 
ATOM      5  O   UNL     1      -2.336   1.940  -2.603  1.00  0.00    -0.275 OA
ATOM      6  H   UNL     1      -1.860   4.092  -1.850  1.00  0.00     0.163 HD
BRANCH   4   7
ATOM      7  C   UNL     1      -0.980   0.967  -0.880  1.00  0.00     0.088 C 
ATOM      8  C   UNL     1      -1.633   0.878   0.506  1.00  0.00     0.019 C 
BRANCH   7   9
ATOM      9  C   UNL     1       0.570   0.897  -0.876  1.00  0.00     0.064 C 
ATOM     10  C   UNL     1       1.073  -0.293  -0.053  1.00  0.00     0.021 C 
BRANCH   9  11
ATOM     11  S   UNL     1       1.174   0.811  -2.616  1.00  0.00    -0.082 SA
BRANCH  11  12
ATOM     12  C   UNL     1       2.884   0.665  -2.438  1.00  0.00     0.191 A 
ATOM     13  N   UNL     1       3.531  -0.452  -2.190  1.00  0.00    -0.124 NA
ATOM     14  N   UNL     1       3.778   1.682  -2.602  1.00  0.00    -0.312 N 
ATOM     15  N   UNL     1       4.877  -0.163  -2.171  1.00  0.00    -0.138 NA
ATOM     16  C   UNL     1       5.009   1.117  -2.430  1.00  0.00     0.226 A 
ATOM     17  C   UNL     1       3.544   3.075  -2.866  1.00  0.00     0.153 C 
ENDBRANCH  11  12
ENDBRANCH   9  11
ENDBRANCH   7   9
ENDBRANCH   4   7
ENDBRANCH   2   3
ENDBRANCH   1   2
BRANCH   1  18
ATOM     18  C   UNL     1       0.545   5.863  -1.684  1.00  0.00     0.023 C 
BRANCH  18  19
ATOM     19  C   UNL     1      -0.178   7.037  -1.032  1.00  0.00     0.116 C 
BRANCH  19  20
ATOM     20  N   UNL     1       0.445   7.475   0.208  1.00  0.00    -0.352 N 
ATOM     21  C   UNL     1       0.745   8.754   0.622  1.00  0.00     0.251 C 
ATOM     22  H   UNL     1       0.686   6.758   0.839  1.00  0.00     0.163 HD
ATOM     23  O   UNL     1       1.375   8.934   1.660  1.00  0.00    -0.269 OA
BRANCH  21  24
ATOM     24  C   UNL     1       0.340   9.898  -0.219  1.00  0.00     0.039 A 
ATOM     25  C   UNL     1       1.301  10.844  -0.581  1.00  0.00     0.014 A 
ATOM     26  C   UNL     1      -0.968   9.994  -0.702  1.00  0.00     0.014 A 
ATOM     27  C   UNL     1       0.978  11.831  -1.514  1.00  0.00     0.010 A 
ATOM     28  C   UNL     1      -1.270  10.937  -1.678  1.00  0.00     0.010 A 
ATOM     29  C   UNL     1      -0.294  11.848  -2.110  1.00  0.00    -0.014 A 
BRANCH  29  30
ATOM     30  C   UNL     1      -0.617  12.770  -3.227  1.00  0.00     0.031 A 
ATOM     31  C   UNL     1      -1.679  13.817  -3.058  1.00  0.00     0.074 A 
ATOM     32  C   UNL     1      -0.025  12.591  -4.425  1.00  0.00     0.049 A 
ATOM     33  N   UNL     1      -2.198  14.616  -3.953  1.00  0.00    -0.248 NA
ATOM     34  C   UNL     1      -2.250  13.965  -1.711  1.00  0.00     0.031 C 
ATOM     35  C   UNL     1       0.995  11.582  -4.724  1.00  0.00     0.029 A 
ATOM     36  N   UNL     1      -0.210  13.237  -5.621  1.00  0.00    -0.354 N 
ATOM     37  C   UNL     1      -3.168  15.351  -3.284  1.00  0.00     0.074 A 
ATOM     38  C   UNL     1      -3.193  14.873  -1.918  1.00  0.00     0.031 C 
ATOM     39  C   UNL     1       1.355  11.689  -6.013  1.00  0.00     0.029 A 
ATOM     40  C   UNL     1       0.563  12.740  -6.643  1.00  0.00     0.049 A 
ATOM     41  H   UNL     1      -0.838  13.987  -5.736  1.00  0.00     0.167 HD
ATOM     42  C   UNL     1      -3.954  16.346  -3.761  1.00  0.00     0.037 A 
ATOM     43  C   UNL     1       0.615  13.078  -7.946  1.00  0.00     0.037 A 
ATOM     44  C   UNL     1      -3.908  16.833  -5.114  1.00  0.00     0.049 A 
ATOM     45  C   UNL     1      -0.289  14.162  -8.461  1.00  0.00     0.074 A 
ATOM     46  C   UNL     1      -4.610  17.885  -5.675  1.00  0.00     0.029 A 
ATOM     47  N   UNL     1      -3.118  16.297  -6.121  1.00  0.00    -0.354 N 
ATOM     48  N   UNL     1      -1.165  14.882  -7.803  1.00  0.00    -0.248 NA
ATOM     49  C   UNL     1      -0.209  14.469  -9.896  1.00  0.00     0.031 C 
ATOM     50  C   UNL     1      -4.271  17.963  -7.031  1.00  0.00     0.029 A 
ATOM     51  C   UNL     1      -3.335  16.978  -7.307  1.00  0.00     0.049 A 
ATOM     52  H   UNL     1      -2.495  15.543  -6.009  1.00  0.00     0.167 HD
ATOM     53  C   UNL     1      -1.734  15.737  -8.740  1.00  0.00     0.074 A 
ATOM     54  C   UNL     1      -1.095  15.450 -10.009  1.00  0.00     0.031 C 
ATOM     55  C   UNL     1      -2.697  16.673  -8.563  1.00  0.00     0.037 A 
BRANCH  42  56
ATOM     56  C   UNL     1      -4.928  16.968  -2.804  1.00  0.00     0.058 A 
ATOM     57  C   UNL     1      -4.499  17.817  -1.771  1.00  0.00     0.135 A 
ATOM     58  C   UNL     1      -6.304  16.712  -2.915  1.00  0.00     0.135 A 
ATOM     59  F   UNL     1      -3.192  18.081  -1.613  1.00  0.00    -0.206 F 
ATOM     60  C   UNL     1      -5.395  18.359  -0.857  1.00  0.00     0.059 A 
ATOM     61  C   UNL     1      -7.221  17.263  -2.024  1.00  0.00     0.059 A 
ATOM     62  F   UNL     1      -6.766  15.907  -3.884  1.00  0.00    -0.206 F 
ATOM     63  C   UNL     1      -6.754  18.068  -0.986  1.00  0.00     0.060 A 
BRANCH  63  64
ATOM     64  S   UNL     1      -7.904  18.751   0.226  1.00  0.00     0.124 S 
ATOM     65  O   UNL     1      -7.683  17.864   1.365  1.00  0.00    -0.237 OA
ATOM     66  O   UNL     1      -7.420  20.119   0.386  1.00  0.00    -0.237 OA
ATOM     67  O   UNL     1      -9.202  18.621  -0.429  1.00  0.00    -0.744 OA
ENDBRANCH  63  64
ENDBRANCH  42  56
BRANCH  43  68
ATOM     68  C   UNL     1       1.568  12.384  -8.849  1.00  0.00     0.058 A 
ATOM     69  C   UNL     1       2.733  13.029  -9.287  1.00  0.00     0.135 A 
ATOM     70  C   UNL     1       1.358  11.058  -9.256  1.00  0.00     0.135 A 
ATOM     71  F   UNL     1       2.971  14.300  -8.928  1.00  0.00    -0.206 F 
ATOM     72  C   UNL     1       3.662  12.383 -10.096  1.00  0.00     0.059 A 
ATOM     73  C   UNL     1       2.281  10.385 -10.051  1.00  0.00     0.059 A 
ATOM     74  F   UNL     1       0.265  10.395  -8.849  1.00  0.00    -0.206 F 
ATOM     75  C   UNL     1       3.429  11.058 -10.468  1.00  0.00     0.060 A 
BRANCH  75  76
ATOM     76  S   UNL     1       4.680  10.200 -11.448  1.00  0.00     0.124 S 
ATOM     77  O   UNL     1       4.450  10.761 -12.774  1.00  0.00    -0.237 OA
ATOM     78  O   UNL     1       5.918  10.603 -10.789  1.00  0.00    -0.237 OA
ATOM     79  O   UNL     1       4.324   8.793 -11.284  1.00  0.00    -0.744 OA
ENDBRANCH  75  76
ENDBRANCH  43  68
BRANCH  55  80
ATOM     80  C   UNL     1      -3.124  17.459  -9.768  1.00  0.00     0.058 A 
ATOM     81  C   UNL     1      -3.985  16.908 -10.729  1.00  0.00     0.135 A 
ATOM     82  C   UNL     1      -2.726  18.796  -9.928  1.00  0.00     0.135 A 
ATOM     83  F   UNL     1      -4.383  15.630 -10.625  1.00  0.00    -0.206 F 
ATOM     84  C   UNL     1      -4.436  17.655 -11.811  1.00  0.00     0.059 A 
ATOM     85  C   UNL     1      -3.180  19.568 -10.992  1.00  0.00     0.059 A 
ATOM     86  F   UNL     1      -1.907  19.368  -9.032  1.00  0.00    -0.206 F 
ATOM     87  C   UNL     1      -4.032  18.987 -11.931  1.00  0.00     0.060 A 
BRANCH  87  88
ATOM     88  S   UNL     1      -4.673  19.966 -13.306  1.00  0.00     0.124 S 
ATOM     89  O   UNL     1      -3.872  19.469 -14.420  1.00  0.00    -0.237 OA
ATOM     90  O   UNL     1      -6.085  19.596 -13.325  1.00  0.00    -0.237 OA
ATOM     91  O   UNL     1      -4.398  21.341 -12.899  1.00  0.00    -0.744 OA
ENDBRANCH  87  88
ENDBRANCH  55  80
ENDBRANCH  29  30
ENDBRANCH  21  24
ENDBRANCH  19  20
ENDBRANCH  18  19
ENDBRANCH   1  18
TORSDOF 17
