REMARK SMILES CC[C@@H](C(=O)NCCCCNC(=O)c1ccc(-c2c3nc(c(-c4c(F)cc(S(=O)(=O)[O-])cc4F)c4ccc([nH]4)c(-c4c(F)cc(S(=O)(=O)[O-])cc4F)c4nc(c(-c5c(F)cc(S(=O)(=O)[O-])cc5F)c5ccc2[nH]5)C=C4)C=C3)cc1)N1C(=O)/C(=C\c2ccc(C(=O)OC)cc2)SC1=S
REMARK SMILES IDX 8 1 7 2 6 3 4 4 5 5 3 7 2 8 1 9 80 10 81 11 96 12 82 13
REMARK SMILES IDX 83 14 95 15 97 16 84 17 85 18 86 19 94 20 87 21 93 22 88 23
REMARK SMILES IDX 89 24 90 25 91 26 92 27 9 28 10 29 11 30 12 31 13 33 14 34
REMARK SMILES IDX 15 35 79 36 16 37 78 38 17 39 18 40 19 41 72 42 20 43 77 44
REMARK SMILES IDX 71 45 73 46 21 47 76 48 70 49 69 50 22 52 56 53 35 54 55 55
REMARK SMILES IDX 36 56 39 57 54 58 74 59 37 60 38 61 53 63 75 64 40 65 23 66
REMARK SMILES IDX 24 67 33 68 25 69 26 70 32 71 34 72 27 73 28 74 29 75 30 76
REMARK SMILES IDX 31 77 57 78 58 79 67 80 59 81 60 82 66 83 68 84 61 85 62 86
REMARK SMILES IDX 63 87 64 88 65 89 41 90 42 91 51 92 43 93 44 94 50 95 52 96
REMARK SMILES IDX 45 97 46 98 47 99 48 100 49 101
REMARK H PARENT 6 6 11 32 73 51 39 62
REMARK Flexibility Score: inf
ROOT
ATOM      1  C   UNL     1       1.054   1.869  -1.584  1.00  0.00     0.023 C 
ENDROOT
BRANCH   1   2
ATOM      2  C   UNL     1       1.623   2.181  -0.198  1.00  0.00     0.116 C 
BRANCH   2   3
ATOM      3  N   UNL     1       0.542   2.500   0.717  1.00  0.00    -0.354 N 
ATOM      4  C   UNL     1      -0.067   1.705   1.647  1.00  0.00     0.243 C 
ATOM      5  O   UNL     1      -1.199   2.014   2.025  1.00  0.00    -0.273 OA
ATOM      6  H   UNL     1       0.198   3.421   0.658  1.00  0.00     0.163 HD
BRANCH   4   7
ATOM      7  C   UNL     1       0.654   0.457   2.192  1.00  0.00     0.181 C 
BRANCH   7   8
ATOM      8  C   UNL     1       0.013  -0.766   1.451  1.00  0.00     0.032 C 
ATOM      9  C   UNL     1       0.555  -1.076   0.068  1.00  0.00     0.006 C 
ENDBRANCH   7   8
BRANCH   7  10
ATOM     10  N   UNL     1       0.443   0.291   3.663  1.00  0.00    -0.280 N 
ATOM     11  C   UNL     1       0.855  -0.908   4.209  1.00  0.00     0.266 C 
ATOM     12  C   UNL     1       0.329   1.254   4.639  1.00  0.00     0.149 C 
ATOM     13  O   UNL     1       1.673  -1.655   3.691  1.00  0.00    -0.268 OA
ATOM     14  C   UNL     1       0.303  -1.081   5.578  1.00  0.00     0.081 C 
ATOM     15  S   UNL     1      -0.163   0.470   6.158  1.00  0.00    -0.054 SA
ATOM     16  S   UNL     1       0.665   2.886   4.583  1.00  0.00    -0.052 S 
ATOM     17  C   UNL     1       0.153  -2.231   6.253  1.00  0.00     0.029 C 
BRANCH  17  18
ATOM     18  C   UNL     1       0.556  -3.550   5.746  1.00  0.00    -0.024 A 
ATOM     19  C   UNL     1      -0.398  -4.542   5.496  1.00  0.00     0.009 A 
ATOM     20  C   UNL     1       1.903  -3.820   5.473  1.00  0.00     0.009 A 
ATOM     21  C   UNL     1      -0.015  -5.758   4.914  1.00  0.00     0.016 A 
ATOM     22  C   UNL     1       2.283  -5.018   4.865  1.00  0.00     0.016 A 
ATOM     23  C   UNL     1       1.323  -5.989   4.567  1.00  0.00     0.060 A 
BRANCH  23  24
ATOM     24  C   UNL     1       1.680  -7.256   3.873  1.00  0.00     0.337 C 
ATOM     25  O   UNL     1       0.910  -8.197   3.737  1.00  0.00    -0.246 OA
BRANCH  24  26
ATOM     26  O   UNL     1       2.949  -7.193   3.400  1.00  0.00    -0.465 OA
ATOM     27  C   UNL     1       3.368  -8.345   2.669  1.00  0.00     0.282 C 
ENDBRANCH  24  26
ENDBRANCH  23  24
ENDBRANCH  17  18
ENDBRANCH   7  10
ENDBRANCH   4   7
ENDBRANCH   2   3
ENDBRANCH   1   2
BRANCH   1  28
ATOM     28  C   UNL     1       0.640   3.092  -2.392  1.00  0.00     0.023 C 
BRANCH  28  29
ATOM     29  C   UNL     1       1.791   3.991  -2.805  1.00  0.00     0.116 C 
BRANCH  29  30
ATOM     30  N   UNL     1       2.767   3.311  -3.647  1.00  0.00    -0.352 N 
ATOM     31  C   UNL     1       3.266   3.693  -4.870  1.00  0.00     0.251 C 
ATOM     32  H   UNL     1       3.117   2.462  -3.291  1.00  0.00     0.163 HD
ATOM     33  O   UNL     1       3.976   2.929  -5.515  1.00  0.00    -0.269 OA
BRANCH  31  34
ATOM     34  C   UNL     1       2.901   5.019  -5.410  1.00  0.00     0.039 A 
ATOM     35  C   UNL     1       2.433   5.114  -6.721  1.00  0.00     0.014 A 
ATOM     36  C   UNL     1       2.944   6.148  -4.588  1.00  0.00     0.014 A 
ATOM     37  C   UNL     1       1.918   6.329  -7.177  1.00  0.00     0.010 A 
ATOM     38  C   UNL     1       2.340   7.325  -5.010  1.00  0.00     0.010 A 
ATOM     39  C   UNL     1       1.817   7.427  -6.307  1.00  0.00    -0.014 A 
BRANCH  39  40
ATOM     40  C   UNL     1       1.146   8.685  -6.722  1.00  0.00     0.031 A 
ATOM     41  C   UNL     1       1.915   9.978  -6.738  1.00  0.00     0.074 A 
ATOM     42  C   UNL     1      -0.173   8.673  -7.005  1.00  0.00     0.049 A 
ATOM     43  N   UNL     1       1.489  11.187  -6.995  1.00  0.00    -0.248 NA
ATOM     44  C   UNL     1       3.343   9.908  -6.388  1.00  0.00     0.031 C 
ATOM     45  C   UNL     1      -1.038   7.491  -6.960  1.00  0.00     0.029 A 
ATOM     46  N   UNL     1      -1.021   9.687  -7.373  1.00  0.00    -0.354 N 
ATOM     47  C   UNL     1       2.589  12.019  -6.825  1.00  0.00     0.074 A 
ATOM     48  C   UNL     1       3.685  11.187  -6.383  1.00  0.00     0.031 C 
ATOM     49  C   UNL     1      -2.284   7.842  -7.316  1.00  0.00     0.029 A 
ATOM     50  C   UNL     1      -2.320   9.278  -7.570  1.00  0.00     0.049 A 
ATOM     51  H   UNL     1      -0.727  10.620  -7.486  1.00  0.00     0.167 HD
ATOM     52  C   UNL     1       2.683  13.352  -7.045  1.00  0.00     0.037 A 
ATOM     53  C   UNL     1      -3.417   9.983  -7.908  1.00  0.00     0.037 A 
ATOM     54  C   UNL     1       1.591  14.167  -7.509  1.00  0.00     0.049 A 
ATOM     55  C   UNL     1      -3.288  11.463  -8.142  1.00  0.00     0.074 A 
ATOM     56  C   UNL     1       1.599  15.513  -7.828  1.00  0.00     0.029 A 
ATOM     57  N   UNL     1       0.295  13.715  -7.713  1.00  0.00    -0.354 N 
ATOM     58  N   UNL     1      -2.221  12.221  -8.054  1.00  0.00    -0.248 NA
ATOM     59  C   UNL     1      -4.510  12.185  -8.523  1.00  0.00     0.031 C 
ATOM     60  C   UNL     1       0.296  15.886  -8.176  1.00  0.00     0.029 A 
ATOM     61  C   UNL     1      -0.512  14.761  -8.126  1.00  0.00     0.049 A 
ATOM     62  H   UNL     1      -0.006  12.786  -7.583  1.00  0.00     0.167 HD
ATOM     63  C   UNL     1      -2.638  13.505  -8.387  1.00  0.00     0.074 A 
ATOM     64  C   UNL     1      -4.050  13.416  -8.698  1.00  0.00     0.031 C 
ATOM     65  C   UNL     1      -1.918  14.654  -8.429  1.00  0.00     0.037 A 
BRANCH  52  66
ATOM     66  C   UNL     1       4.013  14.009  -6.794  1.00  0.00     0.058 A 
ATOM     67  C   UNL     1       5.125  13.761  -7.615  1.00  0.00     0.135 A 
ATOM     68  C   UNL     1       4.170  14.924  -5.740  1.00  0.00     0.135 A 
ATOM     69  F   UNL     1       5.037  12.882  -8.627  1.00  0.00    -0.206 F 
ATOM     70  C   UNL     1       6.352  14.373  -7.384  1.00  0.00     0.059 A 
ATOM     71  C   UNL     1       5.381  15.572  -5.509  1.00  0.00     0.059 A 
ATOM     72  F   UNL     1       3.142  15.197  -4.922  1.00  0.00    -0.206 F 
ATOM     73  C   UNL     1       6.470  15.279  -6.328  1.00  0.00     0.060 A 
BRANCH  73  74
ATOM     74  S   UNL     1       8.068  16.071  -6.050  1.00  0.00     0.124 S 
ATOM     75  O   UNL     1       8.854  14.961  -5.520  1.00  0.00    -0.237 OA
ATOM     76  O   UNL     1       8.430  16.521  -7.390  1.00  0.00    -0.237 OA
ATOM     77  O   UNL     1       7.760  17.133  -5.097  1.00  0.00    -0.744 OA
ENDBRANCH  73  74
ENDBRANCH  52  66
BRANCH  53  78
ATOM     78  C   UNL     1      -4.728   9.294  -8.060  1.00  0.00     0.058 A 
ATOM     79  C   UNL     1      -5.322   9.144  -9.321  1.00  0.00     0.135 A 
ATOM     80  C   UNL     1      -5.404   8.758  -6.952  1.00  0.00     0.135 A 
ATOM     81  F   UNL     1      -4.719   9.643 -10.411  1.00  0.00    -0.206 F 
ATOM     82  C   UNL     1      -6.547   8.502  -9.479  1.00  0.00     0.059 A 
ATOM     83  C   UNL     1      -6.616   8.089  -7.088  1.00  0.00     0.059 A 
ATOM     84  F   UNL     1      -4.871   8.860  -5.725  1.00  0.00    -0.206 F 
ATOM     85  C   UNL     1      -7.185   7.974  -8.356  1.00  0.00     0.060 A 
BRANCH  85  86
ATOM     86  S   UNL     1      -8.749   7.099  -8.580  1.00  0.00     0.124 S 
ATOM     87  O   UNL     1      -9.662   8.199  -8.870  1.00  0.00    -0.237 OA
ATOM     88  O   UNL     1      -8.444   6.209  -9.696  1.00  0.00    -0.237 OA
ATOM     89  O   UNL     1      -8.948   6.435  -7.295  1.00  0.00    -0.744 OA
ENDBRANCH  85  86
ENDBRANCH  53  78
BRANCH  65  90
ATOM     90  C   UNL     1      -2.641  15.907  -8.842  1.00  0.00     0.058 A 
ATOM     91  C   UNL     1      -3.569  16.533  -7.996  1.00  0.00     0.135 A 
ATOM     92  C   UNL     1      -2.364  16.515 -10.077  1.00  0.00     0.135 A 
ATOM     93  F   UNL     1      -3.876  15.989  -6.807  1.00  0.00    -0.206 F 
ATOM     94  C   UNL     1      -4.215  17.707  -8.370  1.00  0.00     0.059 A 
ATOM     95  C   UNL     1      -2.976  17.705 -10.458  1.00  0.00     0.059 A 
ATOM     96  F   UNL     1      -1.477  15.963 -10.919  1.00  0.00    -0.206 F 
ATOM     97  C   UNL     1      -3.909  18.287  -9.602  1.00  0.00     0.060 A 
BRANCH  97  98
ATOM     98  S   UNL     1      -4.730  19.828 -10.059  1.00  0.00     0.124 S 
ATOM     99  O   UNL     1      -6.081  19.365 -10.356  1.00  0.00    -0.237 OA
ATOM    100  O   UNL     1      -4.587  20.629  -8.847  1.00  0.00    -0.237 OA
ATOM    101  O   UNL     1      -3.960  20.297 -11.207  1.00  0.00    -0.744 OA
ENDBRANCH  97  98
ENDBRANCH  65  90
ENDBRANCH  39  40
ENDBRANCH  31  34
ENDBRANCH  29  30
ENDBRANCH  28  29
ENDBRANCH   1  28
TORSDOF 19
