REMARK SMILES Cc1cccc(-c2ccc(Cl)c(C(=O)NCCCCNC(=O)c3ccc(-c4c5nc(c(-c6c(F)cc(S(=O)(=O)[O-])cc6F)c6ccc([nH]6)c(-c6c(F)cc(S(=O)(=O)[O-])cc6F)c6nc(c(-c7c(F)cc(S(=O)(=O)[O-])cc7F)c7ccc4[nH]7)C=C6)C=C5)cc3)c2)c1
REMARK SMILES IDX 18 1 17 2 16 3 15 4 13 5 14 6 12 8 7 9 8 10 89 11 9 12 10 13
REMARK SMILES IDX 11 14 6 15 1 16 2 17 3 18 90 19 4 20 5 21 19 22 20 23 21 24
REMARK SMILES IDX 22 26 23 27 24 28 88 29 25 30 87 31 26 32 27 33 28 34 81 35
REMARK SMILES IDX 29 36 86 37 80 38 82 39 30 40 85 41 79 42 78 43 31 45 65 46
REMARK SMILES IDX 44 47 64 48 45 49 48 50 63 51 83 52 46 53 47 54 62 56 84 57
REMARK SMILES IDX 49 58 32 59 33 60 42 61 34 62 35 63 41 64 43 65 36 66 37 67
REMARK SMILES IDX 38 68 39 69 40 70 66 71 67 72 76 73 68 74 69 75 75 76 77 77
REMARK SMILES IDX 70 78 71 79 72 80 73 81 74 82 50 83 51 84 60 85 52 86 53 87
REMARK SMILES IDX 59 88 61 89 54 90 55 91 56 92 57 93 58 94
REMARK H PARENT 15 7 20 25 82 44 48 55
REMARK Flexibility Score: inf
ROOT
ATOM      1  C   UNL     1      -7.909   6.659   1.030  1.00  0.00     0.023 C 
ENDROOT
BRANCH   1   2
ATOM      2  C   UNL     1      -6.875   6.286  -0.027  1.00  0.00     0.023 C 
BRANCH   2   3
ATOM      3  C   UNL     1      -5.408   6.353   0.402  1.00  0.00     0.116 C 
BRANCH   3   4
ATOM      4  N   UNL     1      -5.075   5.561   1.580  1.00  0.00    -0.352 N 
ATOM      5  C   UNL     1      -4.021   4.714   1.837  1.00  0.00     0.252 C 
ATOM      6  O   UNL     1      -3.958   4.168   2.939  1.00  0.00    -0.269 OA
ATOM      7  H   UNL     1      -5.717   5.646   2.321  1.00  0.00     0.163 HD
BRANCH   5   8
ATOM      8  C   UNL     1      -3.014   4.347   0.810  1.00  0.00     0.059 A 
ATOM      9  C   UNL     1      -1.700   2.519  -0.185  1.00  0.00    -0.017 A 
ATOM     10  C   UNL     1      -1.218   3.436  -1.131  1.00  0.00     0.010 A 
ATOM     11  C   UNL     1      -2.652   2.980   0.741  1.00  0.00     0.024 A 
ATOM     12  C   UNL     1      -1.511   4.795  -1.028  1.00  0.00     0.022 A 
ATOM     13  C   UNL     1      -2.337   5.260  -0.003  1.00  0.00     0.053 A 
ATOM     14  Cl  UNL     1      -2.307   6.964   0.284  1.00  0.00    -0.083 Cl
BRANCH   9  15
ATOM     15  C   UNL     1      -1.098   1.174  -0.104  1.00  0.00    -0.018 A 
ATOM     16  C   UNL     1       2.456  -0.250   0.039  1.00  0.00     0.044 C 
ATOM     17  C   UNL     1       0.958  -0.178   0.013  1.00  0.00    -0.051 A 
ATOM     18  C   UNL     1       0.184  -1.337   0.058  1.00  0.00     0.003 A 
ATOM     19  C   UNL     1       0.309   1.060  -0.066  1.00  0.00     0.012 A 
ATOM     20  C   UNL     1      -1.211  -1.251   0.038  1.00  0.00     0.001 A 
ATOM     21  C   UNL     1      -1.848  -0.006  -0.039  1.00  0.00     0.009 A 
ENDBRANCH   9  15
ENDBRANCH   5   8
ENDBRANCH   3   4
ENDBRANCH   2   3
ENDBRANCH   1   2
BRANCH   1  22
ATOM     22  C   UNL     1      -7.803   8.075   1.586  1.00  0.00     0.116 C 
BRANCH  22  23
ATOM     23  N   UNL     1      -8.640   9.046   0.902  1.00  0.00    -0.352 N 
ATOM     24  C   UNL     1      -9.033  10.304   1.339  1.00  0.00     0.251 C 
ATOM     25  H   UNL     1      -8.970   8.778   0.014  1.00  0.00     0.163 HD
ATOM     26  O   UNL     1      -9.971  10.890   0.831  1.00  0.00    -0.269 OA
BRANCH  24  27
ATOM     27  C   UNL     1      -8.191  10.973   2.361  1.00  0.00     0.039 A 
ATOM     28  C   UNL     1      -7.556  12.166   1.994  1.00  0.00     0.014 A 
ATOM     29  C   UNL     1      -7.849  10.327   3.543  1.00  0.00     0.014 A 
ATOM     30  C   UNL     1      -6.439  12.600   2.707  1.00  0.00     0.010 A 
ATOM     31  C   UNL     1      -6.684  10.696   4.184  1.00  0.00     0.010 A 
ATOM     32  C   UNL     1      -5.949  11.805   3.739  1.00  0.00    -0.014 A 
BRANCH  32  33
ATOM     33  C   UNL     1      -4.646  11.980   4.377  1.00  0.00     0.031 A 
ATOM     34  C   UNL     1      -4.561  12.374   5.802  1.00  0.00     0.074 A 
ATOM     35  C   UNL     1      -3.535  11.574   3.725  1.00  0.00     0.049 A 
ATOM     36  N   UNL     1      -3.474  12.668   6.433  1.00  0.00    -0.248 NA
ATOM     37  C   UNL     1      -5.752  12.510   6.630  1.00  0.00     0.031 C 
ATOM     38  C   UNL     1      -2.241  11.239   4.308  1.00  0.00     0.029 A 
ATOM     39  N   UNL     1      -3.302  11.584   2.347  1.00  0.00    -0.354 N 
ATOM     40  C   UNL     1      -3.767  12.749   7.778  1.00  0.00     0.074 A 
ATOM     41  C   UNL     1      -5.210  12.714   7.832  1.00  0.00     0.031 C 
ATOM     42  C   UNL     1      -1.300  11.326   3.357  1.00  0.00     0.029 A 
ATOM     43  C   UNL     1      -1.932  11.884   2.175  1.00  0.00     0.049 A 
ATOM     44  H   UNL     1      -3.963  11.416   1.636  1.00  0.00     0.167 HD
ATOM     45  C   UNL     1      -2.743  12.716   8.684  1.00  0.00     0.037 A 
ATOM     46  C   UNL     1      -1.561  13.060   1.582  1.00  0.00     0.037 A 
ATOM     47  C   UNL     1      -1.447  12.865   8.011  1.00  0.00     0.049 A 
ATOM     48  C   UNL     1      -0.852  14.038   2.497  1.00  0.00     0.074 A 
ATOM     49  C   UNL     1      -0.440  11.997   7.620  1.00  0.00     0.029 A 
ATOM     50  N   UNL     1      -1.172  14.068   7.380  1.00  0.00    -0.354 N 
ATOM     51  N   UNL     1      -0.569  13.813   3.752  1.00  0.00    -0.248 NA
ATOM     52  C   UNL     1      -0.465  15.388   2.078  1.00  0.00     0.031 C 
ATOM     53  C   UNL     1       0.392  12.676   6.679  1.00  0.00     0.029 A 
ATOM     54  C   UNL     1      -0.103  13.957   6.510  1.00  0.00     0.049 A 
ATOM     55  H   UNL     1      -1.677  14.900   7.532  1.00  0.00     0.167 HD
ATOM     56  C   UNL     1      -0.064  14.954   4.314  1.00  0.00     0.074 A 
ATOM     57  C   UNL     1       0.015  15.905   3.222  1.00  0.00     0.031 C 
ATOM     58  C   UNL     1       0.214  15.078   5.643  1.00  0.00     0.037 A 
BRANCH  45  59
ATOM     59  C   UNL     1      -2.890  12.323  10.149  1.00  0.00     0.058 A 
ATOM     60  C   UNL     1      -1.785  11.808  10.868  1.00  0.00     0.135 A 
ATOM     61  C   UNL     1      -4.089  12.343  10.891  1.00  0.00     0.135 A 
ATOM     62  F   UNL     1      -0.550  11.805  10.345  1.00  0.00    -0.206 F 
ATOM     63  C   UNL     1      -1.889  11.262  12.153  1.00  0.00     0.059 A 
ATOM     64  C   UNL     1      -4.232  11.760  12.154  1.00  0.00     0.059 A 
ATOM     65  F   UNL     1      -5.176  12.988  10.464  1.00  0.00    -0.206 F 
ATOM     66  C   UNL     1      -3.127  11.207  12.776  1.00  0.00     0.060 A 
BRANCH  66  67
ATOM     67  S   UNL     1      -3.274  10.434  14.396  1.00  0.00     0.124 S 
ATOM     68  O   UNL     1      -2.759   9.092  14.144  1.00  0.00    -0.237 OA
ATOM     69  O   UNL     1      -2.435  11.295  15.222  1.00  0.00    -0.237 OA
ATOM     70  O   UNL     1      -4.706  10.503  14.678  1.00  0.00    -0.744 OA
ENDBRANCH  66  67
ENDBRANCH  45  59
BRANCH  46  71
ATOM     71  C   UNL     1      -2.457  13.419   0.447  1.00  0.00     0.058 A 
ATOM     72  C   UNL     1      -2.446  12.566  -0.674  1.00  0.00     0.135 A 
ATOM     73  C   UNL     1      -3.588  14.223   0.643  1.00  0.00     0.135 A 
ATOM     74  F   UNL     1      -1.373  11.796  -0.922  1.00  0.00    -0.206 F 
ATOM     75  C   UNL     1      -3.582  12.367  -1.448  1.00  0.00     0.059 A 
ATOM     76  C   UNL     1      -4.734  14.053  -0.135  1.00  0.00     0.059 A 
ATOM     77  F   UNL     1      -3.650  15.062   1.688  1.00  0.00    -0.206 F 
ATOM     78  C   UNL     1      -4.744  13.061  -1.117  1.00  0.00     0.060 A 
BRANCH  78  79
ATOM     79  S   UNL     1      -6.298  12.498  -1.850  1.00  0.00     0.124 S 
ATOM     80  O   UNL     1      -6.007  12.567  -3.278  1.00  0.00    -0.237 OA
ATOM     81  O   UNL     1      -6.412  11.151  -1.294  1.00  0.00    -0.237 OA
ATOM     82  O   UNL     1      -7.269  13.469  -1.357  1.00  0.00    -0.744 OA
ENDBRANCH  78  79
ENDBRANCH  46  71
BRANCH  58  83
ATOM     83  C   UNL     1       0.820  16.323   6.207  1.00  0.00     0.058 A 
ATOM     84  C   UNL     1       2.034  16.829   5.714  1.00  0.00     0.135 A 
ATOM     85  C   UNL     1       0.269  16.971   7.328  1.00  0.00     0.135 A 
ATOM     86  F   UNL     1       2.634  16.251   4.660  1.00  0.00    -0.206 F 
ATOM     87  C   UNL     1       2.662  17.930   6.290  1.00  0.00     0.059 A 
ATOM     88  C   UNL     1       0.897  18.050   7.944  1.00  0.00     0.059 A 
ATOM     89  F   UNL     1      -0.909  16.581   7.840  1.00  0.00    -0.206 F 
ATOM     90  C   UNL     1       2.087  18.532   7.408  1.00  0.00     0.060 A 
BRANCH  90  91
ATOM     91  S   UNL     1       2.916  19.931   8.190  1.00  0.00     0.124 S 
ATOM     92  O   UNL     1       4.327  19.660   7.929  1.00  0.00    -0.237 OA
ATOM     93  O   UNL     1       2.345  21.055   7.454  1.00  0.00    -0.237 OA
ATOM     94  O   UNL     1       2.512  19.819   9.587  1.00  0.00    -0.744 OA
ENDBRANCH  90  91
ENDBRANCH  58  83
ENDBRANCH  32  33
ENDBRANCH  24  27
ENDBRANCH  22  23
ENDBRANCH   1  22
TORSDOF 15
