REMARK SMILES C=CC[N@@H+](CC(=O)NCCCCNC(=O)c1ccc(-c2c3nc(c(-c4c(F)cc(S(=O)(=O)[O-])cc4F)c4ccc([nH]4)c(-c4c(F)cc(S(=O)(=O)[O-])cc4F)c4nc(c(-c5c(F)cc(S(=O)(=O)[O-])cc5F)c5ccc2[nH]5)C=C4)C=C3)cc1)C1CCCCC1
REMARK SMILES IDX 10 1 9 2 8 3 6 4 7 5 5 7 4 8 3 10 2 11 1 12 82 13 83 14
REMARK SMILES IDX 87 15 84 16 86 17 85 18 11 19 12 20 13 21 14 22 15 24 16 25
REMARK SMILES IDX 17 26 81 27 18 28 80 29 19 30 20 31 21 32 74 33 22 34 79 35
REMARK SMILES IDX 73 36 75 37 23 38 78 39 72 40 71 41 24 43 58 44 37 45 57 46
REMARK SMILES IDX 38 47 41 48 56 49 76 50 39 51 40 52 55 54 77 55 42 56 25 57
REMARK SMILES IDX 26 58 35 59 27 60 28 61 34 62 36 63 29 64 30 65 31 66 32 67
REMARK SMILES IDX 33 68 59 69 60 70 69 71 61 72 62 73 68 74 70 75 63 76 64 77
REMARK SMILES IDX 65 78 66 79 67 80 43 81 44 82 53 83 45 84 46 85 52 86 54 87
REMARK SMILES IDX 47 88 48 89 49 90 50 91 51 92
REMARK H PARENT 8 6 4 9 13 23 75 42 41 53
REMARK Flexibility Score: inf
ROOT
ATOM      1  C   UNL     1      -1.654  -1.345  -0.193  1.00  0.00     0.023 C 
ENDROOT
BRANCH   1   2
ATOM      2  C   UNL     1      -2.914  -0.766  -0.839  1.00  0.00     0.116 C 
BRANCH   2   3
ATOM      3  N   UNL     1      -3.704   0.004   0.097  1.00  0.00    -0.351 N 
ATOM      4  C   UNL     1      -3.788   1.355   0.280  1.00  0.00     0.275 C 
ATOM      5  O   UNL     1      -4.615   1.760   1.107  1.00  0.00    -0.269 OA
ATOM      6  H   UNL     1      -4.271  -0.531   0.699  1.00  0.00     0.163 HD
BRANCH   4   7
ATOM      7  C   UNL     1      -2.943   2.349  -0.524  1.00  0.00     0.364 C 
BRANCH   7   8
ATOM      8  N   UNL     1      -1.536   2.536  -0.113  1.00  0.00    -0.321 N 
ATOM      9  H   UNL     1      -1.368   3.514  -0.348  1.00  0.00     0.349 HD
BRANCH   8  10
ATOM     10  C   UNL     1      -0.584   1.822  -0.947  1.00  0.00     0.291 C 
BRANCH  10  11
ATOM     11  C   UNL     1       0.875   2.022  -0.666  1.00  0.00     0.025 C 
ATOM     12  C   UNL     1       1.672   1.066  -0.166  1.00  0.00     0.010 C 
ENDBRANCH  10  11
ENDBRANCH   8  10
BRANCH   8  13
ATOM     13  C   UNL     1      -1.209   2.802   1.296  1.00  0.00     0.184 C 
ATOM     14  C   UNL     1      -1.861   4.117   1.770  1.00  0.00     0.065 C 
ATOM     15  C   UNL     1      -1.457   1.667   2.308  1.00  0.00     0.065 C 
ATOM     16  C   UNL     1      -1.409   4.483   3.184  1.00  0.00     0.006 C 
ATOM     17  C   UNL     1      -1.058   2.054   3.733  1.00  0.00     0.006 C 
ATOM     18  C   UNL     1      -1.710   3.361   4.169  1.00  0.00     0.000 C 
ENDBRANCH   8  13
ENDBRANCH   7   8
ENDBRANCH   4   7
ENDBRANCH   2   3
ENDBRANCH   1   2
BRANCH   1  19
ATOM     19  C   UNL     1      -1.831  -2.611   0.627  1.00  0.00     0.023 C 
BRANCH  19  20
ATOM     20  C   UNL     1      -2.354  -3.801  -0.152  1.00  0.00     0.116 C 
BRANCH  20  21
ATOM     21  N   UNL     1      -1.578  -4.117  -1.344  1.00  0.00    -0.352 N 
ATOM     22  C   UNL     1      -1.281  -5.354  -1.867  1.00  0.00     0.251 C 
ATOM     23  H   UNL     1      -1.220  -3.345  -1.839  1.00  0.00     0.163 HD
ATOM     24  O   UNL     1      -0.539  -5.449  -2.841  1.00  0.00    -0.269 OA
BRANCH  22  25
ATOM     25  C   UNL     1      -1.832  -6.561  -1.218  1.00  0.00     0.039 A 
ATOM     26  C   UNL     1      -0.998  -7.657  -0.992  1.00  0.00     0.014 A 
ATOM     27  C   UNL     1      -3.160  -6.585  -0.787  1.00  0.00     0.014 A 
ATOM     28  C   UNL     1      -1.486  -8.756  -0.284  1.00  0.00     0.010 A 
ATOM     29  C   UNL     1      -3.604  -7.620   0.019  1.00  0.00     0.010 A 
ATOM     30  C   UNL     1      -2.785  -8.733   0.249  1.00  0.00    -0.014 A 
BRANCH  30  31
ATOM     31  C   UNL     1      -3.348  -9.895   0.978  1.00  0.00     0.031 A 
ATOM     32  C   UNL     1      -4.564 -10.590   0.421  1.00  0.00     0.074 A 
ATOM     33  C   UNL     1      -2.816 -10.280   2.154  1.00  0.00     0.049 A 
ATOM     34  N   UNL     1      -5.268 -11.565   0.933  1.00  0.00    -0.248 NA
ATOM     35  C   UNL     1      -5.088 -10.087  -0.862  1.00  0.00     0.031 C 
ATOM     36  C   UNL     1      -1.684  -9.638   2.827  1.00  0.00     0.029 A 
ATOM     37  N   UNL     1      -3.163 -11.305   2.996  1.00  0.00    -0.354 N 
ATOM     38  C   UNL     1      -6.327 -11.765   0.054  1.00  0.00     0.074 A 
ATOM     39  C   UNL     1      -6.218 -10.764  -0.981  1.00  0.00     0.031 C 
ATOM     40  C   UNL     1      -1.409 -10.306   3.959  1.00  0.00     0.029 A 
ATOM     41  C   UNL     1      -2.359 -11.404   4.107  1.00  0.00     0.049 A 
ATOM     42  H   UNL     1      -3.918 -11.912   2.822  1.00  0.00     0.167 HD
ATOM     43  C   UNL     1      -7.282 -12.724   0.083  1.00  0.00     0.037 A 
ATOM     44  C   UNL     1      -2.383 -12.291   5.120  1.00  0.00     0.037 A 
ATOM     45  C   UNL     1      -7.342 -13.756   1.082  1.00  0.00     0.049 A 
ATOM     46  C   UNL     1      -3.409 -13.393   5.094  1.00  0.00     0.074 A 
ATOM     47  C   UNL     1      -8.225 -14.815   1.177  1.00  0.00     0.029 A 
ATOM     48  N   UNL     1      -6.464 -13.865   2.151  1.00  0.00    -0.354 N 
ATOM     49  N   UNL     1      -4.371 -13.603   4.226  1.00  0.00    -0.248 NA
ATOM     50  C   UNL     1      -3.342 -14.388   6.171  1.00  0.00     0.031 C 
ATOM     51  C   UNL     1      -7.893 -15.555   2.317  1.00  0.00     0.029 A 
ATOM     52  C   UNL     1      -6.780 -14.978   2.909  1.00  0.00     0.049 A 
ATOM     53  H   UNL     1      -5.725 -13.243   2.341  1.00  0.00     0.167 HD
ATOM     54  C   UNL     1      -5.001 -14.774   4.632  1.00  0.00     0.074 A 
ATOM     55  C   UNL     1      -4.305 -15.229   5.819  1.00  0.00     0.031 C 
ATOM     56  C   UNL     1      -6.056 -15.419   4.074  1.00  0.00     0.037 A 
BRANCH  43  57
ATOM     57  C   UNL     1      -8.314 -12.707  -1.011  1.00  0.00     0.058 A 
ATOM     58  C   UNL     1      -7.982 -13.015  -2.341  1.00  0.00     0.135 A 
ATOM     59  C   UNL     1      -9.650 -12.381  -0.730  1.00  0.00     0.135 A 
ATOM     60  F   UNL     1      -6.715 -13.312  -2.671  1.00  0.00    -0.206 F 
ATOM     61  C   UNL     1      -8.928 -12.960  -3.360  1.00  0.00     0.059 A 
ATOM     62  C   UNL     1     -10.620 -12.351  -1.729  1.00  0.00     0.059 A 
ATOM     63  F   UNL     1     -10.023 -12.076   0.523  1.00  0.00    -0.206 F 
ATOM     64  C   UNL     1     -10.244 -12.624  -3.043  1.00  0.00     0.060 A 
BRANCH  64  65
ATOM     65  S   UNL     1     -11.460 -12.553  -4.376  1.00  0.00     0.124 S 
ATOM     66  O   UNL     1     -11.102 -11.296  -5.028  1.00  0.00    -0.237 OA
ATOM     67  O   UNL     1     -11.165 -13.765  -5.134  1.00  0.00    -0.237 OA
ATOM     68  O   UNL     1     -12.737 -12.554  -3.670  1.00  0.00    -0.744 OA
ENDBRANCH  64  65
ENDBRANCH  43  57
BRANCH  44  69
ATOM     69  C   UNL     1      -1.369 -12.213   6.204  1.00  0.00     0.058 A 
ATOM     70  C   UNL     1      -0.336 -13.159   6.292  1.00  0.00     0.135 A 
ATOM     71  C   UNL     1      -1.399 -11.190   7.163  1.00  0.00     0.135 A 
ATOM     72  F   UNL     1      -0.264 -14.158   5.398  1.00  0.00    -0.206 F 
ATOM     73  C   UNL     1       0.617 -13.108   7.303  1.00  0.00     0.059 A 
ATOM     74  C   UNL     1      -0.444 -11.104   8.171  1.00  0.00     0.059 A 
ATOM     75  F   UNL     1      -2.354 -10.248   7.111  1.00  0.00    -0.206 F 
ATOM     76  C   UNL     1       0.555 -12.076   8.240  1.00  0.00     0.060 A 
BRANCH  76  77
ATOM     77  S   UNL     1       1.822 -11.993   9.525  1.00  0.00     0.124 S 
ATOM     78  O   UNL     1       1.411 -13.075  10.412  1.00  0.00    -0.237 OA
ATOM     79  O   UNL     1       3.047 -12.221   8.764  1.00  0.00    -0.237 OA
ATOM     80  O   UNL     1       1.669 -10.643  10.059  1.00  0.00    -0.744 OA
ENDBRANCH  76  77
ENDBRANCH  44  69
BRANCH  56  81
ATOM     81  C   UNL     1      -6.484 -16.711   4.707  1.00  0.00     0.058 A 
ATOM     82  C   UNL     1      -7.169 -16.744   5.930  1.00  0.00     0.135 A 
ATOM     83  C   UNL     1      -6.243 -17.930   4.052  1.00  0.00     0.135 A 
ATOM     84  F   UNL     1      -7.422 -15.606   6.595  1.00  0.00    -0.206 F 
ATOM     85  C   UNL     1      -7.574 -17.946   6.500  1.00  0.00     0.059 A 
ATOM     86  C   UNL     1      -6.662 -19.141   4.590  1.00  0.00     0.059 A 
ATOM     87  F   UNL     1      -5.604 -17.949   2.871  1.00  0.00    -0.206 F 
ATOM     88  C   UNL     1      -7.314 -19.140   5.823  1.00  0.00     0.060 A 
BRANCH  88  89
ATOM     89  S   UNL     1      -7.861 -20.693   6.561  1.00  0.00     0.124 S 
ATOM     90  O   UNL     1      -6.857 -20.891   7.602  1.00  0.00    -0.237 OA
ATOM     91  O   UNL     1      -9.203 -20.363   7.030  1.00  0.00    -0.237 OA
ATOM     92  O   UNL     1      -7.807 -21.635   5.447  1.00  0.00    -0.744 OA
ENDBRANCH  88  89
ENDBRANCH  56  81
ENDBRANCH  30  31
ENDBRANCH  22  25
ENDBRANCH  20  21
ENDBRANCH  19  20
ENDBRANCH   1  19
TORSDOF 18
