REMARK SMILES CC[NH+]1CCN(c2ccc(NC(=O)C3CCCC3)c(C(=O)NCCCCNC(=O)c3ccc(-c4c5nc(c(-c6c(F)cc(S(=O)(=O)[O-])cc6F)c6ccc([nH]6)c(-c6c(F)cc(S(=O)(=O)[O-])cc6F)c6nc(c(-c7c(F)cc(S(=O)(=O)[O-])cc7F)c7ccc4[nH]7)C=C6)C=C5)cc3)c2)CC1
REMARK SMILES IDX 25 1 24 2 23 3 22 4 20 5 21 6 19 8 7 9 8 10 96 11 9 12 10 13
REMARK SMILES IDX 6 14 3 15 4 16 98 17 5 19 97 20 2 21 1 22 11 23 12 24 13 26
REMARK SMILES IDX 14 27 15 28 18 29 16 30 17 31 26 32 27 33 28 34 29 36 30 37
REMARK SMILES IDX 31 38 95 39 32 40 94 41 33 42 34 43 35 44 88 45 36 46 93 47
REMARK SMILES IDX 87 48 89 49 37 50 92 51 86 52 85 53 38 55 72 56 51 57 71 58
REMARK SMILES IDX 52 59 55 60 70 61 90 62 53 63 54 64 69 66 91 67 56 68 39 69
REMARK SMILES IDX 40 70 49 71 41 72 42 73 48 74 50 75 43 76 44 77 45 78 46 79
REMARK SMILES IDX 47 80 73 81 74 82 83 83 75 84 76 85 82 86 84 87 77 88 78 89
REMARK SMILES IDX 79 90 80 91 81 92 57 93 58 94 67 95 59 96 60 97 66 98 68 99
REMARK SMILES IDX 61 100 62 101 63 102 64 103 65 104
REMARK H PARENT 22 7 3 18 11 25 27 35 89 54 55 65
REMARK Flexibility Score: inf
ROOT
ATOM      1  C   UNL     1       1.511  -0.567   9.264  1.00  0.00     0.023 C 
ENDROOT
BRANCH   1   2
ATOM      2  C   UNL     1       1.323   0.073   7.896  1.00  0.00     0.023 C 
BRANCH   2   3
ATOM      3  C   UNL     1      -0.103   0.240   7.390  1.00  0.00     0.116 C 
BRANCH   3   4
ATOM      4  N   UNL     1      -0.966   1.132   8.154  1.00  0.00    -0.352 N 
ATOM      5  C   UNL     1      -2.014   1.952   7.758  1.00  0.00     0.253 C 
ATOM      6  O   UNL     1      -2.603   2.598   8.626  1.00  0.00    -0.269 OA
ATOM      7  H   UNL     1      -0.771   1.158   9.119  1.00  0.00     0.163 HD
BRANCH   5   8
ATOM      8  C   UNL     1      -2.419   2.139   6.324  1.00  0.00     0.065 A 
ATOM      9  C   UNL     1      -2.111   1.366   4.037  1.00  0.00     0.038 A 
ATOM     10  C   UNL     1      -2.718   2.529   3.594  1.00  0.00     0.028 A 
ATOM     11  C   UNL     1      -2.160   1.112   5.401  1.00  0.00     0.042 A 
ATOM     12  C   UNL     1      -3.210   3.470   4.492  1.00  0.00     0.029 A 
ATOM     13  C   UNL     1      -2.978   3.362   5.864  1.00  0.00     0.054 A 
BRANCH   9  14
ATOM     14  N   UNL     1      -1.365   0.597   3.173  1.00  0.00    -0.360 N 
ATOM     15  N   UNL     1       1.023  -0.797   2.168  1.00  0.00    -0.332 N 
ATOM     16  C   UNL     1       1.013   0.652   2.446  1.00  0.00     0.283 C 
ATOM     17  C   UNL     1       0.099  -1.438   3.140  1.00  0.00     0.283 C 
ATOM     18  H   UNL     1       1.978  -1.142   2.271  1.00  0.00     0.348 HD
ATOM     19  C   UNL     1      -0.379   1.303   2.332  1.00  0.00     0.178 C 
ATOM     20  C   UNL     1      -1.346  -0.869   3.176  1.00  0.00     0.178 C 
BRANCH  15  21
ATOM     21  C   UNL     1       0.642  -1.135   0.786  1.00  0.00     0.258 C 
ATOM     22  C   UNL     1       1.434  -0.394  -0.288  1.00  0.00     0.071 C 
ENDBRANCH  15  21
ENDBRANCH   9  14
BRANCH  13  23
ATOM     23  N   UNL     1      -3.275   4.413   6.777  1.00  0.00    -0.325 N 
ATOM     24  C   UNL     1      -3.651   5.731   6.653  1.00  0.00     0.227 C 
ATOM     25  H   UNL     1      -3.191   4.131   7.716  1.00  0.00     0.169 HD
ATOM     26  O   UNL     1      -3.905   6.370   7.679  1.00  0.00    -0.274 OA
BRANCH  24  27
ATOM     27  C   UNL     1      -3.744   6.406   5.296  1.00  0.00     0.079 C 
ATOM     28  C   UNL     1      -4.292   7.834   5.258  1.00  0.00     0.013 C 
ATOM     29  C   UNL     1      -2.377   6.623   4.645  1.00  0.00     0.013 C 
ATOM     30  C   UNL     1      -3.951   8.283   3.833  1.00  0.00     0.001 C 
ATOM     31  C   UNL     1      -2.685   7.513   3.448  1.00  0.00     0.001 C 
ENDBRANCH  24  27
ENDBRANCH  13  23
ENDBRANCH   5   8
ENDBRANCH   3   4
ENDBRANCH   2   3
ENDBRANCH   1   2
BRANCH   1  32
ATOM     32  C   UNL     1       0.789  -1.886   9.513  1.00  0.00     0.116 C 
BRANCH  32  33
ATOM     33  N   UNL     1       1.105  -2.937   8.557  1.00  0.00    -0.352 N 
ATOM     34  C   UNL     1       1.522  -4.235   8.768  1.00  0.00     0.251 C 
ATOM     35  H   UNL     1       1.006  -2.681   7.611  1.00  0.00     0.163 HD
ATOM     36  O   UNL     1       1.780  -4.950   7.809  1.00  0.00    -0.269 OA
BRANCH  34  37
ATOM     37  C   UNL     1       1.704  -4.748  10.147  1.00  0.00     0.039 A 
ATOM     38  C   UNL     1       2.872  -5.454  10.453  1.00  0.00     0.014 A 
ATOM     39  C   UNL     1       0.751  -4.517  11.141  1.00  0.00     0.014 A 
ATOM     40  C   UNL     1       3.124  -5.841  11.773  1.00  0.00     0.010 A 
ATOM     41  C   UNL     1       1.044  -4.824  12.468  1.00  0.00     0.010 A 
ATOM     42  C   UNL     1       2.236  -5.485  12.801  1.00  0.00    -0.014 A 
BRANCH  42  43
ATOM     43  C   UNL     1       2.546  -5.783  14.226  1.00  0.00     0.031 A 
ATOM     44  C   UNL     1       1.646  -6.687  15.027  1.00  0.00     0.074 A 
ATOM     45  C   UNL     1       3.601  -5.188  14.819  1.00  0.00     0.049 A 
ATOM     46  N   UNL     1       1.725  -7.024  16.290  1.00  0.00    -0.248 NA
ATOM     47  C   UNL     1       0.488  -7.264  14.326  1.00  0.00     0.031 C 
ATOM     48  C   UNL     1       4.512  -4.239  14.172  1.00  0.00     0.029 A 
ATOM     49  N   UNL     1       4.084  -5.284  16.101  1.00  0.00    -0.354 N 
ATOM     50  C   UNL     1       0.625  -7.837  16.536  1.00  0.00     0.074 A 
ATOM     51  C   UNL     1      -0.139  -7.894  15.309  1.00  0.00     0.031 C 
ATOM     52  C   UNL     1       5.457  -3.866  15.050  1.00  0.00     0.029 A 
ATOM     53  C   UNL     1       5.204  -4.520  16.330  1.00  0.00     0.049 A 
ATOM     54  H   UNL     1       3.667  -5.848  16.791  1.00  0.00     0.167 HD
ATOM     55  C   UNL     1       0.295  -8.499  17.671  1.00  0.00     0.037 A 
ATOM     56  C   UNL     1       5.946  -4.364  17.444  1.00  0.00     0.037 A 
ATOM     57  C   UNL     1       1.073  -8.462  18.882  1.00  0.00     0.049 A 
ATOM     58  C   UNL     1       5.573  -5.128  18.686  1.00  0.00     0.074 A 
ATOM     59  C   UNL     1       0.855  -9.143  20.067  1.00  0.00     0.029 A 
ATOM     60  N   UNL     1       2.220  -7.704  19.064  1.00  0.00    -0.354 N 
ATOM     61  N   UNL     1       4.566  -5.947  18.879  1.00  0.00    -0.248 NA
ATOM     62  C   UNL     1       6.444  -4.958  19.857  1.00  0.00     0.031 C 
ATOM     63  C   UNL     1       1.849  -8.769  20.977  1.00  0.00     0.029 A 
ATOM     64  C   UNL     1       2.715  -7.891  20.345  1.00  0.00     0.049 A 
ATOM     65  H   UNL     1       2.624  -7.119  18.382  1.00  0.00     0.167 HD
ATOM     66  C   UNL     1       4.699  -6.411  20.183  1.00  0.00     0.074 A 
ATOM     67  C   UNL     1       5.892  -5.793  20.726  1.00  0.00     0.031 C 
ATOM     68  C   UNL     1       3.906  -7.272  20.869  1.00  0.00     0.037 A 
BRANCH  55  69
ATOM     69  C   UNL     1      -0.959  -9.331  17.650  1.00  0.00     0.058 A 
ATOM     70  C   UNL     1      -1.043 -10.516  16.899  1.00  0.00     0.135 A 
ATOM     71  C   UNL     1      -2.081  -8.958  18.407  1.00  0.00     0.135 A 
ATOM     72  F   UNL     1      -0.006 -10.913  16.144  1.00  0.00    -0.206 F 
ATOM     73  C   UNL     1      -2.204 -11.281  16.873  1.00  0.00     0.059 A 
ATOM     74  C   UNL     1      -3.244  -9.724  18.419  1.00  0.00     0.059 A 
ATOM     75  F   UNL     1      -2.057  -7.836  19.144  1.00  0.00    -0.206 F 
ATOM     76  C   UNL     1      -3.301 -10.876  17.635  1.00  0.00     0.060 A 
BRANCH  76  77
ATOM     77  S   UNL     1      -4.799 -11.881  17.590  1.00  0.00     0.124 S 
ATOM     78  O   UNL     1      -5.325 -11.559  16.267  1.00  0.00    -0.237 OA
ATOM     79  O   UNL     1      -4.274 -13.233  17.751  1.00  0.00    -0.237 OA
ATOM     80  O   UNL     1      -5.581 -11.377  18.715  1.00  0.00    -0.744 OA
ENDBRANCH  76  77
ENDBRANCH  55  69
BRANCH  56  81
ATOM     81  C   UNL     1       7.140  -3.476  17.426  1.00  0.00     0.058 A 
ATOM     82  C   UNL     1       8.436  -4.010  17.479  1.00  0.00     0.135 A 
ATOM     83  C   UNL     1       7.012  -2.080  17.347  1.00  0.00     0.135 A 
ATOM     84  F   UNL     1       8.610  -5.338  17.562  1.00  0.00    -0.206 F 
ATOM     85  C   UNL     1       9.563  -3.195  17.473  1.00  0.00     0.059 A 
ATOM     86  C   UNL     1       8.124  -1.245  17.314  1.00  0.00     0.059 A 
ATOM     87  F   UNL     1       5.795  -1.520  17.276  1.00  0.00    -0.206 F 
ATOM     88  C   UNL     1       9.396  -1.812  17.388  1.00  0.00     0.060 A 
BRANCH  88  89
ATOM     89  S   UNL     1      10.867  -0.764  17.331  1.00  0.00     0.124 S 
ATOM     90  O   UNL     1      11.325  -0.824  18.714  1.00  0.00    -0.237 OA
ATOM     91  O   UNL     1      11.699  -1.456  16.352  1.00  0.00    -0.237 OA
ATOM     92  O   UNL     1      10.342   0.526  16.894  1.00  0.00    -0.744 OA
ENDBRANCH  88  89
ENDBRANCH  56  81
BRANCH  68  93
ATOM     93  C   UNL     1       4.326  -7.626  22.269  1.00  0.00     0.058 A 
ATOM     94  C   UNL     1       4.222  -6.710  23.327  1.00  0.00     0.135 A 
ATOM     95  C   UNL     1       4.813  -8.911  22.560  1.00  0.00     0.135 A 
ATOM     96  F   UNL     1       3.766  -5.467  23.102  1.00  0.00    -0.206 F 
ATOM     97  C   UNL     1       4.620  -7.043  24.618  1.00  0.00     0.059 A 
ATOM     98  C   UNL     1       5.189  -9.275  23.849  1.00  0.00     0.059 A 
ATOM     99  F   UNL     1       4.920  -9.830  21.588  1.00  0.00    -0.206 F 
ATOM    100  C   UNL     1       5.106  -8.327  24.868  1.00  0.00     0.060 A 
BRANCH 100 101
ATOM    101  S   UNL     1       5.611  -8.752  26.549  1.00  0.00     0.124 S 
ATOM    102  O   UNL     1       6.892  -8.060  26.653  1.00  0.00    -0.237 OA
ATOM    103  O   UNL     1       4.525  -8.200  27.352  1.00  0.00    -0.237 OA
ATOM    104  O   UNL     1       5.684 -10.210  26.523  1.00  0.00    -0.744 OA
ENDBRANCH 100 101
ENDBRANCH  68  93
ENDBRANCH  42  43
ENDBRANCH  34  37
ENDBRANCH  32  33
ENDBRANCH   1  32
TORSDOF 18
