REMARK SMILES Cc1ccc(C(=O)c2cccc(C)c2C(=O)NCCCCNC(=O)c2ccc(-c3c4nc(c(-c5c(F)cc(S(=O)(=O)[O-])cc5F)c5ccc([nH]5)c(-c5c(F)cc(S(=O)(=O)[O-])cc5F)c5nc(c(-c6c(F)cc(S(=O)(=O)[O-])cc6F)c6ccc3[nH]6)C=C5)C=C4)cc2)c(C)c1
REMARK SMILES IDX 20 1 19 2 18 3 17 4 15 5 16 6 14 8 8 9 9 10 10 11 12 12
REMARK SMILES IDX 11 13 13 14 6 15 7 16 5 17 1 18 2 19 3 20 93 21 4 22 91 23
REMARK SMILES IDX 92 24 21 25 22 26 23 27 24 29 25 30 26 31 90 32 27 33 89 34
REMARK SMILES IDX 28 35 29 36 30 37 83 38 31 39 88 40 82 41 84 42 32 43 87 44
REMARK SMILES IDX 81 45 80 46 33 48 67 49 46 50 66 51 47 52 50 53 65 54 85 55
REMARK SMILES IDX 48 56 49 57 64 59 86 60 51 61 34 62 35 63 44 64 36 65 37 66
REMARK SMILES IDX 43 67 45 68 38 69 39 70 40 71 41 72 42 73 68 74 69 75 78 76
REMARK SMILES IDX 70 77 71 78 77 79 79 80 72 81 73 82 74 83 75 84 76 85 52 86
REMARK SMILES IDX 53 87 62 88 54 89 55 90 61 91 63 92 56 93 57 94 58 95 59 96
REMARK SMILES IDX 60 97
REMARK H PARENT 17 7 22 28 84 47 50 58
REMARK Flexibility Score: inf
ROOT
ATOM      1  C   UNL     1      -3.316  -2.619  -4.037  1.00  0.00     0.023 C 
ENDROOT
BRANCH   1   2
ATOM      2  C   UNL     1      -2.406  -3.101  -2.910  1.00  0.00     0.023 C 
BRANCH   2   3
ATOM      3  C   UNL     1      -2.814  -2.693  -1.492  1.00  0.00     0.116 C 
BRANCH   3   4
ATOM      4  N   UNL     1      -4.148  -3.091  -1.078  1.00  0.00    -0.352 N 
ATOM      5  C   UNL     1      -4.682  -3.458   0.141  1.00  0.00     0.252 C 
ATOM      6  O   UNL     1      -5.907  -3.589   0.177  1.00  0.00    -0.269 OA
ATOM      7  H   UNL     1      -4.802  -3.100  -1.813  1.00  0.00     0.163 HD
BRANCH   5   8
ATOM      8  C   UNL     1      -3.863  -3.811   1.355  1.00  0.00     0.053 A 
ATOM      9  C   UNL     1      -2.759  -3.054   1.791  1.00  0.00     0.036 A 
ATOM     10  C   UNL     1      -1.988  -3.451   2.901  1.00  0.00     0.013 A 
ATOM     11  C   UNL     1      -2.320  -4.593   3.613  1.00  0.00     0.001 A 
ATOM     12  C   UNL     1      -4.263  -4.904   2.171  1.00  0.00    -0.038 A 
ATOM     13  C   UNL     1      -3.471  -5.292   3.272  1.00  0.00     0.004 A 
ATOM     14  C   UNL     1      -5.580  -5.620   1.990  1.00  0.00     0.045 C 
BRANCH   9  15
ATOM     15  C   UNL     1      -2.579  -1.668   1.338  1.00  0.00     0.194 C 
ATOM     16  O   UNL     1      -3.595  -0.983   1.392  1.00  0.00    -0.289 OA
BRANCH  15  17
ATOM     17  C   UNL     1      -1.240  -1.107   0.944  1.00  0.00     0.025 A 
ATOM     18  C   UNL     1       2.650   0.571   0.064  1.00  0.00     0.044 C 
ATOM     19  C   UNL     1       1.317  -0.042   0.378  1.00  0.00    -0.051 A 
ATOM     20  C   UNL     1       1.143  -1.418   0.479  1.00  0.00     0.004 A 
ATOM     21  C   UNL     1       0.199   0.784   0.509  1.00  0.00     0.007 A 
ATOM     22  C   UNL     1      -0.119  -1.944   0.779  1.00  0.00     0.013 A 
ATOM     23  C   UNL     1      -1.093   0.267   0.706  1.00  0.00    -0.040 A 
ATOM     24  C   UNL     1      -2.245   1.228   0.623  1.00  0.00     0.045 C 
ENDBRANCH  15  17
ENDBRANCH   9  15
ENDBRANCH   5   8
ENDBRANCH   3   4
ENDBRANCH   2   3
ENDBRANCH   1   2
BRANCH   1  25
ATOM     25  C   UNL     1      -3.262  -1.113  -4.302  1.00  0.00     0.116 C 
BRANCH  25  26
ATOM     26  N   UNL     1      -2.412  -0.810  -5.455  1.00  0.00    -0.352 N 
ATOM     27  C   UNL     1      -2.546   0.164  -6.423  1.00  0.00     0.251 C 
ATOM     28  H   UNL     1      -1.623  -1.391  -5.555  1.00  0.00     0.163 HD
ATOM     29  O   UNL     1      -1.812   0.198  -7.410  1.00  0.00    -0.269 OA
BRANCH  27  30
ATOM     30  C   UNL     1      -3.549   1.218  -6.207  1.00  0.00     0.039 A 
ATOM     31  C   UNL     1      -3.087   2.499  -5.889  1.00  0.00     0.014 A 
ATOM     32  C   UNL     1      -4.885   0.867  -6.041  1.00  0.00     0.014 A 
ATOM     33  C   UNL     1      -3.921   3.362  -5.188  1.00  0.00     0.010 A 
ATOM     34  C   UNL     1      -5.675   1.685  -5.257  1.00  0.00     0.010 A 
ATOM     35  C   UNL     1      -5.166   2.901  -4.773  1.00  0.00    -0.014 A 
BRANCH  35  36
ATOM     36  C   UNL     1      -5.959   3.555  -3.735  1.00  0.00     0.031 A 
ATOM     37  C   UNL     1      -7.241   4.207  -4.086  1.00  0.00     0.074 A 
ATOM     38  C   UNL     1      -5.585   3.413  -2.444  1.00  0.00     0.049 A 
ATOM     39  N   UNL     1      -7.941   4.955  -3.302  1.00  0.00    -0.248 NA
ATOM     40  C   UNL     1      -7.808   4.098  -5.426  1.00  0.00     0.031 C 
ATOM     41  C   UNL     1      -6.427   3.563  -1.262  1.00  0.00     0.029 A 
ATOM     42  N   UNL     1      -4.284   3.280  -1.934  1.00  0.00    -0.354 N 
ATOM     43  C   UNL     1      -9.145   5.218  -3.923  1.00  0.00     0.074 A 
ATOM     44  C   UNL     1      -8.990   4.697  -5.261  1.00  0.00     0.031 C 
ATOM     45  C   UNL     1      -5.641   3.740  -0.188  1.00  0.00     0.029 A 
ATOM     46  C   UNL     1      -4.282   3.917  -0.679  1.00  0.00     0.049 A 
ATOM     47  H   UNL     1      -3.523   2.830  -2.368  1.00  0.00     0.167 HD
ATOM     48  C   UNL     1     -10.177   5.739  -3.196  1.00  0.00     0.037 A 
ATOM     49  C   UNL     1      -3.531   5.032  -0.431  1.00  0.00     0.037 A 
ATOM     50  C   UNL     1      -9.731   6.104  -1.851  1.00  0.00     0.049 A 
ATOM     51  C   UNL     1      -4.340   6.223   0.000  1.00  0.00     0.074 A 
ATOM     52  C   UNL     1      -9.776   5.433  -0.639  1.00  0.00     0.029 A 
ATOM     53  N   UNL     1      -8.848   7.167  -1.680  1.00  0.00    -0.354 N 
ATOM     54  N   UNL     1      -5.596   6.400  -0.303  1.00  0.00    -0.248 NA
ATOM     55  C   UNL     1      -3.790   7.307   0.807  1.00  0.00     0.031 C 
ATOM     56  C   UNL     1      -8.851   6.051   0.238  1.00  0.00     0.029 A 
ATOM     57  C   UNL     1      -8.264   7.115  -0.427  1.00  0.00     0.049 A 
ATOM     58  H   UNL     1      -8.664   7.858  -2.356  1.00  0.00     0.167 HD
ATOM     59  C   UNL     1      -6.013   7.600   0.205  1.00  0.00     0.074 A 
ATOM     60  C   UNL     1      -4.856   8.117   0.914  1.00  0.00     0.031 C 
ATOM     61  C   UNL     1      -7.267   8.091  -0.012  1.00  0.00     0.037 A 
BRANCH  48  62
ATOM     62  C   UNL     1     -11.640   5.620  -3.604  1.00  0.00     0.058 A 
ATOM     63  C   UNL     1     -12.654   5.505  -2.626  1.00  0.00     0.135 A 
ATOM     64  C   UNL     1     -12.107   5.526  -4.930  1.00  0.00     0.135 A 
ATOM     65  F   UNL     1     -12.395   5.683  -1.323  1.00  0.00    -0.206 F 
ATOM     66  C   UNL     1     -13.984   5.194  -2.932  1.00  0.00     0.059 A 
ATOM     67  C   UNL     1     -13.416   5.155  -5.262  1.00  0.00     0.059 A 
ATOM     68  F   UNL     1     -11.329   5.854  -5.968  1.00  0.00    -0.206 F 
ATOM     69  C   UNL     1     -14.349   4.978  -4.253  1.00  0.00     0.060 A 
BRANCH  69  70
ATOM     70  S   UNL     1     -16.044   4.490  -4.628  1.00  0.00     0.124 S 
ATOM     71  O   UNL     1     -16.223   3.314  -3.782  1.00  0.00    -0.237 OA
ATOM     72  O   UNL     1     -16.796   5.676  -4.235  1.00  0.00    -0.237 OA
ATOM     73  O   UNL     1     -16.010   4.219  -6.063  1.00  0.00    -0.744 OA
ENDBRANCH  69  70
ENDBRANCH  48  62
BRANCH  49  74
ATOM     74  C   UNL     1      -2.248   5.123  -1.182  1.00  0.00     0.058 A 
ATOM     75  C   UNL     1      -1.143   4.410  -0.701  1.00  0.00     0.135 A 
ATOM     76  C   UNL     1      -2.233   5.496  -2.534  1.00  0.00     0.135 A 
ATOM     77  F   UNL     1      -1.059   4.102   0.604  1.00  0.00    -0.206 F 
ATOM     78  C   UNL     1      -0.198   3.870  -1.567  1.00  0.00     0.059 A 
ATOM     79  C   UNL     1      -1.288   4.972  -3.418  1.00  0.00     0.059 A 
ATOM     80  F   UNL     1      -3.229   6.239  -3.039  1.00  0.00    -0.206 F 
ATOM     81  C   UNL     1      -0.348   4.068  -2.934  1.00  0.00     0.060 A 
BRANCH  81  82
ATOM     82  S   UNL     1       0.555   2.972  -4.053  1.00  0.00     0.124 S 
ATOM     83  O   UNL     1       1.907   3.009  -3.504  1.00  0.00    -0.237 OA
ATOM     84  O   UNL     1      -0.165   1.714  -3.865  1.00  0.00    -0.237 OA
ATOM     85  O   UNL     1       0.385   3.610  -5.353  1.00  0.00    -0.744 OA
ENDBRANCH  81  82
ENDBRANCH  49  74
BRANCH  61  86
ATOM     86  C   UNL     1      -7.665   9.519   0.253  1.00  0.00     0.058 A 
ATOM     87  C   UNL     1      -6.774  10.601   0.130  1.00  0.00     0.135 A 
ATOM     88  C   UNL     1      -9.012   9.860   0.510  1.00  0.00     0.135 A 
ATOM     89  F   UNL     1      -5.498  10.416  -0.239  1.00  0.00    -0.206 F 
ATOM     90  C   UNL     1      -7.165  11.921   0.339  1.00  0.00     0.059 A 
ATOM     91  C   UNL     1      -9.436  11.178   0.666  1.00  0.00     0.059 A 
ATOM     92  F   UNL     1      -9.963   8.919   0.603  1.00  0.00    -0.206 F 
ATOM     93  C   UNL     1      -8.498  12.202   0.611  1.00  0.00     0.060 A 
BRANCH  93  94
ATOM     94  S   UNL     1      -9.021  13.912   0.829  1.00  0.00     0.124 S 
ATOM     95  O   UNL     1      -8.896  14.072   2.274  1.00  0.00    -0.237 OA
ATOM     96  O   UNL     1      -8.050  14.654   0.029  1.00  0.00    -0.237 OA
ATOM     97  O   UNL     1     -10.382  13.912   0.305  1.00  0.00    -0.744 OA
ENDBRANCH  93  94
ENDBRANCH  61  86
ENDBRANCH  35  36
ENDBRANCH  27  30
ENDBRANCH  25  26
ENDBRANCH   1  25
TORSDOF 16
