REMARK SMILES O=C(NCCCCNC(=O)c1ccc(NC2CC2)c(F)c1F)c1ccc(-c2c3nc(c(-c4c(F)cc(S(=O)(=O)[O-])cc4F)c4ccc([nH]4)c(-c4c(F)cc(S(=O)(=O)[O-])cc4F)c4nc(c(-c5c(F)cc(S(=O)(=O)[O-])cc5F)c5ccc2[nH]5)C=C4)C=C3)cc1
REMARK SMILES IDX 5 1 4 2 3 3 1 4 2 5 23 7 24 8 88 9 25 10 87 11 26 12 27 13
REMARK SMILES IDX 28 14 81 15 29 16 86 17 80 18 82 19 30 20 85 21 79 22 78 23
REMARK SMILES IDX 31 25 65 26 44 27 64 28 45 29 48 30 63 31 83 32 46 33 47 34
REMARK SMILES IDX 62 36 84 37 49 38 32 39 33 40 42 41 34 42 35 43 41 44 43 45
REMARK SMILES IDX 36 46 37 47 38 48 39 49 40 50 66 51 67 52 76 53 68 54 69 55
REMARK SMILES IDX 75 56 77 57 70 58 71 59 72 60 73 61 74 62 50 63 51 64 60 65
REMARK SMILES IDX 52 66 53 67 59 68 61 69 54 70 55 71 56 72 57 73 58 74 6 75
REMARK SMILES IDX 7 76 8 77 9 78 10 80 11 81 12 82 21 83 13 84 19 85 22 86
REMARK SMILES IDX 14 87 20 88 15 89 16 91 17 92 18 93
REMARK H PARENT 3 6 82 24 48 35 8 79 15 90
REMARK Flexibility Score: inf
ROOT
ATOM      1  C   UNL     1       4.866  -2.496   0.387  1.00  0.00     0.023 C 
ENDROOT
BRANCH   1   2
ATOM      2  C   UNL     1       4.522  -1.236  -0.395  1.00  0.00     0.116 C 
BRANCH   2   3
ATOM      3  N   UNL     1       3.088  -1.025  -0.546  1.00  0.00    -0.352 N 
ATOM      4  O   UNL     1       1.095  -0.010  -0.256  1.00  0.00    -0.269 OA
ATOM      5  C   UNL     1       2.317   0.047  -0.158  1.00  0.00     0.251 C 
ATOM      6  H   UNL     1       2.600  -1.756  -0.990  1.00  0.00     0.163 HD
BRANCH   5   7
ATOM      7  C   UNL     1       2.966   1.250   0.412  1.00  0.00     0.039 A 
ATOM      8  C   UNL     1       4.110   1.786  -0.180  1.00  0.00     0.014 A 
ATOM      9  C   UNL     1       2.445   1.823   1.575  1.00  0.00     0.014 A 
ATOM     10  C   UNL     1       4.841   2.757   0.493  1.00  0.00     0.010 A 
ATOM     11  C   UNL     1       3.127   2.876   2.194  1.00  0.00     0.010 A 
ATOM     12  C   UNL     1       4.359   3.318   1.688  1.00  0.00    -0.014 A 
BRANCH  12  13
ATOM     13  C   UNL     1       5.153   4.377   2.368  1.00  0.00     0.031 A 
ATOM     14  C   UNL     1       5.704   4.169   3.756  1.00  0.00     0.074 A 
ATOM     15  C   UNL     1       5.411   5.522   1.707  1.00  0.00     0.049 A 
ATOM     16  N   UNL     1       6.443   4.974   4.478  1.00  0.00    -0.248 NA
ATOM     17  C   UNL     1       5.376   2.901   4.426  1.00  0.00     0.031 C 
ATOM     18  C   UNL     1       4.930   5.842   0.360  1.00  0.00     0.029 A 
ATOM     19  N   UNL     1       6.154   6.619   2.061  1.00  0.00    -0.354 N 
ATOM     20  C   UNL     1       6.646   4.326   5.692  1.00  0.00     0.074 A 
ATOM     21  C   UNL     1       5.928   3.072   5.619  1.00  0.00     0.031 C 
ATOM     22  C   UNL     1       5.435   7.024  -0.020  1.00  0.00     0.029 A 
ATOM     23  C   UNL     1       6.216   7.580   1.079  1.00  0.00     0.049 A 
ATOM     24  H   UNL     1       6.599   6.710   2.934  1.00  0.00     0.167 HD
ATOM     25  C   UNL     1       7.369   4.736   6.764  1.00  0.00     0.037 A 
ATOM     26  C   UNL     1       6.822   8.782   1.064  1.00  0.00     0.037 A 
ATOM     27  C   UNL     1       8.094   5.982   6.819  1.00  0.00     0.049 A 
ATOM     28  C   UNL     1       7.596   9.223   2.273  1.00  0.00     0.074 A 
ATOM     29  C   UNL     1       8.890   6.469   7.841  1.00  0.00     0.029 A 
ATOM     30  N   UNL     1       8.104   6.943   5.817  1.00  0.00    -0.354 N 
ATOM     31  N   UNL     1       7.805   8.581   3.398  1.00  0.00    -0.248 NA
ATOM     32  C   UNL     1       8.217  10.552   2.211  1.00  0.00     0.031 C 
ATOM     33  C   UNL     1       9.331   7.748   7.484  1.00  0.00     0.029 A 
ATOM     34  C   UNL     1       8.869   8.031   6.209  1.00  0.00     0.049 A 
ATOM     35  H   UNL     1       7.636   6.864   4.955  1.00  0.00     0.167 HD
ATOM     36  C   UNL     1       8.614   9.413   4.164  1.00  0.00     0.074 A 
ATOM     37  C   UNL     1       8.859  10.601   3.370  1.00  0.00     0.031 C 
ATOM     38  C   UNL     1       9.113   9.207   5.408  1.00  0.00     0.037 A 
BRANCH  25  39
ATOM     39  C   UNL     1       7.385   3.848   7.982  1.00  0.00     0.058 A 
ATOM     40  C   UNL     1       8.034   2.603   7.994  1.00  0.00     0.135 A 
ATOM     41  C   UNL     1       6.760   4.265   9.171  1.00  0.00     0.135 A 
ATOM     42  F   UNL     1       8.640   2.146   6.886  1.00  0.00    -0.206 F 
ATOM     43  C   UNL     1       8.028   1.787   9.122  1.00  0.00     0.059 A 
ATOM     44  C   UNL     1       6.769   3.480  10.320  1.00  0.00     0.059 A 
ATOM     45  F   UNL     1       6.129   5.449   9.223  1.00  0.00    -0.206 F 
ATOM     46  C   UNL     1       7.388   2.233  10.280  1.00  0.00     0.060 A 
BRANCH  46  47
ATOM     47  S   UNL     1       7.369   1.154  11.728  1.00  0.00     0.124 S 
ATOM     48  O   UNL     1       6.435   0.116  11.304  1.00  0.00    -0.237 OA
ATOM     49  O   UNL     1       8.766   0.745  11.831  1.00  0.00    -0.237 OA
ATOM     50  O   UNL     1       6.894   2.026  12.797  1.00  0.00    -0.744 OA
ENDBRANCH  46  47
ENDBRANCH  25  39
BRANCH  26  51
ATOM     51  C   UNL     1       6.731   9.638  -0.148  1.00  0.00     0.058 A 
ATOM     52  C   UNL     1       7.858   9.877  -0.948  1.00  0.00     0.135 A 
ATOM     53  C   UNL     1       5.512  10.208  -0.547  1.00  0.00     0.135 A 
ATOM     54  F   UNL     1       9.046   9.357  -0.606  1.00  0.00    -0.206 F 
ATOM     55  C   UNL     1       7.783  10.659  -2.096  1.00  0.00     0.059 A 
ATOM     56  C   UNL     1       5.405  10.968  -1.707  1.00  0.00     0.059 A 
ATOM     57  F   UNL     1       4.401   9.995   0.175  1.00  0.00    -0.206 F 
ATOM     58  C   UNL     1       6.550  11.195  -2.470  1.00  0.00     0.060 A 
BRANCH  58  59
ATOM     59  S   UNL     1       6.454  12.161  -3.993  1.00  0.00     0.124 S 
ATOM     60  O   UNL     1       7.157  13.380  -3.612  1.00  0.00    -0.237 OA
ATOM     61  O   UNL     1       7.143  11.296  -4.946  1.00  0.00    -0.237 OA
ATOM     62  O   UNL     1       5.017  12.302  -4.211  1.00  0.00    -0.744 OA
ENDBRANCH  58  59
ENDBRANCH  26  51
BRANCH  38  63
ATOM     63  C   UNL     1      10.026  10.264   5.969  1.00  0.00     0.058 A 
ATOM     64  C   UNL     1       9.556  11.528   6.360  1.00  0.00     0.135 A 
ATOM     65  C   UNL     1      11.394   9.994   6.142  1.00  0.00     0.135 A 
ATOM     66  F   UNL     1       8.260  11.844   6.210  1.00  0.00    -0.206 F 
ATOM     67  C   UNL     1      10.415  12.497   6.870  1.00  0.00     0.059 A 
ATOM     68  C   UNL     1      12.264  10.935   6.680  1.00  0.00     0.059 A 
ATOM     69  F   UNL     1      11.896   8.798   5.794  1.00  0.00    -0.206 F 
ATOM     70  C   UNL     1      11.768  12.191   7.026  1.00  0.00     0.060 A 
BRANCH  70  71
ATOM     71  S   UNL     1      12.870  13.451   7.704  1.00  0.00     0.124 S 
ATOM     72  O   UNL     1      12.981  14.378   6.582  1.00  0.00    -0.237 OA
ATOM     73  O   UNL     1      12.117  13.936   8.856  1.00  0.00    -0.237 OA
ATOM     74  O   UNL     1      14.083  12.705   8.024  1.00  0.00    -0.744 OA
ENDBRANCH  70  71
ENDBRANCH  38  63
ENDBRANCH  12  13
ENDBRANCH   5   7
ENDBRANCH   2   3
ENDBRANCH   1   2
BRANCH   1  75
ATOM     75  C   UNL     1       4.434  -3.804  -0.268  1.00  0.00     0.023 C 
BRANCH  75  76
ATOM     76  C   UNL     1       4.922  -4.002  -1.699  1.00  0.00     0.116 C 
BRANCH  76  77
ATOM     77  N   UNL     1       6.373  -4.012  -1.808  1.00  0.00    -0.352 N 
ATOM     78  C   UNL     1       7.196  -4.978  -2.339  1.00  0.00     0.254 C 
ATOM     79  H   UNL     1       6.830  -3.216  -1.452  1.00  0.00     0.163 HD
ATOM     80  O   UNL     1       8.412  -4.866  -2.304  1.00  0.00    -0.269 OA
BRANCH  78  81
ATOM     81  C   UNL     1       6.585  -6.145  -2.988  1.00  0.00     0.078 A 
ATOM     82  C   UNL     1       5.724  -5.965  -4.074  1.00  0.00     0.019 A 
ATOM     83  C   UNL     1       6.837  -7.418  -2.502  1.00  0.00     0.173 A 
ATOM     84  C   UNL     1       5.037  -7.059  -4.607  1.00  0.00     0.030 A 
ATOM     85  C   UNL     1       6.158  -8.499  -3.053  1.00  0.00     0.182 A 
ATOM     86  F   UNL     1       7.676  -7.618  -1.476  1.00  0.00    -0.203 F 
ATOM     87  C   UNL     1       5.215  -8.344  -4.091  1.00  0.00     0.074 A 
ATOM     88  F   UNL     1       6.375  -9.730  -2.556  1.00  0.00    -0.201 F 
BRANCH  87  89
ATOM     89  N   UNL     1       4.494  -9.483  -4.504  1.00  0.00    -0.380 N 
ATOM     90  H   UNL     1       4.875 -10.340  -4.205  1.00  0.00     0.160 HD
BRANCH  89  91
ATOM     91  C   UNL     1       3.280  -9.604  -5.300  1.00  0.00     0.079 C 
ATOM     92  C   UNL     1       2.226  -8.554  -5.479  1.00  0.00     0.027 C 
ATOM     93  C   UNL     1       3.095  -8.962  -6.641  1.00  0.00     0.027 C 
ENDBRANCH  89  91
ENDBRANCH  87  89
ENDBRANCH  78  81
ENDBRANCH  76  77
ENDBRANCH  75  76
ENDBRANCH   1  75
TORSDOF 16
