REMARK SMILES C[C@@H](CC(=O)NCCCCNC(=O)c1ccc(-c2c3nc(c(-c4c(F)cc(S(=O)(=O)[O-])cc4F)c4ccc([nH]4)c(-c4c(F)cc(S(=O)(=O)[O-])cc4F)c4nc(c(-c5c(F)cc(S(=O)(=O)[O-])cc5F)c5ccc2[nH]5)C=C4)C=C3)cc1)CC(=O)N(C)C[C@H]1CCC[N@H+]1C
REMARK SMILES IDX 7 1 6 2 4 3 5 4 3 6 2 7 1 8 80 9 81 10 82 11 83 12 84 13
REMARK SMILES IDX 85 14 86 15 87 16 90 17 88 18 89 19 91 20 8 22 9 23 10 24
REMARK SMILES IDX 11 25 12 26 13 28 14 29 15 30 79 31 16 32 78 33 17 34 18 35
REMARK SMILES IDX 19 36 72 37 20 38 77 39 71 40 73 41 21 42 76 43 70 44 69 45
REMARK SMILES IDX 22 47 56 48 35 49 55 50 36 51 39 52 54 53 74 54 37 55 38 56
REMARK SMILES IDX 53 58 75 59 40 60 23 61 24 62 33 63 25 64 26 65 32 66 34 67
REMARK SMILES IDX 27 68 28 69 29 70 30 71 31 72 57 73 58 74 67 75 59 76 60 77
REMARK SMILES IDX 66 78 68 79 61 80 62 81 63 82 64 83 65 84 41 85 42 86 51 87
REMARK SMILES IDX 43 88 44 89 50 90 52 91 45 92 46 93 47 94 48 95 49 96
REMARK H PARENT 6 5 90 21 11 27 73 46 39 57
REMARK Flexibility Score: inf
ROOT
ATOM      1  C   UNL     1       2.060   0.828  -2.297  1.00  0.00     0.116 C 
ENDROOT
BRANCH   1   2
ATOM      2  N   UNL     1       1.061   1.877  -2.317  1.00  0.00    -0.356 N 
ATOM      3  C   UNL     1       0.511   2.572  -1.285  1.00  0.00     0.220 C 
ATOM      4  O   UNL     1      -0.424   3.336  -1.528  1.00  0.00    -0.275 OA
ATOM      5  H   UNL     1       0.730   2.124  -3.211  1.00  0.00     0.163 HD
BRANCH   3   6
ATOM      6  C   UNL     1       1.035   2.414   0.134  1.00  0.00     0.103 C 
BRANCH   6   7
ATOM      7  C   UNL     1       0.396   1.318   1.020  1.00  0.00     0.004 C 
ATOM      8  C   UNL     1       1.318   0.106   1.192  1.00  0.00     0.009 C 
BRANCH   7   9
ATOM      9  C   UNL     1      -1.042   0.951   0.602  1.00  0.00     0.104 C 
BRANCH   9  10
ATOM     10  C   UNL     1      -1.644  -0.169   1.444  1.00  0.00     0.222 C 
ATOM     11  O   UNL     1      -1.964   0.075   2.610  1.00  0.00    -0.275 OA
BRANCH  10  12
ATOM     12  N   UNL     1      -1.752  -1.448   0.908  1.00  0.00    -0.340 N 
ATOM     13  C   UNL     1      -1.587  -1.797  -0.496  1.00  0.00     0.147 C 
BRANCH  12  14
ATOM     14  C   UNL     1      -2.215  -2.545   1.773  1.00  0.00     0.184 C 
BRANCH  14  15
ATOM     15  C   UNL     1      -1.384  -2.766   3.074  1.00  0.00     0.203 C 
ATOM     16  C   UNL     1      -2.254  -2.517   4.312  1.00  0.00     0.073 C 
ATOM     17  N   UNL     1      -0.961  -4.150   3.374  1.00  0.00    -0.333 N 
ATOM     18  C   UNL     1      -2.935  -3.856   4.592  1.00  0.00     0.068 C 
ATOM     19  C   UNL     1      -2.160  -4.880   3.771  1.00  0.00     0.262 C 
ATOM     20  C   UNL     1      -0.174  -4.814   2.354  1.00  0.00     0.333 C 
ATOM     21  H   UNL     1      -0.283  -4.124   4.135  1.00  0.00     0.348 HD
ENDBRANCH  14  15
ENDBRANCH  12  14
ENDBRANCH  10  12
ENDBRANCH   9  10
ENDBRANCH   7   9
ENDBRANCH   6   7
ENDBRANCH   3   6
ENDBRANCH   1   2
BRANCH   1  22
ATOM     22  C   UNL     1       1.398  -0.546  -2.287  1.00  0.00     0.023 C 
BRANCH  22  23
ATOM     23  C   UNL     1       0.789  -0.997  -3.611  1.00  0.00     0.023 C 
BRANCH  23  24
ATOM     24  C   UNL     1       1.802  -1.297  -4.703  1.00  0.00     0.116 C 
BRANCH  24  25
ATOM     25  N   UNL     1       2.730  -2.362  -4.351  1.00  0.00    -0.352 N 
ATOM     26  C   UNL     1       3.230  -3.368  -5.147  1.00  0.00     0.251 C 
ATOM     27  H   UNL     1       3.041  -2.364  -3.417  1.00  0.00     0.163 HD
ATOM     28  O   UNL     1       3.925  -4.249  -4.657  1.00  0.00    -0.269 OA
BRANCH  26  29
ATOM     29  C   UNL     1       2.881  -3.395  -6.584  1.00  0.00     0.039 A 
ATOM     30  C   UNL     1       2.458  -4.597  -7.155  1.00  0.00     0.014 A 
ATOM     31  C   UNL     1       2.921  -2.227  -7.349  1.00  0.00     0.014 A 
ATOM     32  C   UNL     1       1.996  -4.609  -8.473  1.00  0.00     0.010 A 
ATOM     33  C   UNL     1       2.380  -2.223  -8.628  1.00  0.00     0.010 A 
ATOM     34  C   UNL     1       1.913  -3.413  -9.205  1.00  0.00    -0.014 A 
BRANCH  34  35
ATOM     35  C   UNL     1       1.349  -3.376 -10.578  1.00  0.00     0.031 A 
ATOM     36  C   UNL     1       2.212  -2.931 -11.727  1.00  0.00     0.074 A 
ATOM     37  C   UNL     1       0.045  -3.653 -10.774  1.00  0.00     0.049 A 
ATOM     38  N   UNL     1       1.882  -2.715 -12.973  1.00  0.00    -0.248 NA
ATOM     39  C   UNL     1       3.626  -2.652 -11.424  1.00  0.00     0.031 C 
ATOM     40  C   UNL     1      -0.910  -4.032  -9.729  1.00  0.00     0.029 A 
ATOM     41  N   UNL     1      -0.709  -3.643 -11.921  1.00  0.00    -0.354 N 
ATOM     42  C   UNL     1       3.034  -2.247 -13.593  1.00  0.00     0.074 A 
ATOM     43  C   UNL     1       4.059  -2.162 -12.576  1.00  0.00     0.031 C 
ATOM     44  C   UNL     1      -2.115  -4.239 -10.287  1.00  0.00     0.029 A 
ATOM     45  C   UNL     1      -2.028  -3.976 -11.720  1.00  0.00     0.049 A 
ATOM     46  H   UNL     1      -0.340  -3.418 -12.805  1.00  0.00     0.167 HD
ATOM     47  C   UNL     1       3.229  -1.940 -14.898  1.00  0.00     0.037 A 
ATOM     48  C   UNL     1      -3.051  -4.057 -12.592  1.00  0.00     0.037 A 
ATOM     49  C   UNL     1       2.221  -2.080 -15.914  1.00  0.00     0.049 A 
ATOM     50  C   UNL     1      -2.798  -3.763 -14.045  1.00  0.00     0.074 A 
ATOM     51  C   UNL     1       2.337  -1.870 -17.277  1.00  0.00     0.029 A 
ATOM     52  N   UNL     1       0.913  -2.479 -15.680  1.00  0.00    -0.354 N 
ATOM     53  N   UNL     1      -1.685  -3.379 -14.625  1.00  0.00    -0.248 NA
ATOM     54  C   UNL     1      -3.934  -3.920 -14.964  1.00  0.00     0.031 C 
ATOM     55  C   UNL     1       1.091  -2.118 -17.863  1.00  0.00     0.029 A 
ATOM     56  C   UNL     1       0.209  -2.515 -16.871  1.00  0.00     0.049 A 
ATOM     57  H   UNL     1       0.541  -2.703 -14.796  1.00  0.00     0.167 HD
ATOM     58  C   UNL     1      -1.981  -3.271 -15.979  1.00  0.00     0.074 A 
ATOM     59  C   UNL     1      -3.373  -3.641 -16.133  1.00  0.00     0.031 C 
ATOM     60  C   UNL     1      -1.174  -2.899 -17.002  1.00  0.00     0.037 A 
BRANCH  47  61
ATOM     61  C   UNL     1       4.589  -1.440 -15.298  1.00  0.00     0.058 A 
ATOM     62  C   UNL     1       5.706  -2.290 -15.321  1.00  0.00     0.135 A 
ATOM     63  C   UNL     1       4.776  -0.102 -15.678  1.00  0.00     0.135 A 
ATOM     64  F   UNL     1       5.586  -3.575 -14.950  1.00  0.00    -0.206 F 
ATOM     65  C   UNL     1       6.968  -1.824 -15.673  1.00  0.00     0.059 A 
ATOM     66  C   UNL     1       6.024   0.381 -16.060  1.00  0.00     0.059 A 
ATOM     67  F   UNL     1       3.741   0.754 -15.672  1.00  0.00    -0.206 F 
ATOM     68  C   UNL     1       7.117  -0.485 -16.038  1.00  0.00     0.060 A 
BRANCH  68  69
ATOM     69  S   UNL     1       8.762   0.108 -16.488  1.00  0.00     0.124 S 
ATOM     70  O   UNL     1       9.397   0.221 -15.179  1.00  0.00    -0.237 OA
ATOM     71  O   UNL     1       9.260  -0.964 -17.343  1.00  0.00    -0.237 OA
ATOM     72  O   UNL     1       8.492   1.372 -17.166  1.00  0.00    -0.744 OA
ENDBRANCH  68  69
ENDBRANCH  47  61
BRANCH  48  73
ATOM     73  C   UNL     1      -4.399  -4.467 -12.120  1.00  0.00     0.058 A 
ATOM     74  C   UNL     1      -4.910  -5.738 -12.423  1.00  0.00     0.135 A 
ATOM     75  C   UNL     1      -5.195  -3.609 -11.345  1.00  0.00     0.135 A 
ATOM     76  F   UNL     1      -4.186  -6.591 -13.164  1.00  0.00    -0.206 F 
ATOM     77  C   UNL     1      -6.168  -6.141 -11.989  1.00  0.00     0.059 A 
ATOM     78  C   UNL     1      -6.449  -3.997 -10.881  1.00  0.00     0.059 A 
ATOM     79  F   UNL     1      -4.744  -2.390 -11.012  1.00  0.00    -0.206 F 
ATOM     80  C   UNL     1      -6.931  -5.262 -11.217  1.00  0.00     0.060 A 
BRANCH  80  81
ATOM     81  S   UNL     1      -8.541  -5.814 -10.611  1.00  0.00     0.124 S 
ATOM     82  O   UNL     1      -9.358  -5.709 -11.814  1.00  0.00    -0.237 OA
ATOM     83  O   UNL     1      -8.250  -7.168 -10.152  1.00  0.00    -0.237 OA
ATOM     84  O   UNL     1      -8.845  -4.854  -9.553  1.00  0.00    -0.744 OA
ENDBRANCH  80  81
ENDBRANCH  48  73
BRANCH  60  85
ATOM     85  C   UNL     1      -1.764  -2.904 -18.383  1.00  0.00     0.058 A 
ATOM     86  C   UNL     1      -2.644  -1.897 -18.808  1.00  0.00     0.135 A 
ATOM     87  C   UNL     1      -1.398  -3.894 -19.307  1.00  0.00     0.135 A 
ATOM     88  F   UNL     1      -3.028  -0.932 -17.958  1.00  0.00    -0.206 F 
ATOM     89  C   UNL     1      -3.155  -1.882 -20.101  1.00  0.00     0.059 A 
ATOM     90  C   UNL     1      -1.880  -3.886 -20.612  1.00  0.00     0.059 A 
ATOM     91  F   UNL     1      -0.551  -4.873 -18.950  1.00  0.00    -0.206 F 
ATOM     92  C   UNL     1      -2.766  -2.881 -20.996  1.00  0.00     0.060 A 
BRANCH  92  93
ATOM     93  S   UNL     1      -3.403  -2.829 -22.685  1.00  0.00     0.124 S 
ATOM     94  O   UNL     1      -4.762  -3.328 -22.500  1.00  0.00    -0.237 OA
ATOM     95  O   UNL     1      -3.288  -1.414 -23.021  1.00  0.00    -0.237 OA
ATOM     96  O   UNL     1      -2.501  -3.715 -23.414  1.00  0.00    -0.744 OA
ENDBRANCH  92  93
ENDBRANCH  60  85
ENDBRANCH  34  35
ENDBRANCH  26  29
ENDBRANCH  24  25
ENDBRANCH  23  24
ENDBRANCH  22  23
ENDBRANCH   1  22
TORSDOF 20
