REMARK SMILES O=C(NCCCCNC(=O)[C@H]1[NH2+][C@@H]2CC[C@H]1CC2(F)F)c1ccc(-c2c3nc(c(-c4c(F)cc(S(=O)(=O)[O-])cc4F)c4ccc([nH]4)c(-c4c(F)cc(S(=O)(=O)[O-])cc4F)c4nc(c(-c5c(F)cc(S(=O)(=O)[O-])cc5F)c5ccc2[nH]5)C=C4)C=C3)cc1
REMARK SMILES IDX 4 1 3 2 1 3 2 4 21 6 22 7 86 8 23 9 85 10 24 11 25 12 26 13
REMARK SMILES IDX 79 14 27 15 84 16 78 17 80 18 28 19 83 20 77 21 76 22 29 24
REMARK SMILES IDX 63 25 42 26 62 27 43 28 46 29 61 30 81 31 44 32 45 33 60 35
REMARK SMILES IDX 82 36 47 37 30 38 31 39 40 40 32 41 33 42 39 43 41 44 34 45
REMARK SMILES IDX 35 46 36 47 37 48 38 49 64 50 65 51 74 52 66 53 67 54 73 55
REMARK SMILES IDX 75 56 68 57 69 58 70 59 71 60 72 61 48 62 49 63 58 64 50 65
REMARK SMILES IDX 51 66 57 67 59 68 52 69 53 70 54 71 55 72 56 73 5 74 6 75
REMARK SMILES IDX 7 76 8 77 9 78 10 80 11 81 12 82 16 83 13 84 15 87 17 88
REMARK SMILES IDX 14 89 18 90 19 91 20 92
REMARK H PARENT 3 5 80 23 46 34 8 79 12 85 12 86
REMARK Flexibility Score: inf
ROOT
ATOM      1  C   UNL     1       5.824  10.372  -7.070  1.00  0.00     0.116 C 
ENDROOT
BRANCH   1   2
ATOM      2  N   UNL     1       5.505  11.620  -6.389  1.00  0.00    -0.352 N 
ATOM      3  O   UNL     1       4.740  13.753  -6.286  1.00  0.00    -0.269 OA
ATOM      4  C   UNL     1       4.886  12.724  -6.934  1.00  0.00     0.251 C 
ATOM      5  H   UNL     1       5.760  11.681  -5.440  1.00  0.00     0.163 HD
BRANCH   4   6
ATOM      6  C   UNL     1       4.443  12.643  -8.341  1.00  0.00     0.039 A 
ATOM      7  C   UNL     1       3.640  11.577  -8.749  1.00  0.00     0.014 A 
ATOM      8  C   UNL     1       4.925  13.571  -9.266  1.00  0.00     0.014 A 
ATOM      9  C   UNL     1       3.448  11.351 -10.104  1.00  0.00     0.010 A 
ATOM     10  C   UNL     1       4.657  13.388 -10.625  1.00  0.00     0.010 A 
ATOM     11  C   UNL     1       3.948  12.256 -11.057  1.00  0.00    -0.014 A 
BRANCH  11  12
ATOM     12  C   UNL     1       3.659  12.012 -12.491  1.00  0.00     0.031 A 
ATOM     13  C   UNL     1       4.754  11.690 -13.470  1.00  0.00     0.074 A 
ATOM     14  C   UNL     1       2.371  12.027 -12.887  1.00  0.00     0.049 A 
ATOM     15  N   UNL     1       4.657  11.416 -14.746  1.00  0.00    -0.248 NA
ATOM     16  C   UNL     1       6.134  11.676 -12.960  1.00  0.00     0.031 C 
ATOM     17  C   UNL     1       1.230  12.342 -12.021  1.00  0.00     0.029 A 
ATOM     18  N   UNL     1       1.798  11.745 -14.098  1.00  0.00    -0.354 N 
ATOM     19  C   UNL     1       5.957  11.219 -15.198  1.00  0.00     0.074 A 
ATOM     20  C   UNL     1       6.830  11.417 -14.060  1.00  0.00     0.031 C 
ATOM     21  C   UNL     1       0.094  12.179 -12.712  1.00  0.00     0.029 A 
ATOM     22  C   UNL     1       0.425  11.809 -14.082  1.00  0.00     0.049 A 
ATOM     23  H   UNL     1       2.319  11.517 -14.902  1.00  0.00     0.167 HD
ATOM     24  C   UNL     1       6.377  10.898 -16.445  1.00  0.00     0.037 A 
ATOM     25  C   UNL     1      -0.470  11.607 -15.066  1.00  0.00     0.037 A 
ATOM     26  C   UNL     1       5.495  10.682 -17.566  1.00  0.00     0.049 A 
ATOM     27  C   UNL     1       0.025  11.240 -16.432  1.00  0.00     0.074 A 
ATOM     28  C   UNL     1       5.823  10.341 -18.868  1.00  0.00     0.029 A 
ATOM     29  N   UNL     1       4.112  10.780 -17.517  1.00  0.00    -0.354 N 
ATOM     30  N   UNL     1       1.260  11.062 -16.837  1.00  0.00    -0.248 NA
ATOM     31  C   UNL     1      -0.990  11.056 -17.476  1.00  0.00     0.031 C 
ATOM     32  C   UNL     1       4.640  10.258 -19.611  1.00  0.00     0.029 A 
ATOM     33  C   UNL     1       3.573  10.515 -18.766  1.00  0.00     0.049 A 
ATOM     34  H   UNL     1       3.590  11.004 -16.713  1.00  0.00     0.167 HD
ATOM     35  C   UNL     1       1.171  10.751 -18.187  1.00  0.00     0.074 A 
ATOM     36  C   UNL     1      -0.240  10.732 -18.520  1.00  0.00     0.031 C 
ATOM     37  C   UNL     1       2.167  10.516 -19.076  1.00  0.00     0.037 A 
BRANCH  24  38
ATOM     38  C   UNL     1       7.856  10.768 -16.680  1.00  0.00     0.058 A 
ATOM     39  C   UNL     1       8.573   9.640 -16.250  1.00  0.00     0.135 A 
ATOM     40  C   UNL     1       8.552  11.746 -17.409  1.00  0.00     0.135 A 
ATOM     41  F   UNL     1       7.960   8.683 -15.535  1.00  0.00    -0.206 F 
ATOM     42  C   UNL     1       9.929   9.491 -16.527  1.00  0.00     0.059 A 
ATOM     43  C   UNL     1       9.904  11.609 -17.714  1.00  0.00     0.059 A 
ATOM     44  F   UNL     1       7.914  12.845 -17.843  1.00  0.00    -0.206 F 
ATOM     45  C   UNL     1      10.586  10.480 -17.262  1.00  0.00     0.060 A 
BRANCH  45  46
ATOM     46  S   UNL     1      12.338  10.259 -17.638  1.00  0.00     0.124 S 
ATOM     47  O   UNL     1      12.952  10.553 -16.346  1.00  0.00    -0.237 OA
ATOM     48  O   UNL     1      12.395   8.864 -18.063  1.00  0.00    -0.237 OA
ATOM     49  O   UNL     1      12.587  11.242 -18.689  1.00  0.00    -0.744 OA
ENDBRANCH  45  46
ENDBRANCH  24  38
BRANCH  25  50
ATOM     50  C   UNL     1      -1.918  11.769 -14.786  1.00  0.00     0.058 A 
ATOM     51  C   UNL     1      -2.775  10.662 -14.737  1.00  0.00     0.135 A 
ATOM     52  C   UNL     1      -2.465  13.036 -14.529  1.00  0.00     0.135 A 
ATOM     53  F   UNL     1      -2.296   9.431 -14.976  1.00  0.00    -0.206 F 
ATOM     54  C   UNL     1      -4.130  10.804 -14.455  1.00  0.00     0.059 A 
ATOM     55  C   UNL     1      -3.810  13.201 -14.220  1.00  0.00     0.059 A 
ATOM     56  F   UNL     1      -1.679  14.124 -14.544  1.00  0.00    -0.206 F 
ATOM     57  C   UNL     1      -4.637  12.079 -14.198  1.00  0.00     0.060 A 
BRANCH  57  58
ATOM     58  S   UNL     1      -6.384  12.258 -13.778  1.00  0.00     0.124 S 
ATOM     59  O   UNL     1      -7.005  12.231 -15.097  1.00  0.00    -0.237 OA
ATOM     60  O   UNL     1      -6.625  11.092 -12.933  1.00  0.00    -0.237 OA
ATOM     61  O   UNL     1      -6.426  13.542 -13.083  1.00  0.00    -0.744 OA
ENDBRANCH  57  58
ENDBRANCH  25  50
BRANCH  37  62
ATOM     62  C   UNL     1       1.751  10.222 -20.487  1.00  0.00     0.058 A 
ATOM     63  C   UNL     1       1.300  11.242 -21.339  1.00  0.00     0.135 A 
ATOM     64  C   UNL     1       1.803   8.914 -20.991  1.00  0.00     0.135 A 
ATOM     65  F   UNL     1       1.224  12.507 -20.898  1.00  0.00    -0.206 F 
ATOM     66  C   UNL     1       0.881  10.969 -22.636  1.00  0.00     0.059 A 
ATOM     67  C   UNL     1       1.409   8.622 -22.293  1.00  0.00     0.059 A 
ATOM     68  F   UNL     1       2.235   7.907 -20.216  1.00  0.00    -0.206 F 
ATOM     69  C   UNL     1       0.933   9.654 -23.101  1.00  0.00     0.060 A 
BRANCH  69  70
ATOM     70  S   UNL     1       0.387   9.305 -24.786  1.00  0.00     0.124 S 
ATOM     71  O   UNL     1      -1.063   9.291 -24.626  1.00  0.00    -0.237 OA
ATOM     72  O   UNL     1       0.931  10.434 -25.536  1.00  0.00    -0.237 OA
ATOM     73  O   UNL     1       1.001   8.013 -25.078  1.00  0.00    -0.744 OA
ENDBRANCH  69  70
ENDBRANCH  37  62
ENDBRANCH  11  12
ENDBRANCH   4   6
ENDBRANCH   1   2
BRANCH   1  74
ATOM     74  C   UNL     1       7.011   9.620  -6.482  1.00  0.00     0.023 C 
BRANCH  74  75
ATOM     75  C   UNL     1       6.897   9.291  -4.996  1.00  0.00     0.023 C 
BRANCH  75  76
ATOM     76  C   UNL     1       5.678   8.447  -4.623  1.00  0.00     0.116 C 
BRANCH  76  77
ATOM     77  N   UNL     1       5.969   7.032  -4.601  1.00  0.00    -0.351 N 
ATOM     78  C   UNL     1       6.286   6.173  -3.598  1.00  0.00     0.278 C 
ATOM     79  H   UNL     1       5.930   6.606  -5.488  1.00  0.00     0.163 HD
ATOM     80  O   UNL     1       6.347   4.976  -3.912  1.00  0.00    -0.268 OA
BRANCH  78  81
ATOM     81  C   UNL     1       6.493   6.565  -2.117  1.00  0.00     0.276 C 
ATOM     82  N   UNL     1       7.116   7.886  -1.847  1.00  0.00    -0.328 N 
ATOM     83  C   UNL     1       5.245   6.340  -1.227  1.00  0.00     0.064 C 
ATOM     84  C   UNL     1       6.437   8.553  -0.699  1.00  0.00     0.253 C 
ATOM     85  H   UNL     1       7.031   8.475  -2.675  1.00  0.00     0.347 HD
ATOM     86  H   UNL     1       8.099   7.748  -1.615  1.00  0.00     0.347 HD
ATOM     87  C   UNL     1       5.737   6.331   0.239  1.00  0.00     0.017 C 
ATOM     88  C   UNL     1       4.246   7.508  -1.381  1.00  0.00     0.094 C 
ATOM     89  C   UNL     1       6.556   7.605   0.509  1.00  0.00     0.072 C 
ATOM     90  C   UNL     1       4.926   8.807  -0.942  1.00  0.00     0.298 C 
ATOM     91  F   UNL     1       4.345   9.266   0.195  1.00  0.00    -0.200 F 
ATOM     92  F   UNL     1       4.747   9.775  -1.872  1.00  0.00    -0.200 F 
ENDBRANCH  78  81
ENDBRANCH  76  77
ENDBRANCH  75  76
ENDBRANCH  74  75
ENDBRANCH   1  74
TORSDOF 14
