REMARK SMILES Cc1ccc(-c2c(C)sc(NC(=O)[C@H]3CC=CC[C@H]3C(=O)NCCCCNC(=O)c3ccc(-c4c5nc(c(-c6c(F)cc(S(=O)(=O)[O-])cc6F)c6ccc([nH]6)c(-c6c(F)cc(S(=O)(=O)[O-])cc6F)c6nc(c(-c7c(F)cc(S(=O)(=O)[O-])cc7F)c7ccc4[nH]7)C=C6)C=C5)cc3)c2C(N)=O)cc1
REMARK SMILES IDX 24 1 23 2 22 3 20 4 21 5 19 7 14 8 15 9 16 10 18 11 17 12
REMARK SMILES IDX 12 13 11 14 13 16 10 17 6 18 7 19 96 20 8 21 9 22 5 23 1 24
REMARK SMILES IDX 2 25 3 26 101 27 4 28 100 29 97 30 98 31 99 32 25 35 26 36
REMARK SMILES IDX 27 37 28 38 29 40 30 41 31 42 95 43 32 44 94 45 33 46 34 47
REMARK SMILES IDX 35 48 88 49 36 50 93 51 87 52 89 53 37 54 92 55 86 56 85 57
REMARK SMILES IDX 38 59 72 60 51 61 71 62 52 63 55 64 70 65 90 66 53 67 54 68
REMARK SMILES IDX 69 70 91 71 56 72 39 73 40 74 49 75 41 76 42 77 48 78 50 79
REMARK SMILES IDX 43 80 44 81 45 82 46 83 47 84 73 85 74 86 83 87 75 88 76 89
REMARK SMILES IDX 82 90 84 91 77 92 78 93 79 94 80 95 81 96 57 97 58 98 67 99
REMARK SMILES IDX 59 100 60 101 66 102 68 103 61 104 62 105 63 106 64 107
REMARK SMILES IDX 65 108
REMARK H PARENT 22 6 11 15 98 33 98 34 27 39 89 58 55 69
REMARK Flexibility Score: inf
ROOT
ATOM      1  C   UNL     1      -9.028  -2.207   2.281  1.00  0.00     0.023 C 
ENDROOT
BRANCH   1   2
ATOM      2  C   UNL     1      -8.162  -2.776   1.150  1.00  0.00     0.116 C 
BRANCH   2   3
ATOM      3  N   UNL     1      -8.965  -2.938  -0.022  1.00  0.00    -0.356 N 
ATOM      4  C   UNL     1      -9.238  -2.001  -0.953  1.00  0.00     0.224 C 
ATOM      5  O   UNL     1     -10.212  -2.205  -1.685  1.00  0.00    -0.275 OA
ATOM      6  H   UNL     1      -9.361  -3.829  -0.165  1.00  0.00     0.163 HD
BRANCH   4   7
ATOM      7  C   UNL     1      -8.344  -0.788  -1.175  1.00  0.00     0.095 C 
ATOM      8  C   UNL     1      -8.298   0.430  -0.223  1.00  0.00     0.095 C 
ATOM      9  C   UNL     1      -7.921   1.657  -1.083  1.00  0.00     0.041 C 
ATOM     10  C   UNL     1      -6.918   1.355  -2.183  1.00  0.00    -0.030 C 
ATOM     11  C   UNL     1      -6.992  -1.119  -1.790  1.00  0.00     0.041 C 
ATOM     12  C   UNL     1      -6.459   0.119  -2.461  1.00  0.00    -0.030 C 
BRANCH   8  13
ATOM     13  C   UNL     1      -7.662   0.436   1.211  1.00  0.00     0.229 C 
ATOM     14  N   UNL     1      -6.403   0.078   1.616  1.00  0.00    -0.317 N 
ATOM     15  H   UNL     1      -6.374  -0.397   2.478  1.00  0.00     0.170 HD
ATOM     16  O   UNL     1      -8.420   0.740   2.150  1.00  0.00    -0.274 OA
BRANCH  14  17
ATOM     17  C   UNL     1      -5.169   0.266   1.028  1.00  0.00     0.109 A 
ATOM     18  C   UNL     1      -2.952   0.276   0.296  1.00  0.00     0.010 A 
ATOM     19  C   UNL     1      -3.578   1.146  -0.584  1.00  0.00     0.012 A 
ATOM     20  C   UNL     1      -3.892  -0.239   1.303  1.00  0.00     0.082 A 
ATOM     21  C   UNL     1      -3.156   1.728  -1.889  1.00  0.00     0.057 C 
ATOM     22  S   UNL     1      -4.986   1.719   0.163  1.00  0.00    -0.122 S 
BRANCH  18  23
ATOM     23  C   UNL     1      -1.506   0.088   0.192  1.00  0.00    -0.016 A 
ATOM     24  C   UNL     1       2.786  -0.208  -0.080  1.00  0.00     0.044 C 
ATOM     25  C   UNL     1       1.293  -0.103  -0.018  1.00  0.00    -0.051 A 
ATOM     26  C   UNL     1       0.488  -1.252  -0.088  1.00  0.00     0.004 A 
ATOM     27  C   UNL     1       0.688   1.141   0.161  1.00  0.00     0.004 A 
ATOM     28  C   UNL     1      -0.908  -1.159   0.009  1.00  0.00     0.009 A 
ATOM     29  C   UNL     1      -0.694   1.231   0.280  1.00  0.00     0.009 A 
ENDBRANCH  18  23
BRANCH  20  30
ATOM     30  C   UNL     1      -3.489  -1.112   2.410  1.00  0.00     0.252 C 
ATOM     31  N   UNL     1      -4.445  -1.827   3.064  1.00  0.00    -0.365 N 
ATOM     32  O   UNL     1      -2.318  -1.210   2.781  1.00  0.00    -0.269 OA
ATOM     33  H   UNL     1      -5.386  -1.763   2.783  1.00  0.00     0.159 HD
ATOM     34  H   UNL     1      -4.195  -2.409   3.818  1.00  0.00     0.159 HD
ENDBRANCH  20  30
ENDBRANCH  14  17
ENDBRANCH   8  13
ENDBRANCH   4   7
ENDBRANCH   2   3
ENDBRANCH   1   2
BRANCH   1  35
ATOM     35  C   UNL     1     -10.027  -3.183   2.916  1.00  0.00     0.023 C 
BRANCH  35  36
ATOM     36  C   UNL     1      -9.421  -4.536   3.187  1.00  0.00     0.116 C 
BRANCH  36  37
ATOM     37  N   UNL     1      -8.187  -4.395   3.915  1.00  0.00    -0.352 N 
ATOM     38  C   UNL     1      -7.337  -5.330   4.412  1.00  0.00     0.251 C 
ATOM     39  H   UNL     1      -7.913  -3.464   4.080  1.00  0.00     0.163 HD
ATOM     40  O   UNL     1      -6.210  -4.917   4.680  1.00  0.00    -0.269 OA
BRANCH  38  41
ATOM     41  C   UNL     1      -7.694  -6.789   4.392  1.00  0.00     0.039 A 
ATOM     42  C   UNL     1      -6.772  -7.557   5.116  1.00  0.00     0.014 A 
ATOM     43  C   UNL     1      -8.059  -7.214   3.116  1.00  0.00     0.014 A 
ATOM     44  C   UNL     1      -5.840  -8.290   4.418  1.00  0.00     0.010 A 
ATOM     45  C   UNL     1      -7.087  -7.808   2.378  1.00  0.00     0.010 A 
ATOM     46  C   UNL     1      -5.941  -8.242   3.042  1.00  0.00    -0.014 A 
BRANCH  46  47
ATOM     47  C   UNL     1      -4.906  -8.656   2.143  1.00  0.00     0.031 A 
ATOM     48  C   UNL     1      -5.033 -10.037   1.696  1.00  0.00     0.074 A 
ATOM     49  C   UNL     1      -4.189  -7.625   1.650  1.00  0.00     0.049 A 
ATOM     50  N   UNL     1      -4.127 -10.701   1.093  1.00  0.00    -0.248 NA
ATOM     51  C   UNL     1      -6.230 -10.838   1.985  1.00  0.00     0.031 C 
ATOM     52  C   UNL     1      -3.366  -7.491   0.459  1.00  0.00     0.029 A 
ATOM     53  N   UNL     1      -3.894  -6.469   2.390  1.00  0.00    -0.354 N 
ATOM     54  C   UNL     1      -4.779 -11.771   0.516  1.00  0.00     0.074 A 
ATOM     55  C   UNL     1      -5.968 -11.950   1.300  1.00  0.00     0.031 C 
ATOM     56  C   UNL     1      -2.445  -6.530   0.691  1.00  0.00     0.029 A 
ATOM     57  C   UNL     1      -2.554  -6.170   2.104  1.00  0.00     0.049 A 
ATOM     58  H   UNL     1      -4.501  -5.972   2.985  1.00  0.00     0.167 HD
ATOM     59  C   UNL     1      -4.343 -12.177  -0.710  1.00  0.00     0.037 A 
ATOM     60  C   UNL     1      -1.635  -6.505   3.066  1.00  0.00     0.037 A 
ATOM     61  C   UNL     1      -3.126 -11.418  -1.054  1.00  0.00     0.049 A 
ATOM     62  C   UNL     1      -0.742  -7.674   2.630  1.00  0.00     0.074 A 
ATOM     63  C   UNL     1      -2.830 -10.353  -1.889  1.00  0.00     0.029 A 
ATOM     64  N   UNL     1      -2.070 -11.483  -0.165  1.00  0.00    -0.354 N 
ATOM     65  N   UNL     1      -1.011  -8.512   1.659  1.00  0.00    -0.248 NA
ATOM     66  C   UNL     1       0.534  -7.981   3.269  1.00  0.00     0.031 C 
ATOM     67  C   UNL     1      -1.591  -9.772  -1.446  1.00  0.00     0.029 A 
ATOM     68  C   UNL     1      -1.143 -10.483  -0.346  1.00  0.00     0.049 A 
ATOM     69  H   UNL     1      -1.990 -12.176   0.530  1.00  0.00     0.167 HD
ATOM     70  C   UNL     1      -0.008  -9.440   1.530  1.00  0.00     0.074 A 
ATOM     71  C   UNL     1       0.921  -9.078   2.592  1.00  0.00     0.031 C 
ATOM     72  C   UNL     1      -0.018 -10.439   0.586  1.00  0.00     0.037 A 
BRANCH  59  73
ATOM     73  C   UNL     1      -5.108 -13.050  -1.687  1.00  0.00     0.058 A 
ATOM     74  C   UNL     1      -4.624 -13.200  -3.005  1.00  0.00     0.135 A 
ATOM     75  C   UNL     1      -6.316 -13.741  -1.437  1.00  0.00     0.135 A 
ATOM     76  F   UNL     1      -3.471 -12.637  -3.393  1.00  0.00    -0.206 F 
ATOM     77  C   UNL     1      -5.293 -13.933  -3.988  1.00  0.00     0.059 A 
ATOM     78  C   UNL     1      -7.009 -14.470  -2.406  1.00  0.00     0.059 A 
ATOM     79  F   UNL     1      -6.898 -13.777  -0.239  1.00  0.00    -0.206 F 
ATOM     80  C   UNL     1      -6.491 -14.562  -3.683  1.00  0.00     0.060 A 
BRANCH  80  81
ATOM     81  S   UNL     1      -7.335 -15.516  -4.952  1.00  0.00     0.124 S 
ATOM     82  O   UNL     1      -7.607 -14.500  -5.964  1.00  0.00    -0.237 OA
ATOM     83  O   UNL     1      -6.330 -16.513  -5.302  1.00  0.00    -0.237 OA
ATOM     84  O   UNL     1      -8.514 -16.035  -4.263  1.00  0.00    -0.744 OA
ENDBRANCH  80  81
ENDBRANCH  59  73
BRANCH  60  85
ATOM     85  C   UNL     1      -2.144  -6.256   4.473  1.00  0.00     0.058 A 
ATOM     86  C   UNL     1      -2.607  -4.967   4.834  1.00  0.00     0.135 A 
ATOM     87  C   UNL     1      -2.483  -7.289   5.358  1.00  0.00     0.135 A 
ATOM     88  F   UNL     1      -2.331  -3.915   4.045  1.00  0.00    -0.206 F 
ATOM     89  C   UNL     1      -3.431  -4.731   5.944  1.00  0.00     0.059 A 
ATOM     90  C   UNL     1      -3.307  -7.075   6.481  1.00  0.00     0.059 A 
ATOM     91  F   UNL     1      -2.095  -8.547   5.102  1.00  0.00    -0.206 F 
ATOM     92  C   UNL     1      -3.824  -5.803   6.738  1.00  0.00     0.060 A 
BRANCH  92  93
ATOM     93  S   UNL     1      -4.952  -5.516   8.142  1.00  0.00     0.124 S 
ATOM     94  O   UNL     1      -4.542  -4.200   8.624  1.00  0.00    -0.237 OA
ATOM     95  O   UNL     1      -6.286  -5.567   7.554  1.00  0.00    -0.237 OA
ATOM     96  O   UNL     1      -4.640  -6.628   9.037  1.00  0.00    -0.744 OA
ENDBRANCH  92  93
ENDBRANCH  60  85
BRANCH  72  97
ATOM     97  C   UNL     1       1.009 -11.559   0.515  1.00  0.00     0.058 A 
ATOM     98  C   UNL     1       2.380 -11.364   0.730  1.00  0.00     0.135 A 
ATOM     99  C   UNL     1       0.644 -12.886   0.159  1.00  0.00     0.135 A 
ATOM    100  F   UNL     1       2.880 -10.133   0.916  1.00  0.00    -0.206 F 
ATOM    101  C   UNL     1       3.292 -12.424   0.732  1.00  0.00     0.059 A 
ATOM    102  C   UNL     1       1.541 -13.941   0.094  1.00  0.00     0.059 A 
ATOM    103  F   UNL     1      -0.612 -13.250  -0.117  1.00  0.00    -0.206 F 
ATOM    104  C   UNL     1       2.858 -13.713   0.429  1.00  0.00     0.060 A 
BRANCH 104 105
ATOM    105  S   UNL     1       4.015 -15.087   0.449  1.00  0.00     0.124 S 
ATOM    106  O   UNL     1       5.160 -14.538  -0.271  1.00  0.00    -0.237 OA
ATOM    107  O   UNL     1       4.202 -15.290   1.882  1.00  0.00    -0.237 OA
ATOM    108  O   UNL     1       3.298 -16.152  -0.246  1.00  0.00    -0.744 OA
ENDBRANCH 104 105
ENDBRANCH  72  97
ENDBRANCH  46  47
ENDBRANCH  38  41
ENDBRANCH  36  37
ENDBRANCH  35  36
ENDBRANCH   1  35
TORSDOF 18
