REMARK SMILES CC(C)[N@@H+]1CCC[C@H]1CC(=O)NCCCCNC(=O)c1ccc(-c2c3nc(c(-c4c(F)cc(S(=O)(=O)[O-])cc4F)c4ccc([nH]4)c(-c4c(F)cc(S(=O)(=O)[O-])cc4F)c4nc(c(-c5c(F)cc(S(=O)(=O)[O-])cc5F)c5ccc2[nH]5)C=C4)C=C3)cc1
REMARK SMILES IDX 15 1 14 2 13 3 12 4 10 5 11 6 9 8 8 9 4 10 5 11 6 13 7 14
REMARK SMILES IDX 2 15 1 16 3 17 16 18 17 19 18 20 19 22 20 23 21 24 85 25
REMARK SMILES IDX 22 26 84 27 23 28 24 29 25 30 78 31 26 32 83 33 77 34 79 35
REMARK SMILES IDX 27 36 82 37 76 38 75 39 28 41 62 42 41 43 61 44 42 45 45 46
REMARK SMILES IDX 60 47 80 48 43 49 44 50 59 52 81 53 46 54 29 55 30 56 39 57
REMARK SMILES IDX 31 58 32 59 38 60 40 61 33 62 34 63 35 64 36 65 37 66 63 67
REMARK SMILES IDX 64 68 73 69 65 70 66 71 72 72 74 73 67 74 68 75 69 76 70 77
REMARK SMILES IDX 71 78 47 79 48 80 57 81 49 82 50 83 56 84 58 85 51 86 52 87
REMARK SMILES IDX 53 88 54 89 55 90
REMARK H PARENT 12 7 4 12 17 21 79 40 45 51
REMARK Flexibility Score: inf
ROOT
ATOM      1  C   UNL     1      -3.972  -0.035   6.289  1.00  0.00     0.023 C 
ENDROOT
BRANCH   1   2
ATOM      2  C   UNL     1      -2.817  -0.881   5.773  1.00  0.00     0.023 C 
BRANCH   2   3
ATOM      3  C   UNL     1      -3.217  -2.109   4.944  1.00  0.00     0.116 C 
BRANCH   3   4
ATOM      4  N   UNL     1      -4.110  -1.807   3.838  1.00  0.00    -0.356 N 
ATOM      5  C   UNL     1      -3.894  -1.826   2.491  1.00  0.00     0.225 C 
ATOM      6  O   UNL     1      -4.835  -1.535   1.750  1.00  0.00    -0.275 OA
ATOM      7  H   UNL     1      -5.021  -1.546   4.105  1.00  0.00     0.163 HD
BRANCH   5   8
ATOM      8  C   UNL     1      -2.552  -2.237   1.921  1.00  0.00     0.164 C 
BRANCH   8   9
ATOM      9  C   UNL     1      -1.334  -1.318   2.162  1.00  0.00     0.193 C 
ATOM     10  N   UNL     1      -0.699  -0.866   0.898  1.00  0.00    -0.330 N 
ATOM     11  C   UNL     1      -1.277   0.465   0.646  1.00  0.00     0.262 C 
ATOM     12  H   UNL     1      -0.903  -1.490   0.117  1.00  0.00     0.348 HD
ATOM     13  C   UNL     1      -1.305   1.140   1.990  1.00  0.00     0.067 C 
ATOM     14  C   UNL     1      -1.574  -0.013   2.926  1.00  0.00     0.071 C 
BRANCH  10  15
ATOM     15  C   UNL     1       0.784  -0.946   0.904  1.00  0.00     0.177 C 
ATOM     16  C   UNL     1       1.420  -0.190  -0.272  1.00  0.00     0.075 C 
ATOM     17  C   UNL     1       1.547  -0.562   2.187  1.00  0.00     0.075 C 
ENDBRANCH  10  15
ENDBRANCH   8   9
ENDBRANCH   5   8
ENDBRANCH   3   4
ENDBRANCH   2   3
ENDBRANCH   1   2
BRANCH   1  18
ATOM     18  C   UNL     1      -4.788  -0.749   7.343  1.00  0.00     0.116 C 
BRANCH  18  19
ATOM     19  N   UNL     1      -3.954  -1.178   8.460  1.00  0.00    -0.352 N 
ATOM     20  C   UNL     1      -4.051  -0.859   9.787  1.00  0.00     0.251 C 
ATOM     21  H   UNL     1      -3.214  -1.784   8.226  1.00  0.00     0.163 HD
ATOM     22  O   UNL     1      -3.107  -1.083  10.543  1.00  0.00    -0.269 OA
BRANCH  20  23
ATOM     23  C   UNL     1      -5.294  -0.250  10.286  1.00  0.00     0.039 A 
ATOM     24  C   UNL     1      -5.234   0.737  11.269  1.00  0.00     0.014 A 
ATOM     25  C   UNL     1      -6.524  -0.661   9.766  1.00  0.00     0.014 A 
ATOM     26  C   UNL     1      -6.415   1.331  11.704  1.00  0.00     0.010 A 
ATOM     27  C   UNL     1      -7.676   0.029  10.094  1.00  0.00     0.010 A 
ATOM     28  C   UNL     1      -7.641   0.995  11.104  1.00  0.00    -0.014 A 
BRANCH  28  29
ATOM     29  C   UNL     1      -8.915   1.585  11.571  1.00  0.00     0.031 A 
ATOM     30  C   UNL     1      -9.988   0.684  12.125  1.00  0.00     0.074 A 
ATOM     31  C   UNL     1      -9.114   2.911  11.456  1.00  0.00     0.049 A 
ATOM     32  N   UNL     1     -11.178   0.995  12.566  1.00  0.00    -0.248 NA
ATOM     33  C   UNL     1      -9.706  -0.763  12.149  1.00  0.00     0.031 C 
ATOM     34  C   UNL     1      -8.168   3.862  10.866  1.00  0.00     0.029 A 
ATOM     35  N   UNL     1     -10.175   3.689  11.834  1.00  0.00    -0.354 N 
ATOM     36  C   UNL     1     -11.782  -0.211  12.902  1.00  0.00     0.074 A 
ATOM     37  C   UNL     1     -10.867  -1.265  12.535  1.00  0.00     0.031 C 
ATOM     38  C   UNL     1      -8.673   5.102  10.966  1.00  0.00     0.029 A 
ATOM     39  C   UNL     1      -9.989   5.028  11.590  1.00  0.00     0.049 A 
ATOM     40  H   UNL     1     -10.993   3.324  12.242  1.00  0.00     0.167 HD
ATOM     41  C   UNL     1     -12.976  -0.420  13.502  1.00  0.00     0.037 A 
ATOM     42  C   UNL     1     -10.793   6.076  11.850  1.00  0.00     0.037 A 
ATOM     43  C   UNL     1     -13.860   0.643  13.896  1.00  0.00     0.049 A 
ATOM     44  C   UNL     1     -12.106   5.822  12.540  1.00  0.00     0.074 A 
ATOM     45  C   UNL     1     -15.067   0.557  14.564  1.00  0.00     0.029 A 
ATOM     46  N   UNL     1     -13.627   1.991  13.658  1.00  0.00    -0.354 N 
ATOM     47  N   UNL     1     -12.632   4.681  12.919  1.00  0.00    -0.248 NA
ATOM     48  C   UNL     1     -12.926   6.998  12.853  1.00  0.00     0.031 C 
ATOM     49  C   UNL     1     -15.589   1.849  14.686  1.00  0.00     0.029 A 
ATOM     50  C   UNL     1     -14.677   2.746  14.150  1.00  0.00     0.049 A 
ATOM     51  H   UNL     1     -12.832   2.355  13.207  1.00  0.00     0.167 HD
ATOM     52  C   UNL     1     -13.831   5.004  13.545  1.00  0.00     0.074 A 
ATOM     53  C   UNL     1     -13.940   6.449  13.506  1.00  0.00     0.031 C 
ATOM     54  C   UNL     1     -14.758   4.185  14.102  1.00  0.00     0.037 A 
BRANCH  41  55
ATOM     55  C   UNL     1     -13.381  -1.844  13.776  1.00  0.00     0.058 A 
ATOM     56  C   UNL     1     -12.701  -2.641  14.714  1.00  0.00     0.135 A 
ATOM     57  C   UNL     1     -14.474  -2.417  13.106  1.00  0.00     0.135 A 
ATOM     58  F   UNL     1     -11.635  -2.155  15.369  1.00  0.00    -0.206 F 
ATOM     59  C   UNL     1     -13.069  -3.961  14.952  1.00  0.00     0.059 A 
ATOM     60  C   UNL     1     -14.881  -3.724  13.354  1.00  0.00     0.059 A 
ATOM     61  F   UNL     1     -15.157  -1.706  12.195  1.00  0.00    -0.206 F 
ATOM     62  C   UNL     1     -14.163  -4.493  14.269  1.00  0.00     0.060 A 
BRANCH  62  63
ATOM     63  S   UNL     1     -14.634  -6.204  14.600  1.00  0.00     0.124 S 
ATOM     64  O   UNL     1     -13.546  -6.935  13.958  1.00  0.00    -0.237 OA
ATOM     65  O   UNL     1     -14.650  -6.244  16.059  1.00  0.00    -0.237 OA
ATOM     66  O   UNL     1     -15.939  -6.328  13.958  1.00  0.00    -0.744 OA
ENDBRANCH  62  63
ENDBRANCH  41  55
BRANCH  42  67
ATOM     67  C   UNL     1     -10.357   7.454  11.497  1.00  0.00     0.058 A 
ATOM     68  C   UNL     1     -10.031   8.387  12.493  1.00  0.00     0.135 A 
ATOM     69  C   UNL     1     -10.242   7.861  10.159  1.00  0.00     0.135 A 
ATOM     70  F   UNL     1     -10.124   8.046  13.787  1.00  0.00    -0.206 F 
ATOM     71  C   UNL     1      -9.630   9.681  12.177  1.00  0.00     0.059 A 
ATOM     72  C   UNL     1      -9.815   9.140   9.817  1.00  0.00     0.059 A 
ATOM     73  F   UNL     1     -10.519   7.000   9.168  1.00  0.00    -0.206 F 
ATOM     74  C   UNL     1      -9.523  10.047  10.834  1.00  0.00     0.060 A 
BRANCH  74  75
ATOM     75  S   UNL     1      -8.964  11.717  10.435  1.00  0.00     0.124 S 
ATOM     76  O   UNL     1     -10.122  12.515  10.822  1.00  0.00    -0.237 OA
ATOM     77  O   UNL     1      -7.782  11.854  11.281  1.00  0.00    -0.237 OA
ATOM     78  O   UNL     1      -8.695  11.648   9.002  1.00  0.00    -0.744 OA
ENDBRANCH  74  75
ENDBRANCH  42  67
BRANCH  54  79
ATOM     79  C   UNL     1     -15.946   4.837  14.754  1.00  0.00     0.058 A 
ATOM     80  C   UNL     1     -16.942   5.482  14.005  1.00  0.00     0.135 A 
ATOM     81  C   UNL     1     -16.102   4.786  16.149  1.00  0.00     0.135 A 
ATOM     82  F   UNL     1     -16.840   5.560  12.669  1.00  0.00    -0.206 F 
ATOM     83  C   UNL     1     -18.029   6.094  14.620  1.00  0.00     0.059 A 
ATOM     84  C   UNL     1     -17.199   5.359  16.782  1.00  0.00     0.059 A 
ATOM     85  F   UNL     1     -15.187   4.165  16.911  1.00  0.00    -0.206 F 
ATOM     86  C   UNL     1     -18.147   6.029  16.010  1.00  0.00     0.060 A 
BRANCH  86  87
ATOM     87  S   UNL     1     -19.563   6.824  16.795  1.00  0.00     0.124 S 
ATOM     88  O   UNL     1     -19.213   8.235  16.670  1.00  0.00    -0.237 OA
ATOM     89  O   UNL     1     -20.675   6.370  15.966  1.00  0.00    -0.237 OA
ATOM     90  O   UNL     1     -19.543   6.290  18.154  1.00  0.00    -0.744 OA
ENDBRANCH  86  87
ENDBRANCH  54  79
ENDBRANCH  28  29
ENDBRANCH  20  23
ENDBRANCH  18  19
ENDBRANCH   1  18
TORSDOF 16
