REMARK SMILES O=C(NCCCCNC(=O)c1ccc(-c2c3nc(c(-c4c(F)cc(S(=O)(=O)[O-])cc4F)c4ccc([nH]4)c(-c4c(F)cc(S(=O)(=O)[O-])cc4F)c4nc(c(-c5c(F)cc(S(=O)(=O)[O-])cc5F)c5ccc2[nH]5)C=C4)C=C3)cc1)C1=C(C(=O)NCCC2=CCCCC2)CCCC1
REMARK SMILES IDX 5 1 4 2 3 3 1 4 2 5 77 7 78 8 93 9 90 10 92 11 91 12 79 13
REMARK SMILES IDX 80 14 81 15 82 17 83 18 84 19 85 20 89 21 86 22 88 23 87 24
REMARK SMILES IDX 6 25 7 26 8 27 9 28 10 30 11 31 12 32 76 33 13 34 75 35
REMARK SMILES IDX 14 36 15 37 16 38 69 39 17 40 74 41 68 42 70 43 18 44 73 45
REMARK SMILES IDX 67 46 66 47 19 49 53 50 32 51 52 52 33 53 36 54 51 55 71 56
REMARK SMILES IDX 34 57 35 58 50 60 72 61 37 62 20 63 21 64 30 65 22 66 23 67
REMARK SMILES IDX 29 68 31 69 24 70 25 71 26 72 27 73 28 74 54 75 55 76 64 77
REMARK SMILES IDX 56 78 57 79 63 80 65 81 58 82 59 83 60 84 61 85 62 86 38 87
REMARK SMILES IDX 39 88 48 89 40 90 41 91 47 92 49 93 42 94 43 95 44 96 45 97
REMARK SMILES IDX 46 98
REMARK H PARENT 3 6 81 16 8 29 70 48 36 59
REMARK Flexibility Score: inf
ROOT
ATOM      1  C   UNL     1       5.372   0.141   2.973  1.00  0.00     0.023 C 
ENDROOT
BRANCH   1   2
ATOM      2  C   UNL     1       4.794   0.258   1.563  1.00  0.00     0.116 C 
BRANCH   2   3
ATOM      3  N   UNL     1       3.376   0.558   1.586  1.00  0.00    -0.352 N 
ATOM      4  O   UNL     1       1.363   1.181   0.850  1.00  0.00    -0.270 OA
ATOM      5  C   UNL     1       2.550   0.977   0.596  1.00  0.00     0.247 C 
ATOM      6  H   UNL     1       2.942   0.439   2.462  1.00  0.00     0.163 HD
BRANCH   5   7
ATOM      7  C   UNL     1       3.076   1.266  -0.762  1.00  0.00     0.026 C 
ATOM      8  C   UNL     1       3.734   0.409  -1.574  1.00  0.00     0.026 C 
ATOM      9  C   UNL     1       2.714   2.680  -1.180  1.00  0.00     0.042 C 
ATOM     10  C   UNL     1       4.382   0.926  -2.856  1.00  0.00     0.042 C 
ATOM     11  C   UNL     1       3.067   3.030  -2.622  1.00  0.00     0.005 C 
ATOM     12  C   UNL     1       4.422   2.452  -2.976  1.00  0.00     0.005 C 
BRANCH   8  13
ATOM     13  C   UNL     1       4.027  -1.053  -1.363  1.00  0.00     0.247 C 
ATOM     14  O   UNL     1       5.124  -1.494  -1.715  1.00  0.00    -0.270 OA
ATOM     15  N   UNL     1       3.115  -1.944  -0.893  1.00  0.00    -0.352 N 
ATOM     16  H   UNL     1       3.383  -2.887  -0.985  1.00  0.00     0.163 HD
BRANCH  15  17
ATOM     17  C   UNL     1       1.815  -1.751  -0.279  1.00  0.00     0.120 C 
BRANCH  17  18
ATOM     18  C   UNL     1       0.873  -2.954  -0.348  1.00  0.00     0.052 C 
BRANCH  18  19
ATOM     19  C   UNL     1       1.320  -4.220   0.356  1.00  0.00    -0.072 C 
ATOM     20  C   UNL     1       1.424  -5.380  -0.321  1.00  0.00    -0.028 C 
ATOM     21  C   UNL     1       1.513  -4.168   1.858  1.00  0.00     0.031 C 
ATOM     22  C   UNL     1       1.674  -6.713   0.324  1.00  0.00     0.027 C 
ATOM     23  C   UNL     1       2.116  -5.449   2.443  1.00  0.00     0.005 C 
ATOM     24  C   UNL     1       1.476  -6.691   1.839  1.00  0.00     0.004 C 
ENDBRANCH  18  19
ENDBRANCH  17  18
ENDBRANCH  15  17
ENDBRANCH   8  13
ENDBRANCH   5   7
ENDBRANCH   2   3
ENDBRANCH   1   2
BRANCH   1  25
ATOM     25  C   UNL     1       4.778  -0.992   3.824  1.00  0.00     0.023 C 
BRANCH  25  26
ATOM     26  C   UNL     1       5.013  -2.404   3.290  1.00  0.00     0.116 C 
BRANCH  26  27
ATOM     27  N   UNL     1       6.421  -2.763   3.300  1.00  0.00    -0.352 N 
ATOM     28  C   UNL     1       7.128  -3.604   4.124  1.00  0.00     0.251 C 
ATOM     29  H   UNL     1       6.958  -2.331   2.597  1.00  0.00     0.163 HD
ATOM     30  O   UNL     1       8.357  -3.557   4.105  1.00  0.00    -0.269 OA
BRANCH  28  31
ATOM     31  C   UNL     1       6.449  -4.562   5.031  1.00  0.00     0.039 A 
ATOM     32  C   UNL     1       7.009  -4.819   6.286  1.00  0.00     0.014 A 
ATOM     33  C   UNL     1       5.323  -5.282   4.627  1.00  0.00     0.014 A 
ATOM     34  C   UNL     1       6.421  -5.760   7.140  1.00  0.00     0.010 A 
ATOM     35  C   UNL     1       4.691  -6.163   5.508  1.00  0.00     0.010 A 
ATOM     36  C   UNL     1       5.243  -6.428   6.769  1.00  0.00    -0.014 A 
BRANCH  36  37
ATOM     37  C   UNL     1       4.612  -7.435   7.669  1.00  0.00     0.031 A 
ATOM     38  C   UNL     1       4.512  -8.880   7.244  1.00  0.00     0.074 A 
ATOM     39  C   UNL     1       4.104  -7.053   8.858  1.00  0.00     0.049 A 
ATOM     40  N   UNL     1       3.955  -9.889   7.867  1.00  0.00    -0.248 NA
ATOM     41  C   UNL     1       5.091  -9.233   5.938  1.00  0.00     0.031 C 
ATOM     42  C   UNL     1       4.089  -5.681   9.373  1.00  0.00     0.029 A 
ATOM     43  N   UNL     1       3.494  -7.782   9.850  1.00  0.00    -0.354 N 
ATOM     44  C   UNL     1       4.116 -10.990   7.031  1.00  0.00     0.074 A 
ATOM     45  C   UNL     1       4.764 -10.512   5.829  1.00  0.00     0.031 C 
ATOM     46  C   UNL     1       3.517  -5.671  10.588  1.00  0.00     0.029 A 
ATOM     47  C   UNL     1       3.098  -7.027  10.930  1.00  0.00     0.049 A 
ATOM     48  H   UNL     1       3.353  -8.755   9.793  1.00  0.00     0.167 HD
ATOM     49  C   UNL     1       3.787 -12.286   7.254  1.00  0.00     0.037 A 
ATOM     50  C   UNL     1       2.468  -7.385  12.066  1.00  0.00     0.037 A 
ATOM     51  C   UNL     1       3.165 -12.769   8.459  1.00  0.00     0.049 A 
ATOM     52  C   UNL     1       2.132  -8.835  12.298  1.00  0.00     0.074 A 
ATOM     53  C   UNL     1       2.799 -14.066   8.781  1.00  0.00     0.029 A 
ATOM     54  N   UNL     1       2.833 -11.980   9.550  1.00  0.00    -0.354 N 
ATOM     55  N   UNL     1       2.320  -9.863  11.506  1.00  0.00    -0.248 NA
ATOM     56  C   UNL     1       1.517  -9.177  13.589  1.00  0.00     0.031 C 
ATOM     57  C   UNL     1       2.228 -14.058  10.059  1.00  0.00     0.029 A 
ATOM     58  C   UNL     1       2.276 -12.763  10.549  1.00  0.00     0.049 A 
ATOM     59  H   UNL     1       2.971 -11.008   9.607  1.00  0.00     0.167 HD
ATOM     60  C   UNL     1       1.883 -10.976  12.218  1.00  0.00     0.074 A 
ATOM     61  C   UNL     1       1.432 -10.497  13.507  1.00  0.00     0.031 C 
ATOM     62  C   UNL     1       1.857 -12.278  11.838  1.00  0.00     0.037 A 
BRANCH  49  63
ATOM     63  C   UNL     1       4.121 -13.285   6.179  1.00  0.00     0.058 A 
ATOM     64  C   UNL     1       5.450 -13.660   5.922  1.00  0.00     0.135 A 
ATOM     65  C   UNL     1       3.109 -13.913   5.436  1.00  0.00     0.135 A 
ATOM     66  F   UNL     1       6.458 -13.079   6.591  1.00  0.00    -0.206 F 
ATOM     67  C   UNL     1       5.765 -14.606   4.952  1.00  0.00     0.059 A 
ATOM     68  C   UNL     1       3.400 -14.882   4.479  1.00  0.00     0.059 A 
ATOM     69  F   UNL     1       1.822 -13.592   5.640  1.00  0.00    -0.206 F 
ATOM     70  C   UNL     1       4.732 -15.214   4.237  1.00  0.00     0.060 A 
BRANCH  70  71
ATOM     71  S   UNL     1       5.159 -16.456   2.998  1.00  0.00     0.124 S 
ATOM     72  O   UNL     1       5.710 -15.625   1.932  1.00  0.00    -0.237 OA
ATOM     73  O   UNL     1       6.119 -17.292   3.711  1.00  0.00    -0.237 OA
ATOM     74  O   UNL     1       3.879 -17.091   2.699  1.00  0.00    -0.744 OA
ENDBRANCH  70  71
ENDBRANCH  49  63
BRANCH  50  75
ATOM     75  C   UNL     1       2.126  -6.360  13.090  1.00  0.00     0.058 A 
ATOM     76  C   UNL     1       2.778  -6.329  14.332  1.00  0.00     0.135 A 
ATOM     77  C   UNL     1       1.117  -5.413  12.858  1.00  0.00     0.135 A 
ATOM     78  F   UNL     1       3.748  -7.216  14.603  1.00  0.00    -0.206 F 
ATOM     79  C   UNL     1       2.415  -5.424  15.324  1.00  0.00     0.059 A 
ATOM     80  C   UNL     1       0.756  -4.479  13.824  1.00  0.00     0.059 A 
ATOM     81  F   UNL     1       0.478  -5.385  11.679  1.00  0.00    -0.206 F 
ATOM     82  C   UNL     1       1.397  -4.506  15.062  1.00  0.00     0.060 A 
BRANCH  82  83
ATOM     83  S   UNL     1       0.934  -3.329  16.351  1.00  0.00     0.124 S 
ATOM     84  O   UNL     1       0.157  -4.172  17.251  1.00  0.00    -0.237 OA
ATOM     85  O   UNL     1       2.233  -2.888  16.849  1.00  0.00    -0.237 OA
ATOM     86  O   UNL     1       0.176  -2.316  15.621  1.00  0.00    -0.744 OA
ENDBRANCH  82  83
ENDBRANCH  50  75
BRANCH  62  87
ATOM     87  C   UNL     1       1.390 -13.284  12.854  1.00  0.00     0.058 A 
ATOM     88  C   UNL     1       0.043 -13.386  13.235  1.00  0.00     0.135 A 
ATOM     89  C   UNL     1       2.307 -14.169  13.444  1.00  0.00     0.135 A 
ATOM     90  F   UNL     1      -0.875 -12.563  12.702  1.00  0.00    -0.206 F 
ATOM     91  C   UNL     1      -0.373 -14.303  14.196  1.00  0.00     0.059 A 
ATOM     92  C   UNL     1       1.909 -15.112  14.387  1.00  0.00     0.059 A 
ATOM     93  F   UNL     1       3.605 -14.123  13.106  1.00  0.00    -0.206 F 
ATOM     94  C   UNL     1       0.570 -15.157  14.771  1.00  0.00     0.060 A 
BRANCH  94  95
ATOM     95  S   UNL     1       0.023 -16.341  16.020  1.00  0.00     0.124 S 
ATOM     96  O   UNL     1      -0.135 -15.482  17.189  1.00  0.00    -0.237 OA
ATOM     97  O   UNL     1      -1.214 -16.859  15.442  1.00  0.00    -0.237 OA
ATOM     98  O   UNL     1       1.124 -17.297  16.086  1.00  0.00    -0.744 OA
ENDBRANCH  94  95
ENDBRANCH  62  87
ENDBRANCH  36  37
ENDBRANCH  28  31
ENDBRANCH  26  27
ENDBRANCH  25  26
ENDBRANCH   1  25
TORSDOF 18
