REMARK SMILES Cc1cccc(C[NH+]2CCC(OCC(=O)NCCCCNC(=O)c3ccc(-c4c5nc(c(-c6c(F)cc(S(=O)(=O)[O-])cc6F)c6ccc([nH]6)c(-c6c(F)cc(S(=O)(=O)[O-])cc6F)c6nc(c(-c7c(F)cc(S(=O)(=O)[O-])cc7F)c7ccc4[nH]7)C=C6)C=C5)cc3)CC2)n1
REMARK SMILES IDX 18 1 17 2 16 3 14 4 15 5 13 7 12 8 11 9 8 10 9 11 91 12
REMARK SMILES IDX 10 14 90 15 7 16 6 17 1 18 2 19 3 20 92 21 4 22 5 23 19 24
REMARK SMILES IDX 20 25 21 26 22 27 23 29 24 30 25 31 89 32 26 33 88 34 27 35
REMARK SMILES IDX 28 36 29 37 82 38 30 39 87 40 81 41 83 42 31 43 86 44 80 45
REMARK SMILES IDX 79 46 32 48 66 49 45 50 65 51 46 52 49 53 64 54 84 55 47 56
REMARK SMILES IDX 48 57 63 59 85 60 50 61 33 62 34 63 43 64 35 65 36 66 42 67
REMARK SMILES IDX 44 68 37 69 38 70 39 71 40 72 41 73 67 74 68 75 77 76 69 77
REMARK SMILES IDX 70 78 76 79 78 80 71 81 72 82 73 83 74 84 75 85 51 86 52 87
REMARK SMILES IDX 61 88 53 89 54 90 60 91 62 92 55 93 56 94 57 95 58 96 59 97
REMARK H PARENT 16 6 8 13 21 28 83 47 49 58
REMARK Flexibility Score: inf
ROOT
ATOM      1  C   UNL     1       3.672   5.754   3.816  1.00  0.00     0.023 C 
ENDROOT
BRANCH   1   2
ATOM      2  C   UNL     1       2.804   6.879   4.378  1.00  0.00     0.116 C 
BRANCH   2   3
ATOM      3  N   UNL     1       1.792   7.363   3.462  1.00  0.00    -0.354 N 
ATOM      4  C   UNL     1       0.440   7.171   3.512  1.00  0.00     0.246 C 
ATOM      5  O   UNL     1      -0.280   7.822   2.753  1.00  0.00    -0.272 OA
ATOM      6  H   UNL     1       2.121   7.899   2.705  1.00  0.00     0.163 HD
BRANCH   4   7
ATOM      7  C   UNL     1      -0.152   6.176   4.519  1.00  0.00     0.260 C 
BRANCH   7   8
ATOM      8  O   UNL     1       0.390   4.868   4.559  1.00  0.00    -0.368 OA
BRANCH   8   9
ATOM      9  C   UNL     1       0.040   3.970   3.500  1.00  0.00     0.130 C 
ATOM     10  N   UNL     1      -1.287   3.078   1.084  1.00  0.00    -0.330 N 
ATOM     11  C   UNL     1      -1.721   2.548   2.379  1.00  0.00     0.265 C 
ATOM     12  C   UNL     1       0.152   3.374   1.077  1.00  0.00     0.265 C 
ATOM     13  H   UNL     1      -1.792   3.955   0.959  1.00  0.00     0.348 HD
ATOM     14  C   UNL     1      -1.436   3.558   3.499  1.00  0.00     0.093 C 
ATOM     15  C   UNL     1       0.464   4.442   2.111  1.00  0.00     0.093 C 
BRANCH  10  16
ATOM     16  C   UNL     1      -1.668   2.222  -0.061  1.00  0.00     0.319 C 
BRANCH  16  17
ATOM     17  C   UNL     1      -1.052   0.832  -0.116  1.00  0.00     0.095 A 
ATOM     18  C   UNL     1       2.382  -0.464  -0.326  1.00  0.00     0.067 C 
ATOM     19  C   UNL     1       0.886  -0.460  -0.258  1.00  0.00     0.038 A 
ATOM     20  C   UNL     1       0.158  -1.633  -0.118  1.00  0.00     0.023 A 
ATOM     21  N   UNL     1       0.293   0.753  -0.275  1.00  0.00    -0.252 NA
ATOM     22  C   UNL     1      -1.226  -1.550   0.006  1.00  0.00     0.004 A 
ATOM     23  C   UNL     1      -1.844  -0.303   0.014  1.00  0.00     0.030 A 
ENDBRANCH  16  17
ENDBRANCH  10  16
ENDBRANCH   8   9
ENDBRANCH   7   8
ENDBRANCH   4   7
ENDBRANCH   2   3
ENDBRANCH   1   2
BRANCH   1  24
ATOM     24  C   UNL     1       4.352   6.041   2.474  1.00  0.00     0.023 C 
BRANCH  24  25
ATOM     25  C   UNL     1       5.163   7.330   2.403  1.00  0.00     0.116 C 
BRANCH  25  26
ATOM     26  N   UNL     1       6.223   7.399   3.397  1.00  0.00    -0.352 N 
ATOM     27  C   UNL     1       7.517   7.842   3.255  1.00  0.00     0.251 C 
ATOM     28  H   UNL     1       5.980   7.083   4.297  1.00  0.00     0.163 HD
ATOM     29  O   UNL     1       8.309   7.731   4.187  1.00  0.00    -0.269 OA
BRANCH  27  30
ATOM     30  C   UNL     1       7.962   8.416   1.966  1.00  0.00     0.039 A 
ATOM     31  C   UNL     1       9.156   7.960   1.400  1.00  0.00     0.014 A 
ATOM     32  C   UNL     1       7.195   9.380   1.306  1.00  0.00     0.014 A 
ATOM     33  C   UNL     1       9.541   8.410   0.135  1.00  0.00     0.010 A 
ATOM     34  C   UNL     1       7.548   9.781   0.021  1.00  0.00     0.010 A 
ATOM     35  C   UNL     1       8.719   9.293  -0.582  1.00  0.00    -0.014 A 
BRANCH  35  36
ATOM     36  C   UNL     1       9.041   9.709  -1.971  1.00  0.00     0.031 A 
ATOM     37  C   UNL     1       9.322  11.153  -2.276  1.00  0.00     0.074 A 
ATOM     38  C   UNL     1       8.973   8.807  -2.971  1.00  0.00     0.049 A 
ATOM     39  N   UNL     1       9.468  11.741  -3.435  1.00  0.00    -0.248 NA
ATOM     40  C   UNL     1       9.420  12.062  -1.123  1.00  0.00     0.031 C 
ATOM     41  C   UNL     1       8.665   7.385  -2.808  1.00  0.00     0.029 A 
ATOM     42  N   UNL     1       9.129   8.959  -4.326  1.00  0.00    -0.354 N 
ATOM     43  C   UNL     1       9.650  13.089  -3.155  1.00  0.00     0.074 A 
ATOM     44  C   UNL     1       9.556  13.238  -1.718  1.00  0.00     0.031 C 
ATOM     45  C   UNL     1       8.648   6.798  -4.015  1.00  0.00     0.029 A 
ATOM     46  C   UNL     1       8.905   7.805  -5.039  1.00  0.00     0.049 A 
ATOM     47  H   UNL     1       9.377   9.814  -4.748  1.00  0.00     0.167 HD
ATOM     48  C   UNL     1       9.888  14.108  -4.016  1.00  0.00     0.037 A 
ATOM     49  C   UNL     1       8.885   7.586  -6.369  1.00  0.00     0.037 A 
ATOM     50  C   UNL     1      10.003  13.949  -5.441  1.00  0.00     0.049 A 
ATOM     51  C   UNL     1       9.164   8.727  -7.307  1.00  0.00     0.074 A 
ATOM     52  C   UNL     1      10.299  14.908  -6.394  1.00  0.00     0.029 A 
ATOM     53  N   UNL     1       9.824  12.752  -6.121  1.00  0.00    -0.354 N 
ATOM     54  N   UNL     1       9.391   9.987  -7.023  1.00  0.00    -0.248 NA
ATOM     55  C   UNL     1       9.188   8.419  -8.744  1.00  0.00     0.031 C 
ATOM     56  C   UNL     1      10.267  14.298  -7.653  1.00  0.00     0.029 A 
ATOM     57  C   UNL     1       9.990  12.951  -7.482  1.00  0.00     0.049 A 
ATOM     58  H   UNL     1       9.610  11.889  -5.698  1.00  0.00     0.167 HD
ATOM     59  C   UNL     1       9.608  10.619  -8.242  1.00  0.00     0.074 A 
ATOM     60  C   UNL     1       9.490   9.601  -9.267  1.00  0.00     0.031 C 
ATOM     61  C   UNL     1       9.881  11.924  -8.489  1.00  0.00     0.037 A 
BRANCH  48  62
ATOM     62  C   UNL     1      10.034  15.485  -3.429  1.00  0.00     0.058 A 
ATOM     63  C   UNL     1      11.157  15.844  -2.667  1.00  0.00     0.135 A 
ATOM     64  C   UNL     1       9.042  16.458  -3.631  1.00  0.00     0.135 A 
ATOM     65  F   UNL     1      12.130  14.948  -2.432  1.00  0.00    -0.206 F 
ATOM     66  C   UNL     1      11.270  17.103  -2.086  1.00  0.00     0.059 A 
ATOM     67  C   UNL     1       9.147  17.733  -3.083  1.00  0.00     0.059 A 
ATOM     68  F   UNL     1       7.949  16.170  -4.356  1.00  0.00    -0.206 F 
ATOM     69  C   UNL     1      10.255  18.038  -2.292  1.00  0.00     0.060 A 
BRANCH  69  70
ATOM     70  S   UNL     1      10.399  19.657  -1.508  1.00  0.00     0.124 S 
ATOM     71  O   UNL     1      10.049  19.341  -0.127  1.00  0.00    -0.237 OA
ATOM     72  O   UNL     1      11.798  19.999  -1.744  1.00  0.00    -0.237 OA
ATOM     73  O   UNL     1       9.428  20.472  -2.232  1.00  0.00    -0.744 OA
ENDBRANCH  69  70
ENDBRANCH  48  62
BRANCH  49  74
ATOM     74  C   UNL     1       8.596   6.221  -6.881  1.00  0.00     0.058 A 
ATOM     75  C   UNL     1       9.616   5.422  -7.419  1.00  0.00     0.135 A 
ATOM     76  C   UNL     1       7.307   5.670  -6.800  1.00  0.00     0.135 A 
ATOM     77  F   UNL     1      10.862   5.907  -7.524  1.00  0.00    -0.206 F 
ATOM     78  C   UNL     1       9.369   4.126  -7.860  1.00  0.00     0.059 A 
ATOM     79  C   UNL     1       7.040   4.369  -7.215  1.00  0.00     0.059 A 
ATOM     80  F   UNL     1       6.302   6.389  -6.278  1.00  0.00    -0.206 F 
ATOM     81  C   UNL     1       8.078   3.606  -7.748  1.00  0.00     0.060 A 
BRANCH  81  82
ATOM     82  S   UNL     1       7.786   1.896  -8.252  1.00  0.00     0.124 S 
ATOM     83  O   UNL     1       7.799   2.011  -9.706  1.00  0.00    -0.237 OA
ATOM     84  O   UNL     1       8.923   1.201  -7.657  1.00  0.00    -0.237 OA
ATOM     85  O   UNL     1       6.491   1.587  -7.653  1.00  0.00    -0.744 OA
ENDBRANCH  81  82
ENDBRANCH  49  74
BRANCH  61  86
ATOM     86  C   UNL     1      10.106  12.331  -9.917  1.00  0.00     0.058 A 
ATOM     87  C   UNL     1       9.040  12.485 -10.815  1.00  0.00     0.135 A 
ATOM     88  C   UNL     1      11.397  12.655 -10.366  1.00  0.00     0.135 A 
ATOM     89  F   UNL     1       7.789  12.179 -10.436  1.00  0.00    -0.206 F 
ATOM     90  C   UNL     1       9.245  12.943 -12.112  1.00  0.00     0.059 A 
ATOM     91  C   UNL     1      11.622  13.135 -11.652  1.00  0.00     0.059 A 
ATOM     92  F   UNL     1      12.450  12.531  -9.542  1.00  0.00    -0.206 F 
ATOM     93  C   UNL     1      10.540  13.272 -12.520  1.00  0.00     0.060 A 
BRANCH  93  94
ATOM     94  S   UNL     1      10.785  13.931 -14.183  1.00  0.00     0.124 S 
ATOM     95  O   UNL     1      10.653  12.728 -14.998  1.00  0.00    -0.237 OA
ATOM     96  O   UNL     1       9.698  14.899 -14.300  1.00  0.00    -0.237 OA
ATOM     97  O   UNL     1      12.125  14.508 -14.126  1.00  0.00    -0.744 OA
ENDBRANCH  93  94
ENDBRANCH  61  86
ENDBRANCH  35  36
ENDBRANCH  27  30
ENDBRANCH  25  26
ENDBRANCH  24  25
ENDBRANCH   1  24
TORSDOF 18
