REMARK SMILES O=C(NCCCCNC(=O)c1cc(-c2ccccc2)nc(Nc2nc3ccccc3s2)n1)c1ccc(-c2c3nc(c(-c4c(F)cc(S(=O)(=O)[O-])cc4F)c4ccc([nH]4)c(-c4c(F)cc(S(=O)(=O)[O-])cc4F)c4nc(c(-c5c(F)cc(S(=O)(=O)[O-])cc5F)c5ccc2[nH]5)C=C4)C=C3)cc1
REMARK SMILES IDX 5 1 4 2 3 3 1 4 2 5 33 7 34 8 98 9 35 10 97 11 36 12 37 13
REMARK SMILES IDX 38 14 91 15 39 16 96 17 90 18 92 19 40 20 95 21 89 22 88 23
REMARK SMILES IDX 41 25 75 26 54 27 74 28 55 29 58 30 73 31 93 32 56 33 57 34
REMARK SMILES IDX 72 36 94 37 59 38 42 39 43 40 52 41 44 42 45 43 51 44 53 45
REMARK SMILES IDX 46 46 47 47 48 48 49 49 50 50 76 51 77 52 86 53 78 54 79 55
REMARK SMILES IDX 85 56 87 57 80 58 81 59 82 60 83 61 84 62 60 63 61 64 70 65
REMARK SMILES IDX 62 66 63 67 69 68 71 69 64 70 65 71 66 72 67 73 68 74 6 75
REMARK SMILES IDX 7 76 8 77 9 78 10 80 11 81 12 82 32 83 13 84 21 85 20 86
REMARK SMILES IDX 14 87 15 88 19 89 16 90 18 91 17 92 22 93 23 95 24 96 31 97
REMARK SMILES IDX 25 98 30 99 26 100 29 101 27 102 28 103
REMARK H PARENT 3 6 92 24 58 35 8 79 22 94
REMARK Flexibility Score: inf
ROOT
ATOM      1  C   UNL     1       5.011   1.996  -1.620  1.00  0.00     0.023 C 
ENDROOT
BRANCH   1   2
ATOM      2  C   UNL     1       4.675   1.207  -0.362  1.00  0.00     0.116 C 
BRANCH   2   3
ATOM      3  N   UNL     1       3.244   1.091  -0.125  1.00  0.00    -0.352 N 
ATOM      4  O   UNL     1       1.263   0.048   0.126  1.00  0.00    -0.269 OA
ATOM      5  C   UNL     1       2.483  -0.040   0.064  1.00  0.00     0.251 C 
ATOM      6  H   UNL     1       2.751   1.943  -0.096  1.00  0.00     0.163 HD
BRANCH   5   7
ATOM      7  C   UNL     1       3.144  -1.360   0.160  1.00  0.00     0.039 A 
ATOM      8  C   UNL     1       4.273  -1.536   0.964  1.00  0.00     0.014 A 
ATOM      9  C   UNL     1       2.632  -2.433  -0.576  1.00  0.00     0.014 A 
ATOM     10  C   UNL     1       4.974  -2.736   0.915  1.00  0.00     0.010 A 
ATOM     11  C   UNL     1       3.291  -3.666  -0.556  1.00  0.00     0.010 A 
ATOM     12  C   UNL     1       4.486  -3.818   0.164  1.00  0.00    -0.014 A 
BRANCH  12  13
ATOM     13  C   UNL     1       5.212  -5.114   0.199  1.00  0.00     0.031 A 
ATOM     14  C   UNL     1       5.863  -5.678  -1.033  1.00  0.00     0.074 A 
ATOM     15  C   UNL     1       5.300  -5.768   1.374  1.00  0.00     0.049 A 
ATOM     16  N   UNL     1       6.543  -6.789  -1.167  1.00  0.00    -0.248 NA
ATOM     17  C   UNL     1       5.730  -4.905  -2.278  1.00  0.00     0.031 C 
ATOM     18  C   UNL     1       4.695  -5.322   2.632  1.00  0.00     0.029 A 
ATOM     19  N   UNL     1       5.941  -6.932   1.709  1.00  0.00    -0.354 N 
ATOM     20  C   UNL     1       6.904  -6.859  -2.508  1.00  0.00     0.074 A 
ATOM     21  C   UNL     1       6.348  -5.688  -3.153  1.00  0.00     0.031 C 
ATOM     22  C   UNL     1       5.029  -6.178   3.609  1.00  0.00     0.029 A 
ATOM     23  C   UNL     1       5.820  -7.261   3.038  1.00  0.00     0.049 A 
ATOM     24  H   UNL     1       6.441  -7.479   1.061  1.00  0.00     0.167 HD
ATOM     25  C   UNL     1       7.636  -7.810  -3.138  1.00  0.00     0.037 A 
ATOM     26  C   UNL     1       6.280  -8.325   3.723  1.00  0.00     0.037 A 
ATOM     27  C   UNL     1       8.201  -8.963  -2.482  1.00  0.00     0.049 A 
ATOM     28  C   UNL     1       7.082  -9.366   2.999  1.00  0.00     0.074 A 
ATOM     29  C   UNL     1       8.986  -9.965  -3.028  1.00  0.00     0.029 A 
ATOM     30  N   UNL     1       8.041  -9.271  -1.139  1.00  0.00    -0.354 N 
ATOM     31  N   UNL     1       7.433  -9.402   1.736  1.00  0.00    -0.248 NA
ATOM     32  C   UNL     1       7.547 -10.513   3.789  1.00  0.00     0.031 C 
ATOM     33  C   UNL     1       9.270 -10.897  -2.023  1.00  0.00     0.029 A 
ATOM     34  C   UNL     1       8.697 -10.455  -0.842  1.00  0.00     0.049 A 
ATOM     35  H   UNL     1       7.536  -8.727  -0.492  1.00  0.00     0.167 HD
ATOM     36  C   UNL     1       8.171 -10.568   1.581  1.00  0.00     0.074 A 
ATOM     37  C   UNL     1       8.230 -11.201   2.884  1.00  0.00     0.031 C 
ATOM     38  C   UNL     1       8.744 -11.071   0.461  1.00  0.00     0.037 A 
BRANCH  25  39
ATOM     39  C   UNL     1       7.862  -7.656  -4.618  1.00  0.00     0.058 A 
ATOM     40  C   UNL     1       8.747  -6.698  -5.135  1.00  0.00     0.135 A 
ATOM     41  C   UNL     1       7.222  -8.514  -5.528  1.00  0.00     0.135 A 
ATOM     42  F   UNL     1       9.375  -5.844  -4.311  1.00  0.00    -0.206 F 
ATOM     43  C   UNL     1       8.974  -6.580  -6.503  1.00  0.00     0.059 A 
ATOM     44  C   UNL     1       7.451  -8.429  -6.899  1.00  0.00     0.059 A 
ATOM     45  F   UNL     1       6.367  -9.450  -5.088  1.00  0.00    -0.206 F 
ATOM     46  C   UNL     1       8.319  -7.449  -7.378  1.00  0.00     0.060 A 
BRANCH  46  47
ATOM     47  S   UNL     1       8.627  -7.288  -9.150  1.00  0.00     0.124 S 
ATOM     48  O   UNL     1       7.867  -6.082  -9.468  1.00  0.00    -0.237 OA
ATOM     49  O   UNL     1      10.079  -7.154  -9.206  1.00  0.00    -0.237 OA
ATOM     50  O   UNL     1       8.094  -8.529  -9.703  1.00  0.00    -0.744 OA
ENDBRANCH  46  47
ENDBRANCH  25  39
BRANCH  26  51
ATOM     51  C   UNL     1       5.982  -8.448   5.173  1.00  0.00     0.058 A 
ATOM     52  C   UNL     1       6.986  -8.272   6.135  1.00  0.00     0.135 A 
ATOM     53  C   UNL     1       4.677  -8.703   5.624  1.00  0.00     0.135 A 
ATOM     54  F   UNL     1       8.248  -8.030   5.751  1.00  0.00    -0.206 F 
ATOM     55  C   UNL     1       6.710  -8.351   7.496  1.00  0.00     0.059 A 
ATOM     56  C   UNL     1       4.371  -8.761   6.979  1.00  0.00     0.059 A 
ATOM     57  F   UNL     1       3.679  -8.858   4.740  1.00  0.00    -0.206 F 
ATOM     58  C   UNL     1       5.397  -8.593   7.907  1.00  0.00     0.060 A 
BRANCH  58  59
ATOM     59  S   UNL     1       5.033  -8.632   9.676  1.00  0.00     0.124 S 
ATOM     60  O   UNL     1       5.540  -9.946  10.050  1.00  0.00    -0.237 OA
ATOM     61  O   UNL     1       5.793  -7.488  10.173  1.00  0.00    -0.237 OA
ATOM     62  O   UNL     1       3.582  -8.476   9.721  1.00  0.00    -0.744 OA
ENDBRANCH  58  59
ENDBRANCH  26  51
BRANCH  38  63
ATOM     63  C   UNL     1       9.503 -12.360   0.602  1.00  0.00     0.058 A 
ATOM     64  C   UNL     1       8.842 -13.588   0.752  1.00  0.00     0.135 A 
ATOM     65  C   UNL     1      10.906 -12.368   0.551  1.00  0.00     0.135 A 
ATOM     66  F   UNL     1       7.502 -13.631   0.815  1.00  0.00    -0.206 F 
ATOM     67  C   UNL     1       9.548 -14.781   0.870  1.00  0.00     0.059 A 
ATOM     68  C   UNL     1      11.631 -13.552   0.643  1.00  0.00     0.059 A 
ATOM     69  F   UNL     1      11.585 -11.219   0.402  1.00  0.00    -0.206 F 
ATOM     70  C   UNL     1      10.943 -14.752   0.815  1.00  0.00     0.060 A 
BRANCH  70  71
ATOM     71  S   UNL     1      11.848 -16.309   0.941  1.00  0.00     0.124 S 
ATOM     72  O   UNL     1      11.761 -16.585   2.371  1.00  0.00    -0.237 OA
ATOM     73  O   UNL     1      11.074 -17.194   0.076  1.00  0.00    -0.237 OA
ATOM     74  O   UNL     1      13.179 -15.968   0.446  1.00  0.00    -0.744 OA
ENDBRANCH  70  71
ENDBRANCH  38  63
ENDBRANCH  12  13
ENDBRANCH   5   7
ENDBRANCH   2   3
ENDBRANCH   1   2
BRANCH   1  75
ATOM     75  C   UNL     1       4.539   3.447  -1.631  1.00  0.00     0.023 C 
BRANCH  75  76
ATOM     76  C   UNL     1       4.890   4.259  -0.390  1.00  0.00     0.116 C 
BRANCH  76  77
ATOM     77  N   UNL     1       6.315   4.286  -0.103  1.00  0.00    -0.351 N 
ATOM     78  C   UNL     1       7.131   5.375   0.106  1.00  0.00     0.270 C 
ATOM     79  H   UNL     1       6.756   3.407  -0.051  1.00  0.00     0.163 HD
ATOM     80  O   UNL     1       8.325   5.221   0.344  1.00  0.00    -0.268 OA
BRANCH  78  81
ATOM     81  C   UNL     1       6.540   6.732   0.065  1.00  0.00     0.134 A 
ATOM     82  C   UNL     1       5.575   7.085   0.965  1.00  0.00     0.063 A 
ATOM     83  N   UNL     1       6.953   7.518  -0.934  1.00  0.00    -0.207 NA
ATOM     84  C   UNL     1       4.975   8.299   0.727  1.00  0.00     0.077 A 
ATOM     85  C   UNL     1       6.365   8.706  -1.076  1.00  0.00     0.230 A 
ATOM     86  N   UNL     1       5.368   9.125  -0.276  1.00  0.00    -0.213 NA
BRANCH  84  87
ATOM     87  C   UNL     1       3.786   8.687   1.499  1.00  0.00     0.000 A 
ATOM     88  C   UNL     1       2.590   9.029   0.847  1.00  0.00     0.010 A 
ATOM     89  C   UNL     1       3.773   8.608   2.904  1.00  0.00     0.010 A 
ATOM     90  C   UNL     1       1.413   9.246   1.570  1.00  0.00     0.001 A 
ATOM     91  C   UNL     1       2.599   8.829   3.628  1.00  0.00     0.001 A 
ATOM     92  C   UNL     1       1.418   9.138   2.959  1.00  0.00     0.000 A 
ENDBRANCH  84  87
BRANCH  85  93
ATOM     93  N   UNL     1       6.838   9.595  -2.039  1.00  0.00    -0.300 N 
ATOM     94  H   UNL     1       6.440  10.494  -2.085  1.00  0.00     0.172 HD
BRANCH  93  95
ATOM     95  C   UNL     1       7.816   9.277  -2.913  1.00  0.00     0.190 A 
ATOM     96  N   UNL     1       7.991   8.093  -3.454  1.00  0.00    -0.220 NA
ATOM     97  S   UNL     1       8.979  10.452  -3.409  1.00  0.00    -0.097 S 
ATOM     98  C   UNL     1       9.206   8.016  -4.096  1.00  0.00     0.084 A 
ATOM     99  C   UNL     1       9.918   9.213  -4.158  1.00  0.00     0.056 A 
ATOM    100  C   UNL     1       9.768   6.851  -4.652  1.00  0.00     0.030 A 
ATOM    101  C   UNL     1      11.190   9.281  -4.752  1.00  0.00     0.021 A 
ATOM    102  C   UNL     1      11.038   6.903  -5.231  1.00  0.00     0.002 A 
ATOM    103  C   UNL     1      11.740   8.103  -5.275  1.00  0.00     0.002 A 
ENDBRANCH  93  95
ENDBRANCH  85  93
ENDBRANCH  78  81
ENDBRANCH  76  77
ENDBRANCH  75  76
ENDBRANCH   1  75
TORSDOF 17
