REMARK SMILES N#CCSc1nnnn1-c1ccc(C(=O)NCCCCNC(=O)c2ccc(-c3c4nc(c(-c5c(F)cc(S(=O)(=O)[O-])cc5F)c5ccc([nH]5)c(-c5c(F)cc(S(=O)(=O)[O-])cc5F)c5nc(c(-c6c(F)cc(S(=O)(=O)[O-])cc6F)c6ccc3[nH]6)C=C5)C=C4)cc2)cc1
REMARK SMILES IDX 18 1 17 2 16 3 14 4 15 5 13 7 10 8 11 9 91 10 12 11 90 12
REMARK SMILES IDX 9 13 5 14 6 15 7 16 8 17 4 18 3 19 2 20 1 21 19 22 20 23
REMARK SMILES IDX 21 24 22 25 23 27 24 28 25 29 89 30 26 31 88 32 27 33 28 34
REMARK SMILES IDX 29 35 82 36 30 37 87 38 81 39 83 40 31 41 86 42 80 43 79 44
REMARK SMILES IDX 32 46 66 47 45 48 65 49 46 50 49 51 64 52 84 53 47 54 48 55
REMARK SMILES IDX 63 57 85 58 50 59 33 60 34 61 43 62 35 63 36 64 42 65 44 66
REMARK SMILES IDX 37 67 38 68 39 69 40 70 41 71 67 72 68 73 77 74 69 75 70 76
REMARK SMILES IDX 76 77 78 78 71 79 72 80 73 81 74 82 75 83 51 84 52 85 61 86
REMARK SMILES IDX 53 87 54 88 60 89 62 90 55 91 56 92 57 93 58 94 59 95
REMARK H PARENT 16 6 21 26 83 45 49 56
REMARK Flexibility Score: inf
ROOT
ATOM      1  C   UNL     1       8.753   7.421  -1.143  1.00  0.00     0.023 C 
ENDROOT
BRANCH   1   2
ATOM      2  C   UNL     1       7.590   7.433  -0.139  1.00  0.00     0.116 C 
BRANCH   2   3
ATOM      3  N   UNL     1       6.507   8.284  -0.595  1.00  0.00    -0.352 N 
ATOM      4  C   UNL     1       5.358   8.050  -1.311  1.00  0.00     0.251 C 
ATOM      5  O   UNL     1       4.639   9.020  -1.555  1.00  0.00    -0.269 OA
ATOM      6  H   UNL     1       6.619   9.228  -0.338  1.00  0.00     0.163 HD
BRANCH   4   7
ATOM      7  C   UNL     1       4.916   6.700  -1.772  1.00  0.00     0.039 A 
ATOM      8  C   UNL     1       3.896   4.179  -2.489  1.00  0.00     0.069 A 
ATOM      9  C   UNL     1       3.041   5.281  -2.462  1.00  0.00     0.029 A 
ATOM     10  C   UNL     1       5.263   4.346  -2.257  1.00  0.00     0.029 A 
ATOM     11  C   UNL     1       3.550   6.527  -2.069  1.00  0.00     0.016 A 
ATOM     12  C   UNL     1       5.768   5.609  -1.947  1.00  0.00     0.016 A 
BRANCH   8  13
ATOM     13  N   UNL     1       3.395   2.893  -2.770  1.00  0.00    -0.187 N 
ATOM     14  C   UNL     1       3.723   1.667  -2.216  1.00  0.00     0.215 A 
ATOM     15  N   UNL     1       3.202   0.712  -2.951  1.00  0.00    -0.101 NA
ATOM     16  N   UNL     1       2.468   1.351  -3.921  1.00  0.00    -0.022 NA
ATOM     17  N   UNL     1       2.520   2.670  -3.777  1.00  0.00    -0.039 NA
BRANCH  14  18
ATOM     18  S   UNL     1       4.492   1.473  -0.672  1.00  0.00    -0.069 SA
BRANCH  18  19
ATOM     19  C   UNL     1       3.738  -0.064  -0.064  1.00  0.00     0.198 C 
BRANCH  19  20
ATOM     20  C   UNL     1       2.218  -0.064  -0.064  1.00  0.00     0.074 C 
ATOM     21  N   UNL     1       0.957  -0.064  -0.064  1.00  0.00    -0.197 NA
ENDBRANCH  19  20
ENDBRANCH  18  19
ENDBRANCH  14  18
ENDBRANCH   8  13
ENDBRANCH   4   7
ENDBRANCH   2   3
ENDBRANCH   1   2
BRANCH   1  22
ATOM     22  C   UNL     1       9.655   8.665  -1.120  1.00  0.00     0.023 C 
BRANCH  22  23
ATOM     23  C   UNL     1      10.528   8.812   0.122  1.00  0.00     0.116 C 
BRANCH  23  24
ATOM     24  N   UNL     1      11.472   7.701   0.296  1.00  0.00    -0.352 N 
ATOM     25  C   UNL     1      12.176   7.333   1.433  1.00  0.00     0.251 C 
ATOM     26  H   UNL     1      11.626   7.143  -0.500  1.00  0.00     0.163 HD
ATOM     27  O   UNL     1      13.204   6.679   1.351  1.00  0.00    -0.269 OA
BRANCH  25  28
ATOM     28  C   UNL     1      11.630   7.718   2.748  1.00  0.00     0.039 A 
ATOM     29  C   UNL     1      12.433   8.132   3.816  1.00  0.00     0.014 A 
ATOM     30  C   UNL     1      10.248   7.678   2.871  1.00  0.00     0.014 A 
ATOM     31  C   UNL     1      11.813   8.572   4.987  1.00  0.00     0.010 A 
ATOM     32  C   UNL     1       9.646   8.307   3.920  1.00  0.00     0.010 A 
ATOM     33  C   UNL     1      10.414   8.660   5.021  1.00  0.00    -0.014 A 
BRANCH  33  34
ATOM     34  C   UNL     1       9.680   9.206   6.153  1.00  0.00     0.031 A 
ATOM     35  C   UNL     1       9.960  10.640   6.417  1.00  0.00     0.074 A 
ATOM     36  C   UNL     1       8.614   8.556   6.674  1.00  0.00     0.049 A 
ATOM     37  N   UNL     1      10.618  11.151   7.404  1.00  0.00    -0.248 NA
ATOM     38  C   UNL     1       9.636  11.615   5.359  1.00  0.00     0.031 C 
ATOM     39  C   UNL     1       8.020   7.285   6.230  1.00  0.00     0.029 A 
ATOM     40  N   UNL     1       7.742   8.959   7.635  1.00  0.00    -0.354 N 
ATOM     41  C   UNL     1      10.533  12.530   7.231  1.00  0.00     0.074 A 
ATOM     42  C   UNL     1      10.179  12.730   5.853  1.00  0.00     0.031 C 
ATOM     43  C   UNL     1       6.779   7.154   6.750  1.00  0.00     0.029 A 
ATOM     44  C   UNL     1       6.552   8.235   7.689  1.00  0.00     0.049 A 
ATOM     45  H   UNL     1       7.937   9.705   8.246  1.00  0.00     0.167 HD
ATOM     46  C   UNL     1      10.451  13.370   8.303  1.00  0.00     0.037 A 
ATOM     47  C   UNL     1       5.454   8.536   8.432  1.00  0.00     0.037 A 
ATOM     48  C   UNL     1      10.788  12.670   9.523  1.00  0.00     0.049 A 
ATOM     49  C   UNL     1       5.903   9.478   9.494  1.00  0.00     0.074 A 
ATOM     50  C   UNL     1      11.884  11.951   9.962  1.00  0.00     0.029 A 
ATOM     51  N   UNL     1       9.750  12.303  10.348  1.00  0.00    -0.354 N 
ATOM     52  N   UNL     1       6.729   9.148  10.450  1.00  0.00    -0.248 NA
ATOM     53  C   UNL     1       5.829  10.901   9.203  1.00  0.00     0.031 C 
ATOM     54  C   UNL     1      11.337  10.845  10.679  1.00  0.00     0.029 A 
ATOM     55  C   UNL     1       9.950  10.997  10.718  1.00  0.00     0.049 A 
ATOM     56  H   UNL     1       8.998  12.875  10.623  1.00  0.00     0.167 HD
ATOM     57  C   UNL     1       7.587  10.232  10.571  1.00  0.00     0.074 A 
ATOM     58  C   UNL     1       6.932  11.314   9.835  1.00  0.00     0.031 C 
ATOM     59  C   UNL     1       8.877  10.067  10.994  1.00  0.00     0.037 A 
BRANCH  46  60
ATOM     60  C   UNL     1       9.687  14.681   8.323  1.00  0.00     0.058 A 
ATOM     61  C   UNL     1       9.779  15.500   9.470  1.00  0.00     0.135 A 
ATOM     62  C   UNL     1       8.669  15.039   7.411  1.00  0.00     0.135 A 
ATOM     63  F   UNL     1      10.713  15.265  10.405  1.00  0.00    -0.206 F 
ATOM     64  C   UNL     1       8.873  16.528   9.733  1.00  0.00     0.059 A 
ATOM     65  C   UNL     1       7.792  16.095   7.627  1.00  0.00     0.059 A 
ATOM     66  F   UNL     1       8.402  14.333   6.307  1.00  0.00    -0.206 F 
ATOM     67  C   UNL     1       7.870  16.805   8.811  1.00  0.00     0.060 A 
BRANCH  67  68
ATOM     68  S   UNL     1       6.637  18.058   9.192  1.00  0.00     0.124 S 
ATOM     69  O   UNL     1       5.904  17.421  10.280  1.00  0.00    -0.237 OA
ATOM     70  O   UNL     1       7.470  19.198   9.561  1.00  0.00    -0.237 OA
ATOM     71  O   UNL     1       5.907  18.202   7.936  1.00  0.00    -0.744 OA
ENDBRANCH  67  68
ENDBRANCH  46  60
BRANCH  47  72
ATOM     72  C   UNL     1       4.016   8.343   8.096  1.00  0.00     0.058 A 
ATOM     73  C   UNL     1       3.011   8.499   9.070  1.00  0.00     0.135 A 
ATOM     74  C   UNL     1       3.575   8.295   6.758  1.00  0.00     0.135 A 
ATOM     75  F   UNL     1       3.338   8.567  10.370  1.00  0.00    -0.206 F 
ATOM     76  C   UNL     1       1.661   8.660   8.736  1.00  0.00     0.059 A 
ATOM     77  C   UNL     1       2.234   8.446   6.401  1.00  0.00     0.059 A 
ATOM     78  F   UNL     1       4.449   8.194   5.746  1.00  0.00    -0.206 F 
ATOM     79  C   UNL     1       1.285   8.658   7.393  1.00  0.00     0.060 A 
BRANCH  79  80
ATOM     80  S   UNL     1      -0.422   9.060   6.943  1.00  0.00     0.124 S 
ATOM     81  O   UNL     1      -1.144   7.883   7.411  1.00  0.00    -0.237 OA
ATOM     82  O   UNL     1      -0.657  10.291   7.690  1.00  0.00    -0.237 OA
ATOM     83  O   UNL     1      -0.360   9.218   5.492  1.00  0.00    -0.744 OA
ENDBRANCH  79  80
ENDBRANCH  47  72
BRANCH  59  84
ATOM     84  C   UNL     1       9.256   8.744  11.615  1.00  0.00     0.058 A 
ATOM     85  C   UNL     1       9.200   7.497  10.962  1.00  0.00     0.135 A 
ATOM     86  C   UNL     1       9.811   8.758  12.903  1.00  0.00     0.135 A 
ATOM     87  F   UNL     1       8.798   7.402   9.688  1.00  0.00    -0.206 F 
ATOM     88  C   UNL     1       9.606   6.316  11.588  1.00  0.00     0.059 A 
ATOM     89  C   UNL     1      10.256   7.599  13.533  1.00  0.00     0.059 A 
ATOM     90  F   UNL     1       9.961   9.922  13.557  1.00  0.00    -0.206 F 
ATOM     91  C   UNL     1      10.126   6.377  12.879  1.00  0.00     0.060 A 
BRANCH  91  92
ATOM     92  S   UNL     1      10.664   4.854  13.686  1.00  0.00     0.124 S 
ATOM     93  O   UNL     1       9.397   4.176  13.935  1.00  0.00    -0.237 OA
ATOM     94  O   UNL     1      11.522   4.244  12.674  1.00  0.00    -0.237 OA
ATOM     95  O   UNL     1      11.363   5.328  14.879  1.00  0.00    -0.744 OA
ENDBRANCH  91  92
ENDBRANCH  59  84
ENDBRANCH  33  34
ENDBRANCH  25  28
ENDBRANCH  23  24
ENDBRANCH  22  23
ENDBRANCH   1  22
TORSDOF 18
