REMARK SMILES O=C(NCCCCNC(=O)c1ccc(-c2c3nc(c(-c4c(F)cc(S(=O)(=O)[O-])cc4F)c4ccc([nH]4)c(-c4c(F)cc(S(=O)(=O)[O-])cc4F)c4nc(c(-c5c(F)cc(S(=O)(=O)[O-])cc5F)c5ccc2[nH]5)C=C4)C=C3)cc1)C1=Cc2cc(C(F)(F)F)ccc2O[C@@H]1C(F)(F)F
REMARK SMILES IDX 6 1 5 2 4 3 3 4 1 5 2 6 77 8 78 9 90 10 79 11 89 12 80 13
REMARK SMILES IDX 88 14 81 15 87 16 86 17 91 18 92 19 93 20 94 21 82 22 83 23
REMARK SMILES IDX 84 24 85 25 7 26 8 27 9 28 10 30 11 31 12 32 76 33 13 34
REMARK SMILES IDX 75 35 14 36 15 37 16 38 69 39 17 40 74 41 68 42 70 43 18 44
REMARK SMILES IDX 73 45 67 46 66 47 19 49 53 50 32 51 52 52 33 53 36 54 51 55
REMARK SMILES IDX 71 56 34 57 35 58 50 60 72 61 37 62 20 63 21 64 30 65 22 66
REMARK SMILES IDX 23 67 29 68 31 69 24 70 25 71 26 72 27 73 28 74 54 75 55 76
REMARK SMILES IDX 64 77 56 78 57 79 63 80 65 81 58 82 59 83 60 84 61 85 62 86
REMARK SMILES IDX 38 87 39 88 48 89 40 90 41 91 47 92 49 93 42 94 43 95 44 96
REMARK SMILES IDX 45 97 46 98
REMARK H PARENT 3 7 8 29 70 48 36 59
REMARK Flexibility Score: inf
ROOT
ATOM      1  C   UNL     1       4.018   2.734   3.532  1.00  0.00     0.023 C 
ENDROOT
BRANCH   1   2
ATOM      2  C   UNL     1       4.248   2.620   2.025  1.00  0.00     0.023 C 
BRANCH   2   3
ATOM      3  C   UNL     1       3.771   1.310   1.395  1.00  0.00     0.116 C 
BRANCH   3   4
ATOM      4  N   UNL     1       2.624   1.459   0.498  1.00  0.00    -0.352 N 
ATOM      5  O   UNL     1       1.179   0.854  -1.134  1.00  0.00    -0.270 OA
ATOM      6  C   UNL     1       2.312   0.798  -0.670  1.00  0.00     0.251 C 
ATOM      7  H   UNL     1       1.969   2.141   0.774  1.00  0.00     0.163 HD
BRANCH   6   8
ATOM      8  C   UNL     1       3.325  -0.113  -1.257  1.00  0.00     0.067 C 
ATOM      9  C   UNL     1       4.514   0.292  -1.726  1.00  0.00     0.025 C 
ATOM     10  C   UNL     1       3.111  -1.582  -1.049  1.00  0.00     0.314 C 
ATOM     11  C   UNL     1       5.619  -0.342  -0.984  1.00  0.00     0.018 A 
ATOM     12  O   UNL     1       4.170  -2.180  -0.261  1.00  0.00    -0.475 OA
ATOM     13  C   UNL     1       6.793   0.390  -0.734  1.00  0.00     0.025 A 
ATOM     14  C   UNL     1       5.368  -1.507  -0.237  1.00  0.00     0.128 A 
ATOM     15  C   UNL     1       7.685  -0.008   0.281  1.00  0.00     0.056 A 
ATOM     16  C   UNL     1       6.287  -1.952   0.711  1.00  0.00     0.048 A 
ATOM     17  C   UNL     1       7.431  -1.198   0.982  1.00  0.00     0.017 A 
BRANCH  10  18
ATOM     18  C   UNL     1       2.973  -2.304  -2.409  1.00  0.00     0.429 C 
ATOM     19  F   UNL     1       2.675  -3.615  -2.242  1.00  0.00    -0.167 F 
ATOM     20  F   UNL     1       1.987  -1.775  -3.173  1.00  0.00    -0.167 F 
ATOM     21  F   UNL     1       4.111  -2.250  -3.146  1.00  0.00    -0.167 F 
ENDBRANCH  10  18
BRANCH  15  22
ATOM     22  C   UNL     1       8.857   0.876   0.647  1.00  0.00     0.416 C 
ATOM     23  F   UNL     1       9.894   0.751  -0.224  1.00  0.00    -0.166 F 
ATOM     24  F   UNL     1       8.521   2.198   0.645  1.00  0.00    -0.166 F 
ATOM     25  F   UNL     1       9.363   0.623   1.882  1.00  0.00    -0.166 F 
ENDBRANCH  15  22
ENDBRANCH   6   8
ENDBRANCH   3   4
ENDBRANCH   2   3
ENDBRANCH   1   2
BRANCH   1  26
ATOM     26  C   UNL     1       4.601   1.620   4.402  1.00  0.00     0.116 C 
BRANCH  26  27
ATOM     27  N   UNL     1       6.041   1.435   4.281  1.00  0.00    -0.352 N 
ATOM     28  C   UNL     1       6.959   1.204   5.282  1.00  0.00     0.251 C 
ATOM     29  H   UNL     1       6.404   1.480   3.367  1.00  0.00     0.163 HD
ATOM     30  O   UNL     1       8.155   1.076   5.012  1.00  0.00    -0.269 OA
BRANCH  28  31
ATOM     31  C   UNL     1       6.507   1.169   6.689  1.00  0.00     0.039 A 
ATOM     32  C   UNL     1       7.102   2.034   7.611  1.00  0.00     0.014 A 
ATOM     33  C   UNL     1       5.429   0.365   7.068  1.00  0.00     0.014 A 
ATOM     34  C   UNL     1       6.539   2.179   8.881  1.00  0.00     0.010 A 
ATOM     35  C   UNL     1       4.824   0.569   8.305  1.00  0.00     0.010 A 
ATOM     36  C   UNL     1       5.358   1.495   9.215  1.00  0.00    -0.014 A 
BRANCH  36  37
ATOM     37  C   UNL     1       4.637   1.773  10.485  1.00  0.00     0.031 A 
ATOM     38  C   UNL     1       4.453   0.686  11.507  1.00  0.00     0.074 A 
ATOM     39  C   UNL     1       4.072   2.982  10.678  1.00  0.00     0.049 A 
ATOM     40  N   UNL     1       3.795   0.718  12.637  1.00  0.00    -0.248 NA
ATOM     41  C   UNL     1       5.064  -0.617  11.204  1.00  0.00     0.031 C 
ATOM     42  C   UNL     1       4.123   4.103   9.735  1.00  0.00     0.029 A 
ATOM     43  N   UNL     1       3.335   3.471  11.729  1.00  0.00    -0.354 N 
ATOM     44  C   UNL     1       3.892  -0.562  13.168  1.00  0.00     0.074 A 
ATOM     45  C   UNL     1       4.632  -1.359  12.213  1.00  0.00     0.031 C 
ATOM     46  C   UNL     1       3.479   5.156  10.265  1.00  0.00     0.029 A 
ATOM     47  C   UNL     1       2.939   4.779  11.567  1.00  0.00     0.049 A 
ATOM     48  H   UNL     1       3.112   2.936  12.524  1.00  0.00     0.167 HD
ATOM     49  C   UNL     1       3.429  -1.027  14.354  1.00  0.00     0.037 A 
ATOM     50  C   UNL     1       2.226   5.584  12.378  1.00  0.00     0.037 A 
ATOM     51  C   UNL     1       2.724  -0.223  15.317  1.00  0.00     0.049 A 
ATOM     52  C   UNL     1       1.741   5.053  13.699  1.00  0.00     0.074 A 
ATOM     53  C   UNL     1       2.276  -0.582  16.576  1.00  0.00     0.029 A 
ATOM     54  N   UNL     1       2.366   1.104  15.128  1.00  0.00    -0.354 N 
ATOM     55  N   UNL     1       1.902   3.857  14.214  1.00  0.00    -0.248 NA
ATOM     56  C   UNL     1       0.982   5.980  14.549  1.00  0.00     0.031 C 
ATOM     57  C   UNL     1       1.620   0.521  17.137  1.00  0.00     0.029 A 
ATOM     58  C   UNL     1       1.690   1.575  16.241  1.00  0.00     0.049 A 
ATOM     59  H   UNL     1       2.564   1.632  14.321  1.00  0.00     0.167 HD
ATOM     60  C   UNL     1       1.288   3.897  15.461  1.00  0.00     0.074 A 
ATOM     61  C   UNL     1       0.758   5.236  15.624  1.00  0.00     0.031 C 
ATOM     62  C   UNL     1       1.176   2.914  16.389  1.00  0.00     0.037 A 
BRANCH  49  63
ATOM     63  C   UNL     1       3.682  -2.475  14.667  1.00  0.00     0.058 A 
ATOM     64  C   UNL     1       4.970  -2.949  14.966  1.00  0.00     0.135 A 
ATOM     65  C   UNL     1       2.628  -3.403  14.660  1.00  0.00     0.135 A 
ATOM     66  F   UNL     1       6.015  -2.106  14.971  1.00  0.00    -0.206 F 
ATOM     67  C   UNL     1       5.213  -4.298  15.199  1.00  0.00     0.059 A 
ATOM     68  C   UNL     1       2.844  -4.754  14.916  1.00  0.00     0.059 A 
ATOM     69  F   UNL     1       1.377  -3.004  14.383  1.00  0.00    -0.206 F 
ATOM     70  C   UNL     1       4.144  -5.195  15.161  1.00  0.00     0.060 A 
BRANCH  70  71
ATOM     71  S   UNL     1       4.476  -6.949  15.430  1.00  0.00     0.124 S 
ATOM     72  O   UNL     1       5.029  -7.338  14.136  1.00  0.00    -0.237 OA
ATOM     73  O   UNL     1       5.422  -6.925  16.541  1.00  0.00    -0.237 OA
ATOM     74  O   UNL     1       3.161  -7.498  15.742  1.00  0.00    -0.744 OA
ENDBRANCH  70  71
ENDBRANCH  49  63
BRANCH  50  75
ATOM     75  C   UNL     1       1.968   6.994  11.986  1.00  0.00     0.058 A 
ATOM     76  C   UNL     1       2.647   8.046  12.620  1.00  0.00     0.135 A 
ATOM     77  C   UNL     1       1.060   7.321  10.968  1.00  0.00     0.135 A 
ATOM     78  F   UNL     1       3.521   7.782  13.604  1.00  0.00    -0.206 F 
ATOM     79  C   UNL     1       2.427   9.373  12.268  1.00  0.00     0.059 A 
ATOM     80  C   UNL     1       0.837   8.640  10.585  1.00  0.00     0.059 A 
ATOM     81  F   UNL     1       0.398   6.350  10.320  1.00  0.00    -0.206 F 
ATOM     82  C   UNL     1       1.520   9.660  11.247  1.00  0.00     0.060 A 
BRANCH  82  83
ATOM     83  S   UNL     1       1.283  11.383  10.758  1.00  0.00     0.124 S 
ATOM     84  O   UNL     1       0.459  11.887  11.851  1.00  0.00    -0.237 OA
ATOM     85  O   UNL     1       2.654  11.881  10.709  1.00  0.00    -0.237 OA
ATOM     86  O   UNL     1       0.619  11.274   9.463  1.00  0.00    -0.744 OA
ENDBRANCH  82  83
ENDBRANCH  50  75
BRANCH  62  87
ATOM     87  C   UNL     1       0.482   3.260  17.675  1.00  0.00     0.058 A 
ATOM     88  C   UNL     1      -0.912   3.393  17.746  1.00  0.00     0.135 A 
ATOM     89  C   UNL     1       1.220   3.418  18.859  1.00  0.00     0.135 A 
ATOM     90  F   UNL     1      -1.661   3.259  16.640  1.00  0.00    -0.206 F 
ATOM     91  C   UNL     1      -1.552   3.690  18.945  1.00  0.00     0.059 A 
ATOM     92  C   UNL     1       0.600   3.694  20.073  1.00  0.00     0.059 A 
ATOM     93  F   UNL     1       2.557   3.292  18.845  1.00  0.00    -0.206 F 
ATOM     94  C   UNL     1      -0.787   3.840  20.103  1.00  0.00     0.060 A 
BRANCH  94  95
ATOM     95  S   UNL     1      -1.629   4.193  21.661  1.00  0.00     0.124 S 
ATOM     96  O   UNL     1      -1.919   5.616  21.521  1.00  0.00    -0.237 OA
ATOM     97  O   UNL     1      -2.783   3.302  21.605  1.00  0.00    -0.237 OA
ATOM     98  O   UNL     1      -0.630   3.851  22.669  1.00  0.00    -0.744 OA
ENDBRANCH  94  95
ENDBRANCH  62  87
ENDBRANCH  36  37
ENDBRANCH  28  31
ENDBRANCH  26  27
ENDBRANCH   1  26
TORSDOF 16
