REMARK SMILES COc1ccc([C@H]2CC(c3ccc(S(C)(=O)=O)cc3)=NN2c2ccc(C(=O)NCCCCNC(=O)c3ccc(-c4c5nc(c(-c6c(F)cc(S(=O)(=O)[O-])cc6F)c6ccc([nH]6)c(-c6c(F)cc(S(=O)(=O)[O-])cc6F)c6nc(c(-c7c(F)cc(S(=O)(=O)[O-])cc7F)c7ccc4[nH]7)C=C6)C=C5)cc3)cc2)cc1OC
REMARK SMILES IDX 30 1 29 2 28 3 26 4 27 5 25 7 22 8 23 9 103 10 24 11 102 12
REMARK SMILES IDX 21 13 7 14 8 15 9 16 20 17 6 18 3 19 4 20 105 21 5 22 104 23
REMARK SMILES IDX 2 24 1 25 106 26 107 27 10 28 11 29 19 30 12 31 18 32 13 33
REMARK SMILES IDX 14 34 15 35 16 36 17 37 31 38 32 39 33 40 34 41 35 43 36 44
REMARK SMILES IDX 37 45 101 46 38 47 100 48 39 49 40 50 41 51 94 52 42 53
REMARK SMILES IDX 99 54 93 55 95 56 43 57 98 58 92 59 91 60 44 62 78 63 57 64
REMARK SMILES IDX 77 65 58 66 61 67 76 68 96 69 59 70 60 71 75 73 97 74 62 75
REMARK SMILES IDX 45 76 46 77 55 78 47 79 48 80 54 81 56 82 49 83 50 84 51 85
REMARK SMILES IDX 52 86 53 87 79 88 80 89 89 90 81 91 82 92 88 93 90 94 83 95
REMARK SMILES IDX 84 96 85 97 86 98 87 99 63 100 64 101 73 102 65 103 66 104
REMARK SMILES IDX 72 105 74 106 67 107 68 108 69 109 70 110 71 111
REMARK H PARENT 28 6 33 42 95 61 61 72
REMARK Flexibility Score: inf
ROOT
ATOM      1  C   UNL     1       1.006  10.488   5.136  1.00  0.00     0.023 C 
ENDROOT
BRANCH   1   2
ATOM      2  C   UNL     1       0.951   9.652   3.856  1.00  0.00     0.116 C 
BRANCH   2   3
ATOM      3  N   UNL     1       2.236   9.675   3.191  1.00  0.00    -0.352 N 
ATOM      4  C   UNL     1       3.299   8.810   3.213  1.00  0.00     0.251 C 
ATOM      5  O   UNL     1       4.287   9.110   2.542  1.00  0.00    -0.269 OA
ATOM      6  H   UNL     1       2.373  10.460   2.612  1.00  0.00     0.163 HD
BRANCH   4   7
ATOM      7  C   UNL     1       3.292   7.514   3.952  1.00  0.00     0.039 A 
ATOM      8  C   UNL     1       3.350   4.955   5.157  1.00  0.00     0.060 A 
ATOM      9  C   UNL     1       4.186   5.258   4.079  1.00  0.00     0.029 A 
ATOM     10  C   UNL     1       2.527   5.961   5.660  1.00  0.00     0.029 A 
ATOM     11  C   UNL     1       4.144   6.513   3.468  1.00  0.00     0.016 A 
ATOM     12  C   UNL     1       2.531   7.240   5.091  1.00  0.00     0.016 A 
BRANCH   8  13
ATOM     13  N   UNL     1       3.387   3.701   5.733  1.00  0.00    -0.257 N 
ATOM     14  C   UNL     1       2.274   2.754   5.777  1.00  0.00     0.144 C 
ATOM     15  C   UNL     1       2.842   1.621   6.649  1.00  0.00     0.091 C 
ATOM     16  C   UNL     1       4.204   2.179   6.953  1.00  0.00     0.071 C 
ATOM     17  N   UNL     1       4.479   3.334   6.440  1.00  0.00    -0.176 NA
BRANCH  14  18
ATOM     18  C   UNL     1       1.887   2.289   4.380  1.00  0.00    -0.019 A 
ATOM     19  C   UNL     1       1.240   1.558   1.731  1.00  0.00     0.160 A 
ATOM     20  C   UNL     1       0.259   2.079   2.588  1.00  0.00     0.051 A 
ATOM     21  C   UNL     1       2.550   1.394   2.189  1.00  0.00     0.161 A 
ATOM     22  C   UNL     1       0.577   2.435   3.905  1.00  0.00     0.010 A 
ATOM     23  C   UNL     1       2.853   1.759   3.507  1.00  0.00     0.056 A 
BRANCH  19  24
ATOM     24  O   UNL     1       0.913   1.365   0.416  1.00  0.00    -0.493 OA
ATOM     25  C   UNL     1       0.112   0.202   0.217  1.00  0.00     0.278 C 
ENDBRANCH  19  24
BRANCH  21  26
ATOM     26  O   UNL     1       3.648   0.946   1.506  1.00  0.00    -0.493 OA
ATOM     27  C   UNL     1       3.447   0.273   0.275  1.00  0.00     0.278 C 
ENDBRANCH  21  26
ENDBRANCH  14  18
BRANCH  16  28
ATOM     28  C   UNL     1       5.157   1.481   7.819  1.00  0.00    -0.002 A 
ATOM     29  C   UNL     1       5.655   2.159   8.937  1.00  0.00     0.011 A 
ATOM     30  C   UNL     1       5.617   0.208   7.482  1.00  0.00     0.011 A 
ATOM     31  C   UNL     1       6.618   1.552   9.740  1.00  0.00     0.021 A 
ATOM     32  C   UNL     1       6.602  -0.391   8.270  1.00  0.00     0.021 A 
ATOM     33  C   UNL     1       7.099   0.286   9.391  1.00  0.00     0.067 A 
BRANCH  33  34
ATOM     34  S   UNL     1       8.358  -0.466  10.395  1.00  0.00     0.175 S 
ATOM     35  C   UNL     1       9.735   0.649  10.282  1.00  0.00     0.163 C 
ATOM     36  O   UNL     1       7.865  -0.450  11.762  1.00  0.00    -0.224 OA
ATOM     37  O   UNL     1       8.747  -1.707   9.760  1.00  0.00    -0.224 OA
ENDBRANCH  33  34
ENDBRANCH  16  28
ENDBRANCH   8  13
ENDBRANCH   4   7
ENDBRANCH   2   3
ENDBRANCH   1   2
BRANCH   1  38
ATOM     38  C   UNL     1       0.908  11.997   4.891  1.00  0.00     0.023 C 
BRANCH  38  39
ATOM     39  C   UNL     1      -0.400  12.454   4.256  1.00  0.00     0.116 C 
BRANCH  39  40
ATOM     40  N   UNL     1      -1.573  12.073   5.030  1.00  0.00    -0.352 N 
ATOM     41  C   UNL     1      -2.750  12.763   5.188  1.00  0.00     0.251 C 
ATOM     42  H   UNL     1      -1.514  11.210   5.500  1.00  0.00     0.163 HD
ATOM     43  O   UNL     1      -3.601  12.362   5.976  1.00  0.00    -0.269 OA
BRANCH  41  44
ATOM     44  C   UNL     1      -2.956  14.011   4.427  1.00  0.00     0.039 A 
ATOM     45  C   UNL     1      -3.350  15.161   5.114  1.00  0.00     0.014 A 
ATOM     46  C   UNL     1      -2.712  14.052   3.052  1.00  0.00     0.014 A 
ATOM     47  C   UNL     1      -3.434  16.374   4.428  1.00  0.00     0.010 A 
ATOM     48  C   UNL     1      -2.728  15.274   2.387  1.00  0.00     0.010 A 
ATOM     49  C   UNL     1      -3.086  16.447   3.069  1.00  0.00    -0.014 A 
BRANCH  49  50
ATOM     50  C   UNL     1      -3.077  17.744   2.346  1.00  0.00     0.031 A 
ATOM     51  C   UNL     1      -4.018  17.972   1.195  1.00  0.00     0.074 A 
ATOM     52  C   UNL     1      -2.174  18.686   2.684  1.00  0.00     0.049 A 
ATOM     53  N   UNL     1      -4.110  19.004   0.398  1.00  0.00    -0.248 NA
ATOM     54  C   UNL     1      -4.961  16.886   0.881  1.00  0.00     0.031 C 
ATOM     55  C   UNL     1      -1.174  18.557   3.748  1.00  0.00     0.029 A 
ATOM     56  N   UNL     1      -1.938  19.932   2.160  1.00  0.00    -0.354 N 
ATOM     57  C   UNL     1      -5.107  18.689  -0.517  1.00  0.00     0.074 A 
ATOM     58  C   UNL     1      -5.555  17.349  -0.209  1.00  0.00     0.031 C 
ATOM     59  C   UNL     1      -0.447  19.684   3.808  1.00  0.00     0.029 A 
ATOM     60  C   UNL     1      -0.899  20.599   2.765  1.00  0.00     0.049 A 
ATOM     61  H   UNL     1      -2.465  20.312   1.420  1.00  0.00     0.167 HD
ATOM     62  C   UNL     1      -5.616  19.456  -1.509  1.00  0.00     0.037 A 
ATOM     63  C   UNL     1      -0.362  21.806   2.501  1.00  0.00     0.037 A 
ATOM     64  C   UNL     1      -5.181  20.799  -1.792  1.00  0.00     0.049 A 
ATOM     65  C   UNL     1      -0.948  22.640   1.393  1.00  0.00     0.074 A 
ATOM     66  C   UNL     1      -5.679  21.684  -2.733  1.00  0.00     0.029 A 
ATOM     67  N   UNL     1      -4.144  21.451  -1.141  1.00  0.00    -0.354 N 
ATOM     68  N   UNL     1      -1.942  22.355   0.585  1.00  0.00    -0.248 NA
ATOM     69  C   UNL     1      -0.347  23.961   1.164  1.00  0.00     0.031 C 
ATOM     70  C   UNL     1      -4.912  22.852  -2.684  1.00  0.00     0.029 A 
ATOM     71  C   UNL     1      -3.971  22.717  -1.676  1.00  0.00     0.049 A 
ATOM     72  H   UNL     1      -3.609  21.070  -0.408  1.00  0.00     0.167 HD
ATOM     73  C   UNL     1      -2.101  23.471  -0.230  1.00  0.00     0.074 A 
ATOM     74  C   UNL     1      -1.112  24.441   0.193  1.00  0.00     0.031 C 
ATOM     75  C   UNL     1      -2.986  23.675  -1.238  1.00  0.00     0.037 A 
BRANCH  62  76
ATOM     76  C   UNL     1      -6.707  18.868  -2.361  1.00  0.00     0.058 A 
ATOM     77  C   UNL     1      -7.998  18.644  -1.856  1.00  0.00     0.135 A 
ATOM     78  C   UNL     1      -6.474  18.570  -3.714  1.00  0.00     0.135 A 
ATOM     79  F   UNL     1      -8.273  18.894  -0.566  1.00  0.00    -0.206 F 
ATOM     80  C   UNL     1      -9.012  18.125  -2.655  1.00  0.00     0.059 A 
ATOM     81  C   UNL     1      -7.482  18.078  -4.539  1.00  0.00     0.059 A 
ATOM     82  F   UNL     1      -5.258  18.763  -4.249  1.00  0.00    -0.206 F 
ATOM     83  C   UNL     1      -8.745  17.848  -3.996  1.00  0.00     0.060 A 
BRANCH  83  84
ATOM     84  S   UNL     1     -10.079  17.195  -5.022  1.00  0.00     0.124 S 
ATOM     85  O   UNL     1     -10.202  15.835  -4.508  1.00  0.00    -0.237 OA
ATOM     86  O   UNL     1     -11.184  18.094  -4.705  1.00  0.00    -0.237 OA
ATOM     87  O   UNL     1      -9.553  17.308  -6.378  1.00  0.00    -0.744 OA
ENDBRANCH  83  84
ENDBRANCH  62  76
BRANCH  63  88
ATOM     88  C   UNL     1       0.786  22.305   3.305  1.00  0.00     0.058 A 
ATOM     89  C   UNL     1       0.635  23.382   4.192  1.00  0.00     0.135 A 
ATOM     90  C   UNL     1       2.056  21.716   3.205  1.00  0.00     0.135 A 
ATOM     91  F   UNL     1      -0.558  23.982   4.320  1.00  0.00    -0.206 F 
ATOM     92  C   UNL     1       1.705  23.872   4.933  1.00  0.00     0.059 A 
ATOM     93  C   UNL     1       3.135  22.171   3.956  1.00  0.00     0.059 A 
ATOM     94  F   UNL     1       2.251  20.672   2.385  1.00  0.00    -0.206 F 
ATOM     95  C   UNL     1       2.952  23.259   4.808  1.00  0.00     0.060 A 
BRANCH  95  96
ATOM     96  S   UNL     1       4.326  23.881   5.802  1.00  0.00     0.124 S 
ATOM     97  O   UNL     1       4.631  25.137   5.127  1.00  0.00    -0.237 OA
ATOM     98  O   UNL     1       3.720  23.997   7.125  1.00  0.00    -0.237 OA
ATOM     99  O   UNL     1       5.334  22.833   5.673  1.00  0.00    -0.744 OA
ENDBRANCH  95  96
ENDBRANCH  63  88
BRANCH  75 100
ATOM    100  C   UNL     1      -2.951  25.009  -1.931  1.00  0.00     0.058 A 
ATOM    101  C   UNL     1      -1.910  25.361  -2.804  1.00  0.00     0.135 A 
ATOM    102  C   UNL     1      -4.002  25.924  -1.761  1.00  0.00     0.135 A 
ATOM    103  F   UNL     1      -0.878  24.525  -2.997  1.00  0.00    -0.206 F 
ATOM    104  C   UNL     1      -1.899  26.585  -3.465  1.00  0.00     0.059 A 
ATOM    105  C   UNL     1      -4.027  27.141  -2.435  1.00  0.00     0.059 A 
ATOM    106  F   UNL     1      -5.029  25.632  -0.946  1.00  0.00    -0.206 F 
ATOM    107  C   UNL     1      -2.965  27.468  -3.276  1.00  0.00     0.060 A 
BRANCH 107 108
ATOM    108  S   UNL     1      -2.956  29.038  -4.166  1.00  0.00     0.124 S 
ATOM    109  O   UNL     1      -1.933  29.782  -3.439  1.00  0.00    -0.237 OA
ATOM    110  O   UNL     1      -2.599  28.627  -5.521  1.00  0.00    -0.237 OA
ATOM    111  O   UNL     1      -4.322  29.528  -4.005  1.00  0.00    -0.744 OA
ENDBRANCH 107 108
ENDBRANCH  75 100
ENDBRANCH  49  50
ENDBRANCH  41  44
ENDBRANCH  39  40
ENDBRANCH  38  39
ENDBRANCH   1  38
TORSDOF 20
