REMARK SMILES O=C(NCCCCNC(=O)[C@H]1[C@H]2CC[C@H](CC2)[C@H]1C(=O)Nc1ccc(C(=O)N2CCCC2)cc1)c1ccc(-c2c3nc(c(-c4c(F)cc(S(=O)(=O)[O-])cc4F)c4ccc([nH]4)c(-c4c(F)cc(S(=O)(=O)[O-])cc4F)c4nc(c(-c5c(F)cc(S(=O)(=O)[O-])cc5F)c5ccc2[nH]5)C=C4)C=C3)cc1
REMARK SMILES IDX 5 1 4 2 3 3 1 4 2 5 35 7 36 8 100 9 37 10 99 11 38 12 39 13
REMARK SMILES IDX 40 14 93 15 41 16 98 17 92 18 94 19 42 20 97 21 91 22 90 23
REMARK SMILES IDX 43 25 77 26 56 27 76 28 57 29 60 30 75 31 95 32 58 33 59 34
REMARK SMILES IDX 74 36 96 37 61 38 44 39 45 40 54 41 46 42 47 43 53 44 55 45
REMARK SMILES IDX 48 46 49 47 50 48 51 49 52 50 78 51 79 52 88 53 80 54 81 55
REMARK SMILES IDX 87 56 89 57 82 58 83 59 84 60 85 61 86 62 62 63 63 64 72 65
REMARK SMILES IDX 64 66 65 67 71 68 73 69 66 70 67 71 68 72 69 73 70 74 6 75
REMARK SMILES IDX 7 76 8 77 9 78 10 80 11 81 12 82 18 83 17 84 13 85 15 86
REMARK SMILES IDX 16 87 14 88 19 89 20 90 21 91 22 93 23 94 34 95 24 96 33 97
REMARK SMILES IDX 25 98 26 99 27 100 28 101 29 102 32 103 30 104 31 105
REMARK H PARENT 3 6 94 24 60 35 8 79 21 92
REMARK Flexibility Score: inf
ROOT
ATOM      1  C   UNL     1       5.318  -0.691  -2.885  1.00  0.00     0.023 C 
ENDROOT
BRANCH   1   2
ATOM      2  C   UNL     1       5.043  -0.219  -1.454  1.00  0.00     0.116 C 
BRANCH   2   3
ATOM      3  N   UNL     1       3.635   0.068  -1.223  1.00  0.00    -0.352 N 
ATOM      4  O   UNL     1       1.602  -0.075  -0.252  1.00  0.00    -0.269 OA
ATOM      5  C   UNL     1       2.791  -0.328  -0.207  1.00  0.00     0.251 C 
ATOM      6  H   UNL     1       3.215   0.639  -1.907  1.00  0.00     0.163 HD
BRANCH   5   7
ATOM      7  C   UNL     1       3.355  -1.115   0.900  1.00  0.00     0.039 A 
ATOM      8  C   UNL     1       4.503  -0.660   1.543  1.00  0.00     0.014 A 
ATOM      9  C   UNL     1       2.789  -2.356   1.211  1.00  0.00     0.014 A 
ATOM     10  C   UNL     1       5.194  -1.532   2.362  1.00  0.00     0.010 A 
ATOM     11  C   UNL     1       3.442  -3.197   2.111  1.00  0.00     0.010 A 
ATOM     12  C   UNL     1       4.676  -2.809   2.649  1.00  0.00    -0.014 A 
BRANCH  12  13
ATOM     13  C   UNL     1       5.471  -3.686   3.537  1.00  0.00     0.031 A 
ATOM     14  C   UNL     1       6.142  -4.919   3.003  1.00  0.00     0.074 A 
ATOM     15  C   UNL     1       5.691  -3.250   4.792  1.00  0.00     0.049 A 
ATOM     16  N   UNL     1       6.995  -5.708   3.599  1.00  0.00    -0.248 NA
ATOM     17  C   UNL     1       5.816  -5.324   1.625  1.00  0.00     0.031 C 
ATOM     18  C   UNL     1       5.068  -2.060   5.382  1.00  0.00     0.029 A 
ATOM     19  N   UNL     1       6.536  -3.700   5.767  1.00  0.00    -0.354 N 
ATOM     20  C   UNL     1       7.301  -6.706   2.681  1.00  0.00     0.074 A 
ATOM     21  C   UNL     1       6.524  -6.438   1.491  1.00  0.00     0.031 C 
ATOM     22  C   UNL     1       5.620  -1.823   6.579  1.00  0.00     0.029 A 
ATOM     23  C   UNL     1       6.580  -2.880   6.869  1.00  0.00     0.049 A 
ATOM     24  H   UNL     1       7.061  -4.530   5.688  1.00  0.00     0.167 HD
ATOM     25  C   UNL     1       8.159  -7.745   2.826  1.00  0.00     0.037 A 
ATOM     26  C   UNL     1       7.315  -2.972   7.992  1.00  0.00     0.037 A 
ATOM     27  C   UNL     1       8.925  -7.980   4.024  1.00  0.00     0.049 A 
ATOM     28  C   UNL     1       8.275  -4.118   8.112  1.00  0.00     0.074 A 
ATOM     29  C   UNL     1       9.798  -9.016   4.304  1.00  0.00     0.029 A 
ATOM     30  N   UNL     1       8.915  -7.153   5.140  1.00  0.00    -0.354 N 
ATOM     31  N   UNL     1       8.530  -5.068   7.242  1.00  0.00    -0.248 NA
ATOM     32  C   UNL     1       9.038  -4.214   9.359  1.00  0.00     0.031 C 
ATOM     33  C   UNL     1      10.296  -8.829   5.600  1.00  0.00     0.029 A 
ATOM     34  C   UNL     1       9.763  -7.656   6.112  1.00  0.00     0.049 A 
ATOM     35  H   UNL     1       8.383  -6.329   5.227  1.00  0.00     0.167 HD
ATOM     36  C   UNL     1       9.471  -5.889   7.845  1.00  0.00     0.074 A 
ATOM     37  C   UNL     1       9.775  -5.293   9.133  1.00  0.00     0.031 C 
ATOM     38  C   UNL     1      10.022  -7.042   7.390  1.00  0.00     0.037 A 
BRANCH  25  39
ATOM     39  C   UNL     1       8.296  -8.709   1.679  1.00  0.00     0.058 A 
ATOM     40  C   UNL     1       8.987  -8.367   0.506  1.00  0.00     0.135 A 
ATOM     41  C   UNL     1       7.758 -10.004   1.765  1.00  0.00     0.135 A 
ATOM     42  F   UNL     1       9.502  -7.136   0.359  1.00  0.00    -0.206 F 
ATOM     43  C   UNL     1       9.128  -9.268  -0.547  1.00  0.00     0.059 A 
ATOM     44  C   UNL     1       7.904 -10.928   0.733  1.00  0.00     0.059 A 
ATOM     45  F   UNL     1       7.081 -10.382   2.860  1.00  0.00    -0.206 F 
ATOM     46  C   UNL     1       8.582 -10.547  -0.424  1.00  0.00     0.060 A 
BRANCH  46  47
ATOM     47  S   UNL     1       8.778 -11.707  -1.795  1.00  0.00     0.124 S 
ATOM     48  O   UNL     1       7.842 -11.162  -2.773  1.00  0.00    -0.237 OA
ATOM     49  O   UNL     1      10.193 -11.565  -2.125  1.00  0.00    -0.237 OA
ATOM     50  O   UNL     1       8.400 -12.991  -1.212  1.00  0.00    -0.744 OA
ENDBRANCH  46  47
ENDBRANCH  25  39
BRANCH  26  51
ATOM     51  C   UNL     1       7.138  -1.970   9.075  1.00  0.00     0.058 A 
ATOM     52  C   UNL     1       8.146  -1.053   9.402  1.00  0.00     0.135 A 
ATOM     53  C   UNL     1       5.926  -1.888   9.780  1.00  0.00     0.135 A 
ATOM     54  F   UNL     1       9.321  -1.088   8.756  1.00  0.00    -0.206 F 
ATOM     55  C   UNL     1       7.965  -0.098  10.399  1.00  0.00     0.059 A 
ATOM     56  C   UNL     1       5.710  -0.925  10.758  1.00  0.00     0.059 A 
ATOM     57  F   UNL     1       4.920  -2.729   9.490  1.00  0.00    -0.206 F 
ATOM     58  C   UNL     1       6.742  -0.042  11.071  1.00  0.00     0.060 A 
BRANCH  58  59
ATOM     59  S   UNL     1       6.488   1.228  12.330  1.00  0.00     0.124 S 
ATOM     60  O   UNL     1       7.187   0.649  13.471  1.00  0.00    -0.237 OA
ATOM     61  O   UNL     1       7.114   2.398  11.723  1.00  0.00    -0.237 OA
ATOM     62  O   UNL     1       5.034   1.294  12.446  1.00  0.00    -0.744 OA
ENDBRANCH  58  59
ENDBRANCH  26  51
BRANCH  38  63
ATOM     63  C   UNL     1      10.991  -7.721   8.311  1.00  0.00     0.058 A 
ATOM     64  C   UNL     1      10.547  -8.408   9.451  1.00  0.00     0.135 A 
ATOM     65  C   UNL     1      12.369  -7.683   8.053  1.00  0.00     0.135 A 
ATOM     66  F   UNL     1       9.238  -8.464   9.741  1.00  0.00    -0.206 F 
ATOM     67  C   UNL     1      11.444  -9.004  10.329  1.00  0.00     0.059 A 
ATOM     68  C   UNL     1      13.281  -8.293   8.905  1.00  0.00     0.059 A 
ATOM     69  F   UNL     1      12.837  -7.045   6.969  1.00  0.00    -0.206 F 
ATOM     70  C   UNL     1      12.810  -8.934  10.051  1.00  0.00     0.060 A 
BRANCH  70  71
ATOM     71  S   UNL     1      13.968  -9.706  11.199  1.00  0.00     0.124 S 
ATOM     72  O   UNL     1      14.014  -8.719  12.273  1.00  0.00    -0.237 OA
ATOM     73  O   UNL     1      13.303 -10.964  11.521  1.00  0.00    -0.237 OA
ATOM     74  O   UNL     1      15.190  -9.834  10.410  1.00  0.00    -0.744 OA
ENDBRANCH  70  71
ENDBRANCH  38  63
ENDBRANCH  12  13
ENDBRANCH   5   7
ENDBRANCH   2   3
ENDBRANCH   1   2
BRANCH   1  75
ATOM     75  C   UNL     1       4.795   0.186  -4.039  1.00  0.00     0.023 C 
BRANCH  75  76
ATOM     76  C   UNL     1       5.164   1.665  -3.976  1.00  0.00     0.116 C 
BRANCH  76  77
ATOM     77  N   UNL     1       6.388   2.041  -4.633  1.00  0.00    -0.356 N 
ATOM     78  C   UNL     1       6.952   3.283  -4.630  1.00  0.00     0.224 C 
ATOM     79  H   UNL     1       6.862   1.336  -5.131  1.00  0.00     0.163 HD
ATOM     80  O   UNL     1       8.178   3.307  -4.472  1.00  0.00    -0.275 OA
BRANCH  78  81
ATOM     81  C   UNL     1       6.227   4.576  -5.040  1.00  0.00     0.094 C 
ATOM     82  C   UNL     1       4.703   4.832  -5.249  1.00  0.00     0.002 C 
ATOM     83  C   UNL     1       6.916   5.885  -4.573  1.00  0.00     0.094 C 
ATOM     84  C   UNL     1       4.040   5.646  -4.121  1.00  0.00     0.005 C 
ATOM     85  C   UNL     1       4.568   5.756  -6.491  1.00  0.00     0.005 C 
ATOM     86  C   UNL     1       5.957   7.089  -4.829  1.00  0.00     0.002 C 
ATOM     87  C   UNL     1       4.722   7.006  -3.932  1.00  0.00     0.005 C 
ATOM     88  C   UNL     1       5.430   7.020  -6.289  1.00  0.00     0.005 C 
BRANCH  83  89
ATOM     89  C   UNL     1       7.779   6.048  -3.286  1.00  0.00     0.228 C 
ATOM     90  O   UNL     1       8.926   6.510  -3.428  1.00  0.00    -0.274 OA
ATOM     91  N   UNL     1       7.357   5.981  -1.989  1.00  0.00    -0.326 N 
ATOM     92  H   UNL     1       7.978   6.410  -1.357  1.00  0.00     0.169 HD
BRANCH  91  93
ATOM     93  C   UNL     1       6.233   5.434  -1.371  1.00  0.00     0.041 A 
ATOM     94  C   UNL     1       5.521   6.198  -0.450  1.00  0.00     0.027 A 
ATOM     95  C   UNL     1       5.819   4.136  -1.600  1.00  0.00     0.027 A 
ATOM     96  C   UNL     1       4.229   5.797  -0.079  1.00  0.00     0.016 A 
ATOM     97  C   UNL     1       4.553   3.705  -1.160  1.00  0.00     0.016 A 
ATOM     98  C   UNL     1       3.680   4.598  -0.557  1.00  0.00     0.040 A 
BRANCH  98  99
ATOM     99  C   UNL     1       2.182   4.469  -0.528  1.00  0.00     0.253 C 
ATOM    100  O   UNL     1       1.591   5.117   0.339  1.00  0.00    -0.269 OA
ATOM    101  N   UNL     1       1.464   3.842  -1.550  1.00  0.00    -0.339 N 
ATOM    102  C   UNL     1       1.827   2.799  -2.487  1.00  0.00     0.120 C 
ATOM    103  C   UNL     1       0.059   4.182  -1.734  1.00  0.00     0.120 C 
ATOM    104  C   UNL     1       0.790   2.859  -3.594  1.00  0.00     0.023 C 
ATOM    105  C   UNL     1      -0.463   3.262  -2.836  1.00  0.00     0.023 C 
ENDBRANCH  98  99
ENDBRANCH  91  93
ENDBRANCH  83  89
ENDBRANCH  78  81
ENDBRANCH  76  77
ENDBRANCH  75  76
ENDBRANCH   1  75
TORSDOF 17
