REMARK SMILES COc1ccc([C@H]2CC(c3ccc(S(C)(=O)=O)cc3)=NN2c2ccc(C(=O)NCCCCNC(=O)c3ccc(-c4c5nc(c(-c6c(F)cc(S(=O)(=O)[O-])cc6F)c6ccc([nH]6)c(-c6c(F)cc(S(=O)(=O)[O-])cc6F)c6nc(c(-c7c(F)cc(S(=O)(=O)[O-])cc7F)c7ccc4[nH]7)C=C6)C=C5)cc3)cc2)cc1
REMARK SMILES IDX 30 1 29 2 28 3 26 4 27 5 25 7 22 8 23 9 103 10 24 11 102 12
REMARK SMILES IDX 21 13 7 14 8 15 9 16 20 17 6 18 3 19 4 20 105 21 5 22 104 23
REMARK SMILES IDX 2 24 1 25 10 26 11 27 19 28 12 29 18 30 13 31 14 32 15 33
REMARK SMILES IDX 16 34 17 35 31 36 32 37 33 38 34 39 35 41 36 42 37 43 101 44
REMARK SMILES IDX 38 45 100 46 39 47 40 48 41 49 94 50 42 51 99 52 93 53 95 54
REMARK SMILES IDX 43 55 98 56 92 57 91 58 44 60 78 61 57 62 77 63 58 64 61 65
REMARK SMILES IDX 76 66 96 67 59 68 60 69 75 71 97 72 62 73 45 74 46 75 55 76
REMARK SMILES IDX 47 77 48 78 54 79 56 80 49 81 50 82 51 83 52 84 53 85 79 86
REMARK SMILES IDX 80 87 89 88 81 89 82 90 88 91 90 92 83 93 84 94 85 95 86 96
REMARK SMILES IDX 87 97 63 98 64 99 73 100 65 101 66 102 72 103 74 104 67 105
REMARK SMILES IDX 68 106 69 107 70 108 71 109
REMARK H PARENT 28 6 33 40 95 59 61 70
REMARK Flexibility Score: inf
ROOT
ATOM      1  C   UNL     1      -0.008 -11.432   5.181  1.00  0.00     0.023 C 
ENDROOT
BRANCH   1   2
ATOM      2  C   UNL     1       0.321 -10.009   5.640  1.00  0.00     0.116 C 
BRANCH   2   3
ATOM      3  N   UNL     1       1.713  -9.917   6.034  1.00  0.00    -0.352 N 
ATOM      4  C   UNL     1       2.833  -9.469   5.384  1.00  0.00     0.251 C 
ATOM      5  O   UNL     1       3.900  -9.521   5.999  1.00  0.00    -0.269 OA
ATOM      6  H   UNL     1       1.887 -10.240   6.948  1.00  0.00     0.163 HD
BRANCH   4   7
ATOM      7  C   UNL     1       2.821  -8.882   4.013  1.00  0.00     0.039 A 
ATOM      8  C   UNL     1       2.941  -7.612   1.471  1.00  0.00     0.060 A 
ATOM      9  C   UNL     1       3.931  -7.394   2.434  1.00  0.00     0.029 A 
ATOM     10  C   UNL     1       1.924  -8.520   1.780  1.00  0.00     0.029 A 
ATOM     11  C   UNL     1       3.863  -8.001   3.693  1.00  0.00     0.016 A 
ATOM     12  C   UNL     1       1.885  -9.176   3.020  1.00  0.00     0.016 A 
BRANCH   8  13
ATOM     13  N   UNL     1       3.033  -6.988   0.233  1.00  0.00    -0.257 N 
ATOM     14  C   UNL     1       1.893  -6.432  -0.499  1.00  0.00     0.144 C 
ATOM     15  C   UNL     1       2.369  -6.451  -1.956  1.00  0.00     0.091 C 
ATOM     16  C   UNL     1       3.739  -7.028  -1.774  1.00  0.00     0.071 C 
ATOM     17  N   UNL     1       4.091  -7.319  -0.564  1.00  0.00    -0.176 NA
BRANCH  14  18
ATOM     18  C   UNL     1       1.555  -5.018  -0.049  1.00  0.00    -0.023 A 
ATOM     19  C   UNL     1       0.856  -2.359   0.566  1.00  0.00     0.118 A 
ATOM     20  C   UNL     1      -0.108  -3.365   0.601  1.00  0.00     0.047 A 
ATOM     21  C   UNL     1       2.183  -2.684   0.292  1.00  0.00     0.047 A 
ATOM     22  C   UNL     1       0.234  -4.683   0.286  1.00  0.00     0.010 A 
ATOM     23  C   UNL     1       2.529  -4.005  -0.010  1.00  0.00     0.010 A 
BRANCH  19  24
ATOM     24  O   UNL     1       0.422  -1.095   0.861  1.00  0.00    -0.497 OA
ATOM     25  C   UNL     1       0.973  -0.086   0.017  1.00  0.00     0.278 C 
ENDBRANCH  19  24
ENDBRANCH  14  18
BRANCH  16  26
ATOM     26  C   UNL     1       4.589  -7.281  -2.934  1.00  0.00    -0.002 A 
ATOM     27  C   UNL     1       4.695  -8.585  -3.426  1.00  0.00     0.011 A 
ATOM     28  C   UNL     1       5.269  -6.219  -3.531  1.00  0.00     0.011 A 
ATOM     29  C   UNL     1       5.485  -8.829  -4.548  1.00  0.00     0.021 A 
ATOM     30  C   UNL     1       6.074  -6.465  -4.644  1.00  0.00     0.021 A 
ATOM     31  C   UNL     1       6.178  -7.769  -5.144  1.00  0.00     0.067 A 
BRANCH  31  32
ATOM     32  S   UNL     1       7.179  -8.087  -6.579  1.00  0.00     0.175 S 
ATOM     33  C   UNL     1       8.458  -9.162  -5.984  1.00  0.00     0.163 C 
ATOM     34  O   UNL     1       6.352  -8.827  -7.511  1.00  0.00    -0.224 OA
ATOM     35  O   UNL     1       7.803  -6.836  -6.967  1.00  0.00    -0.224 OA
ENDBRANCH  31  32
ENDBRANCH  16  26
ENDBRANCH   8  13
ENDBRANCH   4   7
ENDBRANCH   2   3
ENDBRANCH   1   2
BRANCH   1  36
ATOM     36  C   UNL     1      -0.211 -12.425   6.332  1.00  0.00     0.023 C 
BRANCH  36  37
ATOM     37  C   UNL     1      -1.394 -12.116   7.246  1.00  0.00     0.116 C 
BRANCH  37  38
ATOM     38  N   UNL     1      -2.661 -12.044   6.534  1.00  0.00    -0.352 N 
ATOM     39  C   UNL     1      -3.913 -12.390   6.980  1.00  0.00     0.251 C 
ATOM     40  H   UNL     1      -2.614 -11.703   5.612  1.00  0.00     0.163 HD
ATOM     41  O   UNL     1      -4.866 -12.376   6.207  1.00  0.00    -0.269 OA
BRANCH  39  42
ATOM     42  C   UNL     1      -4.092 -12.816   8.383  1.00  0.00     0.039 A 
ATOM     43  C   UNL     1      -4.795 -13.995   8.643  1.00  0.00     0.014 A 
ATOM     44  C   UNL     1      -3.543 -12.074   9.432  1.00  0.00     0.014 A 
ATOM     45  C   UNL     1      -4.893 -14.463   9.954  1.00  0.00     0.010 A 
ATOM     46  C   UNL     1      -3.584 -12.578  10.729  1.00  0.00     0.010 A 
ATOM     47  C   UNL     1      -4.258 -13.777  11.002  1.00  0.00    -0.014 A 
BRANCH  47  48
ATOM     48  C   UNL     1      -4.285 -14.305  12.389  1.00  0.00     0.031 A 
ATOM     49  C   UNL     1      -4.985 -13.539  13.478  1.00  0.00     0.074 A 
ATOM     50  C   UNL     1      -3.631 -15.448  12.677  1.00  0.00     0.049 A 
ATOM     51  N   UNL     1      -5.081 -13.817  14.752  1.00  0.00    -0.248 NA
ATOM     52  C   UNL     1      -5.642 -12.282  13.086  1.00  0.00     0.031 C 
ATOM     53  C   UNL     1      -2.874 -16.254  11.716  1.00  0.00     0.029 A 
ATOM     54  N   UNL     1      -3.494 -16.128  13.860  1.00  0.00    -0.354 N 
ATOM     55  C   UNL     1      -5.800 -12.770  15.316  1.00  0.00     0.074 A 
ATOM     56  C   UNL     1      -6.064 -11.822  14.255  1.00  0.00     0.031 C 
ATOM     57  C   UNL     1      -2.379 -17.334  12.341  1.00  0.00     0.029 A 
ATOM     58  C   UNL     1      -2.752 -17.281  13.751  1.00  0.00     0.049 A 
ATOM     59  H   UNL     1      -3.889 -15.820  14.707  1.00  0.00     0.167 HD
ATOM     60  C   UNL     1      -6.226 -12.624  16.594  1.00  0.00     0.037 A 
ATOM     61  C   UNL     1      -2.412 -18.192  14.683  1.00  0.00     0.037 A 
ATOM     62  C   UNL     1      -5.973 -13.579  17.641  1.00  0.00     0.049 A 
ATOM     63  C   UNL     1      -2.890 -18.005  16.098  1.00  0.00     0.074 A 
ATOM     64  C   UNL     1      -6.399 -13.549  18.957  1.00  0.00     0.029 A 
ATOM     65  N   UNL     1      -5.225 -14.739  17.491  1.00  0.00    -0.354 N 
ATOM     66  N   UNL     1      -3.620 -17.038  16.601  1.00  0.00    -0.248 NA
ATOM     67  C   UNL     1      -2.503 -19.037  17.069  1.00  0.00     0.031 C 
ATOM     68  C   UNL     1      -5.877 -14.670  19.613  1.00  0.00     0.029 A 
ATOM     69  C   UNL     1      -5.163 -15.423  18.694  1.00  0.00     0.049 A 
ATOM     70  H   UNL     1      -4.801 -15.032  16.652  1.00  0.00     0.167 HD
ATOM     71  C   UNL     1      -3.802 -17.358  17.941  1.00  0.00     0.074 A 
ATOM     72  C   UNL     1      -3.117 -18.615  18.166  1.00  0.00     0.031 C 
ATOM     73  C   UNL     1      -4.476 -16.674  18.900  1.00  0.00     0.037 A 
BRANCH  60  74
ATOM     74  C   UNL     1      -7.014 -11.386  16.922  1.00  0.00     0.058 A 
ATOM     75  C   UNL     1      -8.317 -11.193  16.431  1.00  0.00     0.135 A 
ATOM     76  C   UNL     1      -6.472 -10.385  17.743  1.00  0.00     0.135 A 
ATOM     77  F   UNL     1      -8.879 -12.110  15.628  1.00  0.00    -0.206 F 
ATOM     78  C   UNL     1      -9.037 -10.036  16.709  1.00  0.00     0.059 A 
ATOM     79  C   UNL     1      -7.186  -9.232  18.059  1.00  0.00     0.059 A 
ATOM     80  F   UNL     1      -5.232 -10.517  18.241  1.00  0.00    -0.206 F 
ATOM     81  C   UNL     1      -8.460  -9.058  17.521  1.00  0.00     0.060 A 
BRANCH  81  82
ATOM     82  S   UNL     1      -9.402  -7.556  17.862  1.00  0.00     0.124 S 
ATOM     83  O   UNL     1      -9.299  -6.854  16.587  1.00  0.00    -0.237 OA
ATOM     84  O   UNL     1     -10.723  -8.082  18.190  1.00  0.00    -0.237 OA
ATOM     85  O   UNL     1      -8.679  -6.947  18.974  1.00  0.00    -0.744 OA
ENDBRANCH  81  82
ENDBRANCH  60  74
BRANCH  61  86
ATOM     86  C   UNL     1      -1.608 -19.383  14.301  1.00  0.00     0.058 A 
ATOM     87  C   UNL     1      -2.189 -20.659  14.265  1.00  0.00     0.135 A 
ATOM     88  C   UNL     1      -0.254 -19.271  13.953  1.00  0.00     0.135 A 
ATOM     89  F   UNL     1      -3.480 -20.817  14.595  1.00  0.00    -0.206 F 
ATOM     90  C   UNL     1      -1.454 -21.786  13.913  1.00  0.00     0.059 A 
ATOM     91  C   UNL     1       0.497 -20.380  13.573  1.00  0.00     0.059 A 
ATOM     92  F   UNL     1       0.345 -18.070  13.954  1.00  0.00    -0.206 F 
ATOM     93  C   UNL     1      -0.110 -21.636  13.566  1.00  0.00     0.060 A 
BRANCH  93  94
ATOM     94  S   UNL     1       0.822 -23.098  13.063  1.00  0.00     0.124 S 
ATOM     95  O   UNL     1       1.016 -23.777  14.339  1.00  0.00    -0.237 OA
ATOM     96  O   UNL     1      -0.097 -23.742  12.130  1.00  0.00    -0.237 OA
ATOM     97  O   UNL     1       2.025 -22.535  12.457  1.00  0.00    -0.744 OA
ENDBRANCH  93  94
ENDBRANCH  61  86
BRANCH  73  98
ATOM     98  C   UNL     1      -4.528 -17.288  20.272  1.00  0.00     0.058 A 
ATOM     99  C   UNL     1      -3.404 -17.315  21.111  1.00  0.00     0.135 A 
ATOM    100  C   UNL     1      -5.728 -17.826  20.765  1.00  0.00     0.135 A 
ATOM    101  F   UNL     1      -2.231 -16.819  20.686  1.00  0.00    -0.206 F 
ATOM    102  C   UNL     1      -3.458 -17.884  22.379  1.00  0.00     0.059 A 
ATOM    103  C   UNL     1      -5.812 -18.375  22.040  1.00  0.00     0.059 A 
ATOM    104  F   UNL     1      -6.836 -17.815  20.007  1.00  0.00    -0.206 F 
ATOM    105  C   UNL     1      -4.667 -18.413  22.835  1.00  0.00     0.060 A 
BRANCH 105 106
ATOM    106  S   UNL     1      -4.731 -19.132  24.489  1.00  0.00     0.124 S 
ATOM    107  O   UNL     1      -4.050 -20.406  24.282  1.00  0.00    -0.237 OA
ATOM    108  O   UNL     1      -4.005 -18.148  25.287  1.00  0.00    -0.237 OA
ATOM    109  O   UNL     1      -6.161 -19.221  24.766  1.00  0.00    -0.744 OA
ENDBRANCH 105 106
ENDBRANCH  73  98
ENDBRANCH  47  48
ENDBRANCH  39  42
ENDBRANCH  37  38
ENDBRANCH  36  37
ENDBRANCH   1  36
TORSDOF 19
