REMARK SMILES COC(=O)c1c(NC(=O)[C@@H]2[C@H]3CC[C@H](CC3)[C@H]2C(=O)NCCCCNC(=O)c2ccc(-c3c4nc(c(-c5c(F)cc(S(=O)(=O)[O-])cc5F)c5ccc([nH]5)c(-c5c(F)cc(S(=O)(=O)[O-])cc5F)c5nc(c(-c6c(F)cc(S(=O)(=O)[O-])cc6F)c6ccc3[nH]6)C=C5)C=C4)cc2)sc(C)c1-c1ccc(C)cc1
REMARK SMILES IDX 22 1 21 2 20 3 18 4 19 5 17 7 10 8 11 9 16 10 12 11 14 12
REMARK SMILES IDX 15 13 13 14 8 15 7 16 9 18 6 19 5 20 97 21 94 22 95 23 96 24
REMARK SMILES IDX 3 25 4 26 2 27 1 28 98 29 99 30 104 31 100 32 103 33 101 34
REMARK SMILES IDX 102 35 23 36 24 37 25 38 26 39 27 41 28 42 29 43 93 44 30 45
REMARK SMILES IDX 92 46 31 47 32 48 33 49 86 50 34 51 91 52 85 53 87 54 35 55
REMARK SMILES IDX 90 56 84 57 83 58 36 60 70 61 49 62 69 63 50 64 53 65 68 66
REMARK SMILES IDX 88 67 51 68 52 69 67 71 89 72 54 73 37 74 38 75 47 76 39 77
REMARK SMILES IDX 40 78 46 79 48 80 41 81 42 82 43 83 44 84 45 85 71 86 72 87
REMARK SMILES IDX 81 88 73 89 74 90 80 91 82 92 75 93 76 94 77 95 78 96 79 97
REMARK SMILES IDX 55 98 56 99 65 100 57 101 58 102 64 103 66 104 59 105 60 106
REMARK SMILES IDX 61 107 62 108 63 109
REMARK H PARENT 20 6 7 17 25 40 87 59 53 70
REMARK Flexibility Score: inf
ROOT
ATOM      1  C   UNL     1       2.518   4.731  -1.810  1.00  0.00     0.023 C 
ENDROOT
BRANCH   1   2
ATOM      2  C   UNL     1       2.111   6.003  -2.539  1.00  0.00     0.116 C 
BRANCH   2   3
ATOM      3  N   UNL     1       3.143   6.734  -3.226  1.00  0.00    -0.356 N 
ATOM      4  C   UNL     1       3.265   7.072  -4.540  1.00  0.00     0.224 C 
ATOM      5  O   UNL     1       4.183   7.854  -4.818  1.00  0.00    -0.275 OA
ATOM      6  H   UNL     1       3.882   7.040  -2.652  1.00  0.00     0.163 HD
BRANCH   4   7
ATOM      7  C   UNL     1       2.347   6.574  -5.672  1.00  0.00     0.094 C 
ATOM      8  C   UNL     1       2.053   5.056  -5.793  1.00  0.00     0.094 C 
ATOM      9  C   UNL     1       0.501   4.892  -6.090  1.00  0.00     0.002 C 
ATOM     10  C   UNL     1      -0.344   5.478  -4.935  1.00  0.00     0.005 C 
ATOM     11  C   UNL     1       0.034   5.697  -7.329  1.00  0.00     0.005 C 
ATOM     12  C   UNL     1       1.040   7.415  -5.792  1.00  0.00     0.002 C 
ATOM     13  C   UNL     1      -0.057   6.987  -4.798  1.00  0.00     0.005 C 
ATOM     14  C   UNL     1       0.461   7.165  -7.201  1.00  0.00     0.005 C 
BRANCH   8  15
ATOM     15  C   UNL     1       2.893   4.399  -6.926  1.00  0.00     0.229 C 
ATOM     16  N   UNL     1       4.162   3.910  -6.850  1.00  0.00    -0.317 N 
ATOM     17  H   UNL     1       4.473   3.585  -7.725  1.00  0.00     0.170 HD
ATOM     18  O   UNL     1       2.397   4.270  -8.056  1.00  0.00    -0.274 OA
BRANCH  16  19
ATOM     19  C   UNL     1       5.131   3.747  -5.879  1.00  0.00     0.111 A 
ATOM     20  C   UNL     1       6.345   3.072  -6.007  1.00  0.00     0.102 A 
ATOM     21  C   UNL     1       7.093   3.089  -4.752  1.00  0.00     0.012 A 
ATOM     22  S   UNL     1       4.944   4.372  -4.346  1.00  0.00    -0.122 S 
ATOM     23  C   UNL     1       6.431   3.807  -3.771  1.00  0.00     0.012 A 
ATOM     24  C   UNL     1       6.812   4.132  -2.361  1.00  0.00     0.057 C 
BRANCH  20  25
ATOM     25  C   UNL     1       6.746   2.433  -7.264  1.00  0.00     0.341 C 
ATOM     26  O   UNL     1       6.242   2.716  -8.343  1.00  0.00    -0.246 OA
BRANCH  25  27
ATOM     27  O   UNL     1       7.713   1.489  -7.099  1.00  0.00    -0.465 OA
ATOM     28  C   UNL     1       8.220   0.911  -8.299  1.00  0.00     0.282 C 
ENDBRANCH  25  27
ENDBRANCH  20  25
BRANCH  21  29
ATOM     29  C   UNL     1       8.389   2.478  -4.470  1.00  0.00    -0.016 A 
ATOM     30  C   UNL     1       9.538   2.904  -5.144  1.00  0.00     0.009 A 
ATOM     31  C   UNL     1       8.487   1.447  -3.527  1.00  0.00     0.009 A 
ATOM     32  C   UNL     1      10.766   2.284  -4.898  1.00  0.00     0.004 A 
ATOM     33  C   UNL     1       9.718   0.842  -3.269  1.00  0.00     0.004 A 
ATOM     34  C   UNL     1      10.865   1.249  -3.958  1.00  0.00    -0.051 A 
ATOM     35  C   UNL     1      12.182   0.570  -3.722  1.00  0.00     0.044 C 
ENDBRANCH  21  29
ENDBRANCH  16  19
ENDBRANCH   8  15
ENDBRANCH   4   7
ENDBRANCH   2   3
ENDBRANCH   1   2
BRANCH   1  36
ATOM     36  C   UNL     1       3.235   4.944  -0.490  1.00  0.00     0.023 C 
BRANCH  36  37
ATOM     37  C   UNL     1       2.472   5.821   0.490  1.00  0.00     0.116 C 
BRANCH  37  38
ATOM     38  N   UNL     1       1.086   5.406   0.690  1.00  0.00    -0.352 N 
ATOM     39  C   UNL     1       0.377   5.334   1.865  1.00  0.00     0.251 C 
ATOM     40  H   UNL     1       0.597   5.144  -0.123  1.00  0.00     0.163 HD
ATOM     41  O   UNL     1      -0.757   4.871   1.887  1.00  0.00    -0.269 OA
BRANCH  39  42
ATOM     42  C   UNL     1       1.036   5.791   3.101  1.00  0.00     0.039 A 
ATOM     43  C   UNL     1       1.101   4.929   4.195  1.00  0.00     0.014 A 
ATOM     44  C   UNL     1       1.690   7.026   3.118  1.00  0.00     0.014 A 
ATOM     45  C   UNL     1       1.896   5.276   5.286  1.00  0.00     0.010 A 
ATOM     46  C   UNL     1       2.560   7.319   4.157  1.00  0.00     0.010 A 
ATOM     47  C   UNL     1       2.667   6.451   5.255  1.00  0.00    -0.014 A 
BRANCH  47  48
ATOM     48  C   UNL     1       3.581   6.805   6.367  1.00  0.00     0.031 A 
ATOM     49  C   UNL     1       3.354   8.077   7.137  1.00  0.00     0.074 A 
ATOM     50  C   UNL     1       4.647   6.025   6.634  1.00  0.00     0.049 A 
ATOM     51  N   UNL     1       4.074   8.603   8.093  1.00  0.00    -0.248 NA
ATOM     52  C   UNL     1       2.183   8.885   6.755  1.00  0.00     0.031 C 
ATOM     53  C   UNL     1       5.009   4.803   5.910  1.00  0.00     0.029 A 
ATOM     54  N   UNL     1       5.629   6.147   7.584  1.00  0.00    -0.354 N 
ATOM     55  C   UNL     1       3.455   9.806   8.411  1.00  0.00     0.074 A 
ATOM     56  C   UNL     1       2.344   9.967   7.501  1.00  0.00     0.031 C 
ATOM     57  C   UNL     1       6.112   4.272   6.464  1.00  0.00     0.029 A 
ATOM     58  C   UNL     1       6.555   5.131   7.557  1.00  0.00     0.049 A 
ATOM     59  H   UNL     1       5.666   6.893   8.226  1.00  0.00     0.167 HD
ATOM     60  C   UNL     1       3.764  10.681   9.396  1.00  0.00     0.037 A 
ATOM     61  C   UNL     1       7.638   4.918   8.330  1.00  0.00     0.037 A 
ATOM     62  C   UNL     1       4.848  10.493  10.322  1.00  0.00     0.049 A 
ATOM     63  C   UNL     1       7.946   5.891   9.436  1.00  0.00     0.074 A 
ATOM     64  C   UNL     1       5.211  11.287  11.395  1.00  0.00     0.029 A 
ATOM     65  N   UNL     1       5.740   9.431  10.289  1.00  0.00    -0.354 N 
ATOM     66  N   UNL     1       7.311   6.991   9.767  1.00  0.00    -0.248 NA
ATOM     67  C   UNL     1       9.108   5.590  10.282  1.00  0.00     0.031 C 
ATOM     68  C   UNL     1       6.345  10.724  11.990  1.00  0.00     0.029 A 
ATOM     69  C   UNL     1       6.660   9.555  11.315  1.00  0.00     0.049 A 
ATOM     70  H   UNL     1       5.721   8.698   9.632  1.00  0.00     0.167 HD
ATOM     71  C   UNL     1       7.979   7.497  10.877  1.00  0.00     0.074 A 
ATOM     72  C   UNL     1       9.059   6.576  11.167  1.00  0.00     0.031 C 
ATOM     73  C   UNL     1       7.722   8.620  11.593  1.00  0.00     0.037 A 
BRANCH  60  74
ATOM     74  C   UNL     1       2.905  11.909   9.525  1.00  0.00     0.058 A 
ATOM     75  C   UNL     1       1.571  11.831   9.959  1.00  0.00     0.135 A 
ATOM     76  C   UNL     1       3.422  13.179   9.226  1.00  0.00     0.135 A 
ATOM     77  F   UNL     1       1.019  10.639  10.239  1.00  0.00    -0.206 F 
ATOM     78  C   UNL     1       0.771  12.963  10.058  1.00  0.00     0.059 A 
ATOM     79  C   UNL     1       2.648  14.330   9.348  1.00  0.00     0.059 A 
ATOM     80  F   UNL     1       4.690  13.311   8.805  1.00  0.00    -0.206 F 
ATOM     81  C   UNL     1       1.318  14.209   9.748  1.00  0.00     0.060 A 
BRANCH  81  82
ATOM     82  S   UNL     1       0.266  15.669   9.883  1.00  0.00     0.124 S 
ATOM     83  O   UNL     1      -0.591  15.518   8.712  1.00  0.00    -0.237 OA
ATOM     84  O   UNL     1      -0.384  15.467  11.174  1.00  0.00    -0.237 OA
ATOM     85  O   UNL     1       1.215  16.777   9.829  1.00  0.00    -0.744 OA
ENDBRANCH  81  82
ENDBRANCH  60  74
BRANCH  61  86
ATOM     86  C   UNL     1       8.485   3.715   8.112  1.00  0.00     0.058 A 
ATOM     87  C   UNL     1       8.484   2.657   9.033  1.00  0.00     0.135 A 
ATOM     88  C   UNL     1       9.302   3.592   6.977  1.00  0.00     0.135 A 
ATOM     89  F   UNL     1       7.722   2.729  10.135  1.00  0.00    -0.206 F 
ATOM     90  C   UNL     1       9.275   1.528   8.849  1.00  0.00     0.059 A 
ATOM     91  C   UNL     1      10.085   2.462   6.759  1.00  0.00     0.059 A 
ATOM     92  F   UNL     1       9.325   4.568   6.056  1.00  0.00    -0.206 F 
ATOM     93  C   UNL     1      10.072   1.439   7.706  1.00  0.00     0.060 A 
BRANCH  93  94
ATOM     94  S   UNL     1      11.060  -0.052   7.452  1.00  0.00     0.124 S 
ATOM     95  O   UNL     1      12.128   0.134   8.427  1.00  0.00    -0.237 OA
ATOM     96  O   UNL     1      10.100  -1.110   7.748  1.00  0.00    -0.237 OA
ATOM     97  O   UNL     1      11.459   0.047   6.051  1.00  0.00    -0.744 OA
ENDBRANCH  93  94
ENDBRANCH  61  86
BRANCH  73  98
ATOM     98  C   UNL     1       8.596   8.893  12.784  1.00  0.00     0.058 A 
ATOM     99  C   UNL     1       9.924   9.325  12.642  1.00  0.00     0.135 A 
ATOM    100  C   UNL     1       8.081   8.766  14.084  1.00  0.00     0.135 A 
ATOM    101  F   UNL     1      10.464   9.458  11.420  1.00  0.00    -0.206 F 
ATOM    102  C   UNL     1      10.720   9.595  13.749  1.00  0.00     0.059 A 
ATOM    103  C   UNL     1       8.851   9.057  15.205  1.00  0.00     0.059 A 
ATOM    104  F   UNL     1       6.813   8.368  14.273  1.00  0.00    -0.206 F 
ATOM    105  C   UNL     1      10.175   9.457  15.027  1.00  0.00     0.060 A 
BRANCH 105 106
ATOM    106  S   UNL     1      11.211   9.833  16.457  1.00  0.00     0.124 S 
ATOM    107  O   UNL     1      12.079   8.662  16.505  1.00  0.00    -0.237 OA
ATOM    108  O   UNL     1      11.852  11.082  16.059  1.00  0.00    -0.237 OA
ATOM    109  O   UNL     1      10.251   9.949  17.550  1.00  0.00    -0.744 OA
ENDBRANCH 105 106
ENDBRANCH  73  98
ENDBRANCH  47  48
ENDBRANCH  39  42
ENDBRANCH  37  38
ENDBRANCH  36  37
ENDBRANCH   1  36
TORSDOF 19
