REMARK SMILES COC(=O)CNC(=O)N[C@H]1CCCCC[C@@H]1C(=O)NCCCCNC(=O)c1ccc(-c2c3nc(c(-c4c(F)cc(S(=O)(=O)[O-])cc4F)c4ccc([nH]4)c(-c4c(F)cc(S(=O)(=O)[O-])cc4F)c4nc(c(-c5c(F)cc(S(=O)(=O)[O-])cc5F)c5ccc2[nH]5)C=C4)C=C3)cc1
REMARK SMILES IDX 20 1 19 2 17 3 18 4 16 6 10 7 9 8 6 9 7 10 8 12 5 14 3 15
REMARK SMILES IDX 4 16 2 17 1 18 11 19 15 21 14 22 13 23 12 24 21 26 22 27
REMARK SMILES IDX 23 28 24 29 25 30 26 32 27 33 28 34 92 35 29 36 91 37 30 38
REMARK SMILES IDX 31 39 32 40 85 41 33 42 90 43 84 44 86 45 34 46 89 47 83 48
REMARK SMILES IDX 82 49 35 51 69 52 48 53 68 54 49 55 52 56 67 57 87 58 50 59
REMARK SMILES IDX 51 60 66 62 88 63 53 64 36 65 37 66 46 67 38 68 39 69 45 70
REMARK SMILES IDX 47 71 40 72 41 73 42 74 43 75 44 76 70 77 71 78 80 79 72 80
REMARK SMILES IDX 73 81 79 82 81 83 74 84 75 85 76 86 77 87 78 88 54 89 55 90
REMARK SMILES IDX 64 91 56 92 57 93 63 94 65 95 58 96 59 97 60 98 61 99 62 100
REMARK H PARENT 19 5 6 11 9 13 24 31 86 50 52 61
REMARK Flexibility Score: 90.00
ROOT
ATOM      1  C   UNL     1      -2.023  -7.204  -2.155  1.00  0.00     0.116 C 
ENDROOT
BRANCH   1   2
ATOM      2  N   UNL     1      -3.420  -6.819  -2.035  1.00  0.00    -0.356 N 
ATOM      3  C   UNL     1      -4.181  -5.717  -1.919  1.00  0.00     0.225 C 
ATOM      4  O   UNL     1      -5.390  -5.982  -2.047  1.00  0.00    -0.275 OA
ATOM      5  H   UNL     1      -3.991  -7.621  -2.040  1.00  0.00     0.163 HD
BRANCH   3   6
ATOM      6  C   UNL     1      -3.787  -4.233  -1.678  1.00  0.00     0.101 C 
BRANCH   6   7
ATOM      7  C   UNL     1      -2.319  -3.864  -1.414  1.00  0.00     0.096 C 
BRANCH   7   8
ATOM      8  N   UNL     1      -1.552  -3.480  -2.636  1.00  0.00    -0.335 N 
ATOM      9  N   UNL     1      -1.565  -1.280  -3.618  1.00  0.00    -0.327 N 
ATOM     10  C   UNL     1      -1.195  -2.539  -3.492  1.00  0.00     0.315 C 
ATOM     11  H   UNL     1      -0.976  -0.829  -4.265  1.00  0.00     0.166 HD
ATOM     12  O   UNL     1      -0.357  -2.907  -4.330  1.00  0.00    -0.249 OA
ATOM     13  H   UNL     1      -1.111  -4.305  -2.946  1.00  0.00     0.165 HD
BRANCH   9  14
ATOM     14  C   UNL     1      -2.554  -0.331  -3.121  1.00  0.00     0.240 C 
BRANCH  14  15
ATOM     15  C   UNL     1      -2.065   0.731  -2.117  1.00  0.00     0.325 C 
ATOM     16  O   UNL     1      -2.786   1.620  -1.676  1.00  0.00    -0.250 OA
BRANCH  15  17
ATOM     17  O   UNL     1      -0.780   0.515  -1.711  1.00  0.00    -0.468 OA
ATOM     18  C   UNL     1      -0.396   1.245  -0.541  1.00  0.00     0.282 C 
ENDBRANCH  15  17
ENDBRANCH  14  15
ENDBRANCH   9  14
ENDBRANCH   7   8
BRANCH   7  19
ATOM     19  C   UNL     1      -1.934  -3.098  -0.137  1.00  0.00     0.026 CG0
ATOM     20  G   UNL     1      -2.471  -1.697  -0.001  1.00  0.00     0.000 G0
ENDBRANCH   7  19
ENDBRANCH   6   7
BRANCH   6  21
ATOM     21  C   UNL     1      -4.746  -3.741  -0.558  1.00  0.00     0.015 C 
BRANCH  21  22
ATOM     22  C   UNL     1      -4.933  -2.233  -0.523  1.00  0.00     0.001 C 
BRANCH  22  23
ATOM     23  C   UNL     1      -3.932  -1.515   0.365  1.00  0.00     0.000 C 
BRANCH  23  24
ATOM     24  C   UNL     1      -2.471  -1.697  -0.001  1.00  0.00     0.002 CG0
ATOM     25  G   UNL     1      -1.934  -3.098  -0.137  1.00  0.00     0.000 G0
ENDBRANCH  23  24
ENDBRANCH  22  23
ENDBRANCH  21  22
ENDBRANCH   6  21
ENDBRANCH   3   6
ENDBRANCH   1   2
BRANCH   1  26
ATOM     26  C   UNL     1      -1.587  -8.176  -1.050  1.00  0.00     0.023 C 
BRANCH  26  27
ATOM     27  C   UNL     1      -2.445  -9.441  -0.885  1.00  0.00     0.023 C 
BRANCH  27  28
ATOM     28  C   UNL     1      -2.642 -10.295  -2.136  1.00  0.00     0.116 C 
BRANCH  28  29
ATOM     29  N   UNL     1      -1.412 -10.914  -2.604  1.00  0.00    -0.352 N 
ATOM     30  C   UNL     1      -1.148 -12.236  -2.889  1.00  0.00     0.251 C 
ATOM     31  H   UNL     1      -0.656 -10.297  -2.737  1.00  0.00     0.163 HD
ATOM     32  O   UNL     1      -0.000 -12.582  -3.144  1.00  0.00    -0.269 OA
BRANCH  30  33
ATOM     33  C   UNL     1      -2.235 -13.245  -2.853  1.00  0.00     0.039 A 
ATOM     34  C   UNL     1      -2.007 -14.457  -2.193  1.00  0.00     0.014 A 
ATOM     35  C   UNL     1      -3.471 -13.005  -3.459  1.00  0.00     0.014 A 
ATOM     36  C   UNL     1      -3.044 -15.387  -2.065  1.00  0.00     0.010 A 
ATOM     37  C   UNL     1      -4.522 -13.904  -3.274  1.00  0.00     0.010 A 
ATOM     38  C   UNL     1      -4.326 -15.097  -2.561  1.00  0.00    -0.014 A 
BRANCH  38  39
ATOM     39  C   UNL     1      -5.481 -16.003  -2.307  1.00  0.00     0.031 A 
ATOM     40  C   UNL     1      -6.196 -16.671  -3.450  1.00  0.00     0.074 A 
ATOM     41  C   UNL     1      -5.937 -16.160  -1.047  1.00  0.00     0.049 A 
ATOM     42  N   UNL     1      -7.277 -17.407  -3.430  1.00  0.00    -0.248 NA
ATOM     43  C   UNL     1      -5.634 -16.466  -4.794  1.00  0.00     0.031 C 
ATOM     44  C   UNL     1      -5.354 -15.541   0.146  1.00  0.00     0.029 A 
ATOM     45  N   UNL     1      -7.005 -16.873  -0.559  1.00  0.00    -0.354 N 
ATOM     46  C   UNL     1      -7.532 -17.745  -4.754  1.00  0.00     0.074 A 
ATOM     47  C   UNL     1      -6.518 -17.094  -5.556  1.00  0.00     0.031 C 
ATOM     48  C   UNL     1      -6.061 -15.911   1.225  1.00  0.00     0.029 A 
ATOM     49  C   UNL     1      -7.176 -16.753   0.801  1.00  0.00     0.049 A 
ATOM     50  H   UNL     1      -7.593 -17.420  -1.129  1.00  0.00     0.167 HD
ATOM     51  C   UNL     1      -8.510 -18.540  -5.254  1.00  0.00     0.037 A 
ATOM     52  C   UNL     1      -8.132 -17.244   1.615  1.00  0.00     0.037 A 
ATOM     53  C   UNL     1      -9.510 -19.195  -4.449  1.00  0.00     0.049 A 
ATOM     54  C   UNL     1      -9.230 -18.092   1.032  1.00  0.00     0.074 A 
ATOM     55  C   UNL     1     -10.509 -20.062  -4.857  1.00  0.00     0.029 A 
ATOM     56  N   UNL     1      -9.648 -19.049  -3.076  1.00  0.00    -0.354 N 
ATOM     57  N   UNL     1      -9.417 -18.454  -0.214  1.00  0.00    -0.248 NA
ATOM     58  C   UNL     1     -10.248 -18.598   1.964  1.00  0.00     0.031 C 
ATOM     59  C   UNL     1     -11.284 -20.395  -3.742  1.00  0.00     0.029 A 
ATOM     60  C   UNL     1     -10.733 -19.784  -2.627  1.00  0.00     0.049 A 
ATOM     61  H   UNL     1      -9.060 -18.503  -2.505  1.00  0.00     0.167 HD
ATOM     62  C   UNL     1     -10.558 -19.250  -0.212  1.00  0.00     0.074 A 
ATOM     63  C   UNL     1     -11.011 -19.327   1.161  1.00  0.00     0.031 C 
ATOM     64  C   UNL     1     -11.173 -19.861  -1.255  1.00  0.00     0.037 A 
BRANCH  51  65
ATOM     65  C   UNL     1      -8.552 -18.746  -6.745  1.00  0.00     0.058 A 
ATOM     66  C   UNL     1      -7.571 -19.494  -7.415  1.00  0.00     0.135 A 
ATOM     67  C   UNL     1      -9.612 -18.228  -7.508  1.00  0.00     0.135 A 
ATOM     68  F   UNL     1      -6.529 -20.003  -6.738  1.00  0.00    -0.206 F 
ATOM     69  C   UNL     1      -7.620 -19.694  -8.791  1.00  0.00     0.059 A 
ATOM     70  C   UNL     1      -9.698 -18.442  -8.881  1.00  0.00     0.059 A 
ATOM     71  F   UNL     1     -10.580 -17.508  -6.920  1.00  0.00    -0.206 F 
ATOM     72  C   UNL     1      -8.688 -19.163  -9.516  1.00  0.00     0.060 A 
BRANCH  72  73
ATOM     73  S   UNL     1      -8.736 -19.435 -11.300  1.00  0.00     0.124 S 
ATOM     74  O   UNL     1      -7.652 -18.570 -11.755  1.00  0.00    -0.237 OA
ATOM     75  O   UNL     1      -8.487 -20.869 -11.403  1.00  0.00    -0.237 OA
ATOM     76  O   UNL     1     -10.079 -19.006 -11.675  1.00  0.00    -0.744 OA
ENDBRANCH  72  73
ENDBRANCH  51  65
BRANCH  52  77
ATOM     77  C   UNL     1      -8.091 -16.948   3.074  1.00  0.00     0.058 A 
ATOM     78  C   UNL     1      -7.813 -17.958   4.008  1.00  0.00     0.135 A 
ATOM     79  C   UNL     1      -8.319 -15.652   3.564  1.00  0.00     0.135 A 
ATOM     80  F   UNL     1      -7.598 -19.215   3.591  1.00  0.00    -0.206 F 
ATOM     81  C   UNL     1      -7.776 -17.698   5.374  1.00  0.00     0.059 A 
ATOM     82  C   UNL     1      -8.259 -15.362   4.923  1.00  0.00     0.059 A 
ATOM     83  F   UNL     1      -8.575 -14.647   2.713  1.00  0.00    -0.206 F 
ATOM     84  C   UNL     1      -7.996 -16.395   5.822  1.00  0.00     0.060 A 
BRANCH  84  85
ATOM     85  S   UNL     1      -7.896 -16.060   7.594  1.00  0.00     0.124 S 
ATOM     86  O   UNL     1      -9.112 -16.699   8.083  1.00  0.00    -0.237 OA
ATOM     87  O   UNL     1      -6.641 -16.712   7.957  1.00  0.00    -0.237 OA
ATOM     88  O   UNL     1      -7.877 -14.602   7.660  1.00  0.00    -0.744 OA
ENDBRANCH  84  85
ENDBRANCH  52  77
BRANCH  64  89
ATOM     89  C   UNL     1     -12.390 -20.695  -0.958  1.00  0.00     0.058 A 
ATOM     90  C   UNL     1     -13.619 -20.113  -0.615  1.00  0.00     0.135 A 
ATOM     91  C   UNL     1     -12.342 -22.093  -1.091  1.00  0.00     0.135 A 
ATOM     92  F   UNL     1     -13.718 -18.782  -0.464  1.00  0.00    -0.206 F 
ATOM     93  C   UNL     1     -14.756 -20.887  -0.402  1.00  0.00     0.059 A 
ATOM     94  C   UNL     1     -13.473 -22.884  -0.912  1.00  0.00     0.059 A 
ATOM     95  F   UNL     1     -11.193 -22.702  -1.424  1.00  0.00    -0.206 F 
ATOM     96  C   UNL     1     -14.675 -22.271  -0.561  1.00  0.00     0.060 A 
BRANCH  96  97
ATOM     97  S   UNL     1     -16.172 -23.256  -0.340  1.00  0.00     0.124 S 
ATOM     98  O   UNL     1     -16.362 -23.184   1.105  1.00  0.00    -0.237 OA
ATOM     99  O   UNL     1     -17.147 -22.525  -1.144  1.00  0.00    -0.237 OA
ATOM    100  O   UNL     1     -15.798 -24.568  -0.860  1.00  0.00    -0.744 OA
ENDBRANCH  96  97
ENDBRANCH  64  89
ENDBRANCH  38  39
ENDBRANCH  30  33
ENDBRANCH  28  29
ENDBRANCH  27  28
ENDBRANCH  26  27
ENDBRANCH   1  26
TORSDOF 18
