REMARK SMILES O=C(C[C@@H](C(=O)N(c1ccccc1)c1ccccc1)[NH+]1CCOCC1)NCCCCNC(=O)c1ccc(-c2c3nc(c(-c4c(F)cc(S(=O)(=O)[O-])cc4F)c4ccc([nH]4)c(-c4c(F)cc(S(=O)(=O)[O-])cc4F)c4nc(c(-c5c(F)cc(S(=O)(=O)[O-])cc5F)c5ccc2[nH]5)C=C4)C=C3)cc1
REMARK SMILES IDX 28 1 27 2 26 3 1 4 2 5 3 7 4 8 5 9 6 10 7 11 8 12 9 13 13 14
REMARK SMILES IDX 10 15 12 16 11 17 14 18 15 19 19 20 16 21 18 22 17 23 20 24
REMARK SMILES IDX 21 25 25 26 22 28 24 29 23 30 29 31 30 32 31 33 32 34 33 36
REMARK SMILES IDX 34 37 35 38 99 39 36 40 98 41 37 42 38 43 39 44 92 45 40 46
REMARK SMILES IDX 97 47 91 48 93 49 41 50 96 51 90 52 89 53 42 55 76 56 55 57
REMARK SMILES IDX 75 58 56 59 59 60 74 61 94 62 57 63 58 64 73 66 95 67 60 68
REMARK SMILES IDX 43 69 44 70 53 71 45 72 46 73 52 74 54 75 47 76 48 77 49 78
REMARK SMILES IDX 50 79 51 80 77 81 78 82 87 83 79 84 80 85 86 86 88 87 81 88
REMARK SMILES IDX 82 89 83 90 84 91 85 92 61 93 62 94 71 95 63 96 64 97 70 98
REMARK SMILES IDX 72 99 65 100 66 101 67 102 68 103 69 104
REMARK H PARENT 26 6 20 27 31 35 93 54 59 65
REMARK Flexibility Score: inf
ROOT
ATOM      1  C   UNL     1       2.462   0.927   4.089  1.00  0.00     0.023 C 
ENDROOT
BRANCH   1   2
ATOM      2  C   UNL     1       2.172   1.044   2.590  1.00  0.00     0.116 C 
BRANCH   2   3
ATOM      3  N   UNL     1       2.948   0.144   1.747  1.00  0.00    -0.356 N 
ATOM      4  O   UNL     1       1.174  -0.567   0.459  1.00  0.00    -0.275 OA
ATOM      5  C   UNL     1       2.382  -0.531   0.684  1.00  0.00     0.226 C 
ATOM      6  H   UNL     1       3.904   0.014   1.940  1.00  0.00     0.163 HD
BRANCH   5   7
ATOM      7  C   UNL     1       3.361  -1.230  -0.238  1.00  0.00     0.175 C 
BRANCH   7   8
ATOM      8  C   UNL     1       3.678  -0.413  -1.506  1.00  0.00     0.284 C 
BRANCH   8   9
ATOM      9  C   UNL     1       4.601   0.766  -1.105  1.00  0.00     0.290 C 
ATOM     10  O   UNL     1       5.812   0.483  -0.987  1.00  0.00    -0.267 OA
ATOM     11  N   UNL     1       4.162   2.066  -0.780  1.00  0.00    -0.276 N 
BRANCH  11  12
ATOM     12  C   UNL     1       2.836   2.654  -0.619  1.00  0.00     0.049 A 
ATOM     13  C   UNL     1       2.677   3.884   0.068  1.00  0.00     0.027 A 
ATOM     14  C   UNL     1       1.636   2.067  -1.033  1.00  0.00     0.027 A 
ATOM     15  C   UNL     1       1.424   4.391   0.450  1.00  0.00     0.002 A 
ATOM     16  C   UNL     1       0.376   2.554  -0.638  1.00  0.00     0.002 A 
ATOM     17  C   UNL     1       0.269   3.701   0.129  1.00  0.00     0.000 A 
ENDBRANCH  11  12
BRANCH  11  18
ATOM     18  C   UNL     1       5.241   2.886  -0.302  1.00  0.00     0.049 A 
ATOM     19  C   UNL     1       5.663   2.733   1.025  1.00  0.00     0.027 A 
ATOM     20  C   UNL     1       5.997   3.665  -1.183  1.00  0.00     0.027 A 
ATOM     21  C   UNL     1       6.813   3.367   1.478  1.00  0.00     0.002 A 
ATOM     22  C   UNL     1       7.147   4.309  -0.720  1.00  0.00     0.002 A 
ATOM     23  C   UNL     1       7.551   4.164   0.609  1.00  0.00     0.000 A 
ENDBRANCH  11  18
ENDBRANCH   8   9
BRANCH   8  24
ATOM     24  N   UNL     1       4.382  -1.149  -2.603  1.00  0.00    -0.320 N 
ATOM     25  C   UNL     1       3.565  -1.546  -3.753  1.00  0.00     0.291 C 
ATOM     26  C   UNL     1       5.312  -2.229  -2.232  1.00  0.00     0.291 C 
ATOM     27  H   UNL     1       4.979  -0.379  -2.904  1.00  0.00     0.348 HD
ATOM     28  C   UNL     1       2.907  -2.916  -3.570  1.00  0.00     0.221 C 
ATOM     29  C   UNL     1       4.672  -3.630  -2.171  1.00  0.00     0.221 C 
ATOM     30  O   UNL     1       3.892  -3.929  -3.337  1.00  0.00    -0.370 OA
ENDBRANCH   8  24
ENDBRANCH   7   8
ENDBRANCH   5   7
ENDBRANCH   2   3
ENDBRANCH   1   2
BRANCH   1  31
ATOM     31  C   UNL     1       3.877   1.314   4.538  1.00  0.00     0.023 C 
BRANCH  31  32
ATOM     32  C   UNL     1       4.293   2.772   4.317  1.00  0.00     0.116 C 
BRANCH  32  33
ATOM     33  N   UNL     1       3.742   3.711   5.277  1.00  0.00    -0.352 N 
ATOM     34  C   UNL     1       4.380   4.719   5.966  1.00  0.00     0.251 C 
ATOM     35  H   UNL     1       2.780   3.614   5.461  1.00  0.00     0.163 HD
ATOM     36  O   UNL     1       3.738   5.426   6.745  1.00  0.00    -0.269 OA
BRANCH  34  37
ATOM     37  C   UNL     1       5.841   4.932   5.824  1.00  0.00     0.039 A 
ATOM     38  C   UNL     1       6.636   4.914   6.972  1.00  0.00     0.014 A 
ATOM     39  C   UNL     1       6.439   5.146   4.581  1.00  0.00     0.014 A 
ATOM     40  C   UNL     1       8.031   5.019   6.865  1.00  0.00     0.010 A 
ATOM     41  C   UNL     1       7.838   5.191   4.474  1.00  0.00     0.010 A 
ATOM     42  C   UNL     1       8.660   5.101   5.609  1.00  0.00    -0.014 A 
BRANCH  42  43
ATOM     43  C   UNL     1      10.153   5.025   5.489  1.00  0.00     0.031 A 
ATOM     44  C   UNL     1      10.962   6.116   4.826  1.00  0.00     0.074 A 
ATOM     45  C   UNL     1      10.804   3.926   5.932  1.00  0.00     0.049 A 
ATOM     46  N   UNL     1      12.260   6.188   4.645  1.00  0.00    -0.248 NA
ATOM     47  C   UNL     1      10.223   7.256   4.265  1.00  0.00     0.031 C 
ATOM     48  C   UNL     1      10.168   2.740   6.510  1.00  0.00     0.029 A 
ATOM     49  N   UNL     1      12.147   3.624   5.969  1.00  0.00    -0.354 N 
ATOM     50  C   UNL     1      12.489   7.358   3.929  1.00  0.00     0.074 A 
ATOM     51  C   UNL     1      11.189   7.943   3.670  1.00  0.00     0.031 C 
ATOM     52  C   UNL     1      11.116   1.867   6.889  1.00  0.00     0.029 A 
ATOM     53  C   UNL     1      12.429   2.409   6.551  1.00  0.00     0.049 A 
ATOM     54  H   UNL     1      12.842   4.223   5.612  1.00  0.00     0.167 HD
ATOM     55  C   UNL     1      13.666   7.914   3.544  1.00  0.00     0.037 A 
ATOM     56  C   UNL     1      13.603   1.794   6.800  1.00  0.00     0.037 A 
ATOM     57  C   UNL     1      14.969   7.378   3.849  1.00  0.00     0.049 A 
ATOM     58  C   UNL     1      14.899   2.461   6.425  1.00  0.00     0.074 A 
ATOM     59  C   UNL     1      16.210   7.939   3.590  1.00  0.00     0.029 A 
ATOM     60  N   UNL     1      15.208   6.167   4.479  1.00  0.00    -0.354 N 
ATOM     61  N   UNL     1      15.091   3.615   5.836  1.00  0.00    -0.248 NA
ATOM     62  C   UNL     1      16.139   1.742   6.758  1.00  0.00     0.031 C 
ATOM     63  C   UNL     1      17.198   7.053   4.032  1.00  0.00     0.029 A 
ATOM     64  C   UNL     1      16.574   5.958   4.604  1.00  0.00     0.049 A 
ATOM     65  H   UNL     1      14.511   5.546   4.792  1.00  0.00     0.167 HD
ATOM     66  C   UNL     1      16.471   3.773   5.752  1.00  0.00     0.074 A 
ATOM     67  C   UNL     1      17.067   2.603   6.360  1.00  0.00     0.031 C 
ATOM     68  C   UNL     1      17.174   4.801   5.218  1.00  0.00     0.037 A 
BRANCH  55  69
ATOM     69  C   UNL     1      13.611   9.199   2.761  1.00  0.00     0.058 A 
ATOM     70  C   UNL     1      13.237  10.411   3.362  1.00  0.00     0.135 A 
ATOM     71  C   UNL     1      14.001   9.232   1.411  1.00  0.00     0.135 A 
ATOM     72  F   UNL     1      12.852  10.438   4.648  1.00  0.00    -0.206 F 
ATOM     73  C   UNL     1      13.216  11.603   2.645  1.00  0.00     0.059 A 
ATOM     74  C   UNL     1      14.015  10.418   0.682  1.00  0.00     0.059 A 
ATOM     75  F   UNL     1      14.379   8.104   0.789  1.00  0.00    -0.206 F 
ATOM     76  C   UNL     1      13.604  11.596   1.305  1.00  0.00     0.060 A 
BRANCH  76  77
ATOM     77  S   UNL     1      13.574  13.152   0.389  1.00  0.00     0.124 S 
ATOM     78  O   UNL     1      12.143  13.322   0.156  1.00  0.00    -0.237 OA
ATOM     79  O   UNL     1      14.177  14.085   1.335  1.00  0.00    -0.237 OA
ATOM     80  O   UNL     1      14.373  12.863  -0.797  1.00  0.00    -0.744 OA
ENDBRANCH  76  77
ENDBRANCH  55  69
BRANCH  56  81
ATOM     81  C   UNL     1      13.616   0.476   7.489  1.00  0.00     0.058 A 
ATOM     82  C   UNL     1      14.038   0.369   8.822  1.00  0.00     0.135 A 
ATOM     83  C   UNL     1      13.206  -0.696   6.835  1.00  0.00     0.135 A 
ATOM     84  F   UNL     1      14.448   1.461   9.485  1.00  0.00    -0.206 F 
ATOM     85  C   UNL     1      14.069  -0.855   9.481  1.00  0.00     0.059 A 
ATOM     86  C   UNL     1      13.206  -1.928   7.480  1.00  0.00     0.059 A 
ATOM     87  F   UNL     1      12.779  -0.642   5.564  1.00  0.00    -0.206 F 
ATOM     88  C   UNL     1      13.649  -1.999   8.800  1.00  0.00     0.060 A 
BRANCH  88  89
ATOM     89  S   UNL     1      13.644  -3.577   9.680  1.00  0.00     0.124 S 
ATOM     90  O   UNL     1      15.058  -3.910   9.697  1.00  0.00    -0.237 OA
ATOM     91  O   UNL     1      13.055  -3.209  10.966  1.00  0.00    -0.237 OA
ATOM     92  O   UNL     1      12.800  -4.424   8.837  1.00  0.00    -0.744 OA
ENDBRANCH  88  89
ENDBRANCH  56  81
BRANCH  68  93
ATOM     93  C   UNL     1      18.676   4.735   5.294  1.00  0.00     0.058 A 
ATOM     94  C   UNL     1      19.420   3.866   4.481  1.00  0.00     0.135 A 
ATOM     95  C   UNL     1      19.382   5.586   6.160  1.00  0.00     0.135 A 
ATOM     96  F   UNL     1      18.796   3.027   3.641  1.00  0.00    -0.206 F 
ATOM     97  C   UNL     1      20.811   3.829   4.538  1.00  0.00     0.059 A 
ATOM     98  C   UNL     1      20.773   5.582   6.217  1.00  0.00     0.059 A 
ATOM     99  F   UNL     1      18.721   6.442   6.955  1.00  0.00    -0.206 F 
ATOM    100  C   UNL     1      21.479   4.691   5.409  1.00  0.00     0.060 A 
BRANCH 100 101
ATOM    101  S   UNL     1      23.285   4.658   5.450  1.00  0.00     0.124 S 
ATOM    102  O   UNL     1      23.540   3.434   6.203  1.00  0.00    -0.237 OA
ATOM    103  O   UNL     1      23.631   4.614   4.033  1.00  0.00    -0.237 OA
ATOM    104  O   UNL     1      23.631   5.900   6.135  1.00  0.00    -0.744 OA
ENDBRANCH 100 101
ENDBRANCH  68  93
ENDBRANCH  42  43
ENDBRANCH  34  37
ENDBRANCH  32  33
ENDBRANCH  31  32
ENDBRANCH   1  31
TORSDOF 19
