REMARK SMILES O=C(NCCCCNC(=O)[C@H]1C=C[C@H](NC(=O)c2cccc(C(F)(F)F)c2)C1)c1ccc(-c2c3nc(c(-c4c(F)cc(S(=O)(=O)[O-])cc4F)c4ccc([nH]4)c(-c4c(F)cc(S(=O)(=O)[O-])cc4F)c4nc(c(-c5c(F)cc(S(=O)(=O)[O-])cc5F)c5ccc2[nH]5)C=C4)C=C3)cc1
REMARK SMILES IDX 5 1 4 2 3 3 1 4 2 5 29 7 30 8 94 9 31 10 93 11 32 12 33 13
REMARK SMILES IDX 34 14 87 15 35 16 92 17 86 18 88 19 36 20 91 21 85 22 84 23
REMARK SMILES IDX 37 25 71 26 50 27 70 28 51 29 54 30 69 31 89 32 52 33 53 34
REMARK SMILES IDX 68 36 90 37 55 38 38 39 39 40 48 41 40 42 41 43 47 44 49 45
REMARK SMILES IDX 42 46 43 47 44 48 45 49 46 50 72 51 73 52 82 53 74 54 75 55
REMARK SMILES IDX 81 56 83 57 76 58 77 59 78 60 79 61 80 62 56 63 57 64 66 65
REMARK SMILES IDX 58 66 59 67 65 68 67 69 60 70 61 71 62 72 63 73 64 74 6 75
REMARK SMILES IDX 7 76 8 77 9 78 10 80 11 81 12 82 28 83 13 84 14 85 15 86
REMARK SMILES IDX 16 87 17 89 18 90 19 91 27 92 20 93 22 94 21 95 23 96 24 97
REMARK SMILES IDX 25 98 26 99
REMARK H PARENT 3 6 88 24 54 35 8 79 15 88
REMARK Flexibility Score: inf
ROOT
ATOM      1  C   UNL     1       4.755  -2.455  -0.914  1.00  0.00     0.023 C 
ENDROOT
BRANCH   1   2
ATOM      2  C   UNL     1       4.409  -1.087  -0.341  1.00  0.00     0.116 C 
BRANCH   2   3
ATOM      3  N   UNL     1       3.019  -0.698  -0.540  1.00  0.00    -0.352 N 
ATOM      4  O   UNL     1       1.105   0.403  -0.049  1.00  0.00    -0.269 OA
ATOM      5  C   UNL     1       2.299   0.235   0.170  1.00  0.00     0.251 C 
ATOM      6  H   UNL     1       2.539  -1.157  -1.267  1.00  0.00     0.163 HD
BRANCH   5   7
ATOM      7  C   UNL     1       2.987   0.987   1.238  1.00  0.00     0.039 A 
ATOM      8  C   UNL     1       4.196   1.632   0.971  1.00  0.00     0.014 A 
ATOM      9  C   UNL     1       2.460   0.967   2.531  1.00  0.00     0.014 A 
ATOM     10  C   UNL     1       4.956   2.117   2.026  1.00  0.00     0.010 A 
ATOM     11  C   UNL     1       3.190   1.531   3.579  1.00  0.00     0.010 A 
ATOM     12  C   UNL     1       4.464   2.069   3.341  1.00  0.00    -0.014 A 
BRANCH  12  13
ATOM     13  C   UNL     1       5.300   2.611   4.441  1.00  0.00     0.031 A 
ATOM     14  C   UNL     1       5.852   1.712   5.513  1.00  0.00     0.074 A 
ATOM     15  C   UNL     1       5.601   3.924   4.431  1.00  0.00     0.049 A 
ATOM     16  N   UNL     1       6.634   2.015   6.517  1.00  0.00    -0.248 NA
ATOM     17  C   UNL     1       5.472   0.291   5.460  1.00  0.00     0.031 C 
ATOM     18  C   UNL     1       5.113   4.891   3.444  1.00  0.00     0.029 A 
ATOM     19  N   UNL     1       6.408   4.667   5.252  1.00  0.00    -0.354 N 
ATOM     20  C   UNL     1       6.815   0.837   7.232  1.00  0.00     0.074 A 
ATOM     21  C   UNL     1       6.050  -0.188   6.553  1.00  0.00     0.031 C 
ATOM     22  C   UNL     1       5.678   6.083   3.679  1.00  0.00     0.029 A 
ATOM     23  C   UNL     1       6.521   5.981   4.865  1.00  0.00     0.049 A 
ATOM     24  H   UNL     1       6.863   4.295   6.042  1.00  0.00     0.167 HD
ATOM     25  C   UNL     1       7.553   0.631   8.350  1.00  0.00     0.037 A 
ATOM     26  C   UNL     1       7.223   6.993   5.406  1.00  0.00     0.037 A 
ATOM     27  C   UNL     1       8.338   1.650   8.999  1.00  0.00     0.049 A 
ATOM     28  C   UNL     1       8.048   6.732   6.631  1.00  0.00     0.074 A 
ATOM     29  C   UNL     1       9.153   1.533  10.112  1.00  0.00     0.029 A 
ATOM     30  N   UNL     1       8.410   2.975   8.591  1.00  0.00    -0.354 N 
ATOM     31  N   UNL     1       8.219   5.607   7.283  1.00  0.00    -0.248 NA
ATOM     32  C   UNL     1       8.770   7.878   7.198  1.00  0.00     0.031 C 
ATOM     33  C   UNL     1       9.692   2.794  10.396  1.00  0.00     0.029 A 
ATOM     34  C   UNL     1       9.243   3.688   9.438  1.00  0.00     0.049 A 
ATOM     35  H   UNL     1       7.939   3.352   7.813  1.00  0.00     0.167 HD
ATOM     36  C   UNL     1       9.079   5.906   8.332  1.00  0.00     0.074 A 
ATOM     37  C   UNL     1       9.405   7.314   8.216  1.00  0.00     0.031 C 
ATOM     38  C   UNL     1       9.552   5.090   9.306  1.00  0.00     0.037 A 
BRANCH  25  39
ATOM     39  C   UNL     1       7.529  -0.744   8.961  1.00  0.00     0.058 A 
ATOM     40  C   UNL     1       8.209  -1.826   8.381  1.00  0.00     0.135 A 
ATOM     41  C   UNL     1       6.842  -0.972  10.165  1.00  0.00     0.135 A 
ATOM     42  F   UNL     1       8.868  -1.667   7.222  1.00  0.00    -0.206 F 
ATOM     43  C   UNL     1       8.188  -3.092   8.959  1.00  0.00     0.059 A 
ATOM     44  C   UNL     1       6.825  -2.225  10.771  1.00  0.00     0.059 A 
ATOM     45  F   UNL     1       6.176   0.028  10.762  1.00  0.00    -0.206 F 
ATOM     46  C   UNL     1       7.488  -3.283  10.152  1.00  0.00     0.060 A 
BRANCH  46  47
ATOM     47  S   UNL     1       7.462  -4.932  10.889  1.00  0.00     0.124 S 
ATOM     48  O   UNL     1       6.502  -5.617  10.029  1.00  0.00    -0.237 OA
ATOM     49  O   UNL     1       8.850  -5.360  10.754  1.00  0.00    -0.237 OA
ATOM     50  O   UNL     1       7.016  -4.685  12.257  1.00  0.00    -0.744 OA
ENDBRANCH  46  47
ENDBRANCH  25  39
BRANCH  26  51
ATOM     51  C   UNL     1       7.177   8.336   4.775  1.00  0.00     0.058 A 
ATOM     52  C   UNL     1       8.284   8.841   4.079  1.00  0.00     0.135 A 
ATOM     53  C   UNL     1       6.013   9.118   4.815  1.00  0.00     0.135 A 
ATOM     54  F   UNL     1       9.419   8.129   4.016  1.00  0.00    -0.206 F 
ATOM     55  C   UNL     1       8.241  10.080   3.448  1.00  0.00     0.059 A 
ATOM     56  C   UNL     1       5.938  10.348   4.172  1.00  0.00     0.059 A 
ATOM     57  F   UNL     1       4.921   8.666   5.453  1.00  0.00    -0.206 F 
ATOM     58  C   UNL     1       7.061  10.824   3.496  1.00  0.00     0.060 A 
BRANCH  58  59
ATOM     59  S   UNL     1       6.987  12.398   2.615  1.00  0.00     0.124 S 
ATOM     60  O   UNL     1       7.708  13.277   3.527  1.00  0.00    -0.237 OA
ATOM     61  O   UNL     1       7.664  12.083   1.361  1.00  0.00    -0.237 OA
ATOM     62  O   UNL     1       5.553  12.646   2.497  1.00  0.00    -0.744 OA
ENDBRANCH  58  59
ENDBRANCH  26  51
BRANCH  38  63
ATOM     63  C   UNL     1      10.491   5.702  10.305  1.00  0.00     0.058 A 
ATOM     64  C   UNL     1      10.028   6.555  11.319  1.00  0.00     0.135 A 
ATOM     65  C   UNL     1      11.864   5.420  10.255  1.00  0.00     0.135 A 
ATOM     66  F   UNL     1       8.723   6.860  11.402  1.00  0.00    -0.206 F 
ATOM     67  C   UNL     1      10.901   7.133  12.233  1.00  0.00     0.059 A 
ATOM     68  C   UNL     1      12.753   5.971  11.172  1.00  0.00     0.059 A 
ATOM     69  F   UNL     1      12.354   4.604   9.309  1.00  0.00    -0.206 F 
ATOM     70  C   UNL     1      12.264   6.839  12.148  1.00  0.00     0.060 A 
BRANCH  70  71
ATOM     71  S   UNL     1      13.391   7.587  13.343  1.00  0.00     0.124 S 
ATOM     72  O   UNL     1      13.541   8.933  12.801  1.00  0.00    -0.237 OA
ATOM     73  O   UNL     1      12.642   7.486  14.591  1.00  0.00    -0.237 OA
ATOM     74  O   UNL     1      14.578   6.739  13.263  1.00  0.00    -0.744 OA
ENDBRANCH  70  71
ENDBRANCH  38  63
ENDBRANCH  12  13
ENDBRANCH   5   7
ENDBRANCH   2   3
ENDBRANCH   1   2
BRANCH   1  75
ATOM     75  C   UNL     1       4.395  -2.645  -2.390  1.00  0.00     0.023 C 
BRANCH  75  76
ATOM     76  C   UNL     1       5.063  -1.649  -3.338  1.00  0.00     0.116 C 
BRANCH  76  77
ATOM     77  N   UNL     1       6.430  -2.008  -3.629  1.00  0.00    -0.356 N 
ATOM     78  C   UNL     1       6.973  -2.944  -4.441  1.00  0.00     0.227 C 
ATOM     79  H   UNL     1       7.095  -1.469  -3.144  1.00  0.00     0.163 HD
ATOM     80  O   UNL     1       8.212  -2.969  -4.472  1.00  0.00    -0.274 OA
BRANCH  78  81
ATOM     81  C   UNL     1       6.199  -3.991  -5.254  1.00  0.00     0.103 C 
ATOM     82  C   UNL     1       6.283  -5.343  -4.596  1.00  0.00    -0.016 C 
ATOM     83  C   UNL     1       4.722  -3.896  -5.638  1.00  0.00     0.047 C 
ATOM     84  C   UNL     1       5.196  -6.086  -4.840  1.00  0.00    -0.006 C 
ATOM     85  C   UNL     1       4.183  -5.334  -5.624  1.00  0.00     0.106 C 
BRANCH  85  86
ATOM     86  N   UNL     1       3.876  -5.893  -6.931  1.00  0.00    -0.346 N 
ATOM     87  C   UNL     1       4.601  -6.047  -8.085  1.00  0.00     0.251 C 
ATOM     88  H   UNL     1       2.955  -6.232  -7.003  1.00  0.00     0.164 HD
ATOM     89  O   UNL     1       4.018  -6.195  -9.156  1.00  0.00    -0.269 OA
BRANCH  87  90
ATOM     90  C   UNL     1       6.071  -6.051  -8.073  1.00  0.00     0.040 A 
ATOM     91  C   UNL     1       6.773  -5.117  -8.838  1.00  0.00     0.014 A 
ATOM     92  C   UNL     1       6.757  -7.022  -7.340  1.00  0.00     0.027 A 
ATOM     93  C   UNL     1       8.168  -5.100  -8.793  1.00  0.00     0.001 A 
ATOM     94  C   UNL     1       8.155  -6.981  -7.246  1.00  0.00     0.056 A 
ATOM     95  C   UNL     1       8.853  -6.014  -7.987  1.00  0.00     0.013 A 
BRANCH  94  96
ATOM     96  C   UNL     1       8.889  -7.940  -6.343  1.00  0.00     0.416 C 
ATOM     97  F   UNL     1       9.582  -8.882  -7.040  1.00  0.00    -0.166 F 
ATOM     98  F   UNL     1       9.798  -7.319  -5.543  1.00  0.00    -0.166 F 
ATOM     99  F   UNL     1       8.066  -8.629  -5.503  1.00  0.00    -0.166 F 
ENDBRANCH  94  96
ENDBRANCH  87  90
ENDBRANCH  85  86
ENDBRANCH  78  81
ENDBRANCH  76  77
ENDBRANCH  75  76
ENDBRANCH   1  75
TORSDOF 17
