REMARK SMILES C[C@H]1C[NH+](CC[C@@H]2CCC[C@]2([NH3+])C(=O)NCCCCNC(=O)c2ccc(-c3c4nc(c(-c5c(F)cc(S(=O)(=O)[O-])cc5F)c5ccc([nH]5)c(-c5c(F)cc(S(=O)(=O)[O-])cc5F)c5nc(c(-c6c(F)cc(S(=O)(=O)[O-])cc6F)c6ccc3[nH]6)C=C5)C=C4)cc2)C[C@H](C)O1
REMARK SMILES IDX 17 1 16 2 15 3 13 4 14 5 11 7 7 8 8 9 9 10 10 11 6 12 5 13
REMARK SMILES IDX 4 14 1 15 2 16 3 17 92 18 90 19 89 20 91 22 12 23 18 27
REMARK SMILES IDX 19 28 20 29 21 30 22 32 23 33 24 34 88 35 25 36 87 37 26 38
REMARK SMILES IDX 27 39 28 40 81 41 29 42 86 43 80 44 82 45 30 46 85 47 79 48
REMARK SMILES IDX 78 49 31 51 65 52 44 53 64 54 45 55 48 56 63 57 83 58 46 59
REMARK SMILES IDX 47 60 62 62 84 63 49 64 32 65 33 66 42 67 34 68 35 69 41 70
REMARK SMILES IDX 43 71 36 72 37 73 38 74 39 75 40 76 66 77 67 78 76 79 68 80
REMARK SMILES IDX 69 81 75 82 77 83 70 84 71 85 72 86 73 87 74 88 50 89 51 90
REMARK SMILES IDX 60 91 52 92 53 93 59 94 61 95 54 96 55 97 56 98 57 99 58 100
REMARK H PARENT 15 6 4 21 12 24 12 25 12 26 20 31 82 50 48 61
REMARK Flexibility Score: inf
ROOT
ATOM      1  C   UNL     1       1.111  -6.645   1.230  1.00  0.00     0.023 C 
ENDROOT
BRANCH   1   2
ATOM      2  C   UNL     1      -0.188  -7.142   1.875  1.00  0.00     0.116 C 
BRANCH   2   3
ATOM      3  N   UNL     1      -0.664  -6.271   2.937  1.00  0.00    -0.351 N 
ATOM      4  C   UNL     1      -1.812  -5.545   3.084  1.00  0.00     0.281 C 
ATOM      5  O   UNL     1      -1.950  -4.992   4.183  1.00  0.00    -0.268 OA
ATOM      6  H   UNL     1      -0.041  -6.189   3.695  1.00  0.00     0.163 HD
BRANCH   4   7
ATOM      7  C   UNL     1      -2.897  -5.370   1.942  1.00  0.00     0.177 C 
ATOM      8  C   UNL     1      -2.546  -4.283   0.872  1.00  0.00     0.066 C 
ATOM      9  C   UNL     1      -2.812  -2.977   1.637  1.00  0.00     0.011 C 
ATOM     10  C   UNL     1      -3.918  -3.275   2.648  1.00  0.00     0.008 C 
ATOM     11  C   UNL     1      -4.184  -4.771   2.549  1.00  0.00     0.079 C 
BRANCH   8  12
ATOM     12  C   UNL     1      -1.149  -4.469   0.274  1.00  0.00     0.072 C 
BRANCH  12  13
ATOM     13  C   UNL     1      -0.582  -3.647  -0.900  1.00  0.00     0.262 C 
BRANCH  13  14
ATOM     14  N   UNL     1      -0.204  -2.243  -0.711  1.00  0.00    -0.331 N 
ATOM     15  C   UNL     1       1.245  -0.319   2.285  1.00  0.00     0.045 C 
ATOM     16  C   UNL     1       0.656  -0.492   0.888  1.00  0.00     0.170 C 
ATOM     17  C   UNL     1       0.511  -1.981   0.545  1.00  0.00     0.294 C 
ATOM     18  O   UNL     1      -0.634   0.134   0.883  1.00  0.00    -0.364 OA
ATOM     19  C   UNL     1      -1.259   0.081  -0.406  1.00  0.00     0.170 C 
ATOM     20  C   UNL     1      -1.314  -1.340  -1.005  1.00  0.00     0.294 C 
ATOM     21  H   UNL     1       0.506  -2.028  -1.411  1.00  0.00     0.348 HD
ATOM     22  C   UNL     1      -0.625   1.093  -1.353  1.00  0.00     0.045 C 
ENDBRANCH  13  14
ENDBRANCH  12  13
ENDBRANCH   8  12
BRANCH   7  23
ATOM     23  N   UNL     1      -3.228  -6.686   1.359  1.00  0.00    -0.345 N 
ATOM     24  H   UNL     1      -3.926  -6.567   0.626  1.00  0.00     0.345 HD
ATOM     25  H   UNL     1      -3.600  -7.296   2.087  1.00  0.00     0.345 HD
ATOM     26  H   UNL     1      -2.386  -7.104   0.963  1.00  0.00     0.345 HD
ENDBRANCH   7  23
ENDBRANCH   4   7
ENDBRANCH   2   3
ENDBRANCH   1   2
BRANCH   1  27
ATOM     27  C   UNL     1       2.357  -6.762   2.095  1.00  0.00     0.023 C 
BRANCH  27  28
ATOM     28  C   UNL     1       2.743  -8.188   2.434  1.00  0.00     0.116 C 
BRANCH  28  29
ATOM     29  N   UNL     1       2.925  -9.024   1.252  1.00  0.00    -0.352 N 
ATOM     30  C   UNL     1       3.939  -9.907   0.977  1.00  0.00     0.251 C 
ATOM     31  H   UNL     1       2.229  -8.943   0.561  1.00  0.00     0.163 HD
ATOM     32  O   UNL     1       4.020 -10.441  -0.125  1.00  0.00    -0.269 OA
BRANCH  30  33
ATOM     33  C   UNL     1       4.944 -10.173   2.022  1.00  0.00     0.039 A 
ATOM     34  C   UNL     1       6.300 -10.094   1.700  1.00  0.00     0.014 A 
ATOM     35  C   UNL     1       4.534 -10.416   3.335  1.00  0.00     0.014 A 
ATOM     36  C   UNL     1       7.248 -10.188   2.718  1.00  0.00     0.010 A 
ATOM     37  C   UNL     1       5.471 -10.407   4.355  1.00  0.00     0.010 A 
ATOM     38  C   UNL     1       6.838 -10.305   4.056  1.00  0.00    -0.014 A 
BRANCH  38  39
ATOM     39  C   UNL     1       7.816 -10.349   5.168  1.00  0.00     0.031 A 
ATOM     40  C   UNL     1       7.882 -11.568   6.046  1.00  0.00     0.074 A 
ATOM     41  C   UNL     1       8.570  -9.266   5.441  1.00  0.00     0.049 A 
ATOM     42  N   UNL     1       8.582 -11.768   7.131  1.00  0.00    -0.248 NA
ATOM     43  C   UNL     1       7.008 -12.696   5.680  1.00  0.00     0.031 C 
ATOM     44  C   UNL     1       8.535  -7.999   4.706  1.00  0.00     0.029 A 
ATOM     45  N   UNL     1       9.502  -9.052   6.425  1.00  0.00    -0.354 N 
ATOM     46  C   UNL     1       8.209 -13.025   7.593  1.00  0.00     0.074 A 
ATOM     47  C   UNL     1       7.181 -13.517   6.704  1.00  0.00     0.031 C 
ATOM     48  C   UNL     1       9.421  -7.149   5.251  1.00  0.00     0.029 A 
ATOM     49  C   UNL     1      10.062  -7.797   6.390  1.00  0.00     0.049 A 
ATOM     50  H   UNL     1       9.746  -9.733   7.092  1.00  0.00     0.167 HD
ATOM     51  C   UNL     1       8.699 -13.718   8.647  1.00  0.00     0.037 A 
ATOM     52  C   UNL     1      10.989  -7.235   7.191  1.00  0.00     0.037 A 
ATOM     53  C   UNL     1       9.763 -13.242   9.489  1.00  0.00     0.049 A 
ATOM     54  C   UNL     1      11.568  -8.048   8.315  1.00  0.00     0.074 A 
ATOM     55  C   UNL     1      10.398 -13.898  10.528  1.00  0.00     0.029 A 
ATOM     56  N   UNL     1      10.355 -11.992   9.380  1.00  0.00    -0.354 N 
ATOM     57  N   UNL     1      11.259  -9.266   8.693  1.00  0.00    -0.248 NA
ATOM     58  C   UNL     1      12.628  -7.420   9.113  1.00  0.00     0.031 C 
ATOM     59  C   UNL     1      11.357 -13.033  11.066  1.00  0.00     0.029 A 
ATOM     60  C   UNL     1      11.342 -11.852  10.340  1.00  0.00     0.049 A 
ATOM     61  H   UNL     1      10.109 -11.306   8.719  1.00  0.00     0.167 HD
ATOM     62  C   UNL     1      12.099  -9.557   9.761  1.00  0.00     0.074 A 
ATOM     63  C   UNL     1      12.939  -8.393   9.959  1.00  0.00     0.031 C 
ATOM     64  C   UNL     1      12.170 -10.685  10.511  1.00  0.00     0.037 A 
BRANCH  51  65
ATOM     65  C   UNL     1       8.097 -15.066   8.929  1.00  0.00     0.058 A 
ATOM     66  C   UNL     1       8.313 -16.162   8.078  1.00  0.00     0.135 A 
ATOM     67  C   UNL     1       7.296 -15.266  10.064  1.00  0.00     0.135 A 
ATOM     68  F   UNL     1       9.055 -16.020   6.968  1.00  0.00    -0.206 F 
ATOM     69  C   UNL     1       7.725 -17.398   8.320  1.00  0.00     0.059 A 
ATOM     70  C   UNL     1       6.720 -16.503  10.341  1.00  0.00     0.059 A 
ATOM     71  F   UNL     1       7.055 -14.252  10.910  1.00  0.00    -0.206 F 
ATOM     72  C   UNL     1       6.926 -17.558   9.453  1.00  0.00     0.060 A 
BRANCH  72  73
ATOM     73  S   UNL     1       6.160 -19.165   9.750  1.00  0.00     0.124 S 
ATOM     74  O   UNL     1       5.066 -19.148   8.784  1.00  0.00    -0.237 OA
ATOM     75  O   UNL     1       7.249 -20.091   9.457  1.00  0.00    -0.237 OA
ATOM     76  O   UNL     1       5.762 -19.096  11.153  1.00  0.00    -0.744 OA
ENDBRANCH  72  73
ENDBRANCH  51  65
BRANCH  52  77
ATOM     77  C   UNL     1      11.448  -5.846   6.929  1.00  0.00     0.058 A 
ATOM     78  C   UNL     1      12.714  -5.600   6.379  1.00  0.00     0.135 A 
ATOM     79  C   UNL     1      10.622  -4.743   7.192  1.00  0.00     0.135 A 
ATOM     80  F   UNL     1      13.540  -6.623   6.113  1.00  0.00    -0.206 F 
ATOM     81  C   UNL     1      13.153  -4.307   6.109  1.00  0.00     0.059 A 
ATOM     82  C   UNL     1      11.030  -3.442   6.912  1.00  0.00     0.059 A 
ATOM     83  F   UNL     1       9.394  -4.928   7.700  1.00  0.00    -0.206 F 
ATOM     84  C   UNL     1      12.302  -3.234   6.377  1.00  0.00     0.060 A 
BRANCH  84  85
ATOM     85  S   UNL     1      12.855  -1.564   5.967  1.00  0.00     0.124 S 
ATOM     86  O   UNL     1      13.798  -1.294   7.046  1.00  0.00    -0.237 OA
ATOM     87  O   UNL     1      13.438  -1.750   4.641  1.00  0.00    -0.237 OA
ATOM     88  O   UNL     1      11.620  -0.786   5.995  1.00  0.00    -0.744 OA
ENDBRANCH  84  85
ENDBRANCH  52  77
BRANCH  64  89
ATOM     89  C   UNL     1      13.206 -10.725  11.596  1.00  0.00     0.058 A 
ATOM     90  C   UNL     1      13.038 -10.019  12.797  1.00  0.00     0.135 A 
ATOM     91  C   UNL     1      14.351 -11.525  11.456  1.00  0.00     0.135 A 
ATOM     92  F   UNL     1      11.963  -9.235  12.975  1.00  0.00    -0.206 F 
ATOM     93  C   UNL     1      13.980 -10.090  13.817  1.00  0.00     0.059 A 
ATOM     94  C   UNL     1      15.295 -11.630  12.472  1.00  0.00     0.059 A 
ATOM     95  F   UNL     1      14.551 -12.228  10.330  1.00  0.00    -0.206 F 
ATOM     96  C   UNL     1      15.105 -10.900  13.645  1.00  0.00     0.060 A 
BRANCH  96  97
ATOM     97  S   UNL     1      16.303 -11.017  14.990  1.00  0.00     0.124 S 
ATOM     98  O   UNL     1      17.018  -9.752  14.857  1.00  0.00    -0.237 OA
ATOM     99  O   UNL     1      15.446 -11.140  16.165  1.00  0.00    -0.237 OA
ATOM    100  O   UNL     1      17.072 -12.212  14.655  1.00  0.00    -0.744 OA
ENDBRANCH  96  97
ENDBRANCH  64  89
ENDBRANCH  38  39
ENDBRANCH  30  33
ENDBRANCH  28  29
ENDBRANCH  27  28
ENDBRANCH   1  27
TORSDOF 18
