REMARK SMILES O=C(NCCCCNC(=O)c1ccc(-n2nc(Cl)ccc2=O)cc1)c1ccc(-c2c3nc(c(-c4c(F)cc(S(=O)(=O)[O-])cc4F)c4ccc([nH]4)c(-c4c(F)cc(S(=O)(=O)[O-])cc4F)c4nc(c(-c5c(F)cc(S(=O)(=O)[O-])cc5F)c5ccc2[nH]5)C=C4)C=C3)cc1
REMARK SMILES IDX 4 1 3 2 1 3 2 4 25 6 26 7 90 8 27 9 89 10 28 11 29 12 30 13
REMARK SMILES IDX 83 14 31 15 88 16 82 17 84 18 32 19 87 20 81 21 80 22 33 24
REMARK SMILES IDX 67 25 46 26 66 27 47 28 50 29 65 30 85 31 48 32 49 33 64 35
REMARK SMILES IDX 86 36 51 37 34 38 35 39 44 40 36 41 37 42 43 43 45 44 38 45
REMARK SMILES IDX 39 46 40 47 41 48 42 49 68 50 69 51 78 52 70 53 71 54 77 55
REMARK SMILES IDX 79 56 72 57 73 58 74 59 75 60 76 61 52 62 53 63 62 64 54 65
REMARK SMILES IDX 55 66 61 67 63 68 56 69 57 70 58 71 59 72 60 73 5 74 6 75
REMARK SMILES IDX 7 76 8 77 9 78 10 80 11 81 12 82 24 83 13 84 23 85 14 86
REMARK SMILES IDX 15 87 16 88 21 89 17 90 20 91 22 92 18 93 19 94
REMARK H PARENT 3 5 84 23 50 34 8 79
REMARK Flexibility Score: inf
ROOT
ATOM      1  C   UNL     1       4.564  -1.104   0.523  1.00  0.00     0.116 C 
ENDROOT
BRANCH   1   2
ATOM      2  N   UNL     1       3.133  -1.042   0.267  1.00  0.00    -0.352 N 
ATOM      3  O   UNL     1       1.141  -0.079  -0.161  1.00  0.00    -0.269 OA
ATOM      4  C   UNL     1       2.364   0.026  -0.134  1.00  0.00     0.251 C 
ATOM      5  H   UNL     1       2.644  -1.886   0.400  1.00  0.00     0.163 HD
BRANCH   4   6
ATOM      6  C   UNL     1       3.010   1.305  -0.502  1.00  0.00     0.039 A 
ATOM      7  C   UNL     1       4.135   1.327  -1.330  1.00  0.00     0.014 A 
ATOM      8  C   UNL     1       2.482   2.501  -0.006  1.00  0.00     0.014 A 
ATOM      9  C   UNL     1       4.819   2.520  -1.537  1.00  0.00     0.010 A 
ATOM     10  C   UNL     1       3.124   3.712  -0.285  1.00  0.00     0.010 A 
ATOM     11  C   UNL     1       4.318   3.728  -1.024  1.00  0.00    -0.014 A 
BRANCH  11  12
ATOM     12  C   UNL     1       5.031   5.000  -1.310  1.00  0.00     0.031 A 
ATOM     13  C   UNL     1       5.652   5.808  -0.203  1.00  0.00     0.074 A 
ATOM     14  C   UNL     1       5.127   5.417  -2.587  1.00  0.00     0.049 A 
ATOM     15  N   UNL     1       6.295   6.946  -0.275  1.00  0.00    -0.248 NA
ATOM     16  C   UNL     1       5.530   5.276   1.163  1.00  0.00     0.031 C 
ATOM     17  C   UNL     1       4.558   4.721  -3.744  1.00  0.00     0.029 A 
ATOM     18  N   UNL     1       5.740   6.516  -3.131  1.00  0.00    -0.354 N 
ATOM     19  C   UNL     1       6.637   7.277   1.031  1.00  0.00     0.074 A 
ATOM     20  C   UNL     1       6.108   6.231   1.880  1.00  0.00     0.031 C 
ATOM     21  C   UNL     1       4.876   5.390  -4.861  1.00  0.00     0.029 A 
ATOM     22  C   UNL     1       5.617   6.593  -4.497  1.00  0.00     0.049 A 
ATOM     23  H   UNL     1       6.221   7.186  -2.594  1.00  0.00     0.167 HD
ATOM     24  C   UNL     1       7.333   8.352   1.477  1.00  0.00     0.037 A 
ATOM     25  C   UNL     1       6.033   7.535  -5.364  1.00  0.00     0.037 A 
ATOM     26  C   UNL     1       7.867   9.382   0.621  1.00  0.00     0.049 A 
ATOM     27  C   UNL     1       6.783   8.727  -4.843  1.00  0.00     0.074 A 
ATOM     28  C   UNL     1       8.614  10.493   0.974  1.00  0.00     0.029 A 
ATOM     29  N   UNL     1       7.707   9.432  -0.757  1.00  0.00    -0.354 N 
ATOM     30  N   UNL     1       7.119   9.010  -3.607  1.00  0.00    -0.248 NA
ATOM     31  C   UNL     1       7.209   9.727  -5.830  1.00  0.00     0.031 C 
ATOM     32  C   UNL     1       8.868  11.237  -0.184  1.00  0.00     0.029 A 
ATOM     33  C   UNL     1       8.323  10.565  -1.266  1.00  0.00     0.049 A 
ATOM     34  H   UNL     1       7.227   8.761  -1.294  1.00  0.00     0.167 HD
ATOM     35  C   UNL     1       7.813  10.213  -3.669  1.00  0.00     0.074 A 
ATOM     36  C   UNL     1       7.859  10.595  -5.066  1.00  0.00     0.031 C 
ATOM     37  C   UNL     1       8.362  10.933  -2.660  1.00  0.00     0.037 A 
BRANCH  24  38
ATOM     38  C   UNL     1       7.541   8.483   2.962  1.00  0.00     0.058 A 
ATOM     39  C   UNL     1       8.418   7.641   3.666  1.00  0.00     0.135 A 
ATOM     40  C   UNL     1       6.878   9.487   3.688  1.00  0.00     0.135 A 
ATOM     41  F   UNL     1       9.069   6.657   3.026  1.00  0.00    -0.206 F 
ATOM     42  C   UNL     1       8.606   7.770   5.039  1.00  0.00     0.059 A 
ATOM     43  C   UNL     1       7.071   9.650   5.058  1.00  0.00     0.059 A 
ATOM     44  F   UNL     1       6.030  10.322   3.067  1.00  0.00    -0.206 F 
ATOM     45  C   UNL     1       7.924   8.775   5.727  1.00  0.00     0.060 A 
BRANCH  45  46
ATOM     46  S   UNL     1       8.168   8.921   7.511  1.00  0.00     0.124 S 
ATOM     47  O   UNL     1       7.410   7.775   8.002  1.00  0.00    -0.237 OA
ATOM     48  O   UNL     1       9.619   8.821   7.638  1.00  0.00    -0.237 OA
ATOM     49  O   UNL     1       7.603  10.229   7.826  1.00  0.00    -0.744 OA
ENDBRANCH  45  46
ENDBRANCH  24  38
BRANCH  25  50
ATOM     50  C   UNL     1       5.738   7.378  -6.811  1.00  0.00     0.058 A 
ATOM     51  C   UNL     1       6.755   7.075  -7.728  1.00  0.00     0.135 A 
ATOM     52  C   UNL     1       4.425   7.479  -7.298  1.00  0.00     0.135 A 
ATOM     53  F   UNL     1       8.026   6.974  -7.311  1.00  0.00    -0.206 F 
ATOM     54  C   UNL     1       6.482   6.881  -9.078  1.00  0.00     0.059 A 
ATOM     55  C   UNL     1       4.123   7.262  -8.638  1.00  0.00     0.059 A 
ATOM     56  F   UNL     1       3.415   7.748  -6.456  1.00  0.00    -0.206 F 
ATOM     57  C   UNL     1       5.161   6.970  -9.522  1.00  0.00     0.060 A 
BRANCH  57  58
ATOM     58  S   UNL     1       4.807   6.647 -11.263  1.00  0.00     0.124 S 
ATOM     59  O   UNL     1       5.300   7.866 -11.893  1.00  0.00    -0.237 OA
ATOM     60  O   UNL     1       5.585   5.438 -11.515  1.00  0.00    -0.237 OA
ATOM     61  O   UNL     1       3.359   6.465 -11.282  1.00  0.00    -0.744 OA
ENDBRANCH  57  58
ENDBRANCH  25  50
BRANCH  37  62
ATOM     62  C   UNL     1       9.087  12.195  -3.032  1.00  0.00     0.058 A 
ATOM     63  C   UNL     1       8.399  13.353  -3.426  1.00  0.00     0.135 A 
ATOM     64  C   UNL     1      10.488  12.259  -2.950  1.00  0.00     0.135 A 
ATOM     65  F   UNL     1       7.061  13.341  -3.530  1.00  0.00    -0.206 F 
ATOM     66  C   UNL     1       9.076  14.526  -3.746  1.00  0.00     0.059 A 
ATOM     67  C   UNL     1      11.183  13.428  -3.241  1.00  0.00     0.059 A 
ATOM     68  F   UNL     1      11.193  11.181  -2.571  1.00  0.00    -0.206 F 
ATOM     69  C   UNL     1      10.468  14.554  -3.649  1.00  0.00     0.060 A 
BRANCH  69  70
ATOM     70  S   UNL     1      11.333  16.092  -4.032  1.00  0.00     0.124 S 
ATOM     71  O   UNL     1      11.254  16.118  -5.489  1.00  0.00    -0.237 OA
ATOM     72  O   UNL     1      10.525  17.088  -3.335  1.00  0.00    -0.237 OA
ATOM     73  O   UNL     1      12.667  15.878  -3.479  1.00  0.00    -0.744 OA
ENDBRANCH  69  70
ENDBRANCH  37  62
ENDBRANCH  11  12
ENDBRANCH   4   6
ENDBRANCH   1   2
BRANCH   1  74
ATOM     74  C   UNL     1       4.896  -1.587   1.929  1.00  0.00     0.023 C 
BRANCH  74  75
ATOM     75  C   UNL     1       4.435  -3.006   2.259  1.00  0.00     0.023 C 
BRANCH  75  76
ATOM     76  C   UNL     1       4.879  -4.082   1.271  1.00  0.00     0.116 C 
BRANCH  76  77
ATOM     77  N   UNL     1       6.326  -4.181   1.160  1.00  0.00    -0.352 N 
ATOM     78  C   UNL     1       7.125  -5.283   1.331  1.00  0.00     0.251 C 
ATOM     79  H   UNL     1       6.795  -3.345   0.932  1.00  0.00     0.163 HD
ATOM     80  O   UNL     1       8.348  -5.195   1.310  1.00  0.00    -0.269 OA
BRANCH  78  81
ATOM     81  C   UNL     1       6.489  -6.589   1.573  1.00  0.00     0.039 A 
ATOM     82  C   UNL     1       6.702  -7.222   2.795  1.00  0.00     0.016 A 
ATOM     83  C   UNL     1       5.662  -7.165   0.610  1.00  0.00     0.016 A 
ATOM     84  C   UNL     1       6.003  -8.397   3.092  1.00  0.00     0.029 A 
ATOM     85  C   UNL     1       4.984  -8.351   0.907  1.00  0.00     0.029 A 
ATOM     86  C   UNL     1       5.109  -8.963   2.169  1.00  0.00     0.069 A 
BRANCH  86  87
ATOM     87  N   UNL     1       4.318 -10.115   2.486  1.00  0.00    -0.196 N 
ATOM     88  N   UNL     1       3.889 -10.821   1.371  1.00  0.00    -0.153 NA
ATOM     89  C   UNL     1       3.982 -10.474   3.797  1.00  0.00     0.271 A 
ATOM     90  C   UNL     1       3.163 -11.873   1.558  1.00  0.00     0.150 A 
ATOM     91  C   UNL     1       3.116 -11.669   3.933  1.00  0.00     0.077 A 
ATOM     92  O   UNL     1       4.283  -9.892   4.837  1.00  0.00    -0.267 OA
ATOM     93  Cl  UNL     1       2.706 -12.736   0.136  1.00  0.00    -0.060 Cl
ATOM     94  C   UNL     1       2.714 -12.360   2.868  1.00  0.00     0.049 A 
ENDBRANCH  86  87
ENDBRANCH  78  81
ENDBRANCH  76  77
ENDBRANCH  75  76
ENDBRANCH  74  75
ENDBRANCH   1  74
TORSDOF 15
