REMARK SMILES COc1cc(N)ccc1SCc1ccc(C(=O)NCCCCNC(=O)c2ccc(-c3c4nc(c(-c5c(F)cc(S(=O)(=O)[O-])cc5F)c5ccc([nH]5)c(-c5c(F)cc(S(=O)(=O)[O-])cc5F)c5nc(c(-c6c(F)cc(S(=O)(=O)[O-])cc6F)c6ccc3[nH]6)C=C5)C=C4)cc2)s1
REMARK SMILES IDX 20 1 19 2 18 3 16 4 17 5 15 7 12 8 13 9 92 10 14 11 11 12
REMARK SMILES IDX 10 13 9 14 3 15 4 16 5 17 8 18 7 19 2 20 1 21 6 22 21 25
REMARK SMILES IDX 22 26 23 27 24 28 25 30 26 31 27 32 91 33 28 34 90 35 29 36
REMARK SMILES IDX 30 37 31 38 84 39 32 40 89 41 83 42 85 43 33 44 88 45 82 46
REMARK SMILES IDX 81 47 34 49 68 50 47 51 67 52 48 53 51 54 66 55 86 56 49 57
REMARK SMILES IDX 50 58 65 60 87 61 52 62 35 63 36 64 45 65 37 66 38 67 44 68
REMARK SMILES IDX 46 69 39 70 40 71 41 72 42 73 43 74 69 75 70 76 79 77 71 78
REMARK SMILES IDX 72 79 78 80 80 81 73 82 74 83 75 84 76 85 77 86 53 87 54 88
REMARK SMILES IDX 63 89 55 90 56 91 62 92 64 93 57 94 58 95 59 96 60 97 61 98
REMARK H PARENT 18 6 6 23 6 24 23 29 85 48 51 59
REMARK Flexibility Score: inf
ROOT
ATOM      1  C   UNL     1       1.395   0.985   7.270  1.00  0.00     0.023 C 
ENDROOT
BRANCH   1   2
ATOM      2  C   UNL     1       2.217   0.331   6.160  1.00  0.00     0.116 C 
BRANCH   2   3
ATOM      3  N   UNL     1       1.999  -1.099   6.131  1.00  0.00    -0.351 N 
ATOM      4  C   UNL     1       1.107  -1.884   5.439  1.00  0.00     0.261 C 
ATOM      5  O   UNL     1       1.202  -3.093   5.674  1.00  0.00    -0.268 OA
ATOM      6  H   UNL     1       2.604  -1.606   6.720  1.00  0.00     0.163 HD
BRANCH   4   7
ATOM      7  C   UNL     1       0.157  -1.325   4.481  1.00  0.00     0.092 A 
ATOM      8  C   UNL     1      -1.341  -1.193   2.483  1.00  0.00     0.016 A 
ATOM      9  C   UNL     1      -1.134   0.035   3.080  1.00  0.00     0.017 A 
ATOM     10  S   UNL     1      -0.625  -2.434   3.413  1.00  0.00    -0.134 S 
ATOM     11  C   UNL     1      -0.307  -0.045   4.238  1.00  0.00     0.026 A 
BRANCH   8  12
ATOM     12  C   UNL     1      -2.104  -1.425   1.208  1.00  0.00     0.121 C 
BRANCH  12  13
ATOM     13  S   UNL     1      -1.952  -3.015   0.344  1.00  0.00    -0.117 SA
BRANCH  13  14
ATOM     14  C   UNL     1      -0.220  -3.214  -0.100  1.00  0.00     0.050 A 
ATOM     15  C   UNL     1       0.808  -2.256  -0.100  1.00  0.00     0.134 A 
ATOM     16  C   UNL     1       2.123  -2.642  -0.425  1.00  0.00     0.073 A 
ATOM     17  C   UNL     1       2.432  -3.954  -0.792  1.00  0.00     0.035 A 
ATOM     18  C   UNL     1       0.096  -4.516  -0.532  1.00  0.00     0.021 A 
ATOM     19  C   UNL     1       1.397  -4.874  -0.895  1.00  0.00     0.027 A 
BRANCH  15  20
ATOM     20  O   UNL     1       0.509  -0.972   0.266  1.00  0.00    -0.496 OA
ATOM     21  C   UNL     1       1.236   0.063  -0.382  1.00  0.00     0.278 C 
ENDBRANCH  15  20
BRANCH  17  22
ATOM     22  N   UNL     1       3.718  -4.295  -1.187  1.00  0.00    -0.399 N 
ATOM     23  H   UNL     1       4.447  -3.637  -1.111  1.00  0.00     0.156 HD
ATOM     24  H   UNL     1       3.902  -5.194  -1.544  1.00  0.00     0.156 HD
ENDBRANCH  17  22
ENDBRANCH  13  14
ENDBRANCH  12  13
ENDBRANCH   8  12
ENDBRANCH   4   7
ENDBRANCH   2   3
ENDBRANCH   1   2
BRANCH   1  25
ATOM     25  C   UNL     1       1.986   0.807   8.674  1.00  0.00     0.023 C 
BRANCH  25  26
ATOM     26  C   UNL     1       3.379   1.401   8.876  1.00  0.00     0.116 C 
BRANCH  26  27
ATOM     27  N   UNL     1       3.457   2.812   8.530  1.00  0.00    -0.352 N 
ATOM     28  C   UNL     1       4.242   3.795   9.086  1.00  0.00     0.251 C 
ATOM     29  H   UNL     1       2.867   3.103   7.798  1.00  0.00     0.163 HD
ATOM     30  O   UNL     1       4.098   4.959   8.739  1.00  0.00    -0.269 OA
BRANCH  28  31
ATOM     31  C   UNL     1       5.227   3.439  10.130  1.00  0.00     0.039 A 
ATOM     32  C   UNL     1       5.268   4.204  11.299  1.00  0.00     0.014 A 
ATOM     33  C   UNL     1       6.093   2.355   9.967  1.00  0.00     0.014 A 
ATOM     34  C   UNL     1       6.135   3.840  12.331  1.00  0.00     0.010 A 
ATOM     35  C   UNL     1       6.909   1.955  11.022  1.00  0.00     0.010 A 
ATOM     36  C   UNL     1       6.937   2.693  12.215  1.00  0.00    -0.014 A 
BRANCH  36  37
ATOM     37  C   UNL     1       7.798   2.248  13.340  1.00  0.00     0.031 A 
ATOM     38  C   UNL     1       9.296   2.237  13.194  1.00  0.00     0.074 A 
ATOM     39  C   UNL     1       7.225   1.801  14.476  1.00  0.00     0.049 A 
ATOM     40  N   UNL     1      10.205   1.855  14.053  1.00  0.00    -0.248 NA
ATOM     41  C   UNL     1       9.842   2.692  11.906  1.00  0.00     0.031 C 
ATOM     42  C   UNL     1       5.782   1.705  14.713  1.00  0.00     0.029 A 
ATOM     43  N   UNL     1       7.783   1.338  15.640  1.00  0.00    -0.354 N 
ATOM     44  C   UNL     1      11.426   2.011  13.409  1.00  0.00     0.074 A 
ATOM     45  C   UNL     1      11.139   2.472  12.068  1.00  0.00     0.031 C 
ATOM     46  C   UNL     1       5.570   1.239  15.954  1.00  0.00     0.029 A 
ATOM     47  C   UNL     1       6.857   0.973  16.590  1.00  0.00     0.049 A 
ATOM     48  H   UNL     1       8.755   1.273  15.783  1.00  0.00     0.167 HD
ATOM     49  C   UNL     1      12.674   1.812  13.898  1.00  0.00     0.037 A 
ATOM     50  C   UNL     1       7.026   0.480  17.832  1.00  0.00     0.037 A 
ATOM     51  C   UNL     1      12.953   1.378  15.242  1.00  0.00     0.049 A 
ATOM     52  C   UNL     1       8.421   0.286  18.359  1.00  0.00     0.074 A 
ATOM     53  C   UNL     1      14.183   1.207  15.854  1.00  0.00     0.029 A 
ATOM     54  N   UNL     1      11.990   1.045  16.183  1.00  0.00    -0.354 N 
ATOM     55  N   UNL     1       9.567   0.509  17.759  1.00  0.00    -0.248 NA
ATOM     56  C   UNL     1       8.549  -0.215  19.733  1.00  0.00     0.031 C 
ATOM     57  C   UNL     1      13.964   0.733  17.152  1.00  0.00     0.029 A 
ATOM     58  C   UNL     1      12.598   0.653  17.365  1.00  0.00     0.049 A 
ATOM     59  H   UNL     1      11.018   1.082  16.034  1.00  0.00     0.167 HD
ATOM     60  C   UNL     1      10.550   0.199  18.692  1.00  0.00     0.074 A 
ATOM     61  C   UNL     1       9.864  -0.213  19.899  1.00  0.00     0.031 C 
ATOM     62  C   UNL     1      11.899   0.249  18.560  1.00  0.00     0.037 A 
BRANCH  49  63
ATOM     63  C   UNL     1      13.834   2.074  12.976  1.00  0.00     0.058 A 
ATOM     64  C   UNL     1      14.180   3.376  12.580  1.00  0.00     0.135 A 
ATOM     65  C   UNL     1      14.631   1.016  12.510  1.00  0.00     0.135 A 
ATOM     66  F   UNL     1      13.443   4.424  12.983  1.00  0.00    -0.206 F 
ATOM     67  C   UNL     1      15.256   3.618  11.733  1.00  0.00     0.059 A 
ATOM     68  C   UNL     1      15.729   1.237  11.684  1.00  0.00     0.059 A 
ATOM     69  F   UNL     1      14.346  -0.249  12.856  1.00  0.00    -0.206 F 
ATOM     70  C   UNL     1      16.025   2.541  11.289  1.00  0.00     0.060 A 
BRANCH  70  71
ATOM     71  S   UNL     1      17.421   2.873  10.194  1.00  0.00     0.124 S 
ATOM     72  O   UNL     1      16.740   3.185   8.941  1.00  0.00    -0.237 OA
ATOM     73  O   UNL     1      18.077   3.997  10.855  1.00  0.00    -0.237 OA
ATOM     74  O   UNL     1      18.168   1.620  10.206  1.00  0.00    -0.744 OA
ENDBRANCH  70  71
ENDBRANCH  49  63
BRANCH  50  75
ATOM     75  C   UNL     1       5.841   0.166  18.674  1.00  0.00     0.058 A 
ATOM     76  C   UNL     1       5.517   0.956  19.787  1.00  0.00     0.135 A 
ATOM     77  C   UNL     1       5.004  -0.921  18.378  1.00  0.00     0.135 A 
ATOM     78  F   UNL     1       6.290   2.002  20.113  1.00  0.00    -0.206 F 
ATOM     79  C   UNL     1       4.417   0.670  20.588  1.00  0.00     0.059 A 
ATOM     80  C   UNL     1       3.883  -1.212  19.149  1.00  0.00     0.059 A 
ATOM     81  F   UNL     1       5.259  -1.696  17.312  1.00  0.00    -0.206 F 
ATOM     82  C   UNL     1       3.604  -0.416  20.260  1.00  0.00     0.060 A 
BRANCH  82  83
ATOM     83  S   UNL     1       2.151  -0.751  21.280  1.00  0.00     0.124 S 
ATOM     84  O   UNL     1       2.759  -1.319  22.477  1.00  0.00    -0.237 OA
ATOM     85  O   UNL     1       1.568   0.579  21.428  1.00  0.00    -0.237 OA
ATOM     86  O   UNL     1       1.376  -1.679  20.462  1.00  0.00    -0.744 OA
ENDBRANCH  82  83
ENDBRANCH  50  75
BRANCH  62  87
ATOM     87  C   UNL     1      12.723  -0.120  19.763  1.00  0.00     0.058 A 
ATOM     88  C   UNL     1      12.839  -1.450  20.197  1.00  0.00     0.135 A 
ATOM     89  C   UNL     1      13.434   0.865  20.467  1.00  0.00     0.135 A 
ATOM     90  F   UNL     1      12.175  -2.429  19.562  1.00  0.00    -0.206 F 
ATOM     91  C   UNL     1      13.609  -1.787  21.305  1.00  0.00     0.059 A 
ATOM     92  C   UNL     1      14.232   0.546  21.561  1.00  0.00     0.059 A 
ATOM     93  F   UNL     1      13.367   2.150  20.086  1.00  0.00    -0.206 F 
ATOM     94  C   UNL     1      14.301  -0.781  21.982  1.00  0.00     0.060 A 
BRANCH  94  95
ATOM     95  S   UNL     1      15.314  -1.233  23.406  1.00  0.00     0.124 S 
ATOM     96  O   UNL     1      14.298  -1.464  24.427  1.00  0.00    -0.237 OA
ATOM     97  O   UNL     1      16.015  -2.421  22.928  1.00  0.00    -0.237 OA
ATOM     98  O   UNL     1      16.155  -0.057  23.611  1.00  0.00    -0.744 OA
ENDBRANCH  94  95
ENDBRANCH  62  87
ENDBRANCH  36  37
ENDBRANCH  28  31
ENDBRANCH  26  27
ENDBRANCH  25  26
ENDBRANCH   1  25
TORSDOF 19
