REMARK SMILES C[C@@H](C(=O)NCCCCNC(=O)c1ccc(-c2c3nc(c(-c4c(F)cc(S(=O)(=O)[O-])cc4F)c4ccc([nH]4)c(-c4c(F)cc(S(=O)(=O)[O-])cc4F)c4nc(c(-c5c(F)cc(S(=O)(=O)[O-])cc5F)c5ccc2[nH]5)C=C4)C=C3)cc1)[C@H]1CCOC2(CCCCC2)C1
REMARK SMILES IDX 8 1 7 2 6 3 5 4 3 5 4 6 2 8 1 9 79 10 80 11 89 12 81 13
REMARK SMILES IDX 83 14 82 15 84 16 88 17 85 18 87 19 86 20 9 21 10 22 11 23
REMARK SMILES IDX 12 25 13 26 14 27 78 28 15 29 77 30 16 31 17 32 18 33 71 34
REMARK SMILES IDX 19 35 76 36 70 37 72 38 20 39 75 40 69 41 68 42 21 44 55 45
REMARK SMILES IDX 34 46 54 47 35 48 38 49 53 50 73 51 36 52 37 53 52 55 74 56
REMARK SMILES IDX 39 57 22 58 23 59 32 60 24 61 25 62 31 63 33 64 26 65 27 66
REMARK SMILES IDX 28 67 29 68 30 69 56 70 57 71 66 72 58 73 59 74 65 75 67 76
REMARK SMILES IDX 60 77 61 78 62 79 63 80 64 81 40 82 41 83 50 84 42 85 43 86
REMARK SMILES IDX 49 87 51 88 44 89 45 90 46 91 47 92 48 93
REMARK H PARENT 5 7 10 24 72 43 38 54
REMARK Flexibility Score: inf
ROOT
ATOM      1  C   UNL     1      -3.203   3.585  -6.082  1.00  0.00     0.023 C 
ENDROOT
BRANCH   1   2
ATOM      2  C   UNL     1      -3.331   2.104  -5.721  1.00  0.00     0.023 C 
BRANCH   2   3
ATOM      3  C   UNL     1      -2.006   1.380  -5.480  1.00  0.00     0.116 C 
BRANCH   3   4
ATOM      4  N   UNL     1      -1.294   1.927  -4.345  1.00  0.00    -0.356 N 
ATOM      5  C   UNL     1      -1.127   1.440  -3.085  1.00  0.00     0.223 C 
ATOM      6  O   UNL     1      -0.422   2.104  -2.324  1.00  0.00    -0.275 OA
ATOM      7  H   UNL     1      -0.859   2.794  -4.511  1.00  0.00     0.163 HD
BRANCH   5   8
ATOM      8  C   UNL     1      -1.752   0.097  -2.670  1.00  0.00     0.078 C 
ATOM      9  C   UNL     1      -3.282   0.134  -2.700  1.00  0.00     0.018 C 
BRANCH   8  10
ATOM     10  C   UNL     1      -1.196  -0.355  -1.284  1.00  0.00     0.006 C 
ATOM     11  C   UNL     1      -1.739   0.463  -0.100  1.00  0.00     0.033 C 
ATOM     12  C   UNL     1      -1.468  -1.847  -1.013  1.00  0.00     0.040 C 
ATOM     13  C   UNL     1      -1.162  -0.046   1.211  1.00  0.00     0.161 C 
ATOM     14  C   UNL     1      -0.963  -2.306   0.372  1.00  0.00     0.069 C 
ATOM     15  O   UNL     1      -1.460  -1.427   1.395  1.00  0.00    -0.375 OA
ATOM     16  C   UNL     1       0.577  -2.412   0.419  1.00  0.00     0.035 C 
ATOM     17  C   UNL     1      -1.563  -3.697   0.682  1.00  0.00     0.035 C 
ATOM     18  C   UNL     1       1.074  -2.952   1.761  1.00  0.00     0.003 C 
ATOM     19  C   UNL     1      -1.074  -4.257   2.019  1.00  0.00     0.003 C 
ATOM     20  C   UNL     1       0.448  -4.303   2.088  1.00  0.00     0.000 C 
ENDBRANCH   8  10
ENDBRANCH   5   8
ENDBRANCH   3   4
ENDBRANCH   2   3
ENDBRANCH   1   2
BRANCH   1  21
ATOM     21  C   UNL     1      -2.316   3.892  -7.281  1.00  0.00     0.116 C 
BRANCH  21  22
ATOM     22  N   UNL     1      -2.735   3.197  -8.488  1.00  0.00    -0.352 N 
ATOM     23  C   UNL     1      -2.844   3.679  -9.769  1.00  0.00     0.251 C 
ATOM     24  H   UNL     1      -2.973   2.249  -8.370  1.00  0.00     0.163 HD
ATOM     25  O   UNL     1      -3.340   2.978 -10.647  1.00  0.00    -0.269 OA
BRANCH  23  26
ATOM     26  C   UNL     1      -2.397   5.055 -10.075  1.00  0.00     0.039 A 
ATOM     27  C   UNL     1      -3.244   5.891 -10.806  1.00  0.00     0.014 A 
ATOM     28  C   UNL     1      -1.163   5.526  -9.619  1.00  0.00     0.014 A 
ATOM     29  C   UNL     1      -2.885   7.224 -11.017  1.00  0.00     0.010 A 
ATOM     30  C   UNL     1      -0.838   6.872  -9.770  1.00  0.00     0.010 A 
ATOM     31  C   UNL     1      -1.698   7.735 -10.466  1.00  0.00    -0.014 A 
BRANCH  31  32
ATOM     32  C   UNL     1      -1.352   9.175 -10.587  1.00  0.00     0.031 A 
ATOM     33  C   UNL     1      -0.125   9.598 -11.347  1.00  0.00     0.074 A 
ATOM     34  C   UNL     1      -2.107  10.094  -9.952  1.00  0.00     0.049 A 
ATOM     35  N   UNL     1       0.378  10.795 -11.500  1.00  0.00    -0.248 NA
ATOM     36  C   UNL     1       0.655   8.533 -11.999  1.00  0.00     0.031 C 
ATOM     37  C   UNL     1      -3.291   9.802  -9.139  1.00  0.00     0.029 A 
ATOM     38  N   UNL     1      -1.986  11.459  -9.878  1.00  0.00    -0.354 N 
ATOM     39  C   UNL     1       1.535  10.629 -12.251  1.00  0.00     0.074 A 
ATOM     40  C   UNL     1       1.687   9.209 -12.484  1.00  0.00     0.031 C 
ATOM     41  C   UNL     1      -3.794  10.953  -8.664  1.00  0.00     0.029 A 
ATOM     42  C   UNL     1      -2.953  12.060  -9.106  1.00  0.00     0.049 A 
ATOM     43  H   UNL     1      -1.273  11.961 -10.335  1.00  0.00     0.167 HD
ATOM     44  C   UNL     1       2.381  11.575 -12.723  1.00  0.00     0.037 A 
ATOM     45  C   UNL     1      -3.135  13.355  -8.782  1.00  0.00     0.037 A 
ATOM     46  C   UNL     1       2.208  12.989 -12.513  1.00  0.00     0.049 A 
ATOM     47  C   UNL     1      -2.183  14.387  -9.325  1.00  0.00     0.074 A 
ATOM     48  C   UNL     1       2.975  14.031 -13.005  1.00  0.00     0.029 A 
ATOM     49  N   UNL     1       1.200  13.560 -11.750  1.00  0.00    -0.354 N 
ATOM     50  N   UNL     1      -1.133  14.216 -10.092  1.00  0.00    -0.248 NA
ATOM     51  C   UNL     1      -2.444  15.787  -8.964  1.00  0.00     0.031 C 
ATOM     52  C   UNL     1       2.456  15.230 -12.506  1.00  0.00     0.029 A 
ATOM     53  C   UNL     1       1.337  14.939 -11.742  1.00  0.00     0.049 A 
ATOM     54  H   UNL     1       0.493  13.060 -11.283  1.00  0.00     0.167 HD
ATOM     55  C   UNL     1      -0.625  15.488 -10.328  1.00  0.00     0.074 A 
ATOM     56  C   UNL     1      -1.489  16.419  -9.633  1.00  0.00     0.031 C 
ATOM     57  C   UNL     1       0.461  15.853 -11.054  1.00  0.00     0.037 A 
BRANCH  44  58
ATOM     58  C   UNL     1       3.569  11.118 -13.524  1.00  0.00     0.058 A 
ATOM     59  C   UNL     1       3.426  10.608 -14.824  1.00  0.00     0.135 A 
ATOM     60  C   UNL     1       4.870  11.245 -13.010  1.00  0.00     0.135 A 
ATOM     61  F   UNL     1       2.205  10.450 -15.358  1.00  0.00    -0.206 F 
ATOM     62  C   UNL     1       4.529  10.223 -15.579  1.00  0.00     0.059 A 
ATOM     63  C   UNL     1       5.989  10.891 -13.758  1.00  0.00     0.059 A 
ATOM     64  F   UNL     1       5.063  11.725 -11.771  1.00  0.00    -0.206 F 
ATOM     65  C   UNL     1       5.807  10.371 -15.038  1.00  0.00     0.060 A 
BRANCH  65  66
ATOM     66  S   UNL     1       7.228   9.889 -16.042  1.00  0.00     0.124 S 
ATOM     67  O   UNL     1       7.131   8.433 -16.004  1.00  0.00    -0.237 OA
ATOM     68  O   UNL     1       6.927  10.510 -17.328  1.00  0.00    -0.237 OA
ATOM     69  O   UNL     1       8.363  10.461 -15.323  1.00  0.00    -0.744 OA
ENDBRANCH  65  66
ENDBRANCH  44  58
BRANCH  45  70
ATOM     70  C   UNL     1      -4.272  13.754  -7.910  1.00  0.00     0.058 A 
ATOM     71  C   UNL     1      -5.357  14.479  -8.425  1.00  0.00     0.135 A 
ATOM     72  C   UNL     1      -4.296  13.423  -6.546  1.00  0.00     0.135 A 
ATOM     73  F   UNL     1      -5.378  14.823  -9.721  1.00  0.00    -0.206 F 
ATOM     74  C   UNL     1      -6.413  14.884  -7.615  1.00  0.00     0.059 A 
ATOM     75  C   UNL     1      -5.354  13.794  -5.722  1.00  0.00     0.059 A 
ATOM     76  F   UNL     1      -3.291  12.714  -6.008  1.00  0.00    -0.206 F 
ATOM     77  C   UNL     1      -6.402  14.537  -6.263  1.00  0.00     0.060 A 
BRANCH  77  78
ATOM     78  S   UNL     1      -7.793  15.040  -5.227  1.00  0.00     0.124 S 
ATOM     79  O   UNL     1      -7.531  16.465  -5.057  1.00  0.00    -0.237 OA
ATOM     80  O   UNL     1      -8.939  14.695  -6.062  1.00  0.00    -0.237 OA
ATOM     81  O   UNL     1      -7.631  14.220  -4.030  1.00  0.00    -0.744 OA
ENDBRANCH  77  78
ENDBRANCH  45  70
BRANCH  57  82
ATOM     82  C   UNL     1       0.756  17.323 -11.166  1.00  0.00     0.058 A 
ATOM     83  C   UNL     1       1.277  18.055 -10.089  1.00  0.00     0.135 A 
ATOM     84  C   UNL     1       0.563  17.994 -12.385  1.00  0.00     0.135 A 
ATOM     85  F   UNL     1       1.474  17.462  -8.901  1.00  0.00    -0.206 F 
ATOM     86  C   UNL     1       1.574  19.409 -10.207  1.00  0.00     0.059 A 
ATOM     87  C   UNL     1       0.879  19.341 -12.534  1.00  0.00     0.059 A 
ATOM     88  F   UNL     1       0.077  17.337 -13.450  1.00  0.00    -0.206 F 
ATOM     89  C   UNL     1       1.373  20.043 -11.435  1.00  0.00     0.060 A 
BRANCH  89  90
ATOM     90  S   UNL     1       1.795  21.791 -11.587  1.00  0.00     0.124 S 
ATOM     91  O   UNL     1       0.693  22.423 -10.869  1.00  0.00    -0.237 OA
ATOM     92  O   UNL     1       3.098  21.857 -10.932  1.00  0.00    -0.237 OA
ATOM     93  O   UNL     1       1.814  22.012 -13.030  1.00  0.00    -0.744 OA
ENDBRANCH  89  90
ENDBRANCH  57  82
ENDBRANCH  31  32
ENDBRANCH  23  26
ENDBRANCH  21  22
ENDBRANCH   1  21
TORSDOF 15
