REMARK SMILES Cc1ccc2[nH]cc([C@@H](C(=O)NCCCCNC(=O)c3ccc(-c4c5nc(c(-c6c(F)cc(S(=O)(=O)[O-])cc6F)c6ccc([nH]6)c(-c6c(F)cc(S(=O)(=O)[O-])cc6F)c6nc(c(-c7c(F)cc(S(=O)(=O)[O-])cc7F)c7ccc4[nH]7)C=C6)C=C5)cc3)[NH+]3CCN(c4cccc(Cl)c4)CC3)c2c1
REMARK SMILES IDX 15 1 14 2 13 3 12 4 10 5 11 6 9 8 8 9 1 10 2 11 3 12 100 13
REMARK SMILES IDX 4 14 99 15 5 16 6 17 7 18 86 20 87 21 98 22 88 24 97 25
REMARK SMILES IDX 89 26 90 27 91 28 96 29 92 30 94 31 93 32 95 33 16 34 17 35
REMARK SMILES IDX 18 36 19 38 20 39 21 40 85 41 22 42 84 43 23 44 24 45 25 46
REMARK SMILES IDX 78 47 26 48 83 49 77 50 79 51 27 52 82 53 76 54 75 55 28 57
REMARK SMILES IDX 62 58 41 59 61 60 42 61 45 62 60 63 80 64 43 65 44 66 59 68
REMARK SMILES IDX 81 69 46 70 29 71 30 72 39 73 31 74 32 75 38 76 40 77 33 78
REMARK SMILES IDX 34 79 35 80 36 81 37 82 63 83 64 84 73 85 65 86 66 87 72 88
REMARK SMILES IDX 74 89 67 90 68 91 69 92 70 93 71 94 47 95 48 96 57 97 49 98
REMARK SMILES IDX 50 99 56 100 58 101 51 102 52 103 53 104 54 105 55 106
REMARK H PARENT 12 7 6 19 86 23 17 37 79 56 45 67
REMARK Flexibility Score: inf
ROOT
ATOM      1  C   UNL     1      -1.479  -1.115   4.867  1.00  0.00     0.023 C 
ENDROOT
BRANCH   1   2
ATOM      2  C   UNL     1      -0.854  -1.182   3.478  1.00  0.00     0.023 C 
BRANCH   2   3
ATOM      3  C   UNL     1      -0.712  -2.591   2.902  1.00  0.00     0.116 C 
BRANCH   3   4
ATOM      4  N   UNL     1      -1.996  -3.177   2.579  1.00  0.00    -0.351 N 
ATOM      5  C   UNL     1      -2.665  -3.197   1.380  1.00  0.00     0.283 C 
ATOM      6  O   UNL     1      -3.773  -3.743   1.396  1.00  0.00    -0.268 OA
ATOM      7  H   UNL     1      -2.454  -3.625   3.326  1.00  0.00     0.163 HD
BRANCH   5   8
ATOM      8  C   UNL     1      -1.983  -2.617   0.093  1.00  0.00     0.307 C 
BRANCH   8   9
ATOM      9  C   UNL     1      -1.710  -1.135   0.184  1.00  0.00     0.044 A 
ATOM     10  C   UNL     1       3.382  -0.634  -0.235  1.00  0.00     0.044 C 
ATOM     11  C   UNL     1       1.983  -0.095  -0.148  1.00  0.00    -0.050 A 
ATOM     12  C   UNL     1       1.753   1.275  -0.002  1.00  0.00     0.005 A 
ATOM     13  C   UNL     1       0.896  -0.985  -0.155  1.00  0.00     0.014 A 
ATOM     14  C   UNL     1       0.461   1.782   0.174  1.00  0.00     0.027 A 
ATOM     15  C   UNL     1      -0.418  -0.504   0.051  1.00  0.00     0.009 A 
ATOM     16  C   UNL     1      -0.596   0.867   0.225  1.00  0.00     0.046 A 
ATOM     17  N   UNL     1      -1.931   1.075   0.470  1.00  0.00    -0.361 N 
ATOM     18  C   UNL     1      -2.593  -0.122   0.516  1.00  0.00     0.094 A 
ATOM     19  H   UNL     1      -2.351   1.956   0.595  1.00  0.00     0.166 HD
ENDBRANCH   8   9
BRANCH   8  20
ATOM     20  N   UNL     1      -2.675  -3.016  -1.157  1.00  0.00    -0.318 N 
ATOM     21  C   UNL     1      -4.076  -2.607  -1.348  1.00  0.00     0.284 C 
ATOM     22  C   UNL     1      -1.906  -2.800  -2.393  1.00  0.00     0.284 C 
ATOM     23  H   UNL     1      -2.730  -4.018  -0.975  1.00  0.00     0.349 HD
ATOM     24  C   UNL     1      -4.344  -1.263  -2.058  1.00  0.00     0.178 C 
ATOM     25  C   UNL     1      -2.063  -1.419  -3.073  1.00  0.00     0.178 C 
ATOM     26  N   UNL     1      -3.479  -1.053  -3.226  1.00  0.00    -0.360 N 
BRANCH  26  27
ATOM     27  C   UNL     1      -3.709   0.105  -3.970  1.00  0.00     0.038 A 
ATOM     28  C   UNL     1      -3.845   1.371  -3.380  1.00  0.00     0.026 A 
ATOM     29  C   UNL     1      -3.813   0.008  -5.361  1.00  0.00     0.046 A 
ATOM     30  C   UNL     1      -4.119   2.503  -4.151  1.00  0.00     0.004 A 
ATOM     31  C   UNL     1      -4.091   1.136  -6.131  1.00  0.00     0.043 A 
ATOM     32  C   UNL     1      -4.251   2.384  -5.532  1.00  0.00     0.020 A 
ATOM     33  Cl  UNL     1      -4.254   0.985  -7.838  1.00  0.00    -0.084 Cl
ENDBRANCH  26  27
ENDBRANCH   8  20
ENDBRANCH   5   8
ENDBRANCH   3   4
ENDBRANCH   2   3
ENDBRANCH   1   2
BRANCH   1  34
ATOM     34  C   UNL     1      -0.732  -1.899   5.931  1.00  0.00     0.116 C 
BRANCH  34  35
ATOM     35  N   UNL     1       0.666  -1.511   6.042  1.00  0.00    -0.352 N 
ATOM     36  C   UNL     1       1.435  -1.414   7.177  1.00  0.00     0.251 C 
ATOM     37  H   UNL     1       1.118  -1.289   5.197  1.00  0.00     0.163 HD
ATOM     38  O   UNL     1       2.564  -0.951   7.123  1.00  0.00    -0.269 OA
BRANCH  36  39
ATOM     39  C   UNL     1       0.854  -1.843   8.466  1.00  0.00     0.039 A 
ATOM     40  C   UNL     1       0.955  -0.991   9.567  1.00  0.00     0.014 A 
ATOM     41  C   UNL     1       0.170  -3.057   8.568  1.00  0.00     0.014 A 
ATOM     42  C   UNL     1       0.320  -1.336  10.760  1.00  0.00     0.010 A 
ATOM     43  C   UNL     1      -0.533  -3.357   9.727  1.00  0.00     0.010 A 
ATOM     44  C   UNL     1      -0.454  -2.506  10.839  1.00  0.00    -0.014 A 
BRANCH  44  45
ATOM     45  C   UNL     1      -1.166  -2.870  12.088  1.00  0.00     0.031 A 
ATOM     46  C   UNL     1      -0.789  -4.127  12.824  1.00  0.00     0.074 A 
ATOM     47  C   UNL     1      -2.184  -2.103  12.523  1.00  0.00     0.049 A 
ATOM     48  N   UNL     1      -1.319  -4.642  13.902  1.00  0.00    -0.248 NA
ATOM     49  C   UNL     1       0.307  -4.928  12.254  1.00  0.00     0.031 C 
ATOM     50  C   UNL     1      -2.682  -0.896  11.858  1.00  0.00     0.029 A 
ATOM     51  N   UNL     1      -2.989  -2.227  13.627  1.00  0.00    -0.354 N 
ATOM     52  C   UNL     1      -0.634  -5.830  14.130  1.00  0.00     0.074 A 
ATOM     53  C   UNL     1       0.308  -5.990  13.044  1.00  0.00     0.031 C 
ATOM     54  C   UNL     1      -3.687  -0.377  12.582  1.00  0.00     0.029 A 
ATOM     55  C   UNL     1      -3.926  -1.228  13.743  1.00  0.00     0.049 A 
ATOM     56  H   UNL     1      -2.904  -2.963  14.275  1.00  0.00     0.167 HD
ATOM     57  C   UNL     1      -0.757  -6.693  15.165  1.00  0.00     0.037 A 
ATOM     58  C   UNL     1      -4.869  -1.021  14.683  1.00  0.00     0.037 A 
ATOM     59  C   UNL     1      -1.673  -6.507  16.259  1.00  0.00     0.049 A 
ATOM     60  C   UNL     1      -4.966  -1.978  15.840  1.00  0.00     0.074 A 
ATOM     61  C   UNL     1      -1.835  -7.289  17.389  1.00  0.00     0.029 A 
ATOM     62  N   UNL     1      -2.579  -5.461  16.362  1.00  0.00    -0.354 N 
ATOM     63  N   UNL     1      -4.264  -3.061  16.076  1.00  0.00    -0.248 NA
ATOM     64  C   UNL     1      -5.974  -1.678  16.866  1.00  0.00     0.031 C 
ATOM     65  C   UNL     1      -2.864  -6.735  18.158  1.00  0.00     0.029 A 
ATOM     66  C   UNL     1      -3.312  -5.583  17.531  1.00  0.00     0.049 A 
ATOM     67  H   UNL     1      -2.685  -4.739  15.702  1.00  0.00     0.167 HD
ATOM     68  C   UNL     1      -4.725  -3.556  17.290  1.00  0.00     0.074 A 
ATOM     69  C   UNL     1      -5.757  -2.647  17.745  1.00  0.00     0.031 C 
ATOM     70  C   UNL     1      -4.330  -4.662  17.969  1.00  0.00     0.037 A 
BRANCH  57  71
ATOM     71  C   UNL     1       0.128  -7.909  15.165  1.00  0.00     0.058 A 
ATOM     72  C   UNL     1       1.513  -7.811  15.377  1.00  0.00     0.135 A 
ATOM     73  C   UNL     1      -0.414  -9.189  14.973  1.00  0.00     0.135 A 
ATOM     74  F   UNL     1       2.088  -6.609  15.548  1.00  0.00    -0.206 F 
ATOM     75  C   UNL     1       2.333  -8.934  15.367  1.00  0.00     0.059 A 
ATOM     76  C   UNL     1       0.383 -10.331  14.987  1.00  0.00     0.059 A 
ATOM     77  F   UNL     1      -1.732  -9.341  14.763  1.00  0.00    -0.206 F 
ATOM     78  C   UNL     1       1.758 -10.191  15.170  1.00  0.00     0.060 A 
BRANCH  78  79
ATOM     79  S   UNL     1       2.835 -11.639  15.162  1.00  0.00     0.124 S 
ATOM     80  O   UNL     1       3.493 -11.505  13.866  1.00  0.00    -0.237 OA
ATOM     81  O   UNL     1       3.680 -11.406  16.329  1.00  0.00    -0.237 OA
ATOM     82  O   UNL     1       1.903 -12.756  15.280  1.00  0.00    -0.744 OA
ENDBRANCH  78  79
ENDBRANCH  57  71
BRANCH  58  83
ATOM     83  C   UNL     1      -5.767   0.160  14.587  1.00  0.00     0.058 A 
ATOM     84  C   UNL     1      -5.634   1.240  15.471  1.00  0.00     0.135 A 
ATOM     85  C   UNL     1      -6.765   0.239  13.603  1.00  0.00     0.135 A 
ATOM     86  F   UNL     1      -4.697   1.209  16.431  1.00  0.00    -0.206 F 
ATOM     87  C   UNL     1      -6.468   2.351  15.397  1.00  0.00     0.059 A 
ATOM     88  C   UNL     1      -7.596   1.350  13.493  1.00  0.00     0.059 A 
ATOM     89  F   UNL     1      -6.920  -0.760  12.721  1.00  0.00    -0.206 F 
ATOM     90  C   UNL     1      -7.446   2.397  14.402  1.00  0.00     0.060 A 
BRANCH  90  91
ATOM     91  S   UNL     1      -8.492   3.865  14.282  1.00  0.00     0.124 S 
ATOM     92  O   UNL     1      -9.383   3.684  15.422  1.00  0.00    -0.237 OA
ATOM     93  O   UNL     1      -7.519   4.946  14.397  1.00  0.00    -0.237 OA
ATOM     94  O   UNL     1      -9.112   3.727  12.967  1.00  0.00    -0.744 OA
ENDBRANCH  90  91
ENDBRANCH  58  83
BRANCH  70  95
ATOM     95  C   UNL     1      -4.987  -4.927  19.295  1.00  0.00     0.058 A 
ATOM     96  C   UNL     1      -6.312  -5.380  19.384  1.00  0.00     0.135 A 
ATOM     97  C   UNL     1      -4.266  -4.764  20.488  1.00  0.00     0.135 A 
ATOM     98  F   UNL     1      -7.046  -5.548  18.273  1.00  0.00    -0.206 F 
ATOM     99  C   UNL     1      -6.911  -5.633  20.614  1.00  0.00     0.059 A 
ATOM    100  C   UNL     1      -4.835  -5.037  21.728  1.00  0.00     0.059 A 
ATOM    101  F   UNL     1      -2.991  -4.346  20.457  1.00  0.00    -0.206 F 
ATOM    102  C   UNL     1      -6.164  -5.456  21.781  1.00  0.00     0.060 A 
BRANCH 102 103
ATOM    103  S   UNL     1      -6.944  -5.805  23.371  1.00  0.00     0.124 S 
ATOM    104  O   UNL     1      -7.801  -4.636  23.539  1.00  0.00    -0.237 OA
ATOM    105  O   UNL     1      -7.634  -7.065  23.113  1.00  0.00    -0.237 OA
ATOM    106  O   UNL     1      -5.814  -5.893  24.291  1.00  0.00    -0.744 OA
ENDBRANCH 102 103
ENDBRANCH  70  95
ENDBRANCH  44  45
ENDBRANCH  36  39
ENDBRANCH  34  35
ENDBRANCH   1  34
TORSDOF 17
