REMARK SMILES Cn1ccc(C(=O)NCc2ccc(C(=O)NCCCCNC(=O)c3ccc(-c4c5nc(c(-c6c(F)cc(S(=O)(=O)[O-])cc6F)c6ccc([nH]6)c(-c6c(F)cc(S(=O)(=O)[O-])cc6F)c6nc(c(-c7c(F)cc(S(=O)(=O)[O-])cc7F)c7ccc4[nH]7)C=C6)C=C5)cc3)cc2)cc1=O
REMARK SMILES IDX 18 1 17 2 16 3 14 4 15 5 13 7 10 8 11 9 91 10 12 11 90 12
REMARK SMILES IDX 9 13 8 14 6 15 7 16 5 18 1 19 2 20 3 21 93 22 4 23 92 24
REMARK SMILES IDX 94 25 19 26 20 27 21 28 22 29 23 31 24 32 25 33 89 34 26 35
REMARK SMILES IDX 88 36 27 37 28 38 29 39 82 40 30 41 87 42 81 43 83 44 31 45
REMARK SMILES IDX 86 46 80 47 79 48 32 50 66 51 45 52 65 53 46 54 49 55 64 56
REMARK SMILES IDX 84 57 47 58 48 59 63 61 85 62 50 63 33 64 34 65 43 66 35 67
REMARK SMILES IDX 36 68 42 69 44 70 37 71 38 72 39 73 40 74 41 75 67 76 68 77
REMARK SMILES IDX 77 78 69 79 70 80 76 81 78 82 71 83 72 84 73 85 74 86 75 87
REMARK SMILES IDX 51 88 52 89 61 90 53 91 54 92 60 93 62 94 55 95 56 96 57 97
REMARK SMILES IDX 58 98 59 99
REMARK H PARENT 16 6 8 17 21 30 83 49 49 60
REMARK Flexibility Score: inf
ROOT
ATOM      1  C   UNL     1       4.952   6.820   5.162  1.00  0.00     0.023 C 
ENDROOT
BRANCH   1   2
ATOM      2  C   UNL     1       3.567   6.270   5.514  1.00  0.00     0.116 C 
BRANCH   2   3
ATOM      3  N   UNL     1       2.521   7.219   5.182  1.00  0.00    -0.352 N 
ATOM      4  C   UNL     1       1.686   7.320   4.096  1.00  0.00     0.251 C 
ATOM      5  O   UNL     1       0.809   8.185   4.125  1.00  0.00    -0.269 OA
ATOM      6  H   UNL     1       2.384   7.919   5.860  1.00  0.00     0.163 HD
BRANCH   4   7
ATOM      7  C   UNL     1       1.771   6.427   2.903  1.00  0.00     0.039 A 
ATOM      8  C   UNL     1       1.789   4.803   0.571  1.00  0.00    -0.029 A 
ATOM      9  C   UNL     1       0.617   5.448   0.982  1.00  0.00     0.006 A 
ATOM     10  C   UNL     1       2.955   5.020   1.319  1.00  0.00     0.006 A 
ATOM     11  C   UNL     1       0.609   6.245   2.137  1.00  0.00     0.014 A 
ATOM     12  C   UNL     1       2.946   5.829   2.457  1.00  0.00     0.014 A 
BRANCH   8  13
ATOM     13  C   UNL     1       1.820   3.977  -0.697  1.00  0.00     0.152 C 
BRANCH  13  14
ATOM     14  N   UNL     1       2.832   2.938  -0.629  1.00  0.00    -0.348 N 
ATOM     15  C   UNL     1       2.832   1.638  -0.252  1.00  0.00     0.251 C 
ATOM     16  O   UNL     1       3.936   1.093  -0.161  1.00  0.00    -0.269 OA
ATOM     17  H   UNL     1       3.717   3.250  -0.925  1.00  0.00     0.164 HD
BRANCH  15  18
ATOM     18  C   UNL     1       1.591   0.821  -0.066  1.00  0.00     0.046 A 
ATOM     19  C   UNL     1      -1.730  -1.827   0.073  1.00  0.00     0.153 C 
ATOM     20  N   UNL     1      -0.597  -0.915   0.074  1.00  0.00    -0.319 N 
ATOM     21  C   UNL     1       0.652  -1.417  -0.227  1.00  0.00     0.089 A 
ATOM     22  C   UNL     1      -0.795   0.424   0.394  1.00  0.00     0.251 A 
ATOM     23  C   UNL     1       1.714  -0.611  -0.303  1.00  0.00     0.032 A 
ATOM     24  C   UNL     1       0.411   1.299   0.356  1.00  0.00     0.085 A 
ATOM     25  O   UNL     1      -1.880   0.926   0.674  1.00  0.00    -0.269 OA
ENDBRANCH  15  18
ENDBRANCH  13  14
ENDBRANCH   8  13
ENDBRANCH   4   7
ENDBRANCH   2   3
ENDBRANCH   1   2
BRANCH   1  26
ATOM     26  C   UNL     1       5.533   7.801   6.181  1.00  0.00     0.023 C 
BRANCH  26  27
ATOM     27  C   UNL     1       5.805   7.213   7.560  1.00  0.00     0.116 C 
BRANCH  27  28
ATOM     28  N   UNL     1       6.711   6.074   7.535  1.00  0.00    -0.352 N 
ATOM     29  C   UNL     1       7.605   5.678   8.502  1.00  0.00     0.251 C 
ATOM     30  H   UNL     1       6.680   5.517   6.724  1.00  0.00     0.163 HD
ATOM     31  O   UNL     1       8.376   4.748   8.288  1.00  0.00    -0.269 OA
BRANCH  29  32
ATOM     32  C   UNL     1       7.655   6.415   9.781  1.00  0.00     0.039 A 
ATOM     33  C   UNL     1       8.891   6.864  10.252  1.00  0.00     0.014 A 
ATOM     34  C   UNL     1       6.483   6.702  10.485  1.00  0.00     0.014 A 
ATOM     35  C   UNL     1       8.943   7.662  11.396  1.00  0.00     0.010 A 
ATOM     36  C   UNL     1       6.529   7.555  11.582  1.00  0.00     0.010 A 
ATOM     37  C   UNL     1       7.759   8.043  12.049  1.00  0.00    -0.014 A 
BRANCH  37  38
ATOM     38  C   UNL     1       7.785   8.960  13.215  1.00  0.00     0.031 A 
ATOM     39  C   UNL     1       7.318   8.484  14.562  1.00  0.00     0.074 A 
ATOM     40  C   UNL     1       8.148  10.245  13.040  1.00  0.00     0.049 A 
ATOM     41  N   UNL     1       7.210   9.150  15.681  1.00  0.00    -0.248 NA
ATOM     42  C   UNL     1       6.880   7.082  14.652  1.00  0.00     0.031 C 
ATOM     43  C   UNL     1       8.545  10.845  11.764  1.00  0.00     0.029 A 
ATOM     44  N   UNL     1       8.220  11.285  13.932  1.00  0.00    -0.354 N 
ATOM     45  C   UNL     1       6.672   8.259  16.602  1.00  0.00     0.074 A 
ATOM     46  C   UNL     1       6.427   7.021  15.895  1.00  0.00     0.031 C 
ATOM     47  C   UNL     1       8.826  12.143  11.958  1.00  0.00     0.029 A 
ATOM     48  C   UNL     1       8.604  12.475  13.362  1.00  0.00     0.049 A 
ATOM     49  H   UNL     1       8.016  11.187  14.890  1.00  0.00     0.167 HD
ATOM     50  C   UNL     1       6.425   8.449  17.920  1.00  0.00     0.037 A 
ATOM     51  C   UNL     1       8.754  13.698  13.906  1.00  0.00     0.037 A 
ATOM     52  C   UNL     1       6.697   9.677  18.620  1.00  0.00     0.049 A 
ATOM     53  C   UNL     1       8.520  13.879  15.379  1.00  0.00     0.074 A 
ATOM     54  C   UNL     1       6.571   9.945  19.971  1.00  0.00     0.029 A 
ATOM     55  N   UNL     1       7.139  10.848  18.020  1.00  0.00    -0.354 N 
ATOM     56  N   UNL     1       8.108  12.998  16.260  1.00  0.00    -0.248 NA
ATOM     57  C   UNL     1       8.782  15.212  15.936  1.00  0.00     0.031 C 
ATOM     58  C   UNL     1       6.895  11.290  20.182  1.00  0.00     0.029 A 
ATOM     59  C   UNL     1       7.267  11.849  18.969  1.00  0.00     0.049 A 
ATOM     60  H   UNL     1       7.333  10.952  17.061  1.00  0.00     0.167 HD
ATOM     61  C   UNL     1       8.074  13.665  17.479  1.00  0.00     0.074 A 
ATOM     62  C   UNL     1       8.523  15.020  17.224  1.00  0.00     0.031 C 
ATOM     63  C   UNL     1       7.706  13.197  18.698  1.00  0.00     0.037 A 
BRANCH  50  64
ATOM     64  C   UNL     1       5.824   7.297  18.679  1.00  0.00     0.058 A 
ATOM     65  C   UNL     1       6.548   6.120  18.934  1.00  0.00     0.135 A 
ATOM     66  C   UNL     1       4.501   7.362  19.143  1.00  0.00     0.135 A 
ATOM     67  F   UNL     1       7.814   5.998  18.503  1.00  0.00    -0.206 F 
ATOM     68  C   UNL     1       5.964   5.029  19.570  1.00  0.00     0.059 A 
ATOM     69  C   UNL     1       3.906   6.295  19.810  1.00  0.00     0.059 A 
ATOM     70  F   UNL     1       3.764   8.464  18.933  1.00  0.00    -0.206 F 
ATOM     71  C   UNL     1       4.638   5.123  19.995  1.00  0.00     0.060 A 
BRANCH  71  72
ATOM     72  S   UNL     1       3.879   3.685  20.780  1.00  0.00     0.124 S 
ATOM     73  O   UNL     1       3.632   2.824  19.627  1.00  0.00    -0.237 OA
ATOM     74  O   UNL     1       4.925   3.236  21.693  1.00  0.00    -0.237 OA
ATOM     75  O   UNL     1       2.688   4.237  21.419  1.00  0.00    -0.744 OA
ENDBRANCH  71  72
ENDBRANCH  50  64
BRANCH  51  76
ATOM     76  C   UNL     1       9.176  14.830  13.040  1.00  0.00     0.058 A 
ATOM     77  C   UNL     1      10.485  15.328  13.089  1.00  0.00     0.135 A 
ATOM     78  C   UNL     1       8.299  15.383  12.094  1.00  0.00     0.135 A 
ATOM     79  F   UNL     1      11.358  14.835  13.982  1.00  0.00    -0.206 F 
ATOM     80  C   UNL     1      10.915  16.331  12.226  1.00  0.00     0.059 A 
ATOM     81  C   UNL     1       8.711  16.371  11.206  1.00  0.00     0.059 A 
ATOM     82  F   UNL     1       7.040  14.926  11.997  1.00  0.00    -0.206 F 
ATOM     83  C   UNL     1      10.022  16.838  11.280  1.00  0.00     0.060 A 
BRANCH  83  84
ATOM     84  S   UNL     1      10.620  18.065  10.096  1.00  0.00     0.124 S 
ATOM     85  O   UNL     1      10.715  19.258  10.929  1.00  0.00    -0.237 OA
ATOM     86  O   UNL     1      11.888  17.483   9.666  1.00  0.00    -0.237 OA
ATOM     87  O   UNL     1       9.574  18.086   9.078  1.00  0.00    -0.744 OA
ENDBRANCH  83  84
ENDBRANCH  51  76
BRANCH  63  88
ATOM     88  C   UNL     1       7.782  14.153  19.856  1.00  0.00     0.058 A 
ATOM     89  C   UNL     1       6.849  15.189  20.016  1.00  0.00     0.135 A 
ATOM     90  C   UNL     1       8.765  13.996  20.846  1.00  0.00     0.135 A 
ATOM     91  F   UNL     1       5.893  15.386  19.095  1.00  0.00    -0.206 F 
ATOM     92  C   UNL     1       6.900  16.049  21.108  1.00  0.00     0.059 A 
ATOM     93  C   UNL     1       8.819  14.829  21.959  1.00  0.00     0.059 A 
ATOM     94  F   UNL     1       9.675  13.014  20.745  1.00  0.00    -0.206 F 
ATOM     95  C   UNL     1       7.888  15.860  22.076  1.00  0.00     0.060 A 
BRANCH  95  96
ATOM     96  S   UNL     1       7.923  16.960  23.507  1.00  0.00     0.124 S 
ATOM     97  O   UNL     1       8.474  18.180  22.926  1.00  0.00    -0.237 OA
ATOM     98  O   UNL     1       6.516  17.019  23.891  1.00  0.00    -0.237 OA
ATOM     99  O   UNL     1       8.794  16.264  24.449  1.00  0.00    -0.744 OA
ENDBRANCH  95  96
ENDBRANCH  63  88
ENDBRANCH  37  38
ENDBRANCH  29  32
ENDBRANCH  27  28
ENDBRANCH  26  27
ENDBRANCH   1  26
TORSDOF 17
