REMARK SMILES Cc1cc(C(=O)N[C@@H]2C(=O)N3C(C(=O)NCCCCNC(=O)c4ccc(-c5c6nc(c(-c7c(F)cc(S(=O)(=O)[O-])cc7F)c7ccc([nH]7)c(-c7c(F)cc(S(=O)(=O)[O-])cc7F)c7nc(c(-c8c(F)cc(S(=O)(=O)[O-])cc8F)c8ccc5[nH]8)C=C7)C=C6)cc4)=C(CSc4nnc(C)s4)CS[C@H]23)n(C)n1
REMARK SMILES IDX 17 1 16 2 15 3 13 4 14 5 12 7 8 8 9 9 100 10 10 11 11 12
REMARK SMILES IDX 99 13 98 14 89 15 7 16 5 17 6 18 4 20 1 21 2 22 3 23 103 24
REMARK SMILES IDX 101 25 102 26 90 27 91 28 92 29 93 30 97 31 94 32 95 33
REMARK SMILES IDX 96 34 18 35 19 36 20 37 21 38 22 40 23 41 24 42 88 43 25 44
REMARK SMILES IDX 87 45 26 46 27 47 28 48 81 49 29 50 86 51 80 52 82 53 30 54
REMARK SMILES IDX 85 55 79 56 78 57 31 59 65 60 44 61 64 62 45 63 48 64 63 65
REMARK SMILES IDX 83 66 46 67 47 68 62 70 84 71 49 72 32 73 33 74 42 75 34 76
REMARK SMILES IDX 35 77 41 78 43 79 36 80 37 81 38 82 39 83 40 84 66 85 67 86
REMARK SMILES IDX 76 87 68 88 69 89 75 90 77 91 70 92 71 93 72 94 73 95 74 96
REMARK SMILES IDX 50 97 51 98 60 99 52 100 53 101 59 102 61 103 54 104 55 105
REMARK SMILES IDX 56 106 57 107 58 108
REMARK H PARENT 15 6 7 19 20 39 82 58 48 69
REMARK Flexibility Score: inf
ROOT
ATOM      1  C   UNL     1      -5.803  -0.559  -3.858  1.00  0.00     0.023 C 
ENDROOT
BRANCH   1   2
ATOM      2  C   UNL     1      -4.344  -0.626  -4.324  1.00  0.00     0.116 C 
BRANCH   2   3
ATOM      3  N   UNL     1      -3.441  -0.430  -3.210  1.00  0.00    -0.351 N 
ATOM      4  C   UNL     1      -2.659  -1.196  -2.414  1.00  0.00     0.268 C 
ATOM      5  O   UNL     1      -1.888  -0.523  -1.717  1.00  0.00    -0.268 OA
ATOM      6  H   UNL     1      -3.379   0.521  -2.963  1.00  0.00     0.163 HD
BRANCH   4   7
ATOM      7  C   UNL     1      -2.503  -2.729  -2.442  1.00  0.00     0.111 C 
ATOM      8  C   UNL     1      -0.092  -4.085  -0.382  1.00  0.00     0.206 C 
ATOM      9  C   UNL     1      -1.079  -2.884  -0.388  1.00  0.00     0.253 C 
ATOM     10  C   UNL     1      -0.877  -4.494  -1.659  1.00  0.00     0.181 C 
ATOM     11  O   UNL     1      -1.491  -2.129   0.472  1.00  0.00    -0.272 OA
ATOM     12  N   UNL     1      -1.404  -3.144  -1.695  1.00  0.00    -0.290 N 
ATOM     13  S   UNL     1      -2.249  -5.671  -1.441  1.00  0.00    -0.129 SA
ATOM     14  C   UNL     1      -2.925  -5.160  -3.021  1.00  0.00     0.106 C 
ATOM     15  C   UNL     1      -3.339  -3.703  -2.923  1.00  0.00    -0.020 C 
BRANCH   8  16
ATOM     16  N   UNL     1      -0.085  -4.971   0.814  1.00  0.00    -0.336 N 
ATOM     17  C   UNL     1       0.254  -6.307   0.924  1.00  0.00     0.270 C 
ATOM     18  O   UNL     1       0.215  -6.817   2.042  1.00  0.00    -0.268 OA
ATOM     19  H   UNL     1      -0.363  -4.541   1.655  1.00  0.00     0.164 HD
BRANCH  17  20
ATOM     20  C   UNL     1       0.557  -7.054  -0.277  1.00  0.00     0.126 A 
ATOM     21  C   UNL     1       0.672  -7.427  -3.894  1.00  0.00     0.069 C 
ATOM     22  C   UNL     1       0.718  -7.594  -2.421  1.00  0.00     0.060 A 
ATOM     23  C   UNL     1       1.185  -6.676  -1.455  1.00  0.00     0.059 A 
ATOM     24  N   UNL     1       0.172  -8.663  -1.841  1.00  0.00    -0.178 NA
ATOM     25  N   UNL     1       0.167  -8.354  -0.523  1.00  0.00    -0.263 N 
ATOM     26  C   UNL     1      -0.313  -9.359   0.395  1.00  0.00     0.174 C 
ENDBRANCH  17  20
ENDBRANCH   8  16
BRANCH  15  27
ATOM     27  C   UNL     1      -4.841  -3.597  -3.046  1.00  0.00     0.111 C 
BRANCH  27  28
ATOM     28  S   UNL     1      -5.433  -2.829  -1.536  1.00  0.00    -0.089 SA
BRANCH  28  29
ATOM     29  C   UNL     1      -6.913  -3.622  -1.164  1.00  0.00     0.174 A 
ATOM     30  N   UNL     1      -6.974  -4.891  -0.828  1.00  0.00    -0.132 NA
ATOM     31  S   UNL     1      -8.249  -2.692  -0.633  1.00  0.00    -0.091 S 
ATOM     32  N   UNL     1      -7.873  -5.067   0.214  1.00  0.00    -0.143 NA
ATOM     33  C   UNL     1      -8.441  -3.923   0.548  1.00  0.00     0.115 A 
ATOM     34  C   UNL     1      -9.045  -3.600   1.859  1.00  0.00     0.081 C 
ENDBRANCH  28  29
ENDBRANCH  27  28
ENDBRANCH  15  27
ENDBRANCH   4   7
ENDBRANCH   2   3
ENDBRANCH   1   2
BRANCH   1  35
ATOM     35  C   UNL     1      -6.583   0.690  -4.212  1.00  0.00     0.023 C 
BRANCH  35  36
ATOM     36  C   UNL     1      -6.738   0.933  -5.695  1.00  0.00     0.116 C 
BRANCH  36  37
ATOM     37  N   UNL     1      -7.422  -0.134  -6.417  1.00  0.00    -0.352 N 
ATOM     38  C   UNL     1      -8.310   0.009  -7.464  1.00  0.00     0.251 C 
ATOM     39  H   UNL     1      -7.230  -1.055  -6.126  1.00  0.00     0.163 HD
ATOM     40  O   UNL     1      -8.865  -0.962  -7.962  1.00  0.00    -0.269 OA
BRANCH  38  41
ATOM     41  C   UNL     1      -8.610   1.383  -7.918  1.00  0.00     0.039 A 
ATOM     42  C   UNL     1      -9.928   1.837  -7.878  1.00  0.00     0.014 A 
ATOM     43  C   UNL     1      -7.556   2.262  -8.178  1.00  0.00     0.014 A 
ATOM     44  C   UNL     1     -10.179   3.204  -8.001  1.00  0.00     0.010 A 
ATOM     45  C   UNL     1      -7.799   3.627  -8.169  1.00  0.00     0.010 A 
ATOM     46  C   UNL     1      -9.112   4.116  -8.087  1.00  0.00    -0.014 A 
BRANCH  46  47
ATOM     47  C   UNL     1      -9.339   5.584  -8.107  1.00  0.00     0.031 A 
ATOM     48  C   UNL     1      -8.843   6.393  -9.277  1.00  0.00     0.074 A 
ATOM     49  C   UNL     1      -9.915   6.197  -7.052  1.00  0.00     0.049 A 
ATOM     50  N   UNL     1      -8.863   7.688  -9.454  1.00  0.00    -0.248 NA
ATOM     51  C   UNL     1      -8.200   5.650 -10.375  1.00  0.00     0.031 C 
ATOM     52  C   UNL     1     -10.374   5.535  -5.828  1.00  0.00     0.029 A 
ATOM     53  N   UNL     1     -10.208   7.521  -6.836  1.00  0.00    -0.354 N 
ATOM     54  C   UNL     1      -8.220   7.911 -10.666  1.00  0.00     0.074 A 
ATOM     55  C   UNL     1      -7.753   6.630 -11.143  1.00  0.00     0.031 C 
ATOM     56  C   UNL     1     -10.922   6.447  -5.010  1.00  0.00     0.029 A 
ATOM     57  C   UNL     1     -10.819   7.766  -5.628  1.00  0.00     0.049 A 
ATOM     58  H   UNL     1     -10.000   8.231  -7.486  1.00  0.00     0.167 HD
ATOM     59  C   UNL     1      -8.065   9.073 -11.341  1.00  0.00     0.037 A 
ATOM     60  C   UNL     1     -11.246   8.921  -5.080  1.00  0.00     0.037 A 
ATOM     61  C   UNL     1      -8.572  10.337 -10.882  1.00  0.00     0.049 A 
ATOM     62  C   UNL     1     -11.080  10.200  -5.858  1.00  0.00     0.074 A 
ATOM     63  C   UNL     1      -8.530  11.563 -11.520  1.00  0.00     0.029 A 
ATOM     64  N   UNL     1      -9.217  10.537  -9.670  1.00  0.00    -0.354 N 
ATOM     65  N   UNL     1     -10.534  10.382  -7.037  1.00  0.00    -0.248 NA
ATOM     66  C   UNL     1     -11.595  11.429  -5.238  1.00  0.00     0.031 C 
ATOM     67  C   UNL     1      -9.110  12.514 -10.674  1.00  0.00     0.029 A 
ATOM     68  C   UNL     1      -9.562  11.870  -9.533  1.00  0.00     0.049 A 
ATOM     69  H   UNL     1      -9.402   9.834  -9.006  1.00  0.00     0.167 HD
ATOM     70  C   UNL     1     -10.667  11.739  -7.314  1.00  0.00     0.074 A 
ATOM     71  C   UNL     1     -11.354  12.328  -6.183  1.00  0.00     0.031 C 
ATOM     72  C   UNL     1     -10.260  12.434  -8.405  1.00  0.00     0.037 A 
BRANCH  59  73
ATOM     73  C   UNL     1      -7.333   9.023 -12.655  1.00  0.00     0.058 A 
ATOM     74  C   UNL     1      -7.880   8.384 -13.780  1.00  0.00     0.135 A 
ATOM     75  C   UNL     1      -6.079   9.636 -12.797  1.00  0.00     0.135 A 
ATOM     76  F   UNL     1      -9.067   7.763 -13.696  1.00  0.00    -0.206 F 
ATOM     77  C   UNL     1      -7.196   8.327 -14.989  1.00  0.00     0.059 A 
ATOM     78  C   UNL     1      -5.391   9.620 -14.007  1.00  0.00     0.059 A 
ATOM     79  F   UNL     1      -5.506  10.257 -11.753  1.00  0.00    -0.206 F 
ATOM     80  C   UNL     1      -5.951   8.949 -15.093  1.00  0.00     0.060 A 
BRANCH  80  81
ATOM     81  S   UNL     1      -5.080   8.871 -16.671  1.00  0.00     0.124 S 
ATOM     82  O   UNL     1      -4.656   7.474 -16.700  1.00  0.00    -0.237 OA
ATOM     83  O   UNL     1      -6.126   9.235 -17.622  1.00  0.00    -0.237 OA
ATOM     84  O   UNL     1      -4.008   9.849 -16.517  1.00  0.00    -0.744 OA
ENDBRANCH  80  81
ENDBRANCH  59  73
BRANCH  60  85
ATOM     85  C   UNL     1     -11.901   8.920  -3.743  1.00  0.00     0.058 A 
ATOM     86  C   UNL     1     -13.272   9.188  -3.609  1.00  0.00     0.135 A 
ATOM     87  C   UNL     1     -11.175   8.643  -2.574  1.00  0.00     0.135 A 
ATOM     88  F   UNL     1     -14.010   9.464  -4.696  1.00  0.00    -0.206 F 
ATOM     89  C   UNL     1     -13.897   9.200  -2.366  1.00  0.00     0.059 A 
ATOM     90  C   UNL     1     -11.783   8.623  -1.321  1.00  0.00     0.059 A 
ATOM     91  F   UNL     1      -9.865   8.363  -2.646  1.00  0.00    -0.206 F 
ATOM     92  C   UNL     1     -13.144   8.914  -1.227  1.00  0.00     0.060 A 
BRANCH  92  93
ATOM     93  S   UNL     1     -13.975   8.885   0.377  1.00  0.00     0.124 S 
ATOM     94  O   UNL     1     -14.215  10.304   0.609  1.00  0.00    -0.237 OA
ATOM     95  O   UNL     1     -15.156   8.074   0.094  1.00  0.00    -0.237 OA
ATOM     96  O   UNL     1     -12.990   8.258   1.253  1.00  0.00    -0.744 OA
ENDBRANCH  92  93
ENDBRANCH  60  85
BRANCH  72  97
ATOM     97  C   UNL     1     -10.582  13.901  -8.454  1.00  0.00     0.058 A 
ATOM     98  C   UNL     1      -9.912  14.834  -7.649  1.00  0.00     0.135 A 
ATOM     99  C   UNL     1     -11.530  14.386  -9.371  1.00  0.00     0.135 A 
ATOM    100  F   UNL     1      -9.000  14.422  -6.753  1.00  0.00    -0.206 F 
ATOM    101  C   UNL     1     -10.185  16.195  -7.735  1.00  0.00     0.059 A 
ATOM    102  C   UNL     1     -11.797  15.744  -9.495  1.00  0.00     0.059 A 
ATOM    103  F   UNL     1     -12.191  13.536 -10.174  1.00  0.00    -0.206 F 
ATOM    104  C   UNL     1     -11.127  16.641  -8.665  1.00  0.00     0.060 A 
BRANCH 104 105
ATOM    105  S   UNL     1     -11.442  18.413  -8.794  1.00  0.00     0.124 S 
ATOM    106  O   UNL     1     -12.203  18.666  -7.576  1.00  0.00    -0.237 OA
ATOM    107  O   UNL     1     -10.092  18.968  -8.826  1.00  0.00    -0.237 OA
ATOM    108  O   UNL     1     -12.193  18.535 -10.040  1.00  0.00    -0.744 OA
ENDBRANCH 104 105
ENDBRANCH  72  97
ENDBRANCH  46  47
ENDBRANCH  38  41
ENDBRANCH  36  37
ENDBRANCH  35  36
ENDBRANCH   1  35
TORSDOF 19
