REMARK SMILES O=C(NCCCCNC(=O)c1ccc(S(=O)(=O)Cc2ncccn2)c(F)c1)c1ccc(-c2c3nc(c(-c4c(F)cc(S(=O)(=O)[O-])cc4F)c4ccc([nH]4)c(-c4c(F)cc(S(=O)(=O)[O-])cc4F)c4nc(c(-c5c(F)cc(S(=O)(=O)[O-])cc5F)c5ccc2[nH]5)C=C4)C=C3)cc1
REMARK SMILES IDX 5 1 4 2 3 3 1 4 2 5 28 7 29 8 93 9 30 10 92 11 31 12 32 13
REMARK SMILES IDX 33 14 86 15 34 16 91 17 85 18 87 19 35 20 90 21 84 22 83 23
REMARK SMILES IDX 36 25 70 26 49 27 69 28 50 29 53 30 68 31 88 32 51 33 52 34
REMARK SMILES IDX 67 36 89 37 54 38 37 39 38 40 47 41 39 42 40 43 46 44 48 45
REMARK SMILES IDX 41 46 42 47 43 48 44 49 45 50 71 51 72 52 81 53 73 54 74 55
REMARK SMILES IDX 80 56 82 57 75 58 76 59 77 60 78 61 79 62 55 63 56 64 65 65
REMARK SMILES IDX 57 66 58 67 64 68 66 69 59 70 60 71 61 72 62 73 63 74 6 75
REMARK SMILES IDX 7 76 8 77 9 78 10 80 11 81 12 82 27 83 13 84 25 85 14 86
REMARK SMILES IDX 26 87 15 88 16 89 17 90 18 91 19 92 20 93 24 94 21 95 23 96
REMARK SMILES IDX 22 97
REMARK H PARENT 3 6 87 24 53 35 8 79
REMARK Flexibility Score: inf
ROOT
ATOM      1  C   UNL     1       5.024  -1.454  -2.298  1.00  0.00     0.023 C 
ENDROOT
BRANCH   1   2
ATOM      2  C   UNL     1       4.694  -0.321  -1.334  1.00  0.00     0.116 C 
BRANCH   2   3
ATOM      3  N   UNL     1       3.265  -0.093  -1.185  1.00  0.00    -0.352 N 
ATOM      4  O   UNL     1       1.294   0.087  -0.111  1.00  0.00    -0.269 OA
ATOM      5  C   UNL     1       2.517   0.017  -0.037  1.00  0.00     0.251 C 
ATOM      6  H   UNL     1       2.762  -0.006  -2.027  1.00  0.00     0.163 HD
BRANCH   5   7
ATOM      7  C   UNL     1       3.183   0.018   1.285  1.00  0.00     0.039 A 
ATOM      8  C   UNL     1       4.321   0.795   1.514  1.00  0.00     0.014 A 
ATOM      9  C   UNL     1       2.656  -0.772   2.312  1.00  0.00     0.014 A 
ATOM     10  C   UNL     1       5.008   0.677   2.718  1.00  0.00     0.010 A 
ATOM     11  C   UNL     1       3.307  -0.832   3.549  1.00  0.00     0.010 A 
ATOM     12  C   UNL     1       4.505  -0.131   3.752  1.00  0.00    -0.014 A 
BRANCH  12  13
ATOM     13  C   UNL     1       5.223  -0.183   5.051  1.00  0.00     0.031 A 
ATOM     14  C   UNL     1       5.892  -1.445   5.520  1.00  0.00     0.074 A 
ATOM     15  C   UNL     1       5.309   0.943   5.786  1.00  0.00     0.049 A 
ATOM     16  N   UNL     1       6.579  -1.652   6.615  1.00  0.00    -0.248 NA
ATOM     17  C   UNL     1       5.776  -2.630   4.655  1.00  0.00     0.031 C 
ATOM     18  C   UNL     1       4.702   2.228   5.428  1.00  0.00     0.029 A 
ATOM     19  N   UNL     1       5.957   1.200   6.967  1.00  0.00    -0.354 N 
ATOM     20  C   UNL     1       6.969  -2.985   6.578  1.00  0.00     0.074 A 
ATOM     21  C   UNL     1       6.421  -3.549   5.362  1.00  0.00     0.031 C 
ATOM     22  C   UNL     1       5.055   3.149   6.336  1.00  0.00     0.029 A 
ATOM     23  C   UNL     1       5.861   2.510   7.372  1.00  0.00     0.049 A 
ATOM     24  H   UNL     1       6.444   0.513   7.476  1.00  0.00     0.167 HD
ATOM     25  C   UNL     1       7.723  -3.670   7.471  1.00  0.00     0.037 A 
ATOM     26  C   UNL     1       6.358   3.131   8.458  1.00  0.00     0.037 A 
ATOM     27  C   UNL     1       8.277  -3.098   8.672  1.00  0.00     0.049 A 
ATOM     28  C   UNL     1       7.162   2.341   9.447  1.00  0.00     0.074 A 
ATOM     29  C   UNL     1       9.060  -3.711   9.635  1.00  0.00     0.029 A 
ATOM     30  N   UNL     1       8.112  -1.780   9.074  1.00  0.00    -0.354 N 
ATOM     31  N   UNL     1       7.512   1.078   9.399  1.00  0.00    -0.248 NA
ATOM     32  C   UNL     1       7.628   3.053  10.645  1.00  0.00     0.031 C 
ATOM     33  C   UNL     1       9.342  -2.774  10.634  1.00  0.00     0.029 A 
ATOM     34  C   UNL     1       8.765  -1.566  10.277  1.00  0.00     0.049 A 
ATOM     35  H   UNL     1       7.604  -1.098   8.578  1.00  0.00     0.167 HD
ATOM     36  C   UNL     1       8.242   0.843  10.556  1.00  0.00     0.074 A 
ATOM     37  C   UNL     1       8.300   2.099  11.277  1.00  0.00     0.031 C 
ATOM     38  C   UNL     1       8.808  -0.311  10.984  1.00  0.00     0.037 A 
BRANCH  25  39
ATOM     39  C   UNL     1       8.001  -5.121   7.192  1.00  0.00     0.058 A 
ATOM     40  C   UNL     1       7.380  -6.125   7.952  1.00  0.00     0.135 A 
ATOM     41  C   UNL     1       8.935  -5.516   6.223  1.00  0.00     0.135 A 
ATOM     42  F   UNL     1       6.475  -5.803   8.889  1.00  0.00    -0.206 F 
ATOM     43  C   UNL     1       7.688  -7.470   7.770  1.00  0.00     0.059 A 
ATOM     44  C   UNL     1       9.244  -6.856   6.010  1.00  0.00     0.059 A 
ATOM     45  F   UNL     1       9.541  -4.595   5.455  1.00  0.00    -0.206 F 
ATOM     46  C   UNL     1       8.625  -7.826   6.799  1.00  0.00     0.060 A 
BRANCH  46  47
ATOM     47  S   UNL     1       8.992  -9.577   6.552  1.00  0.00     0.124 S 
ATOM     48  O   UNL     1       9.784  -9.889   7.737  1.00  0.00    -0.237 OA
ATOM     49  O   UNL     1       7.658 -10.168   6.503  1.00  0.00    -0.237 OA
ATOM     50  O   UNL     1       9.720  -9.593   5.285  1.00  0.00    -0.744 OA
ENDBRANCH  46  47
ENDBRANCH  25  39
BRANCH  26  51
ATOM     51  C   UNL     1       6.107   4.582   8.647  1.00  0.00     0.058 A 
ATOM     52  C   UNL     1       4.826   5.064   8.956  1.00  0.00     0.135 A 
ATOM     53  C   UNL     1       7.134   5.519   8.462  1.00  0.00     0.135 A 
ATOM     54  F   UNL     1       3.809   4.206   9.132  1.00  0.00    -0.206 F 
ATOM     55  C   UNL     1       4.562   6.425   9.040  1.00  0.00     0.059 A 
ATOM     56  C   UNL     1       6.900   6.887   8.565  1.00  0.00     0.059 A 
ATOM     57  F   UNL     1       8.377   5.103   8.177  1.00  0.00    -0.206 F 
ATOM     58  C   UNL     1       5.604   7.330   8.834  1.00  0.00     0.060 A 
BRANCH  58  59
ATOM     59  S   UNL     1       5.239   9.096   8.922  1.00  0.00     0.124 S 
ATOM     60  O   UNL     1       4.526   9.306   7.667  1.00  0.00    -0.237 OA
ATOM     61  O   UNL     1       4.433   9.184  10.134  1.00  0.00    -0.237 OA
ATOM     62  O   UNL     1       6.561   9.708   9.005  1.00  0.00    -0.744 OA
ENDBRANCH  58  59
ENDBRANCH  26  51
BRANCH  38  63
ATOM     63  C   UNL     1       9.543  -0.274  12.292  1.00  0.00     0.058 A 
ATOM     64  C   UNL     1      10.945  -0.313  12.325  1.00  0.00     0.135 A 
ATOM     65  C   UNL     1       8.854  -0.263  13.515  1.00  0.00     0.135 A 
ATOM     66  F   UNL     1      11.648  -0.326  11.182  1.00  0.00    -0.206 F 
ATOM     67  C   UNL     1      11.641  -0.359  13.527  1.00  0.00     0.059 A 
ATOM     68  C   UNL     1       9.531  -0.288  14.731  1.00  0.00     0.059 A 
ATOM     69  F   UNL     1       7.513  -0.211  13.534  1.00  0.00    -0.206 F 
ATOM     70  C   UNL     1      10.925  -0.352  14.726  1.00  0.00     0.060 A 
BRANCH  70  71
ATOM     71  S   UNL     1      11.842  -0.399  16.280  1.00  0.00     0.124 S 
ATOM     72  O   UNL     1      12.282  -1.789  16.325  1.00  0.00    -0.237 OA
ATOM     73  O   UNL     1      12.890   0.592  16.052  1.00  0.00    -0.237 OA
ATOM     74  O   UNL     1      10.841  -0.023  17.274  1.00  0.00    -0.744 OA
ENDBRANCH  70  71
ENDBRANCH  38  63
ENDBRANCH  12  13
ENDBRANCH   5   7
ENDBRANCH   2   3
ENDBRANCH   1   2
BRANCH   1  75
ATOM     75  C   UNL     1       4.530  -1.267  -3.733  1.00  0.00     0.023 C 
BRANCH  75  76
ATOM     76  C   UNL     1       4.918   0.057  -4.389  1.00  0.00     0.116 C 
BRANCH  76  77
ATOM     77  N   UNL     1       6.360   0.228  -4.489  1.00  0.00    -0.352 N 
ATOM     78  C   UNL     1       7.144   0.289  -5.612  1.00  0.00     0.251 C 
ATOM     79  H   UNL     1       6.838   0.312  -3.632  1.00  0.00     0.163 HD
ATOM     80  O   UNL     1       8.366   0.335  -5.544  1.00  0.00    -0.269 OA
BRANCH  78  81
ATOM     81  C   UNL     1       6.495   0.276  -6.932  1.00  0.00     0.042 A 
ATOM     82  C   UNL     1       5.706   1.359  -7.338  1.00  0.00     0.015 A 
ATOM     83  C   UNL     1       6.655  -0.846  -7.746  1.00  0.00     0.054 A 
ATOM     84  C   UNL     1       5.026   1.291  -8.554  1.00  0.00     0.024 A 
ATOM     85  C   UNL     1       5.956  -0.912  -8.945  1.00  0.00     0.142 A 
ATOM     86  C   UNL     1       5.145   0.142  -9.349  1.00  0.00     0.103 A 
ATOM     87  F   UNL     1       6.046  -2.032  -9.673  1.00  0.00    -0.206 F 
BRANCH  86  88
ATOM     88  S   UNL     1       4.162   0.012 -10.809  1.00  0.00     0.188 S 
ATOM     89  O   UNL     1       3.008  -0.779 -10.405  1.00  0.00    -0.223 OA
ATOM     90  O   UNL     1       3.934   1.366 -11.290  1.00  0.00    -0.223 OA
BRANCH  88  91
ATOM     91  C   UNL     1       4.998  -0.897 -12.061  1.00  0.00     0.219 C 
BRANCH  91  92
ATOM     92  C   UNL     1       6.428  -0.496 -12.184  1.00  0.00     0.143 A 
ATOM     93  N   UNL     1       6.767   0.803 -12.184  1.00  0.00    -0.240 NA
ATOM     94  N   UNL     1       7.308  -1.497 -12.399  1.00  0.00    -0.240 NA
ATOM     95  C   UNL     1       8.070   1.095 -12.373  1.00  0.00     0.115 A 
ATOM     96  C   UNL     1       8.597  -1.154 -12.581  1.00  0.00     0.115 A 
ATOM     97  C   UNL     1       9.039   0.144 -12.578  1.00  0.00     0.040 A 
ENDBRANCH  91  92
ENDBRANCH  88  91
ENDBRANCH  86  88
ENDBRANCH  78  81
ENDBRANCH  76  77
ENDBRANCH  75  76
ENDBRANCH   1  75
TORSDOF 17
