REMARK SMILES O=C(/C=C\N1[C@@H]2CC[C@H]1C[C@H](O)C2)NCCCCNC(=O)c1ccc(-c2c3nc(c(-c4c(F)cc(S(=O)(=O)[O-])cc4F)c4ccc([nH]4)c(-c4c(F)cc(S(=O)(=O)[O-])cc4F)c4nc(c(-c5c(F)cc(S(=O)(=O)[O-])cc5F)c5ccc2[nH]5)C=C4)C=C3)cc1
REMARK SMILES IDX 17 1 16 2 15 3 14 4 1 5 2 6 3 8 4 9 5 10 6 11 9 12 7 13
REMARK SMILES IDX 13 14 8 15 10 16 11 17 12 18 18 20 19 21 20 22 21 24 22 25
REMARK SMILES IDX 23 26 87 27 24 28 86 29 25 30 26 31 27 32 80 33 28 34 85 35
REMARK SMILES IDX 79 36 81 37 29 38 84 39 78 40 77 41 30 43 64 44 43 45 63 46
REMARK SMILES IDX 44 47 47 48 62 49 82 50 45 51 46 52 61 54 83 55 48 56 31 57
REMARK SMILES IDX 32 58 41 59 33 60 34 61 40 62 42 63 35 64 36 65 37 66 38 67
REMARK SMILES IDX 39 68 65 69 66 70 75 71 67 72 68 73 74 74 76 75 69 76 70 77
REMARK SMILES IDX 71 78 72 79 73 80 49 81 50 82 59 83 51 84 52 85 58 86 60 87
REMARK SMILES IDX 53 88 54 89 55 90 56 91 57 92
REMARK H PARENT 14 7 12 19 19 23 81 42 47 53
REMARK Flexibility Score: inf
ROOT
ATOM      1  C   UNL     1       3.192  -4.046   1.887  1.00  0.00     0.023 C 
ENDROOT
BRANCH   1   2
ATOM      2  C   UNL     1       1.825  -3.441   1.511  1.00  0.00     0.023 C 
BRANCH   2   3
ATOM      3  C   UNL     1       1.570  -1.930   1.665  1.00  0.00     0.116 C 
BRANCH   3   4
ATOM      4  N   UNL     1       2.403  -1.031   0.884  1.00  0.00    -0.353 N 
ATOM      5  O   UNL     1       1.102  -0.853  -0.999  1.00  0.00    -0.270 OA
ATOM      6  C   UNL     1       2.112  -0.553  -0.362  1.00  0.00     0.245 C 
ATOM      7  H   UNL     1       3.252  -0.740   1.289  1.00  0.00     0.163 HD
BRANCH   6   8
ATOM      8  C   UNL     1       3.015   0.522  -0.879  1.00  0.00     0.088 C 
ATOM      9  C   UNL     1       4.318   0.790  -0.692  1.00  0.00     0.087 C 
BRANCH   9  10
ATOM     10  N   UNL     1       5.348   0.161  -0.028  1.00  0.00    -0.371 N 
ATOM     11  C   UNL     1       6.619   0.766   0.411  1.00  0.00     0.084 C 
ATOM     12  C   UNL     1       5.441  -1.232   0.379  1.00  0.00     0.084 C 
ATOM     13  C   UNL     1       7.656  -0.379   0.248  1.00  0.00     0.027 C 
ATOM     14  C   UNL     1       6.434   1.112   1.904  1.00  0.00     0.056 C 
ATOM     15  C   UNL     1       6.830  -1.601  -0.136  1.00  0.00     0.027 C 
ATOM     16  C   UNL     1       5.429  -1.262   1.920  1.00  0.00     0.056 C 
ATOM     17  C   UNL     1       5.492   0.113   2.598  1.00  0.00     0.118 C 
BRANCH  17  18
ATOM     18  O   UNL     1       4.154   0.647   2.631  1.00  0.00    -0.393 OA
ATOM     19  H   UNL     1       3.827   0.757   1.724  1.00  0.00     0.210 HD
ENDBRANCH  17  18
ENDBRANCH   9  10
ENDBRANCH   6   8
ENDBRANCH   3   4
ENDBRANCH   2   3
ENDBRANCH   1   2
BRANCH   1  20
ATOM     20  C   UNL     1       3.814  -3.711   3.251  1.00  0.00     0.116 C 
BRANCH  20  21
ATOM     21  N   UNL     1       3.541  -4.621   4.336  1.00  0.00    -0.352 N 
ATOM     22  C   UNL     1       4.397  -5.123   5.296  1.00  0.00     0.251 C 
ATOM     23  H   UNL     1       2.609  -4.930   4.401  1.00  0.00     0.163 HD
ATOM     24  O   UNL     1       3.917  -5.817   6.194  1.00  0.00    -0.269 OA
BRANCH  22  25
ATOM     25  C   UNL     1       5.880  -4.921   5.265  1.00  0.00     0.039 A 
ATOM     26  C   UNL     1       6.677  -6.045   5.521  1.00  0.00     0.014 A 
ATOM     27  C   UNL     1       6.513  -3.687   5.078  1.00  0.00     0.014 A 
ATOM     28  C   UNL     1       8.076  -5.950   5.541  1.00  0.00     0.010 A 
ATOM     29  C   UNL     1       7.923  -3.600   5.055  1.00  0.00     0.010 A 
ATOM     30  C   UNL     1       8.726  -4.732   5.281  1.00  0.00    -0.014 A 
BRANCH  30  31
ATOM     31  C   UNL     1      10.224  -4.681   5.226  1.00  0.00     0.031 A 
ATOM     32  C   UNL     1      11.032  -3.926   6.255  1.00  0.00     0.074 A 
ATOM     33  C   UNL     1      10.882  -5.342   4.248  1.00  0.00     0.049 A 
ATOM     34  N   UNL     1      12.334  -3.818   6.368  1.00  0.00    -0.248 NA
ATOM     35  C   UNL     1      10.282  -3.192   7.283  1.00  0.00     0.031 C 
ATOM     36  C   UNL     1      10.245  -6.102   3.172  1.00  0.00     0.029 A 
ATOM     37  N   UNL     1      12.229  -5.488   4.000  1.00  0.00    -0.354 N 
ATOM     38  C   UNL     1      12.562  -3.012   7.480  1.00  0.00     0.074 A 
ATOM     39  C   UNL     1      11.258  -2.619   7.975  1.00  0.00     0.031 C 
ATOM     40  C   UNL     1      11.194  -6.649   2.396  1.00  0.00     0.029 A 
ATOM     41  C   UNL     1      12.511  -6.252   2.890  1.00  0.00     0.049 A 
ATOM     42  H   UNL     1      12.926  -5.082   4.565  1.00  0.00     0.167 HD
ATOM     43  C   UNL     1      13.740  -2.648   8.049  1.00  0.00     0.037 A 
ATOM     44  C   UNL     1      13.686  -6.595   2.322  1.00  0.00     0.037 A 
ATOM     45  C   UNL     1      15.044  -3.037   7.564  1.00  0.00     0.049 A 
ATOM     46  C   UNL     1      14.981  -6.148   2.948  1.00  0.00     0.074 A 
ATOM     47  C   UNL     1      16.285  -2.741   8.105  1.00  0.00     0.029 A 
ATOM     48  N   UNL     1      15.282  -3.795   6.427  1.00  0.00    -0.354 N 
ATOM     49  N   UNL     1      15.169  -5.432   4.030  1.00  0.00    -0.248 NA
ATOM     50  C   UNL     1      16.225  -6.562   2.281  1.00  0.00     0.031 C 
ATOM     51  C   UNL     1      17.272  -3.269   7.265  1.00  0.00     0.029 A 
ATOM     52  C   UNL     1      16.648  -3.950   6.234  1.00  0.00     0.049 A 
ATOM     53  H   UNL     1      14.584  -4.169   5.842  1.00  0.00     0.167 HD
ATOM     54  C   UNL     1      16.549  -5.334   4.187  1.00  0.00     0.074 A 
ATOM     55  C   UNL     1      17.148  -6.075   3.098  1.00  0.00     0.031 C 
ATOM     56  C   UNL     1      17.251  -4.688   5.151  1.00  0.00     0.037 A 
BRANCH  43  57
ATOM     57  C   UNL     1      13.685  -1.768   9.273  1.00  0.00     0.058 A 
ATOM     58  C   UNL     1      13.219  -2.249  10.508  1.00  0.00     0.135 A 
ATOM     59  C   UNL     1      14.155  -0.444   9.226  1.00  0.00     0.135 A 
ATOM     60  F   UNL     1      12.754  -3.503  10.613  1.00  0.00    -0.206 F 
ATOM     61  C   UNL     1      13.187  -1.440  11.640  1.00  0.00     0.059 A 
ATOM     62  C   UNL     1      14.162   0.373  10.354  1.00  0.00     0.059 A 
ATOM     63  F   UNL     1      14.623   0.067   8.076  1.00  0.00    -0.206 F 
ATOM     64  C   UNL     1      13.658  -0.129  11.553  1.00  0.00     0.060 A 
BRANCH  64  65
ATOM     65  S   UNL     1      13.599   0.909  13.029  1.00  0.00     0.124 S 
ATOM     66  O   UNL     1      12.164   1.150  13.156  1.00  0.00    -0.237 OA
ATOM     67  O   UNL     1      14.188   0.043  14.044  1.00  0.00    -0.237 OA
ATOM     68  O   UNL     1      14.398   2.073  12.660  1.00  0.00    -0.744 OA
ENDBRANCH  64  65
ENDBRANCH  43  57
BRANCH  44  69
ATOM     69  C   UNL     1      13.694  -7.412   1.076  1.00  0.00     0.058 A 
ATOM     70  C   UNL     1      14.163  -8.734   1.071  1.00  0.00     0.135 A 
ATOM     71  C   UNL     1      13.226  -6.882  -0.138  1.00  0.00     0.135 A 
ATOM     72  F   UNL     1      14.634  -9.283   2.202  1.00  0.00    -0.206 F 
ATOM     73  C   UNL     1      14.179  -9.499  -0.091  1.00  0.00     0.059 A 
ATOM     74  C   UNL     1      13.204  -7.636  -1.306  1.00  0.00     0.059 A 
ATOM     75  F   UNL     1      12.758  -5.625  -0.187  1.00  0.00    -0.206 F 
ATOM     76  C   UNL     1      13.692  -8.942  -1.275  1.00  0.00     0.060 A 
BRANCH  76  77
ATOM     77  S   UNL     1      13.663  -9.960  -2.766  1.00  0.00     0.124 S 
ATOM     78  O   UNL     1      15.080 -10.031  -3.102  1.00  0.00    -0.237 OA
ATOM     79  O   UNL     1      13.058 -11.196  -2.280  1.00  0.00    -0.237 OA
ATOM     80  O   UNL     1      12.834  -9.185  -3.685  1.00  0.00    -0.744 OA
ENDBRANCH  76  77
ENDBRANCH  44  69
BRANCH  56  81
ATOM     81  C   UNL     1      18.756  -4.773   5.101  1.00  0.00     0.058 A 
ATOM     82  C   UNL     1      19.505  -4.108   4.117  1.00  0.00     0.135 A 
ATOM     83  C   UNL     1      19.462  -5.492   6.081  1.00  0.00     0.135 A 
ATOM     84  F   UNL     1      18.885  -3.412   3.151  1.00  0.00    -0.206 F 
ATOM     85  C   UNL     1      20.896  -4.173   4.092  1.00  0.00     0.059 A 
ATOM     86  C   UNL     1      20.853  -5.546   6.092  1.00  0.00     0.059 A 
ATOM     87  F   UNL     1      18.799  -6.141   7.051  1.00  0.00    -0.206 F 
ATOM     88  C   UNL     1      21.562  -4.892   5.086  1.00  0.00     0.060 A 
BRANCH  88  89
ATOM     89  S   UNL     1      23.367  -4.938   5.060  1.00  0.00     0.124 S 
ATOM     90  O   UNL     1      23.624  -5.812   3.920  1.00  0.00    -0.237 OA
ATOM     91  O   UNL     1      23.712  -3.533   4.871  1.00  0.00    -0.237 OA
ATOM     92  O   UNL     1      23.713  -5.492   6.366  1.00  0.00    -0.744 OA
ENDBRANCH  88  89
ENDBRANCH  56  81
ENDBRANCH  30  31
ENDBRANCH  22  25
ENDBRANCH  20  21
ENDBRANCH   1  20
TORSDOF 16
