REMARK SMILES C#CC[NH2+]CC(=O)N1CC[C@](CCC)(C(=O)NCCCCNC(=O)c2ccc(-c3c4nc(c(-c5c(F)cc(S(=O)(=O)[O-])cc5F)c5ccc([nH]5)c(-c5c(F)cc(S(=O)(=O)[O-])cc5F)c5nc(c(-c6c(F)cc(S(=O)(=O)[O-])cc6F)c6ccc3[nH]6)C=C5)C=C4)cc2)C1
REMARK SMILES IDX 18 1 17 2 15 3 16 4 11 6 8 7 9 8 91 9 10 10 6 11 7 12 5 13
REMARK SMILES IDX 4 14 3 17 2 18 1 19 12 20 13 21 14 22 19 23 20 24 21 25
REMARK SMILES IDX 22 26 23 27 24 29 25 30 26 31 90 32 27 33 89 34 28 35 29 36
REMARK SMILES IDX 30 37 83 38 31 39 88 40 82 41 84 42 32 43 87 44 81 45 80 46
REMARK SMILES IDX 33 48 67 49 46 50 66 51 47 52 50 53 65 54 85 55 48 56 49 57
REMARK SMILES IDX 64 59 86 60 51 61 34 62 35 63 44 64 36 65 37 66 43 67 45 68
REMARK SMILES IDX 38 69 39 70 40 71 41 72 42 73 68 74 69 75 78 76 70 77 71 78
REMARK SMILES IDX 77 79 79 80 72 81 73 82 74 83 75 84 76 85 52 86 53 87 62 88
REMARK SMILES IDX 54 89 55 90 61 91 63 92 56 93 57 94 58 95 59 96 60 97
REMARK H PARENT 17 5 4 15 4 16 22 28 84 47 50 58
REMARK Flexibility Score: inf
ROOT
ATOM      1  C   UNL     1      -6.442   3.208   5.483  1.00  0.00     0.116 C 
ENDROOT
BRANCH   1   2
ATOM      2  N   UNL     1      -6.506   1.790   5.253  1.00  0.00    -0.356 N 
ATOM      3  C   UNL     1      -5.589   0.988   4.671  1.00  0.00     0.228 C 
ATOM      4  O   UNL     1      -5.823  -0.222   4.712  1.00  0.00    -0.274 OA
ATOM      5  H   UNL     1      -7.328   1.344   5.562  1.00  0.00     0.163 HD
BRANCH   3   6
ATOM      6  C   UNL     1      -4.403   1.563   3.901  1.00  0.00     0.068 C 
ATOM      7  N   UNL     1      -4.080   1.228   1.525  1.00  0.00    -0.337 N 
ATOM      8  C   UNL     1      -2.931   0.753   2.269  1.00  0.00     0.121 C 
ATOM      9  C   UNL     1      -4.935   1.935   2.471  1.00  0.00     0.136 C 
ATOM     10  C   UNL     1      -3.434   0.417   3.618  1.00  0.00     0.040 C 
BRANCH   7  11
ATOM     11  C   UNL     1      -4.353   1.276   0.157  1.00  0.00     0.277 C 
ATOM     12  O   UNL     1      -5.054   2.190  -0.296  1.00  0.00    -0.268 OA
BRANCH  11  13
ATOM     13  C   UNL     1      -3.947   0.110  -0.806  1.00  0.00     0.362 C 
BRANCH  13  14
ATOM     14  N   UNL     1      -2.529   0.063  -1.268  1.00  0.00    -0.328 N 
ATOM     15  H   UNL     1      -2.372  -0.744  -1.872  1.00  0.00     0.347 HD
ATOM     16  H   UNL     1      -2.271   0.885  -1.816  1.00  0.00     0.347 HD
BRANCH  14  17
ATOM     17  C   UNL     1      -1.763  -0.050  -0.061  1.00  0.00     0.352 C 
BRANCH  17  18
ATOM     18  C   UNL     1      -0.243  -0.050  -0.061  1.00  0.00    -0.047 C 
ATOM     19  C   UNL     1       1.061  -0.050  -0.061  1.00  0.00     0.010 C 
ENDBRANCH  17  18
ENDBRANCH  14  17
ENDBRANCH  13  14
ENDBRANCH  11  13
ENDBRANCH   7  11
BRANCH   6  20
ATOM     20  C   UNL     1      -3.584   2.724   4.516  1.00  0.00     0.018 C 
BRANCH  20  21
ATOM     21  C   UNL     1      -2.889   2.550   5.884  1.00  0.00    -0.002 C 
ATOM     22  C   UNL     1      -3.032   1.262   6.687  1.00  0.00     0.004 C 
ENDBRANCH  20  21
ENDBRANCH   6  20
ENDBRANCH   3   6
ENDBRANCH   1   2
BRANCH   1  23
ATOM     23  C   UNL     1      -7.633   3.737   6.255  1.00  0.00     0.023 C 
BRANCH  23  24
ATOM     24  C   UNL     1      -7.906   3.003   7.569  1.00  0.00     0.023 C 
BRANCH  24  25
ATOM     25  C   UNL     1      -6.685   2.728   8.441  1.00  0.00     0.116 C 
BRANCH  25  26
ATOM     26  N   UNL     1      -6.012   3.942   8.875  1.00  0.00    -0.352 N 
ATOM     27  C   UNL     1      -5.992   4.542  10.113  1.00  0.00     0.251 C 
ATOM     28  H   UNL     1      -5.494   4.405   8.177  1.00  0.00     0.163 HD
ATOM     29  O   UNL     1      -5.511   5.659  10.240  1.00  0.00    -0.269 OA
BRANCH  27  30
ATOM     30  C   UNL     1      -6.578   3.841  11.276  1.00  0.00     0.039 A 
ATOM     31  C   UNL     1      -7.429   4.544  12.130  1.00  0.00     0.014 A 
ATOM     32  C   UNL     1      -6.295   2.495  11.519  1.00  0.00     0.014 A 
ATOM     33  C   UNL     1      -8.044   3.877  13.191  1.00  0.00     0.010 A 
ATOM     34  C   UNL     1      -6.988   1.810  12.511  1.00  0.00     0.010 A 
ATOM     35  C   UNL     1      -7.856   2.495  13.373  1.00  0.00    -0.014 A 
BRANCH  35  36
ATOM     36  C   UNL     1      -8.533   1.768  14.479  1.00  0.00     0.031 A 
ATOM     37  C   UNL     1      -7.715   1.093  15.550  1.00  0.00     0.074 A 
ATOM     38  C   UNL     1      -9.878   1.683  14.502  1.00  0.00     0.049 A 
ATOM     39  N   UNL     1      -8.119   0.409  16.590  1.00  0.00    -0.248 NA
ATOM     40  C   UNL     1      -6.250   1.169  15.420  1.00  0.00     0.031 C 
ATOM     41  C   UNL     1     -10.780   2.236  13.488  1.00  0.00     0.029 A 
ATOM     42  N   UNL     1     -10.724   1.101  15.413  1.00  0.00    -0.354 N 
ATOM     43  C   UNL     1      -6.964  -0.033  17.226  1.00  0.00     0.074 A 
ATOM     44  C   UNL     1      -5.846   0.398  16.417  1.00  0.00     0.031 C 
ATOM     45  C   UNL     1     -12.051   1.999  13.853  1.00  0.00     0.029 A 
ATOM     46  C   UNL     1     -12.056   1.253  15.107  1.00  0.00     0.049 A 
ATOM     47  H   UNL     1     -10.406   0.620  16.211  1.00  0.00     0.167 HD
ATOM     48  C   UNL     1      -6.840  -0.706  18.395  1.00  0.00     0.037 A 
ATOM     49  C   UNL     1     -13.157   0.843  15.767  1.00  0.00     0.037 A 
ATOM     50  C   UNL     1      -7.956  -1.109  19.211  1.00  0.00     0.049 A 
ATOM     51  C   UNL     1     -12.996   0.119  17.077  1.00  0.00     0.074 A 
ATOM     52  C   UNL     1      -7.940  -1.748  20.439  1.00  0.00     0.029 A 
ATOM     53  N   UNL     1      -9.289  -0.911  18.882  1.00  0.00    -0.354 N 
ATOM     54  N   UNL     1     -11.894  -0.229  17.699  1.00  0.00    -0.248 NA
ATOM     55  C   UNL     1     -14.229  -0.251  17.784  1.00  0.00     0.031 C 
ATOM     56  C   UNL     1      -9.264  -1.976  20.830  1.00  0.00     0.029 A 
ATOM     57  C   UNL     1     -10.105  -1.427  19.876  1.00  0.00     0.049 A 
ATOM     58  H   UNL     1      -9.609  -0.468  18.063  1.00  0.00     0.167 HD
ATOM     59  C   UNL     1     -12.300  -0.829  18.887  1.00  0.00     0.074 A 
ATOM     60  C   UNL     1     -13.748  -0.780  18.901  1.00  0.00     0.031 C 
ATOM     61  C   UNL     1     -11.546  -1.368  19.877  1.00  0.00     0.037 A 
BRANCH  48  62
ATOM     62  C   UNL     1      -5.448  -1.038  18.863  1.00  0.00     0.058 A 
ATOM     63  C   UNL     1      -4.551  -0.040  19.282  1.00  0.00     0.135 A 
ATOM     64  C   UNL     1      -5.008  -2.370  18.914  1.00  0.00     0.135 A 
ATOM     65  F   UNL     1      -4.910   1.253  19.239  1.00  0.00    -0.206 F 
ATOM     66  C   UNL     1      -3.260  -0.347  19.697  1.00  0.00     0.059 A 
ATOM     67  C   UNL     1      -3.731  -2.704  19.358  1.00  0.00     0.059 A 
ATOM     68  F   UNL     1      -5.821  -3.366  18.526  1.00  0.00    -0.206 F 
ATOM     69  C   UNL     1      -2.858  -1.683  19.731  1.00  0.00     0.060 A 
BRANCH  69  70
ATOM     70  S   UNL     1      -1.180  -2.064  20.275  1.00  0.00     0.124 S 
ATOM     71  O   UNL     1      -0.393  -1.602  19.135  1.00  0.00    -0.237 OA
ATOM     72  O   UNL     1      -1.058  -1.269  21.492  1.00  0.00    -0.237 OA
ATOM     73  O   UNL     1      -1.206  -3.510  20.473  1.00  0.00    -0.744 OA
ENDBRANCH  69  70
ENDBRANCH  48  62
BRANCH  49  74
ATOM     74  C   UNL     1     -14.509   1.148  15.224  1.00  0.00     0.058 A 
ATOM     75  C   UNL     1     -15.353   2.073  15.857  1.00  0.00     0.135 A 
ATOM     76  C   UNL     1     -14.984   0.525  14.059  1.00  0.00     0.135 A 
ATOM     77  F   UNL     1     -14.947   2.693  16.976  1.00  0.00    -0.206 F 
ATOM     78  C   UNL     1     -16.626   2.354  15.371  1.00  0.00     0.059 A 
ATOM     79  C   UNL     1     -16.242   0.810  13.537  1.00  0.00     0.059 A 
ATOM     80  F   UNL     1     -14.211  -0.354  13.403  1.00  0.00    -0.206 F 
ATOM     81  C   UNL     1     -17.061   1.718  14.207  1.00  0.00     0.060 A 
BRANCH  81  82
ATOM     82  S   UNL     1     -18.697   2.125  13.559  1.00  0.00     0.124 S 
ATOM     83  O   UNL     1     -19.568   1.465  14.524  1.00  0.00    -0.237 OA
ATOM     84  O   UNL     1     -18.687   3.584  13.598  1.00  0.00    -0.237 OA
ATOM     85  O   UNL     1     -18.681   1.542  12.220  1.00  0.00    -0.744 OA
ENDBRANCH  81  82
ENDBRANCH  49  74
BRANCH  61  86
ATOM     86  C   UNL     1     -12.273  -1.904  21.081  1.00  0.00     0.058 A 
ATOM     87  C   UNL     1     -13.063  -3.063  21.019  1.00  0.00     0.135 A 
ATOM     88  C   UNL     1     -12.168  -1.249  22.319  1.00  0.00     0.135 A 
ATOM     89  F   UNL     1     -13.198  -3.728  19.861  1.00  0.00    -0.206 F 
ATOM     90  C   UNL     1     -13.764  -3.524  22.128  1.00  0.00     0.059 A 
ATOM     91  C   UNL     1     -12.833  -1.712  23.450  1.00  0.00     0.059 A 
ATOM     92  F   UNL     1     -11.412  -0.146  22.441  1.00  0.00    -0.206 F 
ATOM     93  C   UNL     1     -13.649  -2.837  23.338  1.00  0.00     0.060 A 
BRANCH  93  94
ATOM     94  S   UNL     1     -14.575  -3.434  24.767  1.00  0.00     0.124 S 
ATOM     95  O   UNL     1     -15.932  -3.012  24.433  1.00  0.00    -0.237 OA
ATOM     96  O   UNL     1     -14.329  -4.872  24.722  1.00  0.00    -0.237 OA
ATOM     97  O   UNL     1     -13.958  -2.734  25.890  1.00  0.00    -0.744 OA
ENDBRANCH  93  94
ENDBRANCH  61  86
ENDBRANCH  35  36
ENDBRANCH  27  30
ENDBRANCH  25  26
ENDBRANCH  24  25
ENDBRANCH  23  24
ENDBRANCH   1  23
TORSDOF 21
