REMARK SMILES Cc1cc2c(c(C)c1Cl)C=C(C(=O)NCCCCNC(=O)c1ccc(-c3c4nc(c(-c5c(F)cc(S(=O)(=O)[O-])cc5F)c5ccc([nH]5)c(-c5c(F)cc(S(=O)(=O)[O-])cc5F)c5nc(c(-c6c(F)cc(S(=O)(=O)[O-])cc6F)c6ccc3[nH]6)C=C5)C=C4)cc1)[C@@H](C(F)(F)F)O2
REMARK SMILES IDX 17 1 16 2 15 3 14 4 12 5 13 6 11 8 1 9 2 10 3 11 8 12 4 13
REMARK SMILES IDX 6 14 9 15 5 16 93 17 7 18 10 19 88 20 89 21 90 22 91 23
REMARK SMILES IDX 92 24 18 25 19 26 20 27 21 29 22 30 23 31 87 32 24 33 86 34
REMARK SMILES IDX 25 35 26 36 27 37 80 38 28 39 85 40 79 41 81 42 29 43 84 44
REMARK SMILES IDX 78 45 77 46 30 48 64 49 43 50 63 51 44 52 47 53 62 54 82 55
REMARK SMILES IDX 45 56 46 57 61 59 83 60 48 61 31 62 32 63 41 64 33 65 34 66
REMARK SMILES IDX 40 67 42 68 35 69 36 70 37 71 38 72 39 73 65 74 66 75 75 76
REMARK SMILES IDX 67 77 68 78 74 79 76 80 69 81 70 82 71 83 72 84 73 85 49 86
REMARK SMILES IDX 50 87 59 88 51 89 52 90 58 91 60 92 53 93 54 94 55 95 56 96
REMARK SMILES IDX 57 97
REMARK H PARENT 14 7 19 28 81 47 47 58
REMARK Flexibility Score: inf
ROOT
ATOM      1  C   UNL     1       2.655 -10.749   1.175  1.00  0.00     0.023 C 
ENDROOT
BRANCH   1   2
ATOM      2  C   UNL     1       2.648  -9.278   0.752  1.00  0.00     0.023 C 
BRANCH   2   3
ATOM      3  C   UNL     1       1.507  -8.907  -0.190  1.00  0.00     0.116 C 
BRANCH   3   4
ATOM      4  N   UNL     1       0.286  -8.599   0.532  1.00  0.00    -0.352 N 
ATOM      5  C   UNL     1      -0.398  -7.488   0.888  1.00  0.00     0.251 C 
ATOM      6  O   UNL     1      -1.431  -7.690   1.534  1.00  0.00    -0.270 OA
ATOM      7  H   UNL     1      -0.163  -9.417   0.847  1.00  0.00     0.163 HD
BRANCH   5   8
ATOM      8  C   UNL     1       0.000  -6.085   0.561  1.00  0.00     0.067 C 
ATOM      9  C   UNL     1       0.740   0.361  -0.002  1.00  0.00     0.046 C 
ATOM     10  C   UNL     1       0.294  -1.039   0.321  1.00  0.00    -0.028 A 
ATOM     11  C   UNL     1       1.119  -2.102  -0.057  1.00  0.00     0.052 A 
ATOM     12  C   UNL     1      -0.935  -1.322   0.951  1.00  0.00     0.047 A 
ATOM     13  C   UNL     1       0.740  -3.416   0.197  1.00  0.00     0.128 A 
ATOM     14  C   UNL     1      -1.326  -2.655   1.231  1.00  0.00    -0.021 A 
ATOM     15  Cl  UNL     1      -1.968   0.011   1.379  1.00  0.00    -0.084 Cl
ATOM     16  C   UNL     1      -0.461  -3.710   0.851  1.00  0.00     0.022 A 
ATOM     17  O   UNL     1       1.634  -4.372  -0.193  1.00  0.00    -0.475 OA
ATOM     18  C   UNL     1      -2.628  -2.977   1.926  1.00  0.00     0.047 C 
ATOM     19  C   UNL     1      -0.740  -5.121   1.139  1.00  0.00     0.026 C 
ATOM     20  C   UNL     1       1.109  -5.713  -0.377  1.00  0.00     0.314 C 
BRANCH  20  21
ATOM     21  C   UNL     1       0.731  -5.917  -1.856  1.00  0.00     0.429 C 
ATOM     22  F   UNL     1       1.838  -5.860  -2.639  1.00  0.00    -0.167 F 
ATOM     23  F   UNL     1       0.161  -7.122  -2.086  1.00  0.00    -0.167 F 
ATOM     24  F   UNL     1      -0.132  -4.979  -2.307  1.00  0.00    -0.167 F 
ENDBRANCH  20  21
ENDBRANCH   5   8
ENDBRANCH   3   4
ENDBRANCH   2   3
ENDBRANCH   1   2
BRANCH   1  25
ATOM     25  C   UNL     1       2.652 -11.760   0.029  1.00  0.00     0.116 C 
BRANCH  25  26
ATOM     26  N   UNL     1       3.671 -11.504  -0.979  1.00  0.00    -0.352 N 
ATOM     27  C   UNL     1       4.378 -12.420  -1.720  1.00  0.00     0.251 C 
ATOM     28  H   UNL     1       3.880 -10.557  -1.151  1.00  0.00     0.163 HD
ATOM     29  O   UNL     1       5.268 -12.055  -2.480  1.00  0.00    -0.269 OA
BRANCH  27  30
ATOM     30  C   UNL     1       4.073 -13.852  -1.548  1.00  0.00     0.039 A 
ATOM     31  C   UNL     1       5.103 -14.721  -1.185  1.00  0.00     0.014 A 
ATOM     32  C   UNL     1       2.758 -14.310  -1.673  1.00  0.00     0.014 A 
ATOM     33  C   UNL     1       4.801 -16.047  -0.879  1.00  0.00     0.010 A 
ATOM     34  C   UNL     1       2.451 -15.615  -1.308  1.00  0.00     0.010 A 
ATOM     35  C   UNL     1       3.469 -16.494  -0.907  1.00  0.00    -0.014 A 
BRANCH  35  36
ATOM     36  C   UNL     1       3.128 -17.887  -0.537  1.00  0.00     0.031 A 
ATOM     37  C   UNL     1       2.610 -18.830  -1.584  1.00  0.00     0.074 A 
ATOM     38  C   UNL     1       3.246 -18.286   0.744  1.00  0.00     0.049 A 
ATOM     39  N   UNL     1       2.229 -20.073  -1.457  1.00  0.00    -0.248 NA
ATOM     40  C   UNL     1       2.481 -18.296  -2.950  1.00  0.00     0.031 C 
ATOM     41  C   UNL     1       3.697 -17.444   1.855  1.00  0.00     0.029 A 
ATOM     42  N   UNL     1       3.000 -19.502   1.328  1.00  0.00    -0.354 N 
ATOM     43  C   UNL     1       1.812 -20.469  -2.721  1.00  0.00     0.074 A 
ATOM     44  C   UNL     1       1.929 -19.317  -3.588  1.00  0.00     0.031 C 
ATOM     45  C   UNL     1       3.729 -18.180   2.979  1.00  0.00     0.029 A 
ATOM     46  C   UNL     1       3.278 -19.535   2.674  1.00  0.00     0.049 A 
ATOM     47  H   UNL     1       2.657 -20.279   0.831  1.00  0.00     0.167 HD
ATOM     48  C   UNL     1       1.400 -21.691  -3.131  1.00  0.00     0.037 A 
ATOM     49  C   UNL     1       3.188 -20.547   3.558  1.00  0.00     0.037 A 
ATOM     50  C   UNL     1       1.315 -22.840  -2.272  1.00  0.00     0.049 A 
ATOM     51  C   UNL     1       2.719 -21.894   3.083  1.00  0.00     0.074 A 
ATOM     52  C   UNL     1       0.960 -24.136  -2.600  1.00  0.00     0.029 A 
ATOM     53  N   UNL     1       1.593 -22.831  -0.913  1.00  0.00    -0.354 N 
ATOM     54  N   UNL     1       2.374 -22.265   1.873  1.00  0.00    -0.248 NA
ATOM     55  C   UNL     1       2.624 -22.959   4.091  1.00  0.00     0.031 C 
ATOM     56  C   UNL     1       0.998 -24.906  -1.432  1.00  0.00     0.029 A 
ATOM     57  C   UNL     1       1.404 -24.095  -0.383  1.00  0.00     0.049 A 
ATOM     58  H   UNL     1       1.883 -22.041  -0.402  1.00  0.00     0.167 HD
ATOM     59  C   UNL     1       2.031 -23.608   1.970  1.00  0.00     0.074 A 
ATOM     60  C   UNL     1       2.223 -23.989   3.356  1.00  0.00     0.031 C 
ATOM     61  C   UNL     1       1.595 -24.449   1.001  1.00  0.00     0.037 A 
BRANCH  48  62
ATOM     62  C   UNL     1       1.033 -21.839  -4.579  1.00  0.00     0.058 A 
ATOM     63  C   UNL     1       2.015 -21.838  -5.583  1.00  0.00     0.135 A 
ATOM     64  C   UNL     1      -0.307 -21.980  -4.971  1.00  0.00     0.135 A 
ATOM     65  F   UNL     1       3.310 -21.686  -5.261  1.00  0.00    -0.206 F 
ATOM     66  C   UNL     1       1.680 -21.935  -6.928  1.00  0.00     0.059 A 
ATOM     67  C   UNL     1      -0.664 -22.102  -6.311  1.00  0.00     0.059 A 
ATOM     68  F   UNL     1      -1.284 -21.983  -4.052  1.00  0.00    -0.206 F 
ATOM     69  C   UNL     1       0.336 -22.060  -7.283  1.00  0.00     0.060 A 
BRANCH  69  70
ATOM     70  S   UNL     1      -0.086 -22.164  -9.035  1.00  0.00     0.124 S 
ATOM     71  O   UNL     1       0.094 -20.779  -9.459  1.00  0.00    -0.237 OA
ATOM     72  O   UNL     1       0.901 -23.114  -9.539  1.00  0.00    -0.237 OA
ATOM     73  O   UNL     1      -1.464 -22.644  -9.024  1.00  0.00    -0.744 OA
ENDBRANCH  69  70
ENDBRANCH  48  62
BRANCH  49  74
ATOM     74  C   UNL     1       3.594 -20.331   4.970  1.00  0.00     0.058 A 
ATOM     75  C   UNL     1       4.808 -20.844   5.449  1.00  0.00     0.135 A 
ATOM     76  C   UNL     1       2.805 -19.580   5.854  1.00  0.00     0.135 A 
ATOM     77  F   UNL     1       5.593 -21.573   4.640  1.00  0.00    -0.206 F 
ATOM     78  C   UNL     1       5.229 -20.620   6.755  1.00  0.00     0.059 A 
ATOM     79  C   UNL     1       3.211 -19.329   7.161  1.00  0.00     0.059 A 
ATOM     80  F   UNL     1       1.641 -19.057   5.438  1.00  0.00    -0.206 F 
ATOM     81  C   UNL     1       4.425 -19.855   7.603  1.00  0.00     0.060 A 
BRANCH  81  82
ATOM     82  S   UNL     1       5.016 -19.511   9.275  1.00  0.00     0.124 S 
ATOM     83  O   UNL     1       4.839 -20.805   9.923  1.00  0.00    -0.237 OA
ATOM     84  O   UNL     1       6.396 -19.101   9.033  1.00  0.00    -0.237 OA
ATOM     85  O   UNL     1       4.127 -18.447   9.732  1.00  0.00    -0.744 OA
ENDBRANCH  81  82
ENDBRANCH  49  74
BRANCH  61  86
ATOM     86  C   UNL     1       1.290 -25.863   1.398  1.00  0.00     0.058 A 
ATOM     87  C   UNL     1       0.100 -26.188   2.066  1.00  0.00     0.135 A 
ATOM     88  C   UNL     1       2.150 -26.911   1.032  1.00  0.00     0.135 A 
ATOM     89  F   UNL     1      -0.749 -25.219   2.443  1.00  0.00    -0.206 F 
ATOM     90  C   UNL     1      -0.229 -27.506   2.359  1.00  0.00     0.059 A 
ATOM     91  C   UNL     1       1.832 -28.238   1.299  1.00  0.00     0.059 A 
ATOM     92  F   UNL     1       3.297 -26.649   0.386  1.00  0.00    -0.206 F 
ATOM     93  C   UNL     1       0.641 -28.526   1.966  1.00  0.00     0.060 A 
BRANCH  93  94
ATOM     94  S   UNL     1       0.171 -30.237   2.295  1.00  0.00     0.124 S 
ATOM     95  O   UNL     1       0.410 -30.337   3.731  1.00  0.00    -0.237 OA
ATOM     96  O   UNL     1      -1.229 -30.262   1.882  1.00  0.00    -0.237 OA
ATOM     97  O   UNL     1       1.079 -31.007   1.451  1.00  0.00    -0.744 OA
ENDBRANCH  93  94
ENDBRANCH  61  86
ENDBRANCH  35  36
ENDBRANCH  27  30
ENDBRANCH  25  26
ENDBRANCH   1  25
TORSDOF 15
