REMARK SMILES O=C(NCCCCNC(=O)[C@@H]1CS[C@H](c2cc(Br)ccc2O)[NH2+]1)c1ccc(-c2c3nc(c(-c4c(F)cc(S(=O)(=O)[O-])cc4F)c4ccc([nH]4)c(-c4c(F)cc(S(=O)(=O)[O-])cc4F)c4nc(c(-c5c(F)cc(S(=O)(=O)[O-])cc5F)c5ccc2[nH]5)C=C4)C=C3)cc1
REMARK SMILES IDX 5 1 4 2 3 3 1 4 2 5 24 7 25 8 89 9 26 10 88 11 27 12 28 13
REMARK SMILES IDX 29 14 82 15 30 16 87 17 81 18 83 19 31 20 86 21 80 22 79 23
REMARK SMILES IDX 32 25 66 26 45 27 65 28 46 29 49 30 64 31 84 32 47 33 48 34
REMARK SMILES IDX 63 36 85 37 50 38 33 39 34 40 43 41 35 42 36 43 42 44 44 45
REMARK SMILES IDX 37 46 38 47 39 48 40 49 41 50 67 51 68 52 77 53 69 54 70 55
REMARK SMILES IDX 76 56 78 57 71 58 72 59 73 60 74 61 75 62 51 63 52 64 61 65
REMARK SMILES IDX 53 66 54 67 60 68 62 69 55 70 56 71 57 72 58 73 59 74 6 75
REMARK SMILES IDX 7 76 8 77 9 78 10 80 11 81 12 82 23 83 13 84 14 85 15 88
REMARK SMILES IDX 16 89 21 90 17 91 20 92 18 93 19 94 22 95
REMARK H PARENT 3 6 83 24 49 35 8 79 23 86 23 87 22 96
REMARK Flexibility Score: inf
ROOT
ATOM      1  C   UNL     1       1.943  -4.760   7.543  1.00  0.00     0.023 C 
ENDROOT
BRANCH   1   2
ATOM      2  C   UNL     1       0.990  -5.112   6.414  1.00  0.00     0.116 C 
BRANCH   2   3
ATOM      3  N   UNL     1       1.095  -6.508   6.009  1.00  0.00    -0.352 N 
ATOM      4  O   UNL     1       0.377  -8.624   5.698  1.00  0.00    -0.269 OA
ATOM      5  C   UNL     1       0.102  -7.449   5.897  1.00  0.00     0.251 C 
ATOM      6  H   UNL     1       2.002  -6.818   5.785  1.00  0.00     0.163 HD
BRANCH   5   7
ATOM      7  C   UNL     1      -1.297  -7.011   6.044  1.00  0.00     0.039 A 
ATOM      8  C   UNL     1      -1.742  -5.880   5.356  1.00  0.00     0.014 A 
ATOM      9  C   UNL     1      -2.144  -7.705   6.909  1.00  0.00     0.014 A 
ATOM     10  C   UNL     1      -2.990  -5.355   5.643  1.00  0.00     0.010 A 
ATOM     11  C   UNL     1      -3.436  -7.229   7.122  1.00  0.00     0.010 A 
ATOM     12  C   UNL     1      -3.858  -6.038   6.508  1.00  0.00    -0.014 A 
BRANCH  12  13
ATOM     13  C   UNL     1      -5.239  -5.539   6.686  1.00  0.00     0.031 A 
ATOM     14  C   UNL     1      -5.726  -5.062   8.020  1.00  0.00     0.074 A 
ATOM     15  C   UNL     1      -6.049  -5.537   5.610  1.00  0.00     0.049 A 
ATOM     16  N   UNL     1      -6.922  -4.657   8.358  1.00  0.00    -0.248 NA
ATOM     17  C   UNL     1      -4.752  -5.050   9.122  1.00  0.00     0.031 C 
ATOM     18  C   UNL     1      -5.667  -5.996   4.271  1.00  0.00     0.029 A 
ATOM     19  N   UNL     1      -7.352  -5.142   5.467  1.00  0.00    -0.354 N 
ATOM     20  C   UNL     1      -6.858  -4.373   9.717  1.00  0.00     0.074 A 
ATOM     21  C   UNL     1      -5.505  -4.661  10.143  1.00  0.00     0.031 C 
ATOM     22  C   UNL     1      -6.703  -5.835   3.438  1.00  0.00     0.029 A 
ATOM     23  C   UNL     1      -7.841  -5.333   4.197  1.00  0.00     0.049 A 
ATOM     24  H   UNL     1      -7.885  -4.759   6.200  1.00  0.00     0.167 HD
ATOM     25  C   UNL     1      -7.844  -3.918  10.526  1.00  0.00     0.037 A 
ATOM     26  C   UNL     1      -9.080  -5.163   3.703  1.00  0.00     0.037 A 
ATOM     27  C   UNL     1      -9.180  -3.623  10.072  1.00  0.00     0.049 A 
ATOM     28  C   UNL     1     -10.154  -4.659   4.616  1.00  0.00     0.074 A 
ATOM     29  C   UNL     1     -10.243  -3.112  10.795  1.00  0.00     0.029 A 
ATOM     30  N   UNL     1      -9.637  -3.822   8.776  1.00  0.00    -0.354 N 
ATOM     31  N   UNL     1     -10.070  -4.364   5.892  1.00  0.00    -0.248 NA
ATOM     32  C   UNL     1     -11.486  -4.468   4.034  1.00  0.00     0.031 C 
ATOM     33  C   UNL     1     -11.353  -3.040   9.946  1.00  0.00     0.029 A 
ATOM     34  C   UNL     1     -10.973  -3.467   8.683  1.00  0.00     0.049 A 
ATOM     35  H   UNL     1      -9.092  -4.166   8.032  1.00  0.00     0.167 HD
ATOM     36  C   UNL     1     -11.339  -3.947   6.268  1.00  0.00     0.074 A 
ATOM     37  C   UNL     1     -12.167  -4.014   5.079  1.00  0.00     0.031 C 
ATOM     38  C   UNL     1     -11.777  -3.547   7.487  1.00  0.00     0.037 A 
BRANCH  25  39
ATOM     39  C   UNL     1      -7.523  -3.749  11.986  1.00  0.00     0.058 A 
ATOM     40  C   UNL     1      -6.694  -2.716  12.451  1.00  0.00     0.135 A 
ATOM     41  C   UNL     1      -8.057  -4.635  12.936  1.00  0.00     0.135 A 
ATOM     42  F   UNL     1      -6.146  -1.847  11.586  1.00  0.00    -0.206 F 
ATOM     43  C   UNL     1      -6.374  -2.591  13.800  1.00  0.00     0.059 A 
ATOM     44  C   UNL     1      -7.769  -4.516  14.292  1.00  0.00     0.059 A 
ATOM     45  F   UNL     1      -8.858  -5.640  12.547  1.00  0.00    -0.206 F 
ATOM     46  C   UNL     1      -6.909  -3.503  14.712  1.00  0.00     0.060 A 
BRANCH  46  47
ATOM     47  S   UNL     1      -6.457  -3.355  16.455  1.00  0.00     0.124 S 
ATOM     48  O   UNL     1      -5.104  -3.903  16.450  1.00  0.00    -0.237 OA
ATOM     49  O   UNL     1      -6.556  -1.917  16.686  1.00  0.00    -0.237 OA
ATOM     50  O   UNL     1      -7.461  -4.166  17.136  1.00  0.00    -0.744 OA
ENDBRANCH  46  47
ENDBRANCH  25  39
BRANCH  26  51
ATOM     51  C   UNL     1      -9.336  -5.506   2.283  1.00  0.00     0.058 A 
ATOM     52  C   UNL     1      -9.483  -4.508   1.312  1.00  0.00     0.135 A 
ATOM     53  C   UNL     1      -9.313  -6.844   1.854  1.00  0.00     0.135 A 
ATOM     54  F   UNL     1      -9.508  -3.217   1.676  1.00  0.00    -0.206 F 
ATOM     55  C   UNL     1      -9.585  -4.821  -0.040  1.00  0.00     0.059 A 
ATOM     56  C   UNL     1      -9.389  -7.180   0.507  1.00  0.00     0.059 A 
ATOM     57  F   UNL     1      -9.147  -7.833   2.746  1.00  0.00    -0.206 F 
ATOM     58  C   UNL     1      -9.524  -6.160  -0.433  1.00  0.00     0.060 A 
BRANCH  58  59
ATOM     59  S   UNL     1      -9.539  -6.550  -2.197  1.00  0.00     0.124 S 
ATOM     60  O   UNL     1     -10.949  -6.372  -2.523  1.00  0.00    -0.237 OA
ATOM     61  O   UNL     1      -8.627  -5.549  -2.742  1.00  0.00    -0.237 OA
ATOM     62  O   UNL     1      -9.047  -7.923  -2.240  1.00  0.00    -0.744 OA
ENDBRANCH  58  59
ENDBRANCH  26  51
BRANCH  38  63
ATOM     63  C   UNL     1     -13.216  -3.138   7.594  1.00  0.00     0.058 A 
ATOM     64  C   UNL     1     -14.245  -4.090   7.642  1.00  0.00     0.135 A 
ATOM     65  C   UNL     1     -13.561  -1.784   7.721  1.00  0.00     0.135 A 
ATOM     66  F   UNL     1     -13.964  -5.396   7.511  1.00  0.00    -0.206 F 
ATOM     67  C   UNL     1     -15.572  -3.712   7.809  1.00  0.00     0.059 A 
ATOM     68  C   UNL     1     -14.879  -1.385   7.910  1.00  0.00     0.059 A 
ATOM     69  F   UNL     1     -12.609  -0.837   7.685  1.00  0.00    -0.206 F 
ATOM     70  C   UNL     1     -15.878  -2.357   7.948  1.00  0.00     0.060 A 
BRANCH  70  71
ATOM     71  S   UNL     1     -17.597  -1.882   8.228  1.00  0.00     0.124 S 
ATOM     72  O   UNL     1     -18.165  -2.036   6.893  1.00  0.00    -0.237 OA
ATOM     73  O   UNL     1     -18.035  -2.859   9.221  1.00  0.00    -0.237 OA
ATOM     74  O   UNL     1     -17.494  -0.509   8.713  1.00  0.00    -0.744 OA
ENDBRANCH  70  71
ENDBRANCH  38  63
ENDBRANCH  12  13
ENDBRANCH   5   7
ENDBRANCH   2   3
ENDBRANCH   1   2
BRANCH   1  75
ATOM     75  C   UNL     1       3.391  -5.156   7.281  1.00  0.00     0.023 C 
BRANCH  75  76
ATOM     76  C   UNL     1       3.993  -4.615   5.991  1.00  0.00     0.116 C 
BRANCH  76  77
ATOM     77  N   UNL     1       4.135  -3.174   6.015  1.00  0.00    -0.351 N 
ATOM     78  C   UNL     1       5.182  -2.323   6.026  1.00  0.00     0.279 C 
ATOM     79  H   UNL     1       3.268  -2.708   6.026  1.00  0.00     0.163 HD
ATOM     80  O   UNL     1       4.882  -1.118   6.040  1.00  0.00    -0.268 OA
BRANCH  78  81
ATOM     81  C   UNL     1       6.682  -2.688   6.060  1.00  0.00     0.283 C 
ATOM     82  C   UNL     1       7.208  -4.041   5.642  1.00  0.00     0.151 C 
ATOM     83  N   UNL     1       7.286  -2.317   7.380  1.00  0.00    -0.320 N 
ATOM     84  S   UNL     1       7.419  -4.960   7.184  1.00  0.00    -0.087 SA
ATOM     85  C   UNL     1       7.264  -3.496   8.265  1.00  0.00     0.278 C 
ATOM     86  H   UNL     1       6.747  -1.561   7.802  1.00  0.00     0.348 HD
ATOM     87  H   UNL     1       8.248  -2.005   7.244  1.00  0.00     0.348 HD
BRANCH  85  88
ATOM     88  C   UNL     1       6.096  -3.541   9.241  1.00  0.00     0.063 A 
ATOM     89  C   UNL     1       5.810  -4.739   9.935  1.00  0.00     0.030 A 
ATOM     90  C   UNL     1       5.315  -2.421   9.579  1.00  0.00     0.125 A 
ATOM     91  C   UNL     1       4.731  -4.829  10.823  1.00  0.00     0.018 A 
ATOM     92  C   UNL     1       4.246  -2.507  10.475  1.00  0.00     0.048 A 
ATOM     93  Br  UNL     1       4.321  -6.487  11.632  1.00  0.00    -0.051 Br
ATOM     94  C   UNL     1       3.937  -3.719  11.085  1.00  0.00     0.019 A 
BRANCH  90  95
ATOM     95  O   UNL     1       5.543  -1.172   9.073  1.00  0.00    -0.507 OA
ATOM     96  H   UNL     1       6.242  -1.033   8.466  1.00  0.00     0.293 HD
ENDBRANCH  90  95
ENDBRANCH  85  88
ENDBRANCH  78  81
ENDBRANCH  76  77
ENDBRANCH  75  76
ENDBRANCH   1  75
TORSDOF 16
