REMARK SMILES C[C@@H]1CCCN(c2ccc(NC(=O)Cc3cccs3)c(C(=O)NCCCCNC(=O)c3ccc(-c4c5nc(c(-c6c(F)cc(S(=O)(=O)[O-])cc6F)c6ccc([nH]6)c(-c6c(F)cc(S(=O)(=O)[O-])cc6F)c6nc(c(-c7c(F)cc(S(=O)(=O)[O-])cc7F)c7ccc4[nH]7)C=C6)C=C5)cc3)c2)C1
REMARK SMILES IDX 25 1 24 2 23 3 21 4 22 5 20 7 7 8 8 9 97 10 9 11 10 12 6 13
REMARK SMILES IDX 1 14 2 15 3 16 98 17 4 18 5 19 11 20 12 21 13 23 14 24 15 25
REMARK SMILES IDX 16 26 19 27 17 28 18 29 26 30 27 31 28 32 29 33 30 35 31 36
REMARK SMILES IDX 32 37 96 38 33 39 95 40 34 41 35 42 36 43 89 44 37 45 94 46
REMARK SMILES IDX 88 47 90 48 38 49 93 50 87 51 86 52 39 54 73 55 52 56 72 57
REMARK SMILES IDX 53 58 56 59 71 60 91 61 54 62 55 63 70 65 92 66 57 67 40 68
REMARK SMILES IDX 41 69 50 70 42 71 43 72 49 73 51 74 44 75 45 76 46 77 47 78
REMARK SMILES IDX 48 79 74 80 75 81 84 82 76 83 77 84 83 85 85 86 78 87 79 88
REMARK SMILES IDX 80 89 81 90 82 91 58 92 59 93 68 94 60 95 61 96 67 97 69 98
REMARK SMILES IDX 62 99 63 100 64 101 65 102 66 103
REMARK H PARENT 23 6 11 22 28 34 90 53 56 64
REMARK Flexibility Score: inf
ROOT
ATOM      1  C   UNL     1       0.868  -0.516  -5.035  1.00  0.00     0.023 C 
ENDROOT
BRANCH   1   2
ATOM      2  C   UNL     1       1.838   0.047  -4.003  1.00  0.00     0.116 C 
BRANCH   2   3
ATOM      3  N   UNL     1       2.846   0.962  -4.513  1.00  0.00    -0.352 N 
ATOM      4  C   UNL     1       3.507   2.006  -3.892  1.00  0.00     0.253 C 
ATOM      5  O   UNL     1       4.351   2.630  -4.535  1.00  0.00    -0.269 OA
ATOM      6  H   UNL     1       3.100   0.814  -5.453  1.00  0.00     0.163 HD
BRANCH   4   7
ATOM      7  C   UNL     1       3.179   2.459  -2.502  1.00  0.00     0.065 A 
ATOM      8  C   UNL     1       2.146   1.904  -0.365  1.00  0.00     0.038 A 
ATOM      9  C   UNL     1       2.172   3.259  -0.045  1.00  0.00     0.028 A 
ATOM     10  C   UNL     1       2.773   1.516  -1.545  1.00  0.00     0.042 A 
ATOM     11  C   UNL     1       2.743   4.204  -0.903  1.00  0.00     0.029 A 
ATOM     12  C   UNL     1       3.198   3.839  -2.169  1.00  0.00     0.054 A 
BRANCH   8  13
ATOM     13  N   UNL     1       1.455   1.010   0.432  1.00  0.00    -0.371 N 
ATOM     14  C   UNL     1      -2.283   0.285   0.092  1.00  0.00     0.009 C 
ATOM     15  C   UNL     1      -0.783   0.144  -0.166  1.00  0.00     0.005 C 
ATOM     16  C   UNL     1      -0.300  -1.260   0.223  1.00  0.00     0.007 C 
ATOM     17  C   UNL     1       0.010   1.221   0.600  1.00  0.00     0.119 C 
ATOM     18  C   UNL     1       1.203  -1.396  -0.012  1.00  0.00     0.022 C 
ATOM     19  C   UNL     1       1.978  -0.317   0.741  1.00  0.00     0.116 C 
ENDBRANCH   8  13
BRANCH  12  20
ATOM     20  N   UNL     1       3.652   4.777  -3.127  1.00  0.00    -0.325 N 
ATOM     21  C   UNL     1       3.584   6.133  -3.272  1.00  0.00     0.229 C 
ATOM     22  H   UNL     1       4.135   4.348  -3.870  1.00  0.00     0.169 HD
ATOM     23  O   UNL     1       4.144   6.623  -4.262  1.00  0.00    -0.274 OA
BRANCH  21  24
ATOM     24  C   UNL     1       2.887   7.061  -2.299  1.00  0.00     0.147 C 
BRANCH  24  25
ATOM     25  C   UNL     1       1.387   6.929  -2.273  1.00  0.00     0.014 A 
ATOM     26  C   UNL     1       0.546   5.952  -2.776  1.00  0.00     0.016 A 
ATOM     27  S   UNL     1       0.480   8.156  -1.472  1.00  0.00    -0.148 S 
ATOM     28  C   UNL     1      -0.824   6.188  -2.467  1.00  0.00     0.012 A 
ATOM     29  C   UNL     1      -1.002   7.365  -1.781  1.00  0.00     0.065 A 
ENDBRANCH  24  25
ENDBRANCH  21  24
ENDBRANCH  12  20
ENDBRANCH   4   7
ENDBRANCH   2   3
ENDBRANCH   1   2
BRANCH   1  30
ATOM     30  C   UNL     1       1.468  -1.325  -6.180  1.00  0.00     0.023 C 
BRANCH  30  31
ATOM     31  C   UNL     1       2.479  -2.404  -5.804  1.00  0.00     0.116 C 
BRANCH  31  32
ATOM     32  N   UNL     1       1.960  -3.416  -4.894  1.00  0.00    -0.352 N 
ATOM     33  C   UNL     1       1.855  -4.782  -5.047  1.00  0.00     0.251 C 
ATOM     34  H   UNL     1       1.633  -3.069  -4.032  1.00  0.00     0.163 HD
ATOM     35  O   UNL     1       1.329  -5.453  -4.167  1.00  0.00    -0.269 OA
BRANCH  33  36
ATOM     36  C   UNL     1       2.326  -5.430  -6.293  1.00  0.00     0.039 A 
ATOM     37  C   UNL     1       1.469  -6.313  -6.957  1.00  0.00     0.014 A 
ATOM     38  C   UNL     1       3.581  -5.138  -6.829  1.00  0.00     0.014 A 
ATOM     39  C   UNL     1       1.821  -6.803  -8.218  1.00  0.00     0.010 A 
ATOM     40  C   UNL     1       3.896  -5.565  -8.117  1.00  0.00     0.010 A 
ATOM     41  C   UNL     1       3.008  -6.380  -8.836  1.00  0.00    -0.014 A 
BRANCH  41  42
ATOM     42  C   UNL     1       3.319  -6.726 -10.249  1.00  0.00     0.031 A 
ATOM     43  C   UNL     1       4.548  -7.525 -10.582  1.00  0.00     0.074 A 
ATOM     44  C   UNL     1       2.550  -6.229 -11.240  1.00  0.00     0.049 A 
ATOM     45  N   UNL     1       5.058  -7.807 -11.754  1.00  0.00    -0.248 NA
ATOM     46  C   UNL     1       5.321  -8.053  -9.447  1.00  0.00     0.031 C 
ATOM     47  C   UNL     1       1.357  -5.399 -11.053  1.00  0.00     0.029 A 
ATOM     48  N   UNL     1       2.667  -6.332 -12.605  1.00  0.00    -0.354 N 
ATOM     49  C   UNL     1       6.220  -8.524 -11.499  1.00  0.00     0.074 A 
ATOM     50  C   UNL     1       6.362  -8.597 -10.060  1.00  0.00     0.031 C 
ATOM     51  C   UNL     1       0.844  -5.085 -12.254  1.00  0.00     0.029 A 
ATOM     52  C   UNL     1       1.692  -5.651 -13.297  1.00  0.00     0.049 A 
ATOM     53  H   UNL     1       3.381  -6.846 -13.046  1.00  0.00     0.167 HD
ATOM     54  C   UNL     1       7.079  -9.088 -12.382  1.00  0.00     0.037 A 
ATOM     55  C   UNL     1       1.509  -5.487 -14.622  1.00  0.00     0.037 A 
ATOM     56  C   UNL     1       6.919  -9.037 -13.812  1.00  0.00     0.049 A 
ATOM     57  C   UNL     1       2.478  -6.119 -15.583  1.00  0.00     0.074 A 
ATOM     58  C   UNL     1       7.704  -9.628 -14.787  1.00  0.00     0.029 A 
ATOM     59  N   UNL     1       5.905  -8.359 -14.472  1.00  0.00    -0.354 N 
ATOM     60  N   UNL     1       3.543  -6.838 -15.323  1.00  0.00    -0.248 NA
ATOM     61  C   UNL     1       2.222  -5.917 -17.016  1.00  0.00     0.031 C 
ATOM     62  C   UNL     1       7.184  -9.280 -16.038  1.00  0.00     0.029 A 
ATOM     63  C   UNL     1       6.053  -8.503 -15.842  1.00  0.00     0.049 A 
ATOM     64  H   UNL     1       5.186  -7.850 -14.032  1.00  0.00     0.167 HD
ATOM     65  C   UNL     1       4.072  -7.193 -16.559  1.00  0.00     0.074 A 
ATOM     66  C   UNL     1       3.205  -6.617 -17.566  1.00  0.00     0.031 C 
ATOM     67  C   UNL     1       5.176  -7.930 -16.832  1.00  0.00     0.037 A 
BRANCH  54  68
ATOM     68  C   UNL     1       8.270  -9.814 -11.820  1.00  0.00     0.058 A 
ATOM     69  C   UNL     1       8.133 -11.047 -11.163  1.00  0.00     0.135 A 
ATOM     70  C   UNL     1       9.562  -9.283 -11.955  1.00  0.00     0.135 A 
ATOM     71  F   UNL     1       6.918 -11.592 -10.994  1.00  0.00    -0.206 F 
ATOM     72  C   UNL     1       9.231 -11.711 -10.627  1.00  0.00     0.059 A 
ATOM     73  C   UNL     1      10.679  -9.943 -11.449  1.00  0.00     0.059 A 
ATOM     74  F   UNL     1       9.750  -8.108 -12.577  1.00  0.00    -0.206 F 
ATOM     75  C   UNL     1      10.500 -11.148 -10.770  1.00  0.00     0.060 A 
BRANCH  75  76
ATOM     76  S   UNL     1      11.914 -12.014 -10.058  1.00  0.00     0.124 S 
ATOM     77  O   UNL     1      11.749 -11.717  -8.638  1.00  0.00    -0.237 OA
ATOM     78  O   UNL     1      11.664 -13.398 -10.448  1.00  0.00    -0.237 OA
ATOM     79  O   UNL     1      13.060 -11.382 -10.703  1.00  0.00    -0.744 OA
ENDBRANCH  75  76
ENDBRANCH  54  68
BRANCH  55  80
ATOM     80  C   UNL     1       0.347  -4.704 -15.119  1.00  0.00     0.058 A 
ATOM     81  C   UNL     1      -0.741  -5.347 -15.727  1.00  0.00     0.135 A 
ATOM     82  C   UNL     1       0.289  -3.309 -14.980  1.00  0.00     0.135 A 
ATOM     83  F   UNL     1      -0.728  -6.679 -15.888  1.00  0.00    -0.206 F 
ATOM     84  C   UNL     1      -1.842  -4.634 -16.191  1.00  0.00     0.059 A 
ATOM     85  C   UNL     1      -0.810  -2.576 -15.417  1.00  0.00     0.059 A 
ATOM     86  F   UNL     1       1.299  -2.650 -14.390  1.00  0.00    -0.206 F 
ATOM     87  C   UNL     1      -1.868  -3.248 -16.029  1.00  0.00     0.060 A 
BRANCH  87  88
ATOM     88  S   UNL     1      -3.328  -2.339 -16.582  1.00  0.00     0.124 S 
ATOM     89  O   UNL     1      -3.141  -2.335 -18.028  1.00  0.00    -0.237 OA
ATOM     90  O   UNL     1      -4.417  -3.171 -16.080  1.00  0.00    -0.237 OA
ATOM     91  O   UNL     1      -3.185  -1.045 -15.921  1.00  0.00    -0.744 OA
ENDBRANCH  87  88
ENDBRANCH  55  80
BRANCH  67  92
ATOM     92  C   UNL     1       5.498  -8.184 -18.278  1.00  0.00     0.058 A 
ATOM     93  C   UNL     1       6.058  -7.187 -19.091  1.00  0.00     0.135 A 
ATOM     94  C   UNL     1       5.305  -9.457 -18.836  1.00  0.00     0.135 A 
ATOM     95  F   UNL     1       6.254  -5.951 -18.607  1.00  0.00    -0.206 F 
ATOM     96  C   UNL     1       6.406  -7.441 -20.414  1.00  0.00     0.059 A 
ATOM     97  C   UNL     1       5.665  -9.740 -20.149  1.00  0.00     0.059 A 
ATOM     98  F   UNL     1       4.779 -10.447 -18.096  1.00  0.00    -0.206 F 
ATOM     99  C   UNL     1       6.209  -8.723 -20.933  1.00  0.00     0.060 A 
BRANCH  99 100
ATOM    100  S   UNL     1       6.712  -9.056 -22.635  1.00  0.00     0.124 S 
ATOM    101  O   UNL     1       5.642  -8.412 -23.389  1.00  0.00    -0.237 OA
ATOM    102  O   UNL     1       8.018  -8.408 -22.709  1.00  0.00    -0.237 OA
ATOM    103  O   UNL     1       6.739 -10.514 -22.701  1.00  0.00    -0.744 OA
ENDBRANCH  99 100
ENDBRANCH  67  92
ENDBRANCH  41  42
ENDBRANCH  33  36
ENDBRANCH  31  32
ENDBRANCH  30  31
ENDBRANCH   1  30
TORSDOF 18
