REMARK SMILES C[C@@H](CCO)Sc1cc(C(=O)NCCCCNC(=O)c2ccc(-c3c4nc(c(-c5c(F)cc(S(=O)(=O)[O-])cc5F)c5ccc([nH]5)c(-c5c(F)cc(S(=O)(=O)[O-])cc5F)c5nc(c(-c6c(F)cc(S(=O)(=O)[O-])cc6F)c6ccc3[nH]6)C=C5)C=C4)cc2)c2ccccc2n1
REMARK SMILES IDX 13 1 12 2 10 3 11 4 9 6 7 7 8 8 92 9 91 10 86 11 90 12 87 13
REMARK SMILES IDX 89 14 88 15 6 16 2 17 1 18 3 19 4 20 5 21 14 23 15 24 16 25
REMARK SMILES IDX 17 26 18 27 19 29 20 30 21 31 85 32 22 33 84 34 23 35 24 36
REMARK SMILES IDX 25 37 78 38 26 39 83 40 77 41 79 42 27 43 82 44 76 45 75 46
REMARK SMILES IDX 28 48 62 49 41 50 61 51 42 52 45 53 60 54 80 55 43 56 44 57
REMARK SMILES IDX 59 59 81 60 46 61 29 62 30 63 39 64 31 65 32 66 38 67 40 68
REMARK SMILES IDX 33 69 34 70 35 71 36 72 37 73 63 74 64 75 73 76 65 77 66 78
REMARK SMILES IDX 72 79 74 80 67 81 68 82 69 83 70 84 71 85 47 86 48 87 57 88
REMARK SMILES IDX 49 89 50 90 56 91 58 92 51 93 52 94 53 95 54 96 55 97
REMARK H PARENT 12 5 5 22 17 28 79 47 45 58
REMARK Flexibility Score: inf
ROOT
ATOM      1  C   UNL     1      -3.729   1.052   5.602  1.00  0.00     0.116 C 
ENDROOT
BRANCH   1   2
ATOM      2  N   UNL     1      -2.855   1.621   4.597  1.00  0.00    -0.352 N 
ATOM      3  C   UNL     1      -2.155   1.113   3.538  1.00  0.00     0.252 C 
ATOM      4  O   UNL     1      -1.327   1.878   3.031  1.00  0.00    -0.269 OA
ATOM      5  H   UNL     1      -2.739   2.593   4.700  1.00  0.00     0.163 HD
BRANCH   3   6
ATOM      6  C   UNL     1      -2.367  -0.208   2.868  1.00  0.00     0.051 A 
ATOM      7  C   UNL     1      -2.185  -1.278   0.728  1.00  0.00     0.098 A 
ATOM      8  C   UNL     1      -2.161  -0.129   1.483  1.00  0.00     0.050 A 
ATOM      9  N   UNL     1      -2.604  -2.456   1.221  1.00  0.00    -0.241 NA
ATOM     10  C   UNL     1      -2.873  -2.543   2.530  1.00  0.00     0.072 A 
ATOM     11  C   UNL     1      -2.642  -1.483   3.431  1.00  0.00     0.013 A 
ATOM     12  C   UNL     1      -3.304  -3.778   3.001  1.00  0.00     0.029 A 
ATOM     13  C   UNL     1      -2.631  -1.830   4.798  1.00  0.00     0.011 A 
ATOM     14  C   UNL     1      -3.436  -4.042   4.361  1.00  0.00     0.002 A 
ATOM     15  C   UNL     1      -3.056  -3.073   5.268  1.00  0.00     0.001 A 
BRANCH   7  16
ATOM     16  S   UNL     1      -1.578  -1.295  -0.936  1.00  0.00    -0.103 SA
BRANCH  16  17
ATOM     17  C   UNL     1       0.261  -1.244  -0.702  1.00  0.00     0.052 C 
ATOM     18  C   UNL     1       0.769   0.048  -0.063  1.00  0.00     0.020 C 
BRANCH  17  19
ATOM     19  C   UNL     1       0.890  -2.521  -0.111  1.00  0.00     0.043 C 
BRANCH  19  20
ATOM     20  C   UNL     1       0.808  -2.711   1.402  1.00  0.00     0.157 C 
BRANCH  20  21
ATOM     21  O   UNL     1      -0.007  -3.836   1.702  1.00  0.00    -0.396 OA
ATOM     22  H   UNL     1      -0.899  -3.691   1.351  1.00  0.00     0.210 HD
ENDBRANCH  20  21
ENDBRANCH  19  20
ENDBRANCH  17  19
ENDBRANCH  16  17
ENDBRANCH   7  16
ENDBRANCH   3   6
ENDBRANCH   1   2
BRANCH   1  23
ATOM     23  C   UNL     1      -2.895   0.722   6.849  1.00  0.00     0.023 C 
BRANCH  23  24
ATOM     24  C   UNL     1      -2.892   1.782   7.941  1.00  0.00     0.023 C 
BRANCH  24  25
ATOM     25  C   UNL     1      -4.212   1.912   8.681  1.00  0.00     0.116 C 
BRANCH  25  26
ATOM     26  N   UNL     1      -4.671   0.668   9.288  1.00  0.00    -0.352 N 
ATOM     27  C   UNL     1      -5.446   0.505  10.412  1.00  0.00     0.251 C 
ATOM     28  H   UNL     1      -4.390  -0.160   8.835  1.00  0.00     0.163 HD
ATOM     29  O   UNL     1      -5.696  -0.619  10.835  1.00  0.00    -0.269 OA
BRANCH  27  30
ATOM     30  C   UNL     1      -5.914   1.706  11.129  1.00  0.00     0.039 A 
ATOM     31  C   UNL     1      -5.679   1.802  12.501  1.00  0.00     0.014 A 
ATOM     32  C   UNL     1      -6.489   2.770  10.428  1.00  0.00     0.014 A 
ATOM     33  C   UNL     1      -5.946   3.004  13.156  1.00  0.00     0.010 A 
ATOM     34  C   UNL     1      -6.664   3.992  11.062  1.00  0.00     0.010 A 
ATOM     35  C   UNL     1      -6.394   4.122  12.431  1.00  0.00    -0.014 A 
BRANCH  35  36
ATOM     36  C   UNL     1      -6.576   5.436  13.093  1.00  0.00     0.031 A 
ATOM     37  C   UNL     1      -7.939   6.065  13.157  1.00  0.00     0.074 A 
ATOM     38  C   UNL     1      -5.500   6.087  13.578  1.00  0.00     0.049 A 
ATOM     39  N   UNL     1      -8.294   7.212  13.675  1.00  0.00    -0.248 NA
ATOM     40  C   UNL     1      -9.044   5.327  12.522  1.00  0.00     0.031 C 
ATOM     41  C   UNL     1      -4.114   5.616  13.494  1.00  0.00     0.029 A 
ATOM     42  N   UNL     1      -5.402   7.285  14.237  1.00  0.00    -0.354 N 
ATOM     43  C   UNL     1      -9.653   7.339  13.416  1.00  0.00     0.074 A 
ATOM     44  C   UNL     1     -10.047   6.184  12.640  1.00  0.00     0.031 C 
ATOM     45  C   UNL     1      -3.311   6.497  14.113  1.00  0.00     0.029 A 
ATOM     46  C   UNL     1      -4.119   7.602  14.618  1.00  0.00     0.049 A 
ATOM     47  H   UNL     1      -6.176   7.864  14.421  1.00  0.00     0.167 HD
ATOM     48  C   UNL     1     -10.503   8.314  13.817  1.00  0.00     0.037 A 
ATOM     49  C   UNL     1      -3.652   8.657  15.313  1.00  0.00     0.037 A 
ATOM     50  C   UNL     1     -10.111   9.438  14.624  1.00  0.00     0.049 A 
ATOM     51  C   UNL     1      -4.626   9.689  15.810  1.00  0.00     0.074 A 
ATOM     52  C   UNL     1     -10.903  10.450  15.137  1.00  0.00     0.029 A 
ATOM     53  N   UNL     1      -8.814   9.692  15.045  1.00  0.00    -0.354 N 
ATOM     54  N   UNL     1      -5.923   9.757  15.618  1.00  0.00    -0.248 NA
ATOM     55  C   UNL     1      -4.079  10.775  16.633  1.00  0.00     0.031 C 
ATOM     56  C   UNL     1     -10.079  11.329  15.852  1.00  0.00     0.029 A 
ATOM     57  C   UNL     1      -8.781  10.844  15.811  1.00  0.00     0.049 A 
ATOM     58  H   UNL     1      -8.031   9.135  14.830  1.00  0.00     0.167 HD
ATOM     59  C   UNL     1      -6.351  10.877  16.320  1.00  0.00     0.074 A 
ATOM     60  C   UNL     1      -5.177  11.448  16.949  1.00  0.00     0.031 C 
ATOM     61  C   UNL     1      -7.602  11.389  16.435  1.00  0.00     0.037 A 
BRANCH  48  62
ATOM     62  C   UNL     1     -11.942   8.188  13.402  1.00  0.00     0.058 A 
ATOM     63  C   UNL     1     -12.780   7.203  13.951  1.00  0.00     0.135 A 
ATOM     64  C   UNL     1     -12.495   9.062  12.453  1.00  0.00     0.135 A 
ATOM     65  F   UNL     1     -12.296   6.327  14.847  1.00  0.00    -0.206 F 
ATOM     66  C   UNL     1     -14.104   7.067  13.550  1.00  0.00     0.059 A 
ATOM     67  C   UNL     1     -13.825   8.962  12.057  1.00  0.00     0.059 A 
ATOM     68  F   UNL     1     -11.738  10.020  11.895  1.00  0.00    -0.206 F 
ATOM     69  C   UNL     1     -14.617   7.950  12.598  1.00  0.00     0.060 A 
BRANCH  69  70
ATOM     70  S   UNL     1     -16.337   7.760  12.083  1.00  0.00     0.124 S 
ATOM     71  O   UNL     1     -16.247   6.603  11.197  1.00  0.00    -0.237 OA
ATOM     72  O   UNL     1     -17.022   7.534  13.352  1.00  0.00    -0.237 OA
ATOM     73  O   UNL     1     -16.636   9.030  11.430  1.00  0.00    -0.744 OA
ENDBRANCH  69  70
ENDBRANCH  48  62
BRANCH  49  74
ATOM     74  C   UNL     1      -2.204   8.754  15.633  1.00  0.00     0.058 A 
ATOM     75  C   UNL     1      -1.740   8.517  16.935  1.00  0.00     0.135 A 
ATOM     76  C   UNL     1      -1.257   9.063  14.646  1.00  0.00     0.135 A 
ATOM     77  F   UNL     1      -2.610   8.219  17.913  1.00  0.00    -0.206 F 
ATOM     78  C   UNL     1      -0.389   8.602  17.254  1.00  0.00     0.059 A 
ATOM     79  C   UNL     1       0.102   9.132  14.936  1.00  0.00     0.059 A 
ATOM     80  F   UNL     1      -1.649   9.276  13.380  1.00  0.00    -0.206 F 
ATOM     81  C   UNL     1       0.525   8.910  16.246  1.00  0.00     0.060 A 
BRANCH  81  82
ATOM     82  S   UNL     1       2.284   8.967  16.657  1.00  0.00     0.124 S 
ATOM     83  O   UNL     1       2.383  10.252  17.340  1.00  0.00    -0.237 OA
ATOM     84  O   UNL     1       2.444   7.783  17.495  1.00  0.00    -0.237 OA
ATOM     85  O   UNL     1       2.933   8.892  15.351  1.00  0.00    -0.744 OA
ENDBRANCH  81  82
ENDBRANCH  49  74
BRANCH  61  86
ATOM     86  C   UNL     1      -7.765  12.603  17.302  1.00  0.00     0.058 A 
ATOM     87  C   UNL     1      -7.332  13.870  16.885  1.00  0.00     0.135 A 
ATOM     88  C   UNL     1      -8.386  12.498  18.558  1.00  0.00     0.135 A 
ATOM     89  F   UNL     1      -6.729  14.020  15.694  1.00  0.00    -0.206 F 
ATOM     90  C   UNL     1      -7.476  14.989  17.698  1.00  0.00     0.059 A 
ATOM     91  C   UNL     1      -8.562  13.608  19.377  1.00  0.00     0.059 A 
ATOM     92  F   UNL     1      -8.829  11.310  18.996  1.00  0.00    -0.206 F 
ATOM     93  C   UNL     1      -8.087  14.847  18.945  1.00  0.00     0.060 A 
BRANCH  93  94
ATOM     94  S   UNL     1      -8.277  16.305  19.992  1.00  0.00     0.124 S 
ATOM     95  O   UNL     1      -6.933  16.444  20.544  1.00  0.00    -0.237 OA
ATOM     96  O   UNL     1      -8.679  17.331  19.036  1.00  0.00    -0.237 OA
ATOM     97  O   UNL     1      -9.310  15.905  20.943  1.00  0.00    -0.744 OA
ENDBRANCH  93  94
ENDBRANCH  61  86
ENDBRANCH  35  36
ENDBRANCH  27  30
ENDBRANCH  25  26
ENDBRANCH  24  25
ENDBRANCH  23  24
ENDBRANCH   1  23
TORSDOF 19
