REMARK SMILES Nc1ccc(-c2cc(Cl)cc3c2O[C@H](C(F)(F)F)C(C(=O)NCCCCNC(=O)c2ccc(-c4c5nc(c(-c6c(F)cc(S(=O)(=O)[O-])cc6F)c6ccc([nH]6)c(-c6c(F)cc(S(=O)(=O)[O-])cc6F)c6nc(c(-c7c(F)cc(S(=O)(=O)[O-])cc7F)c7ccc4[nH]7)C=C6)C=C5)cc2)=C3)cc1
REMARK SMILES IDX 25 1 24 2 23 3 22 4 20 5 21 6 19 8 6 9 7 10 12 11 8 12 11 13
REMARK SMILES IDX 13 14 9 15 10 16 96 17 14 18 5 19 2 20 3 21 98 22 4 23 97 24
REMARK SMILES IDX 1 25 15 28 16 29 17 30 18 31 26 32 27 33 28 34 29 36 30 37
REMARK SMILES IDX 31 38 95 39 32 40 94 41 33 42 34 43 35 44 88 45 36 46 93 47
REMARK SMILES IDX 87 48 89 49 37 50 92 51 86 52 85 53 38 55 72 56 51 57 71 58
REMARK SMILES IDX 52 59 55 60 70 61 90 62 53 63 54 64 69 66 91 67 56 68 39 69
REMARK SMILES IDX 40 70 49 71 41 72 42 73 48 74 50 75 43 76 44 77 45 78 46 79
REMARK SMILES IDX 47 80 73 81 74 82 83 83 75 84 76 85 82 86 84 87 77 88 78 89
REMARK SMILES IDX 79 90 80 91 81 92 57 93 58 94 67 95 59 96 60 97 66 98 68 99
REMARK SMILES IDX 61 100 62 101 63 102 64 103 65 104
REMARK H PARENT 22 7 1 26 1 27 27 35 89 54 55 65
REMARK Flexibility Score: inf
ROOT
ATOM      1  C   UNL     1      -4.009  -2.651   8.083  1.00  0.00     0.023 C 
ENDROOT
BRANCH   1   2
ATOM      2  C   UNL     1      -3.652  -2.345   6.625  1.00  0.00     0.023 C 
BRANCH   2   3
ATOM      3  C   UNL     1      -4.238  -3.326   5.612  1.00  0.00     0.116 C 
BRANCH   3   4
ATOM      4  N   UNL     1      -5.577  -2.949   5.189  1.00  0.00    -0.352 N 
ATOM      5  C   UNL     1      -6.135  -2.299   4.140  1.00  0.00     0.251 C 
ATOM      6  O   UNL     1      -7.365  -2.200   4.170  1.00  0.00    -0.270 OA
ATOM      7  H   UNL     1      -6.258  -3.244   5.835  1.00  0.00     0.163 HD
BRANCH   5   8
ATOM      8  C   UNL     1      -5.384  -1.714   2.990  1.00  0.00     0.067 C 
ATOM      9  C   UNL     1      -3.357   0.147  -0.202  1.00  0.00     0.026 A 
ATOM     10  C   UNL     1      -4.110   0.686  -1.255  1.00  0.00     0.033 A 
ATOM     11  C   UNL     1      -4.051  -0.403   0.894  1.00  0.00     0.135 A 
ATOM     12  C   UNL     1      -5.506   0.669  -1.207  1.00  0.00     0.042 A 
ATOM     13  C   UNL     1      -5.450  -0.427   0.942  1.00  0.00     0.019 A 
ATOM     14  O   UNL     1      -3.306  -0.861   1.951  1.00  0.00    -0.475 OA
ATOM     15  Cl  UNL     1      -6.408   1.339  -2.512  1.00  0.00    -0.084 Cl
ATOM     16  C   UNL     1      -6.179   0.117  -0.117  1.00  0.00     0.032 A 
ATOM     17  C   UNL     1      -6.113  -0.998   2.111  1.00  0.00     0.025 C 
ATOM     18  C   UNL     1      -3.915  -1.906   2.753  1.00  0.00     0.314 C 
BRANCH   9  19
ATOM     19  C   UNL     1      -1.887   0.138  -0.253  1.00  0.00    -0.014 A 
ATOM     20  C   UNL     1       0.943   0.092  -0.151  1.00  0.00     0.031 A 
ATOM     21  C   UNL     1       0.217  -1.094  -0.252  1.00  0.00     0.026 A 
ATOM     22  C   UNL     1       0.249   1.303  -0.182  1.00  0.00     0.026 A 
ATOM     23  C   UNL     1      -1.180  -1.073  -0.293  1.00  0.00     0.011 A 
ATOM     24  C   UNL     1      -1.151   1.329  -0.220  1.00  0.00     0.011 A 
BRANCH  20  25
ATOM     25  N   UNL     1       2.329   0.071  -0.155  1.00  0.00    -0.399 N 
ATOM     26  H   UNL     1       2.808  -0.788  -0.132  1.00  0.00     0.156 HD
ATOM     27  H   UNL     1       2.834   0.916  -0.180  1.00  0.00     0.156 HD
ENDBRANCH  20  25
ENDBRANCH   9  19
BRANCH  18  28
ATOM     28  C   UNL     1      -3.576  -3.281   2.148  1.00  0.00     0.429 C 
ATOM     29  F   UNL     1      -2.244  -3.526   2.239  1.00  0.00    -0.167 F 
ATOM     30  F   UNL     1      -4.199  -4.298   2.786  1.00  0.00    -0.167 F 
ATOM     31  F   UNL     1      -3.910  -3.374   0.840  1.00  0.00    -0.167 F 
ENDBRANCH  18  28
ENDBRANCH   5   8
ENDBRANCH   3   4
ENDBRANCH   2   3
ENDBRANCH   1   2
BRANCH   1  32
ATOM     32  C   UNL     1      -3.620  -4.043   8.578  1.00  0.00     0.116 C 
BRANCH  32  33
ATOM     33  N   UNL     1      -2.218  -4.385   8.379  1.00  0.00    -0.352 N 
ATOM     34  C   UNL     1      -1.483  -5.339   9.049  1.00  0.00     0.251 C 
ATOM     35  H   UNL     1      -1.740  -3.875   7.685  1.00  0.00     0.163 HD
ATOM     36  O   UNL     1      -0.283  -5.473   8.833  1.00  0.00    -0.269 OA
BRANCH  34  37
ATOM     37  C   UNL     1      -2.160  -6.154  10.079  1.00  0.00     0.039 A 
ATOM     38  C   UNL     1      -3.345  -6.824   9.773  1.00  0.00     0.014 A 
ATOM     39  C   UNL     1      -1.660  -6.154  11.384  1.00  0.00     0.014 A 
ATOM     40  C   UNL     1      -4.125  -7.334  10.804  1.00  0.00     0.010 A 
ATOM     41  C   UNL     1      -2.411  -6.738  12.409  1.00  0.00     0.010 A 
ATOM     42  C   UNL     1      -3.679  -7.275  12.135  1.00  0.00    -0.014 A 
BRANCH  42  43
ATOM     43  C   UNL     1      -4.582  -7.739  13.220  1.00  0.00     0.031 A 
ATOM     44  C   UNL     1      -5.152  -6.760  14.215  1.00  0.00     0.074 A 
ATOM     45  C   UNL     1      -4.963  -9.031  13.252  1.00  0.00     0.049 A 
ATOM     46  N   UNL     1      -5.995  -6.977  15.192  1.00  0.00    -0.248 NA
ATOM     47  C   UNL     1      -4.720  -5.357  14.101  1.00  0.00     0.031 C 
ATOM     48  C   UNL     1      -4.492 -10.068  12.331  1.00  0.00     0.029 A 
ATOM     49  N   UNL     1      -5.858  -9.684  14.059  1.00  0.00    -0.354 N 
ATOM     50  C   UNL     1      -6.181  -5.749  15.818  1.00  0.00     0.074 A 
ATOM     51  C   UNL     1      -5.344  -4.793  15.127  1.00  0.00     0.031 C 
ATOM     52  C   UNL     1      -5.151 -11.209  12.582  1.00  0.00     0.029 A 
ATOM     53  C   UNL     1      -6.048 -11.001  13.714  1.00  0.00     0.049 A 
ATOM     54  H   UNL     1      -6.320  -9.251  14.813  1.00  0.00     0.167 HD
ATOM     55  C   UNL     1      -6.984  -5.445  16.865  1.00  0.00     0.037 A 
ATOM     56  C   UNL     1      -6.853 -11.938  14.250  1.00  0.00     0.037 A 
ATOM     57  C   UNL     1      -7.842  -6.391  17.530  1.00  0.00     0.049 A 
ATOM     58  C   UNL     1      -7.717 -11.581  15.424  1.00  0.00     0.074 A 
ATOM     59  C   UNL     1      -8.705  -6.172  18.591  1.00  0.00     0.029 A 
ATOM     60  N   UNL     1      -7.955  -7.731  17.194  1.00  0.00    -0.354 N 
ATOM     61  N   UNL     1      -7.863 -10.418  16.012  1.00  0.00    -0.248 NA
ATOM     62  C   UNL     1      -8.510 -12.665  16.020  1.00  0.00     0.031 C 
ATOM     63  C   UNL     1      -9.318  -7.388  18.914  1.00  0.00     0.029 A 
ATOM     64  C   UNL     1      -8.860  -8.355  18.035  1.00  0.00     0.049 A 
ATOM     65  H   UNL     1      -7.463  -8.173  16.464  1.00  0.00     0.167 HD
ATOM     66  C   UNL     1      -8.761 -10.630  17.051  1.00  0.00     0.074 A 
ATOM     67  C   UNL     1      -9.143 -12.027  16.996  1.00  0.00     0.031 C 
ATOM     68  C   UNL     1      -9.219  -9.749  17.972  1.00  0.00     0.037 A 
BRANCH  55  69
ATOM     69  C   UNL     1      -6.978  -4.028  17.366  1.00  0.00     0.058 A 
ATOM     70  C   UNL     1      -7.640  -3.002  16.675  1.00  0.00     0.135 A 
ATOM     71  C   UNL     1      -6.352  -3.704  18.581  1.00  0.00     0.135 A 
ATOM     72  F   UNL     1      -8.238  -3.255  15.500  1.00  0.00    -0.206 F 
ATOM     73  C   UNL     1      -7.672  -1.700  17.165  1.00  0.00     0.059 A 
ATOM     74  C   UNL     1      -6.388  -2.413  19.099  1.00  0.00     0.059 A 
ATOM     75  F   UNL     1      -5.703  -4.649  19.279  1.00  0.00    -0.206 F 
ATOM     76  C   UNL     1      -7.043  -1.415  18.378  1.00  0.00     0.060 A 
BRANCH  76  77
ATOM     77  S   UNL     1      -7.105   0.277  19.006  1.00  0.00     0.124 S 
ATOM     78  O   UNL     1      -6.169   0.952  18.112  1.00  0.00    -0.237 OA
ATOM     79  O   UNL     1      -8.512   0.625  18.829  1.00  0.00    -0.237 OA
ATOM     80  O   UNL     1      -6.664   0.143  20.391  1.00  0.00    -0.744 OA
ENDBRANCH  76  77
ENDBRANCH  55  69
BRANCH  56  81
ATOM     81  C   UNL     1      -6.872 -13.304  13.670  1.00  0.00     0.058 A 
ATOM     82  C   UNL     1      -7.968 -13.752  12.919  1.00  0.00     0.135 A 
ATOM     83  C   UNL     1      -5.778 -14.170  13.816  1.00  0.00     0.135 A 
ATOM     84  F   UNL     1      -9.039 -12.960  12.758  1.00  0.00    -0.206 F 
ATOM     85  C   UNL     1      -7.978 -15.011  12.329  1.00  0.00     0.059 A 
ATOM     86  C   UNL     1      -5.755 -15.425  13.219  1.00  0.00     0.059 A 
ATOM     87  F   UNL     1      -4.700 -13.779  14.515  1.00  0.00    -0.206 F 
ATOM     88  C   UNL     1      -6.863 -15.838  12.480  1.00  0.00     0.060 A 
BRANCH  88  89
ATOM     89  S   UNL     1      -6.851 -17.441  11.647  1.00  0.00     0.124 S 
ATOM     90  O   UNL     1      -7.727 -18.225  12.510  1.00  0.00    -0.237 OA
ATOM     91  O   UNL     1      -7.383 -17.108  10.329  1.00  0.00    -0.237 OA
ATOM     92  O   UNL     1      -5.441 -17.816  11.667  1.00  0.00    -0.744 OA
ENDBRANCH  88  89
ENDBRANCH  56  81
BRANCH  68  93
ATOM     93  C   UNL     1     -10.175 -10.268  19.006  1.00  0.00     0.058 A 
ATOM     94  C   UNL     1      -9.720 -11.019  20.100  1.00  0.00     0.135 A 
ATOM     95  C   UNL     1     -11.542  -9.957  18.940  1.00  0.00     0.135 A 
ATOM     96  F   UNL     1      -8.422 -11.347  20.201  1.00  0.00    -0.206 F 
ATOM     97  C   UNL     1     -10.591 -11.451  21.093  1.00  0.00     0.059 A 
ATOM     98  C   UNL     1     -12.428 -10.364  19.931  1.00  0.00     0.059 A 
ATOM     99  F   UNL     1     -12.022  -9.235  17.915  1.00  0.00    -0.206 F 
ATOM    100  C   UNL     1     -11.944 -11.116  21.002  1.00  0.00     0.060 A 
BRANCH 100 101
ATOM    101  S   UNL     1     -13.055 -11.640  22.325  1.00  0.00     0.124 S 
ATOM    102  O   UNL     1     -13.206 -13.062  22.035  1.00  0.00    -0.237 OA
ATOM    103  O   UNL     1     -12.290 -11.315  23.525  1.00  0.00    -0.237 OA
ATOM    104  O   UNL     1     -14.247 -10.825  22.110  1.00  0.00    -0.744 OA
ENDBRANCH 100 101
ENDBRANCH  68  93
ENDBRANCH  42  43
ENDBRANCH  34  37
ENDBRANCH  32  33
ENDBRANCH   1  32
TORSDOF 17
