REMARK SMILES CCC[C@@H](C)[C@@](C#N)(CC)C(=O)NCCCCNC(=O)c1ccc(-c2c3nc(c(-c4c(F)cc(S(=O)(=O)[O-])cc4F)c4ccc([nH]4)c(-c4c(F)cc(S(=O)(=O)[O-])cc4F)c4nc(c(-c5c(F)cc(S(=O)(=O)[O-])cc5F)c5ccc2[nH]5)C=C4)C=C3)cc1
REMARK SMILES IDX 15 1 14 2 13 3 11 4 12 5 6 7 4 8 5 9 3 10 2 11 1 12 7 13
REMARK SMILES IDX 8 14 9 15 10 16 16 17 17 18 18 19 19 20 20 22 21 23 22 24
REMARK SMILES IDX 86 25 23 26 85 27 24 28 25 29 26 30 79 31 27 32 84 33 78 34
REMARK SMILES IDX 80 35 28 36 83 37 77 38 76 39 29 41 63 42 42 43 62 44 43 45
REMARK SMILES IDX 46 46 61 47 81 48 44 49 45 50 60 52 82 53 47 54 30 55 31 56
REMARK SMILES IDX 40 57 32 58 33 59 39 60 41 61 34 62 35 63 36 64 37 65 38 66
REMARK SMILES IDX 64 67 65 68 74 69 66 70 67 71 73 72 75 73 68 74 69 75 70 76
REMARK SMILES IDX 71 77 72 78 48 79 49 80 58 81 50 82 51 83 57 84 59 85 52 86
REMARK SMILES IDX 53 87 54 88 55 89 56 90
REMARK H PARENT 13 6 18 21 80 40 46 51
REMARK Flexibility Score: inf
ROOT
ATOM      1  C   UNL     1       0.924   6.134  -5.713  1.00  0.00     0.023 C 
ENDROOT
BRANCH   1   2
ATOM      2  C   UNL     1       1.765   5.743  -4.502  1.00  0.00     0.116 C 
BRANCH   2   3
ATOM      3  N   UNL     1       0.946   5.654  -3.304  1.00  0.00    -0.355 N 
ATOM      4  C   UNL     1       0.531   4.585  -2.566  1.00  0.00     0.240 C 
ATOM      5  O   UNL     1      -0.209   4.845  -1.613  1.00  0.00    -0.273 OA
ATOM      6  H   UNL     1       0.635   6.524  -2.965  1.00  0.00     0.163 HD
BRANCH   4   7
ATOM      7  C   UNL     1       0.945   3.139  -2.916  1.00  0.00     0.138 C 
BRANCH   7   8
ATOM      8  C   UNL     1       0.465   2.067  -1.836  1.00  0.00     0.016 C 
ATOM      9  C   UNL     1      -1.061   1.877  -1.784  1.00  0.00     0.010 C 
BRANCH   8  10
ATOM     10  C   UNL     1       1.049   2.291  -0.410  1.00  0.00     0.005 C 
BRANCH  10  11
ATOM     11  C   UNL     1       0.718   1.215   0.639  1.00  0.00    -0.003 C 
ATOM     12  C   UNL     1       1.070  -0.204   0.216  1.00  0.00     0.004 C 
ENDBRANCH  10  11
ENDBRANCH   8  10
ENDBRANCH   7   8
BRANCH   7  13
ATOM     13  C   UNL     1       2.465   3.139  -2.916  1.00  0.00     0.079 C 
ATOM     14  N   UNL     1       3.726   3.139  -2.916  1.00  0.00    -0.197 NA
ENDBRANCH   7  13
BRANCH   7  15
ATOM     15  C   UNL     1       0.471   2.712  -4.345  1.00  0.00     0.029 C 
ATOM     16  C   UNL     1      -0.969   3.036  -4.737  1.00  0.00     0.006 C 
ENDBRANCH   7  15
ENDBRANCH   4   7
ENDBRANCH   2   3
ENDBRANCH   1   2
BRANCH   1  17
ATOM     17  C   UNL     1       0.390   7.564  -5.656  1.00  0.00     0.023 C 
BRANCH  17  18
ATOM     18  C   UNL     1       1.456   8.632  -5.440  1.00  0.00     0.116 C 
BRANCH  18  19
ATOM     19  N   UNL     1       2.525   8.562  -6.424  1.00  0.00    -0.352 N 
ATOM     20  C   UNL     1       3.137   9.586  -7.106  1.00  0.00     0.251 C 
ATOM     21  H   UNL     1       2.855   7.658  -6.629  1.00  0.00     0.163 HD
ATOM     22  O   UNL     1       3.912   9.337  -8.018  1.00  0.00    -0.269 OA
BRANCH  20  23
ATOM     23  C   UNL     1       2.820  10.984  -6.745  1.00  0.00     0.039 A 
ATOM     24  C   UNL     1       2.535  11.889  -7.768  1.00  0.00     0.014 A 
ATOM     25  C   UNL     1       2.776  11.388  -5.408  1.00  0.00     0.014 A 
ATOM     26  C   UNL     1       2.143  13.188  -7.443  1.00  0.00     0.010 A 
ATOM     27  C   UNL     1       2.306  12.657  -5.085  1.00  0.00     0.010 A 
ATOM     28  C   UNL     1       1.986  13.570  -6.099  1.00  0.00    -0.014 A 
BRANCH  28  29
ATOM     29  C   UNL     1       1.464  14.916  -5.753  1.00  0.00     0.031 A 
ATOM     30  C   UNL     1       2.316  15.895  -4.993  1.00  0.00     0.074 A 
ATOM     31  C   UNL     1       0.199  15.237  -6.092  1.00  0.00     0.049 A 
ATOM     32  N   UNL     1       2.030  17.113  -4.614  1.00  0.00    -0.248 NA
ATOM     33  C   UNL     1       3.655  15.440  -4.585  1.00  0.00     0.031 C 
ATOM     34  C   UNL     1      -0.745  14.346  -6.771  1.00  0.00     0.029 A 
ATOM     35  N   UNL     1      -0.511  16.397  -5.915  1.00  0.00    -0.354 N 
ATOM     36  C   UNL     1       3.146  17.568  -3.921  1.00  0.00     0.074 A 
ATOM     37  C   UNL     1       4.090  16.474  -3.880  1.00  0.00     0.031 C 
ATOM     38  C   UNL     1      -1.895  15.003  -6.985  1.00  0.00     0.029 A 
ATOM     39  C   UNL     1      -1.787  16.347  -6.427  1.00  0.00     0.049 A 
ATOM     40  H   UNL     1      -0.143  17.190  -5.463  1.00  0.00     0.167 HD
ATOM     41  C   UNL     1       3.372  18.794  -3.392  1.00  0.00     0.037 A 
ATOM     42  C   UNL     1      -2.760  17.278  -6.445  1.00  0.00     0.037 A 
ATOM     43  C   UNL     1       2.429  19.882  -3.451  1.00  0.00     0.049 A 
ATOM     44  C   UNL     1      -2.484  18.633  -5.853  1.00  0.00     0.074 A 
ATOM     45  C   UNL     1       2.586  21.181  -3.001  1.00  0.00     0.029 A 
ATOM     46  N   UNL     1       1.151  19.797  -3.986  1.00  0.00    -0.354 N 
ATOM     47  N   UNL     1      -1.390  19.073  -5.277  1.00  0.00    -0.248 NA
ATOM     48  C   UNL     1      -3.568  19.621  -5.923  1.00  0.00     0.031 C 
ATOM     49  C   UNL     1       1.385  21.866  -3.214  1.00  0.00     0.029 A 
ATOM     50  C   UNL     1       0.499  21.012  -3.851  1.00  0.00     0.049 A 
ATOM     51  H   UNL     1       0.765  18.992  -4.399  1.00  0.00     0.167 HD
ATOM     52  C   UNL     1      -1.647  20.396  -4.934  1.00  0.00     0.074 A 
ATOM     53  C   UNL     1      -2.992  20.689  -5.387  1.00  0.00     0.031 C 
ATOM     54  C   UNL     1      -0.843  21.288  -4.303  1.00  0.00     0.037 A 
BRANCH  41  55
ATOM     55  C   UNL     1       4.691  19.026  -2.704  1.00  0.00     0.058 A 
ATOM     56  C   UNL     1       5.899  19.073  -3.419  1.00  0.00     0.135 A 
ATOM     57  C   UNL     1       4.745  19.244  -1.317  1.00  0.00     0.135 A 
ATOM     58  F   UNL     1       5.910  18.858  -4.744  1.00  0.00    -0.206 F 
ATOM     59  C   UNL     1       7.115  19.296  -2.781  1.00  0.00     0.059 A 
ATOM     60  C   UNL     1       5.947  19.499  -0.663  1.00  0.00     0.059 A 
ATOM     61  F   UNL     1       3.622  19.210  -0.583  1.00  0.00    -0.206 F 
ATOM     62  C   UNL     1       7.129  19.509  -1.402  1.00  0.00     0.060 A 
BRANCH  62  63
ATOM     63  S   UNL     1       8.715  19.805  -0.593  1.00  0.00     0.124 S 
ATOM     64  O   UNL     1       9.324  18.480  -0.654  1.00  0.00    -0.237 OA
ATOM     65  O   UNL     1       9.318  20.820  -1.451  1.00  0.00    -0.237 OA
ATOM     66  O   UNL     1       8.338  20.260   0.741  1.00  0.00    -0.744 OA
ENDBRANCH  62  63
ENDBRANCH  41  55
BRANCH  42  67
ATOM     67  C   UNL     1      -4.074  16.965  -7.068  1.00  0.00     0.058 A 
ATOM     68  C   UNL     1      -4.468  17.570  -8.270  1.00  0.00     0.135 A 
ATOM     69  C   UNL     1      -4.952  16.038  -6.486  1.00  0.00     0.135 A 
ATOM     70  F   UNL     1      -3.667  18.467  -8.864  1.00  0.00    -0.206 F 
ATOM     71  C   UNL     1      -5.692  17.281  -8.866  1.00  0.00     0.059 A 
ATOM     72  C   UNL     1      -6.169  15.710  -7.076  1.00  0.00     0.059 A 
ATOM     73  F   UNL     1      -4.615  15.416  -5.345  1.00  0.00    -0.206 F 
ATOM     74  C   UNL     1      -6.534  16.346  -8.262  1.00  0.00     0.060 A 
BRANCH  74  75
ATOM     75  S   UNL     1      -8.096  15.937  -9.071  1.00  0.00     0.124 S 
ATOM     76  O   UNL     1      -8.877  17.145  -8.831  1.00  0.00    -0.237 OA
ATOM     77  O   UNL     1      -7.676  15.711 -10.451  1.00  0.00    -0.237 OA
ATOM     78  O   UNL     1      -8.542  14.744  -8.357  1.00  0.00    -0.744 OA
ENDBRANCH  74  75
ENDBRANCH  42  67
BRANCH  54  79
ATOM     79  C   UNL     1      -1.388  22.673  -4.084  1.00  0.00     0.058 A 
ATOM     80  C   UNL     1      -2.409  22.928  -3.155  1.00  0.00     0.135 A 
ATOM     81  C   UNL     1      -0.854  23.766  -4.787  1.00  0.00     0.135 A 
ATOM     82  F   UNL     1      -2.959  21.919  -2.461  1.00  0.00    -0.206 F 
ATOM     83  C   UNL     1      -2.904  24.213  -2.954  1.00  0.00     0.059 A 
ATOM     84  C   UNL     1      -1.312  25.063  -4.578  1.00  0.00     0.059 A 
ATOM     85  F   UNL     1       0.132  23.581  -5.679  1.00  0.00    -0.206 F 
ATOM     86  C   UNL     1      -2.348  25.274  -3.670  1.00  0.00     0.060 A 
BRANCH  86  87
ATOM     87  S   UNL     1      -2.986  26.938  -3.384  1.00  0.00     0.124 S 
ATOM     88  O   UNL     1      -4.284  26.874  -4.049  1.00  0.00    -0.237 OA
ATOM     89  O   UNL     1      -3.023  27.012  -1.927  1.00  0.00    -0.237 OA
ATOM     90  O   UNL     1      -1.995  27.798  -4.024  1.00  0.00    -0.744 OA
ENDBRANCH  86  87
ENDBRANCH  54  79
ENDBRANCH  28  29
ENDBRANCH  20  23
ENDBRANCH  18  19
ENDBRANCH  17  18
ENDBRANCH   1  17
TORSDOF 19
