REMARK SMILES CC(C)=CC(=O)Nc1ccc(C(=O)NCCCCNC(=O)c2ccc(-c3c4nc(c(-c5c(F)cc(S(=O)(=O)[O-])cc5F)c5ccc([nH]5)c(-c5c(F)cc(S(=O)(=O)[O-])cc5F)c5nc(c(-c6c(F)cc(S(=O)(=O)[O-])cc6F)c6ccc3[nH]6)C=C5)C=C4)cc2)cc1
REMARK SMILES IDX 17 1 16 2 15 3 14 4 12 5 13 6 11 8 8 9 9 10 89 11 10 12
REMARK SMILES IDX 88 13 7 14 5 15 6 16 4 18 1 19 2 20 3 21 18 22 19 23 20 24
REMARK SMILES IDX 21 26 22 27 23 28 87 29 24 30 86 31 25 32 26 33 27 34 80 35
REMARK SMILES IDX 28 36 85 37 79 38 81 39 29 40 84 41 78 42 77 43 30 45 64 46
REMARK SMILES IDX 43 47 63 48 44 49 47 50 62 51 82 52 45 53 46 54 61 56 83 57
REMARK SMILES IDX 48 58 31 59 32 60 41 61 33 62 34 63 40 64 42 65 35 66 36 67
REMARK SMILES IDX 37 68 38 69 39 70 65 71 66 72 75 73 67 74 68 75 74 76 76 77
REMARK SMILES IDX 69 78 70 79 71 80 72 81 73 82 49 83 50 84 59 85 51 86 52 87
REMARK SMILES IDX 58 88 60 89 53 90 54 91 55 92 56 93 57 94
REMARK H PARENT 14 7 7 17 19 25 81 44 47 55
REMARK Flexibility Score: inf
ROOT
ATOM      1  C   UNL     1       2.045   6.279  -0.808  1.00  0.00     0.023 C 
ENDROOT
BRANCH   1   2
ATOM      2  C   UNL     1       2.149   4.817  -0.366  1.00  0.00     0.023 C 
BRANCH   2   3
ATOM      3  C   UNL     1       0.947   3.961  -0.772  1.00  0.00     0.116 C 
BRANCH   3   4
ATOM      4  N   UNL     1       0.974   3.688  -2.199  1.00  0.00    -0.352 N 
ATOM      5  C   UNL     1       1.380   2.589  -2.914  1.00  0.00     0.251 C 
ATOM      6  O   UNL     1       1.269   2.609  -4.138  1.00  0.00    -0.269 OA
ATOM      7  H   UNL     1       0.640   4.428  -2.755  1.00  0.00     0.163 HD
BRANCH   5   8
ATOM      8  C   UNL     1       1.842   1.341  -2.252  1.00  0.00     0.039 A 
ATOM      9  C   UNL     1       2.203  -1.066  -0.892  1.00  0.00     0.041 A 
ATOM     10  C   UNL     1       1.690  -1.079  -2.189  1.00  0.00     0.027 A 
ATOM     11  C   UNL     1       2.713   0.115  -0.358  1.00  0.00     0.027 A 
ATOM     12  C   UNL     1       1.474   0.129  -2.851  1.00  0.00     0.016 A 
ATOM     13  C   UNL     1       2.568   1.312  -1.060  1.00  0.00     0.016 A 
BRANCH   9  14
ATOM     14  N   UNL     1       2.116  -2.249  -0.152  1.00  0.00    -0.323 N 
ATOM     15  C   UNL     1       1.812  -2.432   1.165  1.00  0.00     0.248 C 
ATOM     16  O   UNL     1       1.981  -3.538   1.680  1.00  0.00    -0.270 OA
ATOM     17  H   UNL     1       2.303  -3.073  -0.657  1.00  0.00     0.170 HD
BRANCH  15  18
ATOM     18  C   UNL     1       1.228  -1.348   2.007  1.00  0.00     0.070 C 
ATOM     19  C   UNL     1      -0.612  -0.445   0.485  1.00  0.00     0.039 C 
ATOM     20  C   UNL     1       0.191  -0.520   1.755  1.00  0.00    -0.071 C 
ATOM     21  C   UNL     1      -0.304   0.421   2.826  1.00  0.00     0.039 C 
ENDBRANCH  15  18
ENDBRANCH   9  14
ENDBRANCH   5   8
ENDBRANCH   3   4
ENDBRANCH   2   3
ENDBRANCH   1   2
BRANCH   1  22
ATOM     22  C   UNL     1       0.925   7.074  -0.144  1.00  0.00     0.116 C 
BRANCH  22  23
ATOM     23  N   UNL     1       1.064   7.144   1.304  1.00  0.00    -0.352 N 
ATOM     24  C   UNL     1       0.934   8.232   2.134  1.00  0.00     0.251 C 
ATOM     25  H   UNL     1       1.281   6.294   1.751  1.00  0.00     0.163 HD
ATOM     26  O   UNL     1       1.215   8.133   3.325  1.00  0.00    -0.269 OA
BRANCH  24  27
ATOM     27  C   UNL     1       0.492   9.526   1.574  1.00  0.00     0.039 A 
ATOM     28  C   UNL     1       1.241  10.672   1.853  1.00  0.00     0.014 A 
ATOM     29  C   UNL     1      -0.629   9.598   0.743  1.00  0.00     0.014 A 
ATOM     30  C   UNL     1       0.919  11.876   1.223  1.00  0.00     0.010 A 
ATOM     31  C   UNL     1      -0.914  10.784   0.072  1.00  0.00     0.010 A 
ATOM     32  C   UNL     1      -0.130  11.927   0.290  1.00  0.00    -0.014 A 
BRANCH  32  33
ATOM     33  C   UNL     1      -0.387  13.146  -0.517  1.00  0.00     0.031 A 
ATOM     34  C   UNL     1      -1.676  13.901  -0.365  1.00  0.00     0.074 A 
ATOM     35  C   UNL     1       0.507  13.514  -1.457  1.00  0.00     0.049 A 
ATOM     36  N   UNL     1      -2.124  14.915  -1.060  1.00  0.00    -0.248 NA
ATOM     37  C   UNL     1      -2.591  13.443   0.692  1.00  0.00     0.031 C 
ATOM     38  C   UNL     1       1.776  12.833  -1.729  1.00  0.00     0.029 A 
ATOM     39  N   UNL     1       0.478  14.535  -2.373  1.00  0.00    -0.354 N 
ATOM     40  C   UNL     1      -3.376  15.209  -0.535  1.00  0.00     0.074 A 
ATOM     41  C   UNL     1      -3.634  14.242   0.510  1.00  0.00     0.031 C 
ATOM     42  C   UNL     1       2.405  13.460  -2.736  1.00  0.00     0.029 A 
ATOM     43  C   UNL     1       1.569  14.558  -3.210  1.00  0.00     0.049 A 
ATOM     44  H   UNL     1      -0.255  15.190  -2.426  1.00  0.00     0.167 HD
ATOM     45  C   UNL     1      -4.224  16.206  -0.884  1.00  0.00     0.037 A 
ATOM     46  C   UNL     1       1.856  15.358  -4.255  1.00  0.00     0.037 A 
ATOM     47  C   UNL     1      -3.952  17.177  -1.911  1.00  0.00     0.049 A 
ATOM     48  C   UNL     1       0.885  16.439  -4.641  1.00  0.00     0.074 A 
ATOM     49  C   UNL     1      -4.714  18.271  -2.284  1.00  0.00     0.029 A 
ATOM     50  N   UNL     1      -2.837  17.167  -2.737  1.00  0.00    -0.354 N 
ATOM     51  N   UNL     1      -0.264  16.748  -4.088  1.00  0.00    -0.248 NA
ATOM     52  C   UNL     1       1.243  17.274  -5.795  1.00  0.00     0.031 C 
ATOM     53  C   UNL     1      -4.082  18.896  -3.365  1.00  0.00     0.029 A 
ATOM     54  C   UNL     1      -2.906  18.215  -3.640  1.00  0.00     0.049 A 
ATOM     55  H   UNL     1      -2.105  16.511  -2.688  1.00  0.00     0.167 HD
ATOM     56  C   UNL     1      -0.761  17.819  -4.821  1.00  0.00     0.074 A 
ATOM     57  C   UNL     1       0.219  18.117  -5.845  1.00  0.00     0.031 C 
ATOM     58  C   UNL     1      -1.927  18.492  -4.661  1.00  0.00     0.037 A 
BRANCH  45  59
ATOM     59  C   UNL     1      -5.529  16.299  -0.144  1.00  0.00     0.058 A 
ATOM     60  C   UNL     1      -5.588  16.734   1.189  1.00  0.00     0.135 A 
ATOM     61  C   UNL     1      -6.739  15.986  -0.786  1.00  0.00     0.135 A 
ATOM     62  F   UNL     1      -4.460  17.033   1.853  1.00  0.00    -0.206 F 
ATOM     63  C   UNL     1      -6.797  16.827   1.871  1.00  0.00     0.059 A 
ATOM     64  C   UNL     1      -7.962  16.096  -0.131  1.00  0.00     0.059 A 
ATOM     65  F   UNL     1      -6.739  15.566  -2.060  1.00  0.00    -0.206 F 
ATOM     66  C   UNL     1      -7.979  16.503   1.203  1.00  0.00     0.060 A 
BRANCH  66  67
ATOM     67  S   UNL     1      -9.540  16.628   2.101  1.00  0.00     0.124 S 
ATOM     68  O   UNL     1      -9.469  15.455   2.968  1.00  0.00    -0.237 OA
ATOM     69  O   UNL     1      -9.413  17.918   2.771  1.00  0.00    -0.237 OA
ATOM     70  O   UNL     1     -10.546  16.569   1.046  1.00  0.00    -0.744 OA
ENDBRANCH  66  67
ENDBRANCH  45  59
BRANCH  46  71
ATOM     71  C   UNL     1       3.120  15.162  -5.012  1.00  0.00     0.058 A 
ATOM     72  C   UNL     1       4.174  16.079  -4.899  1.00  0.00     0.135 A 
ATOM     73  C   UNL     1       3.307  14.046  -5.842  1.00  0.00     0.135 A 
ATOM     74  F   UNL     1       4.038  17.166  -4.124  1.00  0.00    -0.206 F 
ATOM     75  C   UNL     1       5.369  15.903  -5.589  1.00  0.00     0.059 A 
ATOM     76  C   UNL     1       4.501  13.836  -6.525  1.00  0.00     0.059 A 
ATOM     77  F   UNL     1       2.333  13.132  -5.970  1.00  0.00    -0.206 F 
ATOM     78  C   UNL     1       5.524  14.775  -6.398  1.00  0.00     0.060 A 
BRANCH  78  79
ATOM     79  S   UNL     1       7.101  14.524  -7.242  1.00  0.00     0.124 S 
ATOM     80  O   UNL     1       7.015  15.502  -8.320  1.00  0.00    -0.237 OA
ATOM     81  O   UNL     1       8.065  14.819  -6.187  1.00  0.00    -0.237 OA
ATOM     82  O   UNL     1       7.041  13.124  -7.651  1.00  0.00    -0.744 OA
ENDBRANCH  78  79
ENDBRANCH  46  71
BRANCH  58  83
ATOM     83  C   UNL     1      -2.211  19.618  -5.615  1.00  0.00     0.058 A 
ATOM     84  C   UNL     1      -2.613  19.369  -6.936  1.00  0.00     0.135 A 
ATOM     85  C   UNL     1      -2.146  20.953  -5.187  1.00  0.00     0.135 A 
ATOM     86  F   UNL     1      -2.680  18.109  -7.396  1.00  0.00    -0.206 F 
ATOM     87  C   UNL     1      -2.932  20.407  -7.805  1.00  0.00     0.059 A 
ATOM     88  C   UNL     1      -2.482  22.006  -6.032  1.00  0.00     0.059 A 
ATOM     89  F   UNL     1      -1.773  21.243  -3.931  1.00  0.00    -0.206 F 
ATOM     90  C   UNL     1      -2.868  21.723  -7.342  1.00  0.00     0.060 A 
BRANCH  90  91
ATOM     91  S   UNL     1      -3.338  23.058  -8.463  1.00  0.00     0.124 S 
ATOM     92  O   UNL     1      -2.182  23.117  -9.351  1.00  0.00    -0.237 OA
ATOM     93  O   UNL     1      -4.570  22.548  -9.059  1.00  0.00    -0.237 OA
ATOM     94  O   UNL     1      -3.507  24.204  -7.575  1.00  0.00    -0.744 OA
ENDBRANCH  90  91
ENDBRANCH  58  83
ENDBRANCH  32  33
ENDBRANCH  24  27
ENDBRANCH  22  23
ENDBRANCH   1  22
TORSDOF 16
