REMARK SMILES N#C/C(=C/c1ccc(-c2cccc(C(=O)NCCCCNC(=O)c3ccc(-c4c5nc(c(-c6c(F)cc(S(=O)(=O)[O-])cc6F)c6ccc([nH]6)c(-c6c(F)cc(S(=O)(=O)[O-])cc6F)c6nc(c(-c7c(F)cc(S(=O)(=O)[O-])cc7F)c7ccc4[nH]7)C=C6)C=C5)cc3)c2)o1)c1ccc(F)cc1
REMARK SMILES IDX 18 1 17 2 16 3 14 4 15 5 13 7 9 8 10 9 90 10 11 11 12 12
REMARK SMILES IDX 8 13 5 14 6 15 91 16 7 17 4 18 3 19 2 20 1 21 92 22 93 23
REMARK SMILES IDX 98 24 94 25 97 26 95 27 96 28 19 29 20 30 21 31 22 32 23 34
REMARK SMILES IDX 24 35 25 36 89 37 26 38 88 39 27 40 28 41 29 42 82 43 30 44
REMARK SMILES IDX 87 45 81 46 83 47 31 48 86 49 80 50 79 51 32 53 66 54 45 55
REMARK SMILES IDX 65 56 46 57 49 58 64 59 84 60 47 61 48 62 63 64 85 65 50 66
REMARK SMILES IDX 33 67 34 68 43 69 35 70 36 71 42 72 44 73 37 74 38 75 39 76
REMARK SMILES IDX 40 77 41 78 67 79 68 80 77 81 69 82 70 83 76 84 78 85 71 86
REMARK SMILES IDX 72 87 73 88 74 89 75 90 51 91 52 92 61 93 53 94 54 95 60 96
REMARK SMILES IDX 62 97 55 98 56 99 57 100 58 101 59 102
REMARK H PARENT 16 6 21 33 83 52 49 63
REMARK Flexibility Score: inf
ROOT
ATOM      1  C   UNL     1       9.975  -5.807  -1.041  1.00  0.00     0.023 C 
ENDROOT
BRANCH   1   2
ATOM      2  C   UNL     1      10.572  -4.408  -0.973  1.00  0.00     0.116 C 
BRANCH   2   3
ATOM      3  N   UNL     1      11.776  -4.198  -1.768  1.00  0.00    -0.352 N 
ATOM      4  C   UNL     1      12.130  -3.166  -2.620  1.00  0.00     0.251 C 
ATOM      5  O   UNL     1      13.213  -3.201  -3.199  1.00  0.00    -0.269 OA
ATOM      6  H   UNL     1      12.451  -4.910  -1.685  1.00  0.00     0.163 HD
BRANCH   4   7
ATOM      7  C   UNL     1      11.195  -2.046  -2.905  1.00  0.00     0.040 A 
ATOM      8  C   UNL     1       9.207  -0.824  -2.259  1.00  0.00     0.018 A 
ATOM      9  C   UNL     1       9.076  -0.353  -3.569  1.00  0.00     0.012 A 
ATOM     10  C   UNL     1      10.355  -1.545  -1.917  1.00  0.00     0.025 A 
ATOM     11  C   UNL     1      10.044  -0.673  -4.528  1.00  0.00     0.002 A 
ATOM     12  C   UNL     1      11.080  -1.555  -4.208  1.00  0.00     0.014 A 
BRANCH   8  13
ATOM     13  C   UNL     1       8.133  -0.775  -1.276  1.00  0.00     0.134 A 
ATOM     14  C   UNL     1       5.993  -0.936  -0.690  1.00  0.00     0.128 A 
ATOM     15  C   UNL     1       6.768  -1.091   0.456  1.00  0.00     0.051 A 
ATOM     16  O   UNL     1       6.852  -0.769  -1.754  1.00  0.00    -0.457 OA
ATOM     17  C   UNL     1       8.118  -0.929   0.092  1.00  0.00     0.051 A 
BRANCH  14  18
ATOM     18  C   UNL     1       4.571  -0.883  -0.796  1.00  0.00     0.067 C 
ATOM     19  C   UNL     1       3.857  -0.004  -0.065  1.00  0.00     0.063 C 
BRANCH  19  20
ATOM     20  C   UNL     1       2.337  -0.004  -0.065  1.00  0.00     0.100 C 
ATOM     21  N   UNL     1       1.076  -0.004  -0.065  1.00  0.00    -0.192 NA
ENDBRANCH  19  20
BRANCH  19  22
ATOM     22  C   UNL     1       4.482   1.036   0.809  1.00  0.00    -0.007 A 
ATOM     23  C   UNL     1       5.436   1.936   0.294  1.00  0.00     0.012 A 
ATOM     24  C   UNL     1       4.157   1.108   2.174  1.00  0.00     0.012 A 
ATOM     25  C   UNL     1       6.102   2.829   1.136  1.00  0.00     0.040 A 
ATOM     26  C   UNL     1       4.809   2.020   3.010  1.00  0.00     0.040 A 
ATOM     27  C   UNL     1       5.786   2.859   2.487  1.00  0.00     0.123 A 
ATOM     28  F   UNL     1       6.434   3.705   3.298  1.00  0.00    -0.207 F 
ENDBRANCH  19  22
ENDBRANCH  14  18
ENDBRANCH   8  13
ENDBRANCH   4   7
ENDBRANCH   2   3
ENDBRANCH   1   2
BRANCH   1  29
ATOM     29  C   UNL     1      10.816  -6.938  -0.467  1.00  0.00     0.023 C 
BRANCH  29  30
ATOM     30  C   UNL     1      11.369  -6.727   0.938  1.00  0.00     0.116 C 
BRANCH  30  31
ATOM     31  N   UNL     1      10.358  -6.427   1.941  1.00  0.00    -0.352 N 
ATOM     32  C   UNL     1      10.146  -6.997   3.179  1.00  0.00     0.251 C 
ATOM     33  H   UNL     1       9.730  -5.708   1.699  1.00  0.00     0.163 HD
ATOM     34  O   UNL     1       9.198  -6.633   3.861  1.00  0.00    -0.269 OA
BRANCH  32  35
ATOM     35  C   UNL     1      11.036  -8.082   3.655  1.00  0.00     0.039 A 
ATOM     36  C   UNL     1      10.458  -9.244   4.175  1.00  0.00     0.014 A 
ATOM     37  C   UNL     1      12.424  -7.977   3.551  1.00  0.00     0.014 A 
ATOM     38  C   UNL     1      11.269 -10.338   4.494  1.00  0.00     0.010 A 
ATOM     39  C   UNL     1      13.221  -9.093   3.791  1.00  0.00     0.010 A 
ATOM     40  C   UNL     1      12.651 -10.290   4.253  1.00  0.00    -0.014 A 
BRANCH  40  41
ATOM     41  C   UNL     1      13.513 -11.486   4.443  1.00  0.00     0.031 A 
ATOM     42  C   UNL     1      14.633 -11.466   5.446  1.00  0.00     0.074 A 
ATOM     43  C   UNL     1      13.350 -12.557   3.641  1.00  0.00     0.049 A 
ATOM     44  N   UNL     1      15.539 -12.377   5.693  1.00  0.00    -0.248 NA
ATOM     45  C   UNL     1      14.775 -10.245   6.254  1.00  0.00     0.031 C 
ATOM     46  C   UNL     1      12.350 -12.673   2.577  1.00  0.00     0.029 A 
ATOM     47  N   UNL     1      14.035 -13.746   3.580  1.00  0.00    -0.354 N 
ATOM     48  C   UNL     1      16.372 -11.832   6.661  1.00  0.00     0.074 A 
ATOM     49  C   UNL     1      15.892 -10.492   6.923  1.00  0.00     0.031 C 
ATOM     50  C   UNL     1      12.478 -13.869   1.980  1.00  0.00     0.029 A 
ATOM     51  C   UNL     1      13.586 -14.593   2.595  1.00  0.00     0.049 A 
ATOM     52  H   UNL     1      14.778 -13.970   4.186  1.00  0.00     0.167 HD
ATOM     53  C   UNL     1      17.430 -12.401   7.290  1.00  0.00     0.037 A 
ATOM     54  C   UNL     1      14.019 -15.813   2.222  1.00  0.00     0.037 A 
ATOM     55  C   UNL     1      17.882 -13.746   7.050  1.00  0.00     0.049 A 
ATOM     56  C   UNL     1      15.164 -16.446   2.962  1.00  0.00     0.074 A 
ATOM     57  C   UNL     1      18.883 -14.447   7.700  1.00  0.00     0.029 A 
ATOM     58  N   UNL     1      17.367 -14.594   6.080  1.00  0.00    -0.354 N 
ATOM     59  N   UNL     1      15.885 -15.950   3.939  1.00  0.00    -0.248 NA
ATOM     60  C   UNL     1      15.547 -17.805   2.558  1.00  0.00     0.031 C 
ATOM     61  C   UNL     1      18.999 -15.705   7.098  1.00  0.00     0.029 A 
ATOM     62  C   UNL     1      18.043 -15.803   6.099  1.00  0.00     0.049 A 
ATOM     63  H   UNL     1      16.630 -14.369   5.467  1.00  0.00     0.167 HD
ATOM     64  C   UNL     1      16.797 -16.942   4.279  1.00  0.00     0.074 A 
ATOM     65  C   UNL     1      16.528 -18.071   3.411  1.00  0.00     0.031 C 
ATOM     66  C   UNL     1      17.769 -16.918   5.225  1.00  0.00     0.037 A 
BRANCH  53  67
ATOM     67  C   UNL     1      18.166 -11.560   8.296  1.00  0.00     0.058 A 
ATOM     68  C   UNL     1      17.589 -11.205   9.526  1.00  0.00     0.135 A 
ATOM     69  C   UNL     1      19.465 -11.098   8.025  1.00  0.00     0.135 A 
ATOM     70  F   UNL     1      16.346 -11.609   9.831  1.00  0.00    -0.206 F 
ATOM     71  C   UNL     1      18.252 -10.381  10.430  1.00  0.00     0.059 A 
ATOM     72  C   UNL     1      20.157 -10.296   8.928  1.00  0.00     0.059 A 
ATOM     73  F   UNL     1      20.066 -11.411   6.867  1.00  0.00    -0.206 F 
ATOM     74  C   UNL     1      19.532  -9.924  10.117  1.00  0.00     0.060 A 
BRANCH  74  75
ATOM     75  S   UNL     1      20.367  -8.827  11.282  1.00  0.00     0.124 S 
ATOM     76  O   UNL     1      19.679  -7.563  11.033  1.00  0.00    -0.237 OA
ATOM     77  O   UNL     1      20.085  -9.458  12.567  1.00  0.00    -0.237 OA
ATOM     78  O   UNL     1      21.762  -8.877  10.856  1.00  0.00    -0.744 OA
ENDBRANCH  74  75
ENDBRANCH  53  67
BRANCH  54  79
ATOM     79  C   UNL     1      13.335 -16.521   1.108  1.00  0.00     0.058 A 
ATOM     80  C   UNL     1      12.466 -17.591   1.363  1.00  0.00     0.135 A 
ATOM     81  C   UNL     1      13.488 -16.102  -0.223  1.00  0.00     0.135 A 
ATOM     82  F   UNL     1      12.293 -18.030   2.619  1.00  0.00    -0.206 F 
ATOM     83  C   UNL     1      11.766 -18.221   0.338  1.00  0.00     0.059 A 
ATOM     84  C   UNL     1      12.784 -16.703  -1.262  1.00  0.00     0.059 A 
ATOM     85  F   UNL     1      14.296 -15.072  -0.515  1.00  0.00    -0.206 F 
ATOM     86  C   UNL     1      11.925 -17.763  -0.971  1.00  0.00     0.060 A 
BRANCH  86  87
ATOM     87  S   UNL     1      10.940 -18.523  -2.280  1.00  0.00     0.124 S 
ATOM     88  O   UNL     1      11.619 -19.802  -2.455  1.00  0.00    -0.237 OA
ATOM     89  O   UNL     1       9.614 -18.582  -1.672  1.00  0.00    -0.237 OA
ATOM     90  O   UNL     1      11.070 -17.581  -3.387  1.00  0.00    -0.744 OA
ENDBRANCH  86  87
ENDBRANCH  54  79
BRANCH  66  91
ATOM     91  C   UNL     1      18.606 -18.156   5.387  1.00  0.00     0.058 A 
ATOM     92  C   UNL     1      19.597 -18.499   4.455  1.00  0.00     0.135 A 
ATOM     93  C   UNL     1      18.451 -18.978   6.514  1.00  0.00     0.135 A 
ATOM     94  F   UNL     1      19.780 -17.750   3.356  1.00  0.00    -0.206 F 
ATOM     95  C   UNL     1      20.395 -19.626   4.625  1.00  0.00     0.059 A 
ATOM     96  C   UNL     1      19.253 -20.097   6.717  1.00  0.00     0.059 A 
ATOM     97  F   UNL     1      17.524 -18.688   7.441  1.00  0.00    -0.206 F 
ATOM     98  C   UNL     1      20.216 -20.419   5.761  1.00  0.00     0.060 A 
BRANCH  98  99
ATOM     99  S   UNL     1      21.280 -21.859   5.991  1.00  0.00     0.124 S 
ATOM    100  O   UNL     1      20.701 -22.806   5.044  1.00  0.00    -0.237 OA
ATOM    101  O   UNL     1      22.597 -21.336   5.639  1.00  0.00    -0.237 OA
ATOM    102  O   UNL     1      21.101 -22.191   7.401  1.00  0.00    -0.744 OA
ENDBRANCH  98  99
ENDBRANCH  66  91
ENDBRANCH  40  41
ENDBRANCH  32  35
ENDBRANCH  30  31
ENDBRANCH  29  30
ENDBRANCH   1  29
TORSDOF 18
