REMARK SMILES O=C(NCCCCNC(=O)C1(NC(=O)c2c[nH]c(=O)c(Cl)c2)CCCCC1)c1ccc(-c2c3nc(c(-c4c(F)cc(S(=O)(=O)[O-])cc4F)c4ccc([nH]4)c(-c4c(F)cc(S(=O)(=O)[O-])cc4F)c4nc(c(-c5c(F)cc(S(=O)(=O)[O-])cc5F)c5ccc2[nH]5)C=C4)C=C3)cc1
REMARK SMILES IDX 5 1 4 2 3 3 1 4 2 5 28 7 29 8 93 9 30 10 92 11 31 12 32 13
REMARK SMILES IDX 33 14 86 15 34 16 91 17 85 18 87 19 35 20 90 21 84 22 83 23
REMARK SMILES IDX 36 25 70 26 49 27 69 28 50 29 53 30 68 31 88 32 51 33 52 34
REMARK SMILES IDX 67 36 89 37 54 38 37 39 38 40 47 41 39 42 40 43 46 44 48 45
REMARK SMILES IDX 41 46 42 47 43 48 44 49 45 50 71 51 72 52 81 53 73 54 74 55
REMARK SMILES IDX 80 56 82 57 75 58 76 59 77 60 78 61 79 62 55 63 56 64 65 65
REMARK SMILES IDX 57 66 58 67 64 68 66 69 59 70 60 71 61 72 62 73 63 74 6 75
REMARK SMILES IDX 7 76 8 77 9 78 10 80 11 81 23 82 27 83 24 84 26 85 25 86
REMARK SMILES IDX 12 87 13 88 14 90 15 91 16 92 22 93 17 94 20 95 18 96 21 98
REMARK SMILES IDX 19 99
REMARK H PARENT 3 6 87 24 53 35 8 79 12 89 17 97
REMARK Flexibility Score: inf
ROOT
ATOM      1  C   UNL     1       4.532  -2.702  -0.370  1.00  0.00     0.023 C 
ENDROOT
BRANCH   1   2
ATOM      2  C   UNL     1       4.281  -1.204  -0.251  1.00  0.00     0.116 C 
BRANCH   2   3
ATOM      3  N   UNL     1       2.900  -0.830  -0.521  1.00  0.00    -0.352 N 
ATOM      4  O   UNL     1       0.996   0.349  -0.238  1.00  0.00    -0.269 OA
ATOM      5  C   UNL     1       2.183   0.217   0.011  1.00  0.00     0.251 C 
ATOM      6  H   UNL     1       2.418  -1.398  -1.165  1.00  0.00     0.163 HD
BRANCH   5   7
ATOM      7  C   UNL     1       2.880   1.145   0.925  1.00  0.00     0.039 A 
ATOM      8  C   UNL     1       4.100   1.709   0.550  1.00  0.00     0.014 A 
ATOM      9  C   UNL     1       2.342   1.378   2.192  1.00  0.00     0.014 A 
ATOM     10  C   UNL     1       4.858   2.380   1.498  1.00  0.00     0.010 A 
ATOM     11  C   UNL     1       3.072   2.125   3.118  1.00  0.00     0.010 A 
ATOM     12  C   UNL     1       4.355   2.592   2.792  1.00  0.00    -0.014 A 
BRANCH  12  13
ATOM     13  C   UNL     1       5.190   3.323   3.777  1.00  0.00     0.031 A 
ATOM     14  C   UNL     1       5.718   2.635   5.006  1.00  0.00     0.074 A 
ATOM     15  C   UNL     1       5.510   4.606   3.520  1.00  0.00     0.049 A 
ATOM     16  N   UNL     1       6.495   3.113   5.944  1.00  0.00    -0.248 NA
ATOM     17  C   UNL     1       5.318   1.235   5.217  1.00  0.00     0.031 C 
ATOM     18  C   UNL     1       5.044   5.373   2.362  1.00  0.00     0.029 A 
ATOM     19  N   UNL     1       6.323   5.480   4.192  1.00  0.00    -0.354 N 
ATOM     20  C   UNL     1       6.652   2.088   6.871  1.00  0.00     0.074 A 
ATOM     21  C   UNL     1       5.877   0.965   6.389  1.00  0.00     0.031 C 
ATOM     22  C   UNL     1       5.625   6.581   2.372  1.00  0.00     0.029 A 
ATOM     23  C   UNL     1       6.458   6.694   3.563  1.00  0.00     0.049 A 
ATOM     24  H   UNL     1       6.767   5.259   5.042  1.00  0.00     0.167 HD
ATOM     25  C   UNL     1       7.380   2.087   8.014  1.00  0.00     0.037 A 
ATOM     26  C   UNL     1       7.173   7.780   3.908  1.00  0.00     0.037 A 
ATOM     27  C   UNL     1       8.176   3.200   8.464  1.00  0.00     0.049 A 
ATOM     28  C   UNL     1       7.992   7.742   5.164  1.00  0.00     0.074 A 
ATOM     29  C   UNL     1       8.976   3.289   9.591  1.00  0.00     0.029 A 
ATOM     30  N   UNL     1       8.280   4.418   7.807  1.00  0.00    -0.354 N 
ATOM     31  N   UNL     1       8.137   6.759   6.021  1.00  0.00    -0.248 NA
ATOM     32  C   UNL     1       8.742   8.957   5.502  1.00  0.00     0.031 C 
ATOM     33  C   UNL     1       9.538   4.570   9.630  1.00  0.00     0.029 A 
ATOM     34  C   UNL     1       9.120   5.267   8.509  1.00  0.00     0.049 A 
ATOM     35  H   UNL     1       7.823   4.645   6.965  1.00  0.00     0.167 HD
ATOM     36  C   UNL     1       9.008   7.232   6.994  1.00  0.00     0.074 A 
ATOM     37  C   UNL     1       9.369   8.583   6.609  1.00  0.00     0.031 C 
ATOM     38  C   UNL     1       9.466   6.607   8.107  1.00  0.00     0.037 A 
BRANCH  25  39
ATOM     39  C   UNL     1       7.333   0.852   8.871  1.00  0.00     0.058 A 
ATOM     40  C   UNL     1       7.996  -0.331   8.508  1.00  0.00     0.135 A 
ATOM     41  C   UNL     1       6.643   0.864  10.095  1.00  0.00     0.135 A 
ATOM     42  F   UNL     1       8.657  -0.403   7.342  1.00  0.00    -0.206 F 
ATOM     43  C   UNL     1       7.955  -1.465   9.313  1.00  0.00     0.059 A 
ATOM     44  C   UNL     1       6.606  -0.252  10.927  1.00  0.00     0.059 A 
ATOM     45  F   UNL     1       5.991   1.969  10.492  1.00  0.00    -0.206 F 
ATOM     46  C   UNL     1       7.253  -1.417  10.519  1.00  0.00     0.060 A 
BRANCH  46  47
ATOM     47  S   UNL     1       7.203  -2.897  11.554  1.00  0.00     0.124 S 
ATOM     48  O   UNL     1       6.237  -3.721  10.833  1.00  0.00    -0.237 OA
ATOM     49  O   UNL     1       8.586  -3.359  11.511  1.00  0.00    -0.237 OA
ATOM     50  O   UNL     1       6.754  -2.392  12.848  1.00  0.00    -0.744 OA
ENDBRANCH  46  47
ENDBRANCH  25  39
BRANCH  26  51
ATOM     51  C   UNL     1       7.149   8.982   3.036  1.00  0.00     0.058 A 
ATOM     52  C   UNL     1       8.266   9.339   2.268  1.00  0.00     0.135 A 
ATOM     53  C   UNL     1       5.994   9.771   2.921  1.00  0.00     0.135 A 
ATOM     54  F   UNL     1       9.393   8.614   2.346  1.00  0.00    -0.206 F 
ATOM     55  C   UNL     1       8.244  10.442   1.422  1.00  0.00     0.059 A 
ATOM     56  C   UNL     1       5.939  10.864   2.064  1.00  0.00     0.059 A 
ATOM     57  F   UNL     1       4.892   9.457   3.620  1.00  0.00    -0.206 F 
ATOM     58  C   UNL     1       7.074  11.197   1.325  1.00  0.00     0.060 A 
BRANCH  58  59
ATOM     59  S   UNL     1       7.029  12.593   0.179  1.00  0.00     0.124 S 
ATOM     60  O   UNL     1       7.761  13.608   0.927  1.00  0.00    -0.237 OA
ATOM     61  O   UNL     1       7.705  12.052  -0.996  1.00  0.00    -0.237 OA
ATOM     62  O   UNL     1       5.600  12.839   0.010  1.00  0.00    -0.744 OA
ENDBRANCH  58  59
ENDBRANCH  26  51
BRANCH  38  63
ATOM     63  C   UNL     1      10.429   7.374   8.966  1.00  0.00     0.058 A 
ATOM     64  C   UNL     1      10.001   8.424   9.793  1.00  0.00     0.135 A 
ATOM     65  C   UNL     1      11.793   7.042   8.974  1.00  0.00     0.135 A 
ATOM     66  F   UNL     1       8.707   8.783   9.814  1.00  0.00    -0.206 F 
ATOM     67  C   UNL     1      10.898   9.142  10.576  1.00  0.00     0.059 A 
ATOM     68  C   UNL     1      12.704   7.732   9.767  1.00  0.00     0.059 A 
ATOM     69  F   UNL     1      12.249   6.039   8.208  1.00  0.00    -0.206 F 
ATOM     70  C   UNL     1      12.249   8.791  10.552  1.00  0.00     0.060 A 
BRANCH  70  71
ATOM     71  S   UNL     1      13.407   9.720  11.579  1.00  0.00     0.124 S 
ATOM     72  O   UNL     1      13.595  10.931  10.786  1.00  0.00    -0.237 OA
ATOM     73  O   UNL     1      12.663   9.887  12.823  1.00  0.00    -0.237 OA
ATOM     74  O   UNL     1      14.567   8.838  11.663  1.00  0.00    -0.744 OA
ENDBRANCH  70  71
ENDBRANCH  38  63
ENDBRANCH  12  13
ENDBRANCH   5   7
ENDBRANCH   2   3
ENDBRANCH   1   2
BRANCH   1  75
ATOM     75  C   UNL     1       4.067  -3.324  -1.691  1.00  0.00     0.023 C 
BRANCH  75  76
ATOM     76  C   UNL     1       4.696  -2.685  -2.933  1.00  0.00     0.116 C 
BRANCH  76  77
ATOM     77  N   UNL     1       6.088  -3.067  -3.038  1.00  0.00    -0.354 N 
ATOM     78  C   UNL     1       6.597  -4.296  -3.328  1.00  0.00     0.245 C 
ATOM     79  H   UNL     1       6.746  -2.352  -2.880  1.00  0.00     0.163 HD
ATOM     80  O   UNL     1       7.540  -4.655  -2.610  1.00  0.00    -0.272 OA
BRANCH  78  81
ATOM     81  C   UNL     1       6.175  -5.148  -4.582  1.00  0.00     0.119 C 
ATOM     82  C   UNL     1       6.784  -6.566  -4.362  1.00  0.00     0.038 C 
ATOM     83  C   UNL     1       4.636  -5.266  -4.723  1.00  0.00     0.038 C 
ATOM     84  C   UNL     1       6.240  -7.664  -5.274  1.00  0.00     0.003 C 
ATOM     85  C   UNL     1       4.134  -6.394  -5.626  1.00  0.00     0.003 C 
ATOM     86  C   UNL     1       4.723  -7.731  -5.225  1.00  0.00     0.000 C 
BRANCH  81  87
ATOM     87  N   UNL     1       6.683  -4.580  -5.866  1.00  0.00    -0.338 N 
ATOM     88  C   UNL     1       7.820  -3.937  -6.245  1.00  0.00     0.253 C 
ATOM     89  H   UNL     1       6.048  -4.698  -6.610  1.00  0.00     0.164 HD
ATOM     90  O   UNL     1       8.112  -3.916  -7.441  1.00  0.00    -0.269 OA
BRANCH  88  91
ATOM     91  C   UNL     1       8.586  -3.102  -5.291  1.00  0.00     0.057 A 
ATOM     92  C   UNL     1       9.478  -3.651  -4.454  1.00  0.00     0.099 A 
ATOM     93  C   UNL     1       8.431  -1.657  -5.320  1.00  0.00     0.041 A 
ATOM     94  N   UNL     1      10.161  -2.864  -3.554  1.00  0.00    -0.327 N 
ATOM     95  C   UNL     1       9.102  -0.873  -4.464  1.00  0.00     0.106 A 
ATOM     96  C   UNL     1      10.025  -1.493  -3.460  1.00  0.00     0.266 A 
ATOM     97  H   UNL     1      10.787  -3.308  -2.938  1.00  0.00     0.169 HD
ATOM     98  Cl  UNL     1       8.940   0.838  -4.490  1.00  0.00    -0.078 Cl
ATOM     99  O   UNL     1      10.626  -0.850  -2.608  1.00  0.00    -0.268 OA
ENDBRANCH  88  91
ENDBRANCH  81  87
ENDBRANCH  78  81
ENDBRANCH  76  77
ENDBRANCH  75  76
ENDBRANCH   1  75
TORSDOF 16
