REMARK SMILES C[C@H]1CC[C@@H]([C@@H](Cc2ccccc2)C(=O)NCCCCNC(=O)c2ccc(-c3c4nc(c(-c5c(F)cc(S(=O)(=O)[O-])cc5F)c5ccc([nH]5)c(-c5c(F)cc(S(=O)(=O)[O-])cc5F)c5nc(c(-c6c(F)cc(S(=O)(=O)[O-])cc6F)c6ccc3[nH]6)C=C5)C=C4)cc2)C[C@@H]1C
REMARK SMILES IDX 19 1 18 2 17 3 16 4 14 5 15 6 6 8 5 9 1 10 2 11 3 12 91 13
REMARK SMILES IDX 4 14 90 15 92 16 7 17 8 18 9 19 13 20 10 21 12 22 11 23
REMARK SMILES IDX 20 24 21 25 22 26 23 28 24 29 25 30 89 31 26 32 88 33 27 34
REMARK SMILES IDX 28 35 29 36 82 37 30 38 87 39 81 40 83 41 31 42 86 43 80 44
REMARK SMILES IDX 79 45 32 47 66 48 45 49 65 50 46 51 49 52 64 53 84 54 47 55
REMARK SMILES IDX 48 56 63 58 85 59 50 60 33 61 34 62 43 63 35 64 36 65 42 66
REMARK SMILES IDX 44 67 37 68 38 69 39 70 40 71 41 72 67 73 68 74 77 75 69 76
REMARK SMILES IDX 70 77 76 78 78 79 71 80 72 81 73 82 74 83 75 84 51 85 52 86
REMARK SMILES IDX 61 87 53 88 54 89 60 90 62 91 55 92 56 93 57 94 58 95 59 96
REMARK H PARENT 16 7 21 27 83 46 49 57
REMARK Flexibility Score: inf
ROOT
ATOM      1  C   UNL     1       2.208   5.695   2.730  1.00  0.00     0.023 C 
ENDROOT
BRANCH   1   2
ATOM      2  C   UNL     1       1.792   4.862   1.524  1.00  0.00     0.023 C 
BRANCH   2   3
ATOM      3  C   UNL     1       0.284   4.689   1.342  1.00  0.00     0.116 C 
BRANCH   3   4
ATOM      4  N   UNL     1      -0.212   5.320   0.138  1.00  0.00    -0.356 N 
ATOM      5  C   UNL     1      -0.947   4.860  -0.902  1.00  0.00     0.223 C 
ATOM      6  O   UNL     1      -1.296   5.715  -1.727  1.00  0.00    -0.275 OA
ATOM      7  H   UNL     1       0.033   6.270   0.059  1.00  0.00     0.163 HD
BRANCH   5   8
ATOM      8  C   UNL     1      -1.325   3.387  -1.147  1.00  0.00     0.086 C 
BRANCH   8   9
ATOM      9  C   UNL     1      -0.234   2.522  -1.894  1.00  0.00     0.002 C 
ATOM     10  C   UNL     1       1.771  -0.033   1.001  1.00  0.00     0.008 C 
ATOM     11  C   UNL     1       1.526   0.534  -0.411  1.00  0.00    -0.011 C 
ATOM     12  C   UNL     1       0.077   0.233  -0.798  1.00  0.00     0.004 C 
ATOM     13  C   UNL     1       1.835   2.041  -0.427  1.00  0.00    -0.011 C 
ATOM     14  C   UNL     1      -0.460   1.010  -1.987  1.00  0.00     0.005 C 
ATOM     15  C   UNL     1       1.253   2.792  -1.624  1.00  0.00     0.008 C 
ATOM     16  C   UNL     1       3.344   2.310  -0.342  1.00  0.00     0.008 C 
ENDBRANCH   8   9
BRANCH   8  17
ATOM     17  C   UNL     1      -2.490   2.800  -0.289  1.00  0.00     0.049 C 
BRANCH  17  18
ATOM     18  C   UNL     1      -2.370   2.394   1.159  1.00  0.00    -0.047 A 
ATOM     19  C   UNL     1      -2.384   3.346   2.185  1.00  0.00     0.004 A 
ATOM     20  C   UNL     1      -2.364   1.042   1.532  1.00  0.00     0.004 A 
ATOM     21  C   UNL     1      -2.212   2.968   3.521  1.00  0.00     0.000 A 
ATOM     22  C   UNL     1      -2.185   0.657   2.863  1.00  0.00     0.000 A 
ATOM     23  C   UNL     1      -2.080   1.624   3.856  1.00  0.00     0.000 A 
ENDBRANCH  17  18
ENDBRANCH   8  17
ENDBRANCH   5   8
ENDBRANCH   3   4
ENDBRANCH   2   3
ENDBRANCH   1   2
BRANCH   1  24
ATOM     24  C   UNL     1       1.657   5.229   4.074  1.00  0.00     0.116 C 
BRANCH  24  25
ATOM     25  N   UNL     1       1.907   3.829   4.401  1.00  0.00    -0.352 N 
ATOM     26  C   UNL     1       2.139   3.291   5.650  1.00  0.00     0.251 C 
ATOM     27  H   UNL     1       1.911   3.197   3.645  1.00  0.00     0.163 HD
ATOM     28  O   UNL     1       2.359   2.094   5.799  1.00  0.00    -0.269 OA
BRANCH  26  29
ATOM     29  C   UNL     1       2.167   4.212   6.805  1.00  0.00     0.039 A 
ATOM     30  C   UNL     1       3.337   4.320   7.559  1.00  0.00     0.014 A 
ATOM     31  C   UNL     1       1.094   5.079   7.023  1.00  0.00     0.014 A 
ATOM     32  C   UNL     1       3.475   5.380   8.458  1.00  0.00     0.010 A 
ATOM     33  C   UNL     1       1.268   6.179   7.851  1.00  0.00     0.010 A 
ATOM     34  C   UNL     1       2.468   6.354   8.562  1.00  0.00    -0.014 A 
BRANCH  34  35
ATOM     35  C   UNL     1       2.646   7.582   9.379  1.00  0.00     0.031 A 
ATOM     36  C   UNL     1       1.698   7.867  10.511  1.00  0.00     0.074 A 
ATOM     37  C   UNL     1       3.581   8.492   9.035  1.00  0.00     0.049 A 
ATOM     38  N   UNL     1       1.580   8.946  11.239  1.00  0.00    -0.248 NA
ATOM     39  C   UNL     1       0.724   6.812  10.836  1.00  0.00     0.031 C 
ATOM     40  C   UNL     1       4.519   8.367   7.915  1.00  0.00     0.029 A 
ATOM     41  N   UNL     1       3.885   9.713   9.582  1.00  0.00    -0.354 N 
ATOM     42  C   UNL     1       0.498   8.716  12.081  1.00  0.00     0.074 A 
ATOM     43  C   UNL     1      -0.033   7.413  11.741  1.00  0.00     0.031 C 
ATOM     44  C   UNL     1       5.306   9.455   7.875  1.00  0.00     0.029 A 
ATOM     45  C   UNL     1       4.909  10.371   8.939  1.00  0.00     0.049 A 
ATOM     46  H   UNL     1       3.414  10.085  10.363  1.00  0.00     0.167 HD
ATOM     47  C   UNL     1       0.005   9.507  13.063  1.00  0.00     0.037 A 
ATOM     48  C   UNL     1       5.460  11.577   9.177  1.00  0.00     0.037 A 
ATOM     49  C   UNL     1       0.572  10.775  13.435  1.00  0.00     0.049 A 
ATOM     50  C   UNL     1       4.938  12.410  10.316  1.00  0.00     0.074 A 
ATOM     51  C   UNL     1       0.188  11.623  14.458  1.00  0.00     0.029 A 
ATOM     52  N   UNL     1       1.657  11.369  12.808  1.00  0.00    -0.354 N 
ATOM     53  N   UNL     1       3.943  12.155  11.132  1.00  0.00    -0.248 NA
ATOM     54  C   UNL     1       5.614  13.689  10.571  1.00  0.00     0.031 C 
ATOM     55  C   UNL     1       1.031  12.739  14.440  1.00  0.00     0.029 A 
ATOM     56  C   UNL     1       1.958  12.571  13.423  1.00  0.00     0.049 A 
ATOM     57  H   UNL     1       2.141  10.991  12.038  1.00  0.00     0.167 HD
ATOM     58  C   UNL     1       3.893  13.228  12.015  1.00  0.00     0.074 A 
ATOM     59  C   UNL     1       4.960  14.132  11.636  1.00  0.00     0.031 C 
ATOM     60  C   UNL     1       3.040  13.445  13.045  1.00  0.00     0.037 A 
BRANCH  47  61
ATOM     61  C   UNL     1      -1.198   9.008  13.810  1.00  0.00     0.058 A 
ATOM     62  C   UNL     1      -1.108   7.935  14.712  1.00  0.00     0.135 A 
ATOM     63  C   UNL     1      -2.454   9.607  13.626  1.00  0.00     0.135 A 
ATOM     64  F   UNL     1       0.067   7.315  14.909  1.00  0.00    -0.206 F 
ATOM     65  C   UNL     1      -2.228   7.449  15.376  1.00  0.00     0.059 A 
ATOM     66  C   UNL     1      -3.583   9.153  14.301  1.00  0.00     0.059 A 
ATOM     67  F   UNL     1      -2.595  10.635  12.775  1.00  0.00    -0.206 F 
ATOM     68  C   UNL     1      -3.463   8.060  15.159  1.00  0.00     0.060 A 
BRANCH  68  69
ATOM     69  S   UNL     1      -4.912   7.410  16.016  1.00  0.00     0.124 S 
ATOM     70  O   UNL     1      -5.211   6.224  15.219  1.00  0.00    -0.237 OA
ATOM     71  O   UNL     1      -4.399   7.158  17.359  1.00  0.00    -0.237 OA
ATOM     72  O   UNL     1      -5.881   8.497  15.914  1.00  0.00    -0.744 OA
ENDBRANCH  68  69
ENDBRANCH  47  61
BRANCH  48  73
ATOM     73  C   UNL     1       6.597  12.054   8.347  1.00  0.00     0.058 A 
ATOM     74  C   UNL     1       7.901  12.078   8.866  1.00  0.00     0.135 A 
ATOM     75  C   UNL     1       6.411  12.484   7.025  1.00  0.00     0.135 A 
ATOM     76  F   UNL     1       8.127  11.680  10.127  1.00  0.00    -0.206 F 
ATOM     77  C   UNL     1       8.979  12.527   8.110  1.00  0.00     0.059 A 
ATOM     78  C   UNL     1       7.477  12.920   6.242  1.00  0.00     0.059 A 
ATOM     79  F   UNL     1       5.186  12.463   6.477  1.00  0.00    -0.206 F 
ATOM     80  C   UNL     1       8.756  12.947   6.798  1.00  0.00     0.060 A 
BRANCH  80  81
ATOM     81  S   UNL     1      10.168  13.483   5.807  1.00  0.00     0.124 S 
ATOM     82  O   UNL     1      10.409  14.819   6.340  1.00  0.00    -0.237 OA
ATOM     83  O   UNL     1      11.173  12.476   6.130  1.00  0.00    -0.237 OA
ATOM     84  O   UNL     1       9.656  13.429   4.441  1.00  0.00    -0.744 OA
ENDBRANCH  80  81
ENDBRANCH  48  73
BRANCH  60  85
ATOM     85  C   UNL     1       3.250  14.682  13.868  1.00  0.00     0.058 A 
ATOM     86  C   UNL     1       2.852  15.946  13.409  1.00  0.00     0.135 A 
ATOM     87  C   UNL     1       3.792  14.589  15.160  1.00  0.00     0.135 A 
ATOM     88  F   UNL     1       2.335  16.086  12.178  1.00  0.00    -0.206 F 
ATOM     89  C   UNL     1       2.995  17.081  14.200  1.00  0.00     0.059 A 
ATOM     90  C   UNL     1       3.926  15.707  15.975  1.00  0.00     0.059 A 
ATOM     91  F   UNL     1       4.179  13.399  15.646  1.00  0.00    -0.206 F 
ATOM     92  C   UNL     1       3.531  16.951  15.483  1.00  0.00     0.060 A 
BRANCH  92  93
ATOM     93  S   UNL     1       3.665  18.422  16.522  1.00  0.00     0.124 S 
ATOM     94  O   UNL     1       4.848  19.068  15.965  1.00  0.00    -0.237 OA
ATOM     95  O   UNL     1       2.396  19.100  16.274  1.00  0.00    -0.237 OA
ATOM     96  O   UNL     1       3.821  17.873  17.866  1.00  0.00    -0.744 OA
ENDBRANCH  92  93
ENDBRANCH  60  85
ENDBRANCH  34  35
ENDBRANCH  26  29
ENDBRANCH  24  25
ENDBRANCH   1  24
TORSDOF 17
