REMARK SMILES CC(C)(C)c1ccc(C(=O)C[C@H](C(=O)NCCCCNC(=O)c2ccc(-c3c4nc(c(-c5c(F)cc(S(=O)(=O)[O-])cc5F)c5ccc([nH]5)c(-c5c(F)cc(S(=O)(=O)[O-])cc5F)c5nc(c(-c6c(F)cc(S(=O)(=O)[O-])cc6F)c6ccc3[nH]6)C=C5)C=C4)cc2)[NH+]2CCCC2)cc1
REMARK SMILES IDX 17 1 16 2 15 3 13 4 14 5 12 7 11 8 9 9 10 10 8 11 5 12 6 13
REMARK SMILES IDX 95 14 7 15 94 16 2 17 1 18 3 19 4 20 89 21 90 22 93 23 91 25
REMARK SMILES IDX 92 26 18 27 19 28 20 29 21 30 22 32 23 33 24 34 88 35 25 36
REMARK SMILES IDX 87 37 26 38 27 39 28 40 81 41 29 42 86 43 80 44 82 45 30 46
REMARK SMILES IDX 85 47 79 48 78 49 31 51 65 52 44 53 64 54 45 55 48 56 63 57
REMARK SMILES IDX 83 58 46 59 47 60 62 62 84 63 49 64 32 65 33 66 42 67 34 68
REMARK SMILES IDX 35 69 41 70 43 71 36 72 37 73 38 74 39 75 40 76 66 77 67 78
REMARK SMILES IDX 76 79 68 80 69 81 75 82 77 83 70 84 71 85 72 86 73 87 74 88
REMARK SMILES IDX 50 89 51 90 60 91 52 92 53 93 59 94 61 95 54 96 55 97 56 98
REMARK SMILES IDX 57 99 58 100
REMARK H PARENT 15 6 89 24 20 31 82 50 48 61
REMARK Flexibility Score: inf
ROOT
ATOM      1  C   UNL     1       1.617   0.387   4.439  1.00  0.00     0.023 C 
ENDROOT
BRANCH   1   2
ATOM      2  C   UNL     1       1.865   1.890   4.505  1.00  0.00     0.116 C 
BRANCH   2   3
ATOM      3  N   UNL     1       1.689   2.484   5.808  1.00  0.00    -0.351 N 
ATOM      4  C   UNL     1       2.205   3.622   6.352  1.00  0.00     0.278 C 
ATOM      5  O   UNL     1       1.956   3.762   7.558  1.00  0.00    -0.268 OA
ATOM      6  H   UNL     1       1.093   1.980   6.408  1.00  0.00     0.163 HD
BRANCH   4   7
ATOM      7  C   UNL     1       3.148   4.640   5.580  1.00  0.00     0.281 C 
BRANCH   7   8
ATOM      8  C   UNL     1       2.970   4.771   4.059  1.00  0.00     0.156 C 
BRANCH   8   9
ATOM      9  C   UNL     1       3.871   3.918   3.159  1.00  0.00     0.169 C 
ATOM     10  O   UNL     1       3.353   3.298   2.223  1.00  0.00    -0.294 OA
BRANCH   9  11
ATOM     11  C   UNL     1       5.371   3.870   3.274  1.00  0.00     0.018 A 
ATOM     12  C   UNL     1       8.233   3.856   3.238  1.00  0.00    -0.043 A 
ATOM     13  C   UNL     1       7.485   3.066   2.349  1.00  0.00     0.005 A 
ATOM     14  C   UNL     1       7.512   4.605   4.173  1.00  0.00     0.005 A 
ATOM     15  C   UNL     1       6.080   3.071   2.369  1.00  0.00     0.012 A 
ATOM     16  C   UNL     1       6.113   4.607   4.190  1.00  0.00     0.012 A 
BRANCH  12  17
ATOM     17  C   UNL     1       9.760   3.986   3.124  1.00  0.00    -0.013 C 
ATOM     18  C   UNL     1      10.441   2.646   2.777  1.00  0.00     0.016 C 
ATOM     19  C   UNL     1      10.429   4.501   4.421  1.00  0.00     0.016 C 
ATOM     20  C   UNL     1      10.049   5.005   2.002  1.00  0.00     0.016 C 
ENDBRANCH  12  17
ENDBRANCH   9  11
ENDBRANCH   8   9
ENDBRANCH   7   8
BRANCH   7  21
ATOM     21  N   UNL     1       3.144   5.971   6.295  1.00  0.00    -0.324 N 
ATOM     22  C   UNL     1       1.829   6.525   6.645  1.00  0.00     0.263 C 
ATOM     23  C   UNL     1       3.873   7.096   5.694  1.00  0.00     0.263 C 
ATOM     24  H   UNL     1       3.650   5.636   7.115  1.00  0.00     0.348 HD
ATOM     25  C   UNL     1       1.497   7.506   5.543  1.00  0.00     0.067 C 
ATOM     26  C   UNL     1       2.841   8.079   5.147  1.00  0.00     0.067 C 
ENDBRANCH   7  21
ENDBRANCH   4   7
ENDBRANCH   2   3
ENDBRANCH   1   2
BRANCH   1  27
ATOM     27  C   UNL     1       0.223  -0.100   4.816  1.00  0.00     0.023 C 
BRANCH  27  28
ATOM     28  C   UNL     1      -0.945   0.616   4.150  1.00  0.00     0.116 C 
BRANCH  28  29
ATOM     29  N   UNL     1      -0.930   0.541   2.696  1.00  0.00    -0.352 N 
ATOM     30  C   UNL     1      -1.849  -0.004   1.824  1.00  0.00     0.251 C 
ATOM     31  H   UNL     1      -0.140   0.942   2.268  1.00  0.00     0.163 HD
ATOM     32  O   UNL     1      -1.610  -0.042   0.625  1.00  0.00    -0.269 OA
BRANCH  30  33
ATOM     33  C   UNL     1      -3.107  -0.588   2.346  1.00  0.00     0.039 A 
ATOM     34  C   UNL     1      -3.492  -1.858   1.909  1.00  0.00     0.014 A 
ATOM     35  C   UNL     1      -3.883   0.094   3.285  1.00  0.00     0.014 A 
ATOM     36  C   UNL     1      -4.595  -2.487   2.495  1.00  0.00     0.010 A 
ATOM     37  C   UNL     1      -4.925  -0.567   3.928  1.00  0.00     0.010 A 
ATOM     38  C   UNL     1      -5.286  -1.869   3.550  1.00  0.00    -0.014 A 
BRANCH  38  39
ATOM     39  C   UNL     1      -6.371  -2.570   4.286  1.00  0.00     0.031 A 
ATOM     40  C   UNL     1      -7.766  -2.004   4.294  1.00  0.00     0.074 A 
ATOM     41  C   UNL     1      -6.084  -3.666   5.018  1.00  0.00     0.049 A 
ATOM     42  N   UNL     1      -8.817  -2.407   4.960  1.00  0.00    -0.248 NA
ATOM     43  C   UNL     1      -8.001  -0.808   3.469  1.00  0.00     0.031 C 
ATOM     44  C   UNL     1      -4.759  -4.280   5.142  1.00  0.00     0.029 A 
ATOM     45  N   UNL     1      -6.884  -4.450   5.811  1.00  0.00    -0.354 N 
ATOM     46  C   UNL     1      -9.828  -1.504   4.655  1.00  0.00     0.074 A 
ATOM     47  C   UNL     1      -9.251  -0.503   3.784  1.00  0.00     0.031 C 
ATOM     48  C   UNL     1      -4.844  -5.356   5.941  1.00  0.00     0.029 A 
ATOM     49  C   UNL     1      -6.216  -5.488   6.419  1.00  0.00     0.049 A 
ATOM     50  H   UNL     1      -7.847  -4.286   5.933  1.00  0.00     0.167 HD
ATOM     51  C   UNL     1     -11.125  -1.519   5.044  1.00  0.00     0.037 A 
ATOM     52  C   UNL     1      -6.656  -6.435   7.271  1.00  0.00     0.037 A 
ATOM     53  C   UNL     1     -11.705  -2.538   5.878  1.00  0.00     0.049 A 
ATOM     54  C   UNL     1      -8.107  -6.444   7.671  1.00  0.00     0.074 A 
ATOM     55  C   UNL     1     -13.023  -2.679   6.275  1.00  0.00     0.029 A 
ATOM     56  N   UNL     1     -11.003  -3.594   6.441  1.00  0.00    -0.354 N 
ATOM     57  N   UNL     1      -9.062  -5.615   7.324  1.00  0.00    -0.248 NA
ATOM     58  C   UNL     1      -8.541  -7.519   8.574  1.00  0.00     0.031 C 
ATOM     59  C   UNL     1     -13.113  -3.802   7.104  1.00  0.00     0.029 A 
ATOM     60  C   UNL     1     -11.858  -4.384   7.191  1.00  0.00     0.049 A 
ATOM     61  H   UNL     1     -10.040  -3.758   6.324  1.00  0.00     0.167 HD
ATOM     62  C   UNL     1     -10.215  -6.083   7.945  1.00  0.00     0.074 A 
ATOM     63  C   UNL     1      -9.840  -7.273   8.680  1.00  0.00     0.031 C 
ATOM     64  C   UNL     1     -11.471  -5.573   7.908  1.00  0.00     0.037 A 
BRANCH  51  65
ATOM     65  C   UNL     1     -12.009  -0.404   4.557  1.00  0.00     0.058 A 
ATOM     66  C   UNL     1     -12.402  -0.312   3.212  1.00  0.00     0.135 A 
ATOM     67  C   UNL     1     -12.491   0.569   5.447  1.00  0.00     0.135 A 
ATOM     68  F   UNL     1     -11.958  -1.207   2.315  1.00  0.00    -0.206 F 
ATOM     69  C   UNL     1     -13.213   0.723   2.760  1.00  0.00     0.059 A 
ATOM     70  C   UNL     1     -13.326   1.598   5.022  1.00  0.00     0.059 A 
ATOM     71  F   UNL     1     -12.147   0.529   6.744  1.00  0.00    -0.206 F 
ATOM     72  C   UNL     1     -13.668   1.676   3.673  1.00  0.00     0.060 A 
BRANCH  72  73
ATOM     73  S   UNL     1     -14.720   3.013   3.071  1.00  0.00     0.124 S 
ATOM     74  O   UNL     1     -13.750   3.858   2.382  1.00  0.00    -0.237 OA
ATOM     75  O   UNL     1     -15.666   2.307   2.213  1.00  0.00    -0.237 OA
ATOM     76  O   UNL     1     -15.287   3.576   4.293  1.00  0.00    -0.744 OA
ENDBRANCH  72  73
ENDBRANCH  51  65
BRANCH  52  77
ATOM     77  C   UNL     1      -5.720  -7.471   7.782  1.00  0.00     0.058 A 
ATOM     78  C   UNL     1      -5.807  -8.799   7.339  1.00  0.00     0.135 A 
ATOM     79  C   UNL     1      -4.716  -7.156   8.711  1.00  0.00     0.135 A 
ATOM     80  F   UNL     1      -6.754  -9.150   6.457  1.00  0.00    -0.206 F 
ATOM     81  C   UNL     1      -4.944  -9.783   7.810  1.00  0.00     0.059 A 
ATOM     82  C   UNL     1      -3.826  -8.118   9.179  1.00  0.00     0.059 A 
ATOM     83  F   UNL     1      -4.580  -5.896   9.153  1.00  0.00    -0.206 F 
ATOM     84  C   UNL     1      -3.955  -9.432   8.731  1.00  0.00     0.060 A 
BRANCH  84  85
ATOM     85  S   UNL     1      -2.809 -10.707   9.300  1.00  0.00     0.124 S 
ATOM     86  O   UNL     1      -3.647 -11.464  10.222  1.00  0.00    -0.237 OA
ATOM     87  O   UNL     1      -2.456 -11.383   8.056  1.00  0.00    -0.237 OA
ATOM     88  O   UNL     1      -1.730  -9.937   9.913  1.00  0.00    -0.744 OA
ENDBRANCH  84  85
ENDBRANCH  52  77
BRANCH  64  89
ATOM     89  C   UNL     1     -12.541  -6.317   8.655  1.00  0.00     0.058 A 
ATOM     90  C   UNL     1     -12.628  -6.273  10.055  1.00  0.00     0.135 A 
ATOM     91  C   UNL     1     -13.526  -7.034   7.957  1.00  0.00     0.135 A 
ATOM     92  F   UNL     1     -11.707  -5.606  10.769  1.00  0.00    -0.206 F 
ATOM     93  C   UNL     1     -13.645  -6.931  10.739  1.00  0.00     0.059 A 
ATOM     94  C   UNL     1     -14.565  -7.679   8.619  1.00  0.00     0.059 A 
ATOM     95  F   UNL     1     -13.493  -7.099   6.617  1.00  0.00    -0.206 F 
ATOM     96  C   UNL     1     -14.611  -7.630  10.012  1.00  0.00     0.060 A 
BRANCH  96  97
ATOM     97  S   UNL     1     -15.949  -8.446  10.908  1.00  0.00     0.124 S 
ATOM     98  O   UNL     1     -15.269  -9.619  11.447  1.00  0.00    -0.237 OA
ATOM     99  O   UNL     1     -16.336  -7.433  11.885  1.00  0.00    -0.237 OA
ATOM    100  O   UNL     1     -16.938  -8.716   9.869  1.00  0.00    -0.744 OA
ENDBRANCH  96  97
ENDBRANCH  64  89
ENDBRANCH  38  39
ENDBRANCH  30  33
ENDBRANCH  28  29
ENDBRANCH  27  28
ENDBRANCH   1  27
TORSDOF 19
