REMARK SMILES Cc1nn2c(nnc3c(=O)n(CCCC(=O)NCCCCNC(=O)c4ccc(-c5c6nc(c(-c7c(F)cc(S(=O)(=O)[O-])cc7F)c7ccc([nH]7)c(-c7c(F)cc(S(=O)(=O)[O-])cc7F)c7nc(c(-c8c(F)cc(S(=O)(=O)[O-])cc8F)c8ccc5[nH]8)C=C7)C=C6)cc4)ccc32)c1-c1ccc(F)cc1
REMARK SMILES IDX 19 1 18 2 17 3 15 4 16 5 14 7 13 8 12 9 11 10 1 11 2 12 3 13
REMARK SMILES IDX 94 14 4 15 5 16 93 17 6 18 8 19 92 20 7 21 9 22 91 23 10 24
REMARK SMILES IDX 95 25 96 26 101 27 97 28 100 29 98 30 99 31 20 32 21 33
REMARK SMILES IDX 22 34 23 35 24 37 25 38 26 39 90 40 27 41 89 42 28 43 29 44
REMARK SMILES IDX 30 45 83 46 31 47 88 48 82 49 84 50 32 51 87 52 81 53 80 54
REMARK SMILES IDX 33 56 67 57 46 58 66 59 47 60 50 61 65 62 85 63 48 64 49 65
REMARK SMILES IDX 64 67 86 68 51 69 34 70 35 71 44 72 36 73 37 74 43 75 45 76
REMARK SMILES IDX 38 77 39 78 40 79 41 80 42 81 68 82 69 83 78 84 70 85 71 86
REMARK SMILES IDX 77 87 79 88 72 89 73 90 74 91 75 92 76 93 52 94 53 95 62 96
REMARK SMILES IDX 54 97 55 98 61 99 63 100 56 101 57 102 58 103 59 104 60 105
REMARK H PARENT 17 6 22 36 84 55 50 66
REMARK Flexibility Score: inf
ROOT
ATOM      1  C   UNL     1      -4.630   1.385  -8.475  1.00  0.00     0.023 C 
ENDROOT
BRANCH   1   2
ATOM      2  C   UNL     1      -3.857   0.060  -8.499  1.00  0.00     0.116 C 
BRANCH   2   3
ATOM      3  N   UNL     1      -3.654  -0.417  -9.848  1.00  0.00    -0.356 N 
ATOM      4  C   UNL     1      -2.590  -0.465 -10.680  1.00  0.00     0.220 C 
ATOM      5  O   UNL     1      -2.810  -1.007 -11.774  1.00  0.00    -0.275 OA
ATOM      6  H   UNL     1      -4.472  -0.789 -10.250  1.00  0.00     0.163 HD
BRANCH   4   7
ATOM      7  C   UNL     1      -1.167  -0.006 -10.380  1.00  0.00     0.102 C 
BRANCH   7   8
ATOM      8  C   UNL     1      -0.760   1.383  -9.881  1.00  0.00     0.032 C 
BRANCH   8   9
ATOM      9  C   UNL     1      -1.165   2.020  -8.544  1.00  0.00     0.126 C 
BRANCH   9  10
ATOM     10  N   UNL     1      -0.772   1.478  -7.225  1.00  0.00    -0.313 N 
ATOM     11  C   UNL     1       1.007   0.146   0.071  1.00  0.00     0.069 C 
ATOM     12  C   UNL     1       0.575  -0.218  -1.301  1.00  0.00     0.070 A 
ATOM     13  N   UNL     1       0.234   0.743  -2.175  1.00  0.00    -0.170 NA
ATOM     14  C   UNL     1       0.519  -1.507  -1.877  1.00  0.00     0.051 A 
ATOM     15  N   UNL     1      -0.016   0.078  -3.339  1.00  0.00    -0.210 N 
ATOM     16  C   UNL     1       0.136  -1.292  -3.179  1.00  0.00     0.186 A 
ATOM     17  C   UNL     1      -0.318   0.583  -4.604  1.00  0.00     0.102 A 
ATOM     18  N   UNL     1      -0.059  -2.144  -4.222  1.00  0.00    -0.129 NA
ATOM     19  C   UNL     1      -0.406  -0.332  -5.582  1.00  0.00     0.177 A 
ATOM     20  C   UNL     1      -0.513   1.984  -4.898  1.00  0.00     0.049 A 
ATOM     21  N   UNL     1      -0.289  -1.689  -5.367  1.00  0.00    -0.141 NA
ATOM     22  C   UNL     1      -0.630   0.110  -6.986  1.00  0.00     0.280 A 
ATOM     23  C   UNL     1      -0.737   2.379  -6.160  1.00  0.00     0.091 A 
ATOM     24  O   UNL     1      -0.707  -0.761  -7.842  1.00  0.00    -0.267 OA
BRANCH  14  25
ATOM     25  C   UNL     1       0.798  -2.836  -1.381  1.00  0.00    -0.012 A 
ATOM     26  C   UNL     1      -0.056  -3.434  -0.448  1.00  0.00     0.012 A 
ATOM     27  C   UNL     1       1.856  -3.577  -1.934  1.00  0.00     0.012 A 
ATOM     28  C   UNL     1       0.143  -4.767  -0.079  1.00  0.00     0.040 A 
ATOM     29  C   UNL     1       2.052  -4.906  -1.562  1.00  0.00     0.040 A 
ATOM     30  C   UNL     1       1.193  -5.489  -0.638  1.00  0.00     0.123 A 
ATOM     31  F   UNL     1       1.376  -6.768  -0.289  1.00  0.00    -0.207 F 
ENDBRANCH  14  25
ENDBRANCH   9  10
ENDBRANCH   8   9
ENDBRANCH   7   8
ENDBRANCH   4   7
ENDBRANCH   2   3
ENDBRANCH   1   2
BRANCH   1  32
ATOM     32  C   UNL     1      -6.156   1.252  -8.495  1.00  0.00     0.023 C 
BRANCH  32  33
ATOM     33  C   UNL     1      -6.735   0.691  -7.204  1.00  0.00     0.116 C 
BRANCH  33  34
ATOM     34  N   UNL     1      -6.538   1.579  -6.057  1.00  0.00    -0.352 N 
ATOM     35  C   UNL     1      -6.947   1.353  -4.759  1.00  0.00     0.251 C 
ATOM     36  H   UNL     1      -6.066   2.425  -6.231  1.00  0.00     0.163 HD
ATOM     37  O   UNL     1      -7.073   2.283  -3.964  1.00  0.00    -0.269 OA
BRANCH  35  38
ATOM     38  C   UNL     1      -7.205  -0.034  -4.346  1.00  0.00     0.039 A 
ATOM     39  C   UNL     1      -8.350  -0.382  -3.623  1.00  0.00     0.014 A 
ATOM     40  C   UNL     1      -6.275  -0.998  -4.739  1.00  0.00     0.014 A 
ATOM     41  C   UNL     1      -8.581  -1.727  -3.352  1.00  0.00     0.010 A 
ATOM     42  C   UNL     1      -6.568  -2.328  -4.583  1.00  0.00     0.010 A 
ATOM     43  C   UNL     1      -7.688  -2.690  -3.844  1.00  0.00    -0.014 A 
BRANCH  43  44
ATOM     44  C   UNL     1      -7.942  -4.108  -3.654  1.00  0.00     0.031 A 
ATOM     45  C   UNL     1      -9.190  -4.612  -4.287  1.00  0.00     0.074 A 
ATOM     46  C   UNL     1      -7.015  -4.936  -3.131  1.00  0.00     0.049 A 
ATOM     47  N   UNL     1     -10.288  -4.948  -3.698  1.00  0.00    -0.248 NA
ATOM     48  C   UNL     1      -9.291  -4.589  -5.755  1.00  0.00     0.031 C 
ATOM     49  C   UNL     1      -5.622  -4.645  -2.770  1.00  0.00     0.029 A 
ATOM     50  N   UNL     1      -7.108  -6.269  -2.896  1.00  0.00    -0.354 N 
ATOM     51  C   UNL     1     -11.135  -5.419  -4.700  1.00  0.00     0.074 A 
ATOM     52  C   UNL     1     -10.557  -4.973  -5.940  1.00  0.00     0.031 C 
ATOM     53  C   UNL     1      -4.951  -5.803  -2.585  1.00  0.00     0.029 A 
ATOM     54  C   UNL     1      -5.896  -6.902  -2.647  1.00  0.00     0.049 A 
ATOM     55  H   UNL     1      -7.967  -6.751  -2.901  1.00  0.00     0.167 HD
ATOM     56  C   UNL     1     -12.099  -6.345  -4.427  1.00  0.00     0.037 A 
ATOM     57  C   UNL     1      -5.693  -8.240  -2.538  1.00  0.00     0.037 A 
ATOM     58  C   UNL     1     -12.286  -6.480  -3.001  1.00  0.00     0.049 A 
ATOM     59  C   UNL     1      -7.013  -8.841  -2.196  1.00  0.00     0.074 A 
ATOM     60  C   UNL     1     -12.649  -5.621  -1.982  1.00  0.00     0.029 A 
ATOM     61  N   UNL     1     -11.702  -7.563  -2.386  1.00  0.00    -0.354 N 
ATOM     62  N   UNL     1      -7.650  -8.596  -1.079  1.00  0.00    -0.248 NA
ATOM     63  C   UNL     1      -7.849  -9.300  -3.296  1.00  0.00     0.031 C 
ATOM     64  C   UNL     1     -11.824  -5.994  -0.880  1.00  0.00     0.029 A 
ATOM     65  C   UNL     1     -11.067  -7.104  -1.261  1.00  0.00     0.049 A 
ATOM     66  H   UNL     1     -11.734  -8.497  -2.696  1.00  0.00     0.167 HD
ATOM     67  C   UNL     1      -8.982  -8.456  -1.446  1.00  0.00     0.074 A 
ATOM     68  C   UNL     1      -9.051  -8.973  -2.814  1.00  0.00     0.031 C 
ATOM     69  C   UNL     1      -9.845  -7.674  -0.730  1.00  0.00     0.037 A 
BRANCH  56  70
ATOM     70  C   UNL     1     -12.600  -7.406  -5.386  1.00  0.00     0.058 A 
ATOM     71  C   UNL     1     -13.657  -8.247  -4.970  1.00  0.00     0.135 A 
ATOM     72  C   UNL     1     -11.909  -7.832  -6.540  1.00  0.00     0.135 A 
ATOM     73  F   UNL     1     -14.406  -7.930  -3.901  1.00  0.00    -0.206 F 
ATOM     74  C   UNL     1     -13.921  -9.475  -5.576  1.00  0.00     0.059 A 
ATOM     75  C   UNL     1     -12.192  -9.029  -7.192  1.00  0.00     0.059 A 
ATOM     76  F   UNL     1     -10.865  -7.166  -7.042  1.00  0.00    -0.206 F 
ATOM     77  C   UNL     1     -13.162  -9.868  -6.671  1.00  0.00     0.060 A 
BRANCH  77  78
ATOM     78  S   UNL     1     -13.403 -11.512  -7.364  1.00  0.00     0.124 S 
ATOM     79  O   UNL     1     -12.925 -12.357  -6.276  1.00  0.00    -0.237 OA
ATOM     80  O   UNL     1     -14.842 -11.529  -7.603  1.00  0.00    -0.237 OA
ATOM     81  O   UNL     1     -12.572 -11.495  -8.564  1.00  0.00    -0.744 OA
ENDBRANCH  77  78
ENDBRANCH  56  70
BRANCH  57  82
ATOM     82  C   UNL     1      -4.553  -9.015  -3.104  1.00  0.00     0.058 A 
ATOM     83  C   UNL     1      -4.330 -10.360  -2.758  1.00  0.00     0.135 A 
ATOM     84  C   UNL     1      -3.809  -8.531  -4.202  1.00  0.00     0.135 A 
ATOM     85  F   UNL     1      -5.011 -10.915  -1.745  1.00  0.00    -0.206 F 
ATOM     86  C   UNL     1      -3.451 -11.183  -3.478  1.00  0.00     0.059 A 
ATOM     87  C   UNL     1      -2.924  -9.328  -4.928  1.00  0.00     0.059 A 
ATOM     88  F   UNL     1      -3.987  -7.284  -4.663  1.00  0.00    -0.206 F 
ATOM     89  C   UNL     1      -2.765 -10.661  -4.574  1.00  0.00     0.060 A 
BRANCH  89  90
ATOM     90  S   UNL     1      -1.744 -11.753  -5.595  1.00  0.00     0.124 S 
ATOM     91  O   UNL     1      -0.679 -12.127  -4.670  1.00  0.00    -0.237 OA
ATOM     92  O   UNL     1      -2.683 -12.812  -5.947  1.00  0.00    -0.237 OA
ATOM     93  O   UNL     1      -1.331 -10.896  -6.704  1.00  0.00    -0.744 OA
ENDBRANCH  89  90
ENDBRANCH  57  82
BRANCH  69  94
ATOM     94  C   UNL     1      -9.421  -7.169   0.628  1.00  0.00     0.058 A 
ATOM     95  C   UNL     1      -8.377  -6.251   0.846  1.00  0.00     0.135 A 
ATOM     96  C   UNL     1     -10.243  -7.469   1.725  1.00  0.00     0.135 A 
ATOM     97  F   UNL     1      -7.604  -5.833  -0.164  1.00  0.00    -0.206 F 
ATOM     98  C   UNL     1      -8.151  -5.676   2.100  1.00  0.00     0.059 A 
ATOM     99  C   UNL     1     -10.055  -6.886   2.975  1.00  0.00     0.059 A 
ATOM    100  F   UNL     1     -11.295  -8.290   1.570  1.00  0.00    -0.206 F 
ATOM    101  C   UNL     1      -9.002  -5.993   3.158  1.00  0.00     0.060 A 
BRANCH 101 102
ATOM    102  S   UNL     1      -8.767  -5.178   4.752  1.00  0.00     0.124 S 
ATOM    103  O   UNL     1      -7.494  -5.735   5.199  1.00  0.00    -0.237 OA
ATOM    104  O   UNL     1      -8.744  -3.765   4.385  1.00  0.00    -0.237 OA
ATOM    105  O   UNL     1      -9.934  -5.593   5.526  1.00  0.00    -0.744 OA
ENDBRANCH 101 102
ENDBRANCH  69  94
ENDBRANCH  43  44
ENDBRANCH  35  38
ENDBRANCH  33  34
ENDBRANCH  32  33
ENDBRANCH   1  32
TORSDOF 18
