REMARK SMILES C[C@H](Sc1ccccn1)C(=O)N[C@H](C(=O)NCCCCNC(=O)c1ccc(-c2c3nc(c(-c4c(F)cc(S(=O)(=O)[O-])cc4F)c4ccc([nH]4)c(-c4c(F)cc(S(=O)(=O)[O-])cc4F)c4nc(c(-c5c(F)cc(S(=O)(=O)[O-])cc5F)c5ccc2[nH]5)C=C4)C=C3)cc1)c1ccc(F)cc1
REMARK SMILES IDX 18 1 17 2 16 3 14 4 15 5 13 7 12 8 10 9 11 10 2 12 1 13 3 14
REMARK SMILES IDX 4 15 5 16 9 17 6 18 8 19 7 20 90 21 91 22 96 23 92 24 95 25
REMARK SMILES IDX 93 26 94 27 19 28 20 29 21 30 22 31 23 33 24 34 25 35 89 36
REMARK SMILES IDX 26 37 88 38 27 39 28 40 29 41 82 42 30 43 87 44 81 45 83 46
REMARK SMILES IDX 31 47 86 48 80 49 79 50 32 52 66 53 45 54 65 55 46 56 49 57
REMARK SMILES IDX 64 58 84 59 47 60 48 61 63 63 85 64 50 65 33 66 34 67 43 68
REMARK SMILES IDX 35 69 36 70 42 71 44 72 37 73 38 74 39 75 40 76 41 77 67 78
REMARK SMILES IDX 68 79 77 80 69 81 70 82 76 83 78 84 71 85 72 86 73 87 74 88
REMARK SMILES IDX 75 89 51 90 52 91 61 92 53 93 54 94 60 95 62 96 55 97 56 98
REMARK SMILES IDX 57 99 58 100 59 101
REMARK H PARENT 16 6 12 11 21 32 83 51 49 62
REMARK Flexibility Score: inf
ROOT
ATOM      1  C   UNL     1      -2.894  -2.838   1.624  1.00  0.00     0.023 C 
ENDROOT
BRANCH   1   2
ATOM      2  C   UNL     1      -3.308  -3.149   0.180  1.00  0.00     0.116 C 
BRANCH   2   3
ATOM      3  N   UNL     1      -3.741  -2.033  -0.637  1.00  0.00    -0.354 N 
ATOM      4  C   UNL     1      -3.088  -1.224  -1.520  1.00  0.00     0.247 C 
ATOM      5  O   UNL     1      -3.804  -0.507  -2.233  1.00  0.00    -0.272 OA
ATOM      6  H   UNL     1      -4.696  -1.815  -0.534  1.00  0.00     0.163 HD
BRANCH   4   7
ATOM      7  C   UNL     1      -1.544  -1.239  -1.744  1.00  0.00     0.202 C 
BRANCH   7   8
ATOM      8  N   UNL     1      -0.692  -1.458  -0.577  1.00  0.00    -0.340 N 
ATOM      9  C   UNL     1      -0.314  -0.617   0.431  1.00  0.00     0.234 C 
ATOM     10  O   UNL     1       0.570  -1.058   1.179  1.00  0.00    -0.274 OA
ATOM     11  H   UNL     1      -0.328  -2.370  -0.505  1.00  0.00     0.164 HD
BRANCH   9  12
ATOM     12  C   UNL     1      -0.932   0.772   0.718  1.00  0.00     0.139 C 
ATOM     13  C   UNL     1      -2.435   0.826   0.568  1.00  0.00     0.030 C 
BRANCH  12  14
ATOM     14  S   UNL     1      -0.103   2.072  -0.267  1.00  0.00    -0.093 SA
BRANCH  14  15
ATOM     15  C   UNL     1      -0.553   3.584   0.587  1.00  0.00     0.097 A 
ATOM     16  C   UNL     1      -1.856   3.915   0.955  1.00  0.00     0.035 A 
ATOM     17  N   UNL     1       0.462   4.460   0.759  1.00  0.00    -0.250 NA
ATOM     18  C   UNL     1      -2.124   5.149   1.546  1.00  0.00     0.004 A 
ATOM     19  C   UNL     1       0.171   5.668   1.302  1.00  0.00     0.112 A 
ATOM     20  C   UNL     1      -1.092   6.053   1.713  1.00  0.00     0.020 A 
ENDBRANCH  14  15
ENDBRANCH  12  14
ENDBRANCH   9  12
ENDBRANCH   7   8
BRANCH   7  21
ATOM     21  C   UNL     1      -1.268  -2.202  -2.908  1.00  0.00    -0.016 A 
ATOM     22  C   UNL     1      -1.510  -1.737  -4.219  1.00  0.00     0.009 A 
ATOM     23  C   UNL     1      -0.971  -3.565  -2.735  1.00  0.00     0.009 A 
ATOM     24  C   UNL     1      -1.504  -2.610  -5.308  1.00  0.00     0.039 A 
ATOM     25  C   UNL     1      -0.963  -4.438  -3.829  1.00  0.00     0.039 A 
ATOM     26  C   UNL     1      -1.244  -3.956  -5.101  1.00  0.00     0.123 A 
ATOM     27  F   UNL     1      -1.286  -4.805  -6.136  1.00  0.00    -0.207 F 
ENDBRANCH   7  21
ENDBRANCH   4   7
ENDBRANCH   2   3
ENDBRANCH   1   2
BRANCH   1  28
ATOM     28  C   UNL     1      -3.780  -1.922   2.472  1.00  0.00     0.023 C 
BRANCH  28  29
ATOM     29  C   UNL     1      -5.265  -2.217   2.457  1.00  0.00     0.116 C 
BRANCH  29  30
ATOM     30  N   UNL     1      -5.574  -3.405   3.219  1.00  0.00    -0.352 N 
ATOM     31  C   UNL     1      -6.559  -3.579   4.159  1.00  0.00     0.251 C 
ATOM     32  H   UNL     1      -5.006  -4.189   3.042  1.00  0.00     0.163 HD
ATOM     33  O   UNL     1      -6.519  -4.567   4.888  1.00  0.00    -0.269 OA
BRANCH  31  34
ATOM     34  C   UNL     1      -7.656  -2.589   4.302  1.00  0.00     0.039 A 
ATOM     35  C   UNL     1      -8.180  -2.354   5.577  1.00  0.00     0.014 A 
ATOM     36  C   UNL     1      -8.224  -1.953   3.192  1.00  0.00     0.014 A 
ATOM     37  C   UNL     1      -9.277  -1.504   5.735  1.00  0.00     0.010 A 
ATOM     38  C   UNL     1      -9.264  -1.041   3.360  1.00  0.00     0.010 A 
ATOM     39  C   UNL     1      -9.835  -0.851   4.625  1.00  0.00    -0.014 A 
BRANCH  39  40
ATOM     40  C   UNL     1     -11.086  -0.064   4.758  1.00  0.00     0.031 A 
ATOM     41  C   UNL     1     -12.347  -0.561   4.096  1.00  0.00     0.074 A 
ATOM     42  C   UNL     1     -11.088   1.089   5.453  1.00  0.00     0.049 A 
ATOM     43  N   UNL     1     -13.540  -0.026   4.079  1.00  0.00    -0.248 NA
ATOM     44  C   UNL     1     -12.243  -1.809   3.320  1.00  0.00     0.031 C 
ATOM     45  C   UNL     1      -9.917   1.696   6.088  1.00  0.00     0.029 A 
ATOM     46  N   UNL     1     -12.111   1.954   5.743  1.00  0.00    -0.354 N 
ATOM     47  C   UNL     1     -14.317  -0.856   3.278  1.00  0.00     0.074 A 
ATOM     48  C   UNL     1     -13.448  -1.897   2.778  1.00  0.00     0.031 C 
ATOM     49  C   UNL     1     -10.295   2.821   6.720  1.00  0.00     0.029 A 
ATOM     50  C   UNL     1     -11.727   3.020   6.521  1.00  0.00     0.049 A 
ATOM     51  H   UNL     1     -13.034   1.824   5.425  1.00  0.00     0.167 HD
ATOM     52  C   UNL     1     -15.642  -0.779   3.008  1.00  0.00     0.037 A 
ATOM     53  C   UNL     1     -12.456   4.034   7.028  1.00  0.00     0.037 A 
ATOM     54  C   UNL     1     -16.511   0.228   3.557  1.00  0.00     0.049 A 
ATOM     55  C   UNL     1     -13.938   4.063   6.772  1.00  0.00     0.074 A 
ATOM     56  C   UNL     1     -17.879   0.365   3.405  1.00  0.00     0.029 A 
ATOM     57  N   UNL     1     -16.091   1.265   4.377  1.00  0.00    -0.354 N 
ATOM     58  N   UNL     1     -14.667   3.237   6.058  1.00  0.00    -0.248 NA
ATOM     59  C   UNL     1     -14.699   5.149   7.402  1.00  0.00     0.031 C 
ATOM     60  C   UNL     1     -18.284   1.499   4.119  1.00  0.00     0.029 A 
ATOM     61  C   UNL     1     -17.172   2.049   4.738  1.00  0.00     0.049 A 
ATOM     62  H   UNL     1     -15.162   1.419   4.661  1.00  0.00     0.167 HD
ATOM     63  C   UNL     1     -15.975   3.694   6.166  1.00  0.00     0.074 A 
ATOM     64  C   UNL     1     -15.938   4.857   7.031  1.00  0.00     0.031 C 
ATOM     65  C   UNL     1     -17.105   3.202   5.601  1.00  0.00     0.037 A 
BRANCH  52  66
ATOM     66  C   UNL     1     -16.227  -1.822   2.095  1.00  0.00     0.058 A 
ATOM     67  C   UNL     1     -16.371  -3.159   2.500  1.00  0.00     0.135 A 
ATOM     68  C   UNL     1     -16.651  -1.484   0.800  1.00  0.00     0.135 A 
ATOM     69  F   UNL     1     -15.965  -3.542   3.722  1.00  0.00    -0.206 F 
ATOM     70  C   UNL     1     -16.877  -4.131   1.643  1.00  0.00     0.059 A 
ATOM     71  C   UNL     1     -17.186  -2.435  -0.066  1.00  0.00     0.059 A 
ATOM     72  F   UNL     1     -16.536  -0.221   0.358  1.00  0.00    -0.206 F 
ATOM     73  C   UNL     1     -17.277  -3.760   0.359  1.00  0.00     0.060 A 
BRANCH  73  74
ATOM     74  S   UNL     1     -17.922  -5.031  -0.750  1.00  0.00     0.124 S 
ATOM     75  O   UNL     1     -16.694  -5.711  -1.154  1.00  0.00    -0.237 OA
ATOM     76  O   UNL     1     -18.806  -5.795   0.129  1.00  0.00    -0.237 OA
ATOM     77  O   UNL     1     -18.589  -4.266  -1.793  1.00  0.00    -0.744 OA
ENDBRANCH  73  74
ENDBRANCH  52  66
BRANCH  53  78
ATOM     78  C   UNL     1     -11.801   5.069   7.869  1.00  0.00     0.058 A 
ATOM     79  C   UNL     1     -11.998   5.099   9.257  1.00  0.00     0.135 A 
ATOM     80  C   UNL     1     -10.944   6.029   7.309  1.00  0.00     0.135 A 
ATOM     81  F   UNL     1     -12.811   4.203   9.838  1.00  0.00    -0.206 F 
ATOM     82  C   UNL     1     -11.382   6.052  10.061  1.00  0.00     0.059 A 
ATOM     83  C   UNL     1     -10.300   6.979   8.095  1.00  0.00     0.059 A 
ATOM     84  F   UNL     1     -10.707   6.029   5.988  1.00  0.00    -0.206 F 
ATOM     85  C   UNL     1     -10.531   6.988   9.470  1.00  0.00     0.060 A 
BRANCH  85  86
ATOM     86  S   UNL     1      -9.686   8.185  10.527  1.00  0.00     0.124 S 
ATOM     87  O   UNL     1     -10.759   9.128  10.818  1.00  0.00    -0.237 OA
ATOM     88  O   UNL     1      -9.245   7.354  11.643  1.00  0.00    -0.237 OA
ATOM     89  O   UNL     1      -8.616   8.688   9.670  1.00  0.00    -0.744 OA
ENDBRANCH  85  86
ENDBRANCH  53  78
BRANCH  65  90
ATOM     90  C   UNL     1     -18.389   3.913   5.915  1.00  0.00     0.058 A 
ATOM     91  C   UNL     1     -18.698   5.153   5.335  1.00  0.00     0.135 A 
ATOM     92  C   UNL     1     -19.332   3.335   6.778  1.00  0.00     0.135 A 
ATOM     93  F   UNL     1     -17.825   5.748   4.506  1.00  0.00    -0.206 F 
ATOM     94  C   UNL     1     -19.887   5.812   5.624  1.00  0.00     0.059 A 
ATOM     95  C   UNL     1     -20.539   3.965   7.064  1.00  0.00     0.059 A 
ATOM     96  F   UNL     1     -19.088   2.144   7.347  1.00  0.00    -0.206 F 
ATOM     97  C   UNL     1     -20.800   5.211   6.494  1.00  0.00     0.060 A 
BRANCH  97  98
ATOM     98  S   UNL     1     -22.348   6.066   6.854  1.00  0.00     0.124 S 
ATOM     99  O   UNL     1     -21.910   7.068   7.821  1.00  0.00    -0.237 OA
ATOM    100  O   UNL     1     -22.739   6.578   5.544  1.00  0.00    -0.237 OA
ATOM    101  O   UNL     1     -23.202   5.009   7.387  1.00  0.00    -0.744 OA
ENDBRANCH  97  98
ENDBRANCH  65  90
ENDBRANCH  39  40
ENDBRANCH  31  34
ENDBRANCH  29  30
ENDBRANCH  28  29
ENDBRANCH   1  28
TORSDOF 19
