REMARK SMILES CC[C@@H](C(=O)NCCCCNC(=O)c1ccc(-c2c3nc(c(-c4c(F)cc(S(=O)(=O)[O-])cc4F)c4ccc([nH]4)c(-c4c(F)cc(S(=O)(=O)[O-])cc4F)c4nc(c(-c5c(F)cc(S(=O)(=O)[O-])cc5F)c5ccc2[nH]5)C=C4)C=C3)cc1)N1C(=O)/C(=C/C(C)=C/c2ccccc2)SC1=S
REMARK SMILES IDX 8 1 7 2 6 3 4 4 5 5 3 7 2 8 1 9 80 10 81 11 95 12 82 13
REMARK SMILES IDX 83 14 94 15 96 16 84 17 85 18 86 19 87 20 88 21 89 22 93 23
REMARK SMILES IDX 90 24 92 25 91 26 9 27 10 28 11 29 12 30 13 32 14 33 15 34
REMARK SMILES IDX 79 35 16 36 78 37 17 38 18 39 19 40 72 41 20 42 77 43 71 44
REMARK SMILES IDX 73 45 21 46 76 47 70 48 69 49 22 51 56 52 35 53 55 54 36 55
REMARK SMILES IDX 39 56 54 57 74 58 37 59 38 60 53 62 75 63 40 64 23 65 24 66
REMARK SMILES IDX 33 67 25 68 26 69 32 70 34 71 27 72 28 73 29 74 30 75 31 76
REMARK SMILES IDX 57 77 58 78 67 79 59 80 60 81 66 82 68 83 61 84 62 85 63 86
REMARK SMILES IDX 64 87 65 88 41 89 42 90 51 91 43 92 44 93 50 94 52 95 45 96
REMARK SMILES IDX 46 97 47 98 48 99 49 100
REMARK H PARENT 6 6 11 31 73 50 39 61
REMARK Flexibility Score: inf
ROOT
ATOM      1  C   UNL     1       1.022   0.250   2.378  1.00  0.00     0.023 C 
ENDROOT
BRANCH   1   2
ATOM      2  C   UNL     1       1.586  -1.104   1.941  1.00  0.00     0.116 C 
BRANCH   2   3
ATOM      3  N   UNL     1       0.499  -1.995   1.595  1.00  0.00    -0.354 N 
ATOM      4  C   UNL     1      -0.007  -2.354   0.382  1.00  0.00     0.243 C 
ATOM      5  O   UNL     1      -1.075  -2.977   0.396  1.00  0.00    -0.273 OA
ATOM      6  H   UNL     1       0.050  -2.412   2.365  1.00  0.00     0.163 HD
BRANCH   4   7
ATOM      7  C   UNL     1       0.733  -2.045  -0.946  1.00  0.00     0.181 C 
BRANCH   7   8
ATOM      8  C   UNL     1       0.515  -0.633  -1.524  1.00  0.00     0.032 C 
ATOM      9  C   UNL     1       1.353   0.512  -0.982  1.00  0.00     0.006 C 
ENDBRANCH   7   8
BRANCH   7  10
ATOM     10  N   UNL     1       0.283  -3.150  -1.864  1.00  0.00    -0.280 N 
ATOM     11  C   UNL     1       0.968  -4.362  -1.778  1.00  0.00     0.266 C 
ATOM     12  C   UNL     1      -0.872  -3.180  -2.635  1.00  0.00     0.149 C 
ATOM     13  O   UNL     1       1.966  -4.575  -1.101  1.00  0.00    -0.268 OA
ATOM     14  C   UNL     1       0.339  -5.395  -2.652  1.00  0.00     0.080 C 
ATOM     15  S   UNL     1      -1.151  -4.801  -3.250  1.00  0.00    -0.054 SA
ATOM     16  S   UNL     1      -1.939  -1.976  -3.083  1.00  0.00    -0.052 S 
ATOM     17  C   UNL     1       0.911  -6.577  -2.940  1.00  0.00     0.024 C 
BRANCH  17  18
ATOM     18  C   UNL     1       0.434  -7.599  -3.884  1.00  0.00    -0.049 C 
ATOM     19  C   UNL     1       0.576  -9.024  -3.417  1.00  0.00     0.044 C 
ATOM     20  C   UNL     1       0.025  -7.249  -5.123  1.00  0.00     0.011 C 
BRANCH  20  21
ATOM     21  C   UNL     1      -0.512  -8.067  -6.224  1.00  0.00    -0.025 A 
ATOM     22  C   UNL     1      -0.237  -7.652  -7.536  1.00  0.00     0.008 A 
ATOM     23  C   UNL     1      -1.389  -9.140  -6.035  1.00  0.00     0.008 A 
ATOM     24  C   UNL     1      -0.796  -8.312  -8.632  1.00  0.00     0.001 A 
ATOM     25  C   UNL     1      -1.943  -9.809  -7.133  1.00  0.00     0.001 A 
ATOM     26  C   UNL     1      -1.646  -9.395  -8.430  1.00  0.00     0.000 A 
ENDBRANCH  20  21
ENDBRANCH  17  18
ENDBRANCH   7  10
ENDBRANCH   4   7
ENDBRANCH   2   3
ENDBRANCH   1   2
BRANCH   1  27
ATOM     27  C   UNL     1       0.584   0.320   3.837  1.00  0.00     0.023 C 
BRANCH  27  28
ATOM     28  C   UNL     1       1.722   0.265   4.845  1.00  0.00     0.116 C 
BRANCH  28  29
ATOM     29  N   UNL     1       2.676   1.357   4.701  1.00  0.00    -0.352 N 
ATOM     30  C   UNL     1       3.245   2.140   5.677  1.00  0.00     0.251 C 
ATOM     31  H   UNL     1       2.951   1.561   3.778  1.00  0.00     0.163 HD
ATOM     32  O   UNL     1       3.954   3.093   5.363  1.00  0.00    -0.269 OA
BRANCH  30  33
ATOM     33  C   UNL     1       2.964   1.850   7.098  1.00  0.00     0.039 A 
ATOM     34  C   UNL     1       2.628   2.902   7.953  1.00  0.00     0.014 A 
ATOM     35  C   UNL     1       2.987   0.537   7.574  1.00  0.00     0.014 A 
ATOM     36  C   UNL     1       2.245   2.626   9.267  1.00  0.00     0.010 A 
ATOM     37  C   UNL     1       2.511   0.256   8.848  1.00  0.00     0.010 A 
ATOM     38  C   UNL     1       2.147   1.297   9.713  1.00  0.00    -0.014 A 
BRANCH  38  39
ATOM     39  C   UNL     1       1.696   0.974  11.091  1.00  0.00     0.031 A 
ATOM     40  C   UNL     1       2.626   0.253  12.031  1.00  0.00     0.074 A 
ATOM     41  C   UNL     1       0.437   1.268  11.472  1.00  0.00     0.049 A 
ATOM     42  N   UNL     1       2.404  -0.175  13.247  1.00  0.00    -0.248 NA
ATOM     43  C   UNL     1       3.971  -0.063  11.523  1.00  0.00     0.031 C 
ATOM     44  C   UNL     1      -0.580   1.901  10.628  1.00  0.00     0.029 A 
ATOM     45  N   UNL     1      -0.206   1.067  12.667  1.00  0.00    -0.354 N 
ATOM     46  C   UNL     1       3.568  -0.827  13.636  1.00  0.00     0.074 A 
ATOM     47  C   UNL     1       4.469  -0.797  12.506  1.00  0.00     0.031 C 
ATOM     48  C   UNL     1      -1.705   2.066  11.343  1.00  0.00     0.029 A 
ATOM     49  C   UNL     1      -1.502   1.525  12.683  1.00  0.00     0.049 A 
ATOM     50  H   UNL     1       0.222   0.635  13.442  1.00  0.00     0.167 HD
ATOM     51  C   UNL     1       3.873  -1.373  14.837  1.00  0.00     0.037 A 
ATOM     52  C   UNL     1      -2.420   1.516  13.669  1.00  0.00     0.037 A 
ATOM     53  C   UNL     1       2.990  -1.357  15.972  1.00  0.00     0.049 A 
ATOM     54  C   UNL     1      -2.042   0.947  15.010  1.00  0.00     0.074 A 
ATOM     55  C   UNL     1       3.224  -1.821  17.254  1.00  0.00     0.029 A 
ATOM     56  N   UNL     1       1.702  -0.838  15.962  1.00  0.00    -0.354 N 
ATOM     57  N   UNL     1      -0.912   0.392  15.382  1.00  0.00    -0.248 NA
ATOM     58  C   UNL     1      -3.057   1.013  16.070  1.00  0.00     0.031 C 
ATOM     59  C   UNL     1       2.067  -1.610  18.012  1.00  0.00     0.029 A 
ATOM     60  C   UNL     1       1.127  -0.978  17.214  1.00  0.00     0.049 A 
ATOM     61  H   UNL     1       1.263  -0.432  15.181  1.00  0.00     0.167 HD
ATOM     62  C   UNL     1      -1.071   0.069  16.725  1.00  0.00     0.074 A 
ATOM     63  C   UNL     1      -2.401   0.502  17.102  1.00  0.00     0.031 C 
ATOM     64  C   UNL     1      -0.196  -0.530  17.570  1.00  0.00     0.037 A 
BRANCH  51  65
ATOM     65  C   UNL     1       5.227  -2.012  14.984  1.00  0.00     0.058 A 
ATOM     66  C   UNL     1       6.404  -1.247  14.995  1.00  0.00     0.135 A 
ATOM     67  C   UNL     1       5.350  -3.403  15.127  1.00  0.00     0.135 A 
ATOM     68  F   UNL     1       6.346   0.086  14.843  1.00  0.00    -0.206 F 
ATOM     69  C   UNL     1       7.657  -1.839  15.104  1.00  0.00     0.059 A 
ATOM     70  C   UNL     1       6.593  -4.016  15.268  1.00  0.00     0.059 A 
ATOM     71  F   UNL     1       4.258  -4.184  15.122  1.00  0.00    -0.206 F 
ATOM     72  C   UNL     1       7.742  -3.226  15.237  1.00  0.00     0.060 A 
BRANCH  72  73
ATOM     73  S   UNL     1       9.375  -3.981  15.374  1.00  0.00     0.124 S 
ATOM     74  O   UNL     1       9.853  -3.891  13.998  1.00  0.00    -0.237 OA
ATOM     75  O   UNL     1      10.044  -3.109  16.334  1.00  0.00    -0.237 OA
ATOM     76  O   UNL     1       9.087  -5.330  15.852  1.00  0.00    -0.744 OA
ENDBRANCH  72  73
ENDBRANCH  51  65
BRANCH  52  77
ATOM     77  C   UNL     1      -3.765   2.106  13.441  1.00  0.00     0.058 A 
ATOM     78  C   UNL     1      -4.128   3.322  14.041  1.00  0.00     0.135 A 
ATOM     79  C   UNL     1      -4.708   1.480  12.613  1.00  0.00     0.135 A 
ATOM     80  F   UNL     1      -3.261   3.957  14.844  1.00  0.00    -0.206 F 
ATOM     81  C   UNL     1      -5.383   3.887  13.844  1.00  0.00     0.059 A 
ATOM     82  C   UNL     1      -5.963   2.037  12.381  1.00  0.00     0.059 A 
ATOM     83  F   UNL     1      -4.404   0.325  12.000  1.00  0.00    -0.206 F 
ATOM     84  C   UNL     1      -6.295   3.237  13.010  1.00  0.00     0.060 A 
BRANCH  84  85
ATOM     85  S   UNL     1      -7.905   4.003  12.722  1.00  0.00     0.124 S 
ATOM     86  O   UNL     1      -8.586   3.738  13.984  1.00  0.00    -0.237 OA
ATOM     87  O   UNL     1      -7.543   5.395  12.472  1.00  0.00    -0.237 OA
ATOM     88  O   UNL     1      -8.417   3.279  11.562  1.00  0.00    -0.744 OA
ENDBRANCH  84  85
ENDBRANCH  52  77
BRANCH  64  89
ATOM     89  C   UNL     1      -0.635  -0.719  18.994  1.00  0.00     0.058 A 
ATOM     90  C   UNL     1      -1.585  -1.689  19.350  1.00  0.00     0.135 A 
ATOM     91  C   UNL     1      -0.067   0.053  20.020  1.00  0.00     0.135 A 
ATOM     92  F   UNL     1      -2.160  -2.450  18.405  1.00  0.00    -0.206 F 
ATOM     93  C   UNL     1      -1.977  -1.868  20.672  1.00  0.00     0.059 A 
ATOM     94  C   UNL     1      -0.425  -0.127  21.351  1.00  0.00     0.059 A 
ATOM     95  F   UNL     1       0.855   0.986  19.733  1.00  0.00    -0.206 F 
ATOM     96  C   UNL     1      -1.393  -1.081  21.666  1.00  0.00     0.060 A 
BRANCH  96  97
ATOM     97  S   UNL     1      -1.894  -1.336  23.381  1.00  0.00     0.124 S 
ATOM     98  O   UNL     1      -3.196  -0.678  23.407  1.00  0.00    -0.237 OA
ATOM     99  O   UNL     1      -1.916  -2.791  23.489  1.00  0.00    -0.237 OA
ATOM    100  O   UNL     1      -0.840  -0.674  24.144  1.00  0.00    -0.744 OA
ENDBRANCH  96  97
ENDBRANCH  64  89
ENDBRANCH  38  39
ENDBRANCH  30  33
ENDBRANCH  28  29
ENDBRANCH  27  28
ENDBRANCH   1  27
TORSDOF 18
