REMARK SMILES C[C@]12CCC[C@](C)(C(=O)NCCCCNC(=O)c3ccc(-c4c5nc(c(-c6c(F)cc(S(=O)(=O)[O-])cc6F)c6ccc([nH]6)c(-c6c(F)cc(S(=O)(=O)[O-])cc6F)c6nc(c(-c7c(F)cc(S(=O)(=O)[O-])cc7F)c7ccc4[nH]7)C=C6)C=C5)cc3)[C@@H]1CC[C@]13C=C(CO)[C@H](CC[C@H]12)C3
REMARK SMILES IDX 13 1 12 2 11 3 10 4 8 5 9 6 6 8 1 9 2 10 3 11 84 12 95 13
REMARK SMILES IDX 4 14 85 15 87 16 94 17 5 18 7 19 86 20 88 21 96 22 93 23
REMARK SMILES IDX 89 24 92 25 90 26 91 27 14 29 15 30 16 31 17 33 18 34 19 35
REMARK SMILES IDX 83 36 20 37 82 38 21 39 22 40 23 41 76 42 24 43 81 44 75 45
REMARK SMILES IDX 77 46 25 47 80 48 74 49 73 50 26 52 60 53 39 54 59 55 40 56
REMARK SMILES IDX 43 57 58 58 78 59 41 60 42 61 57 63 79 64 44 65 27 66 28 67
REMARK SMILES IDX 37 68 29 69 30 70 36 71 38 72 31 73 32 74 33 75 34 76 35 77
REMARK SMILES IDX 61 78 62 79 71 80 63 81 64 82 70 83 72 84 65 85 66 86 67 87
REMARK SMILES IDX 68 88 69 89 45 90 46 91 55 92 47 93 48 94 54 95 56 96 49 97
REMARK SMILES IDX 50 98 51 99 52 100 53 101
REMARK H PARENT 10 7 91 28 15 32 77 51 43 62
REMARK Flexibility Score: inf
ROOT
ATOM      1  C   UNL     1       5.588   0.532   1.440  1.00  0.00     0.023 C 
ENDROOT
BRANCH   1   2
ATOM      2  C   UNL     1       5.206  -0.587   0.491  1.00  0.00     0.023 C 
BRANCH   2   3
ATOM      3  C   UNL     1       4.405  -1.741   1.103  1.00  0.00     0.116 C 
BRANCH   3   4
ATOM      4  N   UNL     1       3.086  -1.538   1.780  1.00  0.00    -0.356 N 
ATOM      5  C   UNL     1       1.770  -1.892   1.381  1.00  0.00     0.226 C 
ATOM      6  O   UNL     1       0.862  -1.901   2.207  1.00  0.00    -0.274 OA
ATOM      7  H   UNL     1       3.140  -1.081   2.650  1.00  0.00     0.163 HD
BRANCH   5   8
ATOM      8  C   UNL     1       1.559  -2.133  -0.136  1.00  0.00     0.050 C 
ATOM      9  C   UNL     1      -0.796  -0.294   0.168  1.00  0.00     0.012 C 
ATOM     10  C   UNL     1       0.171  -0.040  -1.065  1.00  0.00    -0.025 C 
ATOM     11  C   UNL     1      -0.341  -0.850  -2.253  1.00  0.00     0.007 C 
ATOM     12  C   UNL     1       1.632  -0.545  -0.694  1.00  0.00     0.010 C 
ATOM     13  C   UNL     1      -0.008   1.483  -1.402  1.00  0.00     0.005 C 
ATOM     14  C   UNL     1      -0.665  -2.247  -1.817  1.00  0.00     0.002 C 
ATOM     15  C   UNL     1       2.145   0.593   0.278  1.00  0.00     0.006 C 
ATOM     16  C   UNL     1       0.738   2.518  -0.483  1.00  0.00    -0.008 C 
ATOM     17  C   UNL     1      -0.094   2.104  -2.793  1.00  0.00     0.006 C 
ATOM     18  C   UNL     1       0.435  -2.881  -0.984  1.00  0.00     0.017 C 
ATOM     19  C   UNL     1       2.484  -3.444  -0.148  1.00  0.00     0.022 C 
ATOM     20  C   UNL     1       2.139   2.036  -0.219  1.00  0.00     0.012 C 
ATOM     21  C   UNL     1      -0.225   2.768   0.636  1.00  0.00    -0.018 C 
ATOM     22  C   UNL     1       0.705   3.978  -1.017  1.00  0.00     0.019 C 
ATOM     23  C   UNL     1      -1.044   3.353  -2.595  1.00  0.00     0.008 C 
ATOM     24  C   UNL     1      -1.229   3.515   0.129  1.00  0.00    -0.045 C 
ATOM     25  C   UNL     1      -0.804   4.120  -1.234  1.00  0.00     0.018 C 
BRANCH  24  26
ATOM     26  C   UNL     1      -2.535   3.716   0.817  1.00  0.00     0.187 C 
BRANCH  26  27
ATOM     27  O   UNL     1      -2.977   2.492   1.407  1.00  0.00    -0.392 OA
ATOM     28  H   UNL     1      -3.089   1.821   0.715  1.00  0.00     0.211 HD
ENDBRANCH  26  27
ENDBRANCH  24  26
ENDBRANCH   5   8
ENDBRANCH   3   4
ENDBRANCH   2   3
ENDBRANCH   1   2
BRANCH   1  29
ATOM     29  C   UNL     1       6.262   0.018   2.692  1.00  0.00     0.116 C 
BRANCH  29  30
ATOM     30  N   UNL     1       7.442  -0.771   2.380  1.00  0.00    -0.352 N 
ATOM     31  C   UNL     1       8.707  -0.652   2.896  1.00  0.00     0.251 C 
ATOM     32  H   UNL     1       7.317  -1.484   1.712  1.00  0.00     0.163 HD
ATOM     33  O   UNL     1       9.644  -1.218   2.363  1.00  0.00    -0.269 OA
BRANCH  31  34
ATOM     34  C   UNL     1       8.897   0.182   4.099  1.00  0.00     0.039 A 
ATOM     35  C   UNL     1      10.022   0.998   4.179  1.00  0.00     0.014 A 
ATOM     36  C   UNL     1       7.957   0.155   5.136  1.00  0.00     0.014 A 
ATOM     37  C   UNL     1      10.201   1.793   5.308  1.00  0.00     0.010 A 
ATOM     38  C   UNL     1       8.074   1.036   6.197  1.00  0.00     0.010 A 
ATOM     39  C   UNL     1       9.224   1.823   6.319  1.00  0.00    -0.014 A 
BRANCH  39  40
ATOM     40  C   UNL     1       9.438   2.611   7.552  1.00  0.00     0.031 A 
ATOM     41  C   UNL     1       9.544   1.904   8.877  1.00  0.00     0.074 A 
ATOM     42  C   UNL     1       9.527   3.952   7.474  1.00  0.00     0.049 A 
ATOM     43  N   UNL     1       9.761   2.406  10.064  1.00  0.00    -0.248 NA
ATOM     44  C   UNL     1       9.352   0.442   8.876  1.00  0.00     0.031 C 
ATOM     45  C   UNL     1       9.373   4.741   6.249  1.00  0.00     0.029 A 
ATOM     46  N   UNL     1       9.778   4.886   8.442  1.00  0.00    -0.354 N 
ATOM     47  C   UNL     1       9.721   1.330  10.943  1.00  0.00     0.074 A 
ATOM     48  C   UNL     1       9.383   0.159  10.168  1.00  0.00     0.031 C 
ATOM     49  C   UNL     1       9.579   6.037   6.533  1.00  0.00     0.029 A 
ATOM     50  C   UNL     1       9.846   6.172   7.961  1.00  0.00     0.049 A 
ATOM     51  H   UNL     1       9.899   4.659   9.393  1.00  0.00     0.167 HD
ATOM     52  C   UNL     1       9.981   1.312  12.271  1.00  0.00     0.037 A 
ATOM     53  C   UNL     1      10.105   7.326   8.604  1.00  0.00     0.037 A 
ATOM     54  C   UNL     1      10.345   2.483  13.024  1.00  0.00     0.049 A 
ATOM     55  C   UNL     1      10.411   7.279  10.076  1.00  0.00     0.074 A 
ATOM     56  C   UNL     1      10.683   2.576  14.361  1.00  0.00     0.029 A 
ATOM     57  N   UNL     1      10.420   3.766  12.500  1.00  0.00    -0.354 N 
ATOM     58  N   UNL     1      10.441   6.242  10.881  1.00  0.00    -0.248 NA
ATOM     59  C   UNL     1      10.735   8.555  10.724  1.00  0.00     0.031 C 
ATOM     60  C   UNL     1      10.914   3.923  14.658  1.00  0.00     0.029 A 
ATOM     61  C   UNL     1      10.780   4.662  13.493  1.00  0.00     0.049 A 
ATOM     62  H   UNL     1      10.243   4.005  11.562  1.00  0.00     0.167 HD
ATOM     63  C   UNL     1      10.816   6.737  12.125  1.00  0.00     0.074 A 
ATOM     64  C   UNL     1      11.020   8.162  11.958  1.00  0.00     0.031 C 
ATOM     65  C   UNL     1      10.977   6.077  13.300  1.00  0.00     0.037 A 
BRANCH  52  66
ATOM     66  C   UNL     1       9.887  -0.010  12.983  1.00  0.00     0.058 A 
ATOM     67  C   UNL     1      10.801  -1.050  12.739  1.00  0.00     0.135 A 
ATOM     68  C   UNL     1       8.883  -0.237  13.939  1.00  0.00     0.135 A 
ATOM     69  F   UNL     1      11.769  -0.898  11.821  1.00  0.00    -0.206 F 
ATOM     70  C   UNL     1      10.705  -2.274  13.393  1.00  0.00     0.059 A 
ATOM     71  C   UNL     1       8.789  -1.442  14.629  1.00  0.00     0.059 A 
ATOM     72  F   UNL     1       7.979   0.718  14.209  1.00  0.00    -0.206 F 
ATOM     73  C   UNL     1       9.696  -2.459  14.339  1.00  0.00     0.060 A 
BRANCH  73  74
ATOM     74  S   UNL     1       9.595  -4.049  15.187  1.00  0.00     0.124 S 
ATOM     75  O   UNL     1       9.108  -4.919  14.120  1.00  0.00    -0.237 OA
ATOM     76  O   UNL     1      10.976  -4.269  15.603  1.00  0.00    -0.237 OA
ATOM     77  O   UNL     1       8.650  -3.798  16.271  1.00  0.00    -0.744 OA
ENDBRANCH  73  74
ENDBRANCH  52  66
BRANCH  53  78
ATOM     78  C   UNL     1      10.125   8.608   7.851  1.00  0.00     0.058 A 
ATOM     79  C   UNL     1      11.324   9.306   7.639  1.00  0.00     0.135 A 
ATOM     80  C   UNL     1       8.948   9.154   7.316  1.00  0.00     0.135 A 
ATOM     81  F   UNL     1      12.476   8.825   8.130  1.00  0.00    -0.206 F 
ATOM     82  C   UNL     1      11.353  10.512   6.946  1.00  0.00     0.059 A 
ATOM     83  C   UNL     1       8.956  10.343   6.594  1.00  0.00     0.059 A 
ATOM     84  F   UNL     1       7.779   8.515   7.471  1.00  0.00    -0.206 F 
ATOM     85  C   UNL     1      10.162  11.022   6.425  1.00  0.00     0.060 A 
BRANCH  85  86
ATOM     86  S   UNL     1      10.217  12.567   5.493  1.00  0.00     0.124 S 
ATOM     87  O   UNL     1      10.454  13.541   6.552  1.00  0.00    -0.237 OA
ATOM     88  O   UNL     1      11.329  12.333   4.578  1.00  0.00    -0.237 OA
ATOM     89  O   UNL     1       8.900  12.626   4.864  1.00  0.00    -0.744 OA
ENDBRANCH  85  86
ENDBRANCH  53  78
BRANCH  65  90
ATOM     90  C   UNL     1      11.431   6.888  14.483  1.00  0.00     0.058 A 
ATOM     91  C   UNL     1      10.595   7.835  15.098  1.00  0.00     0.135 A 
ATOM     92  C   UNL     1      12.716   6.702  15.018  1.00  0.00     0.135 A 
ATOM     93  F   UNL     1       9.358   8.053  14.626  1.00  0.00    -0.206 F 
ATOM     94  C   UNL     1      11.036   8.603  16.170  1.00  0.00     0.059 A 
ATOM     95  C   UNL     1      13.164   7.433  16.112  1.00  0.00     0.059 A 
ATOM     96  F   UNL     1      13.549   5.797  14.480  1.00  0.00    -0.206 F 
ATOM     97  C   UNL     1      12.325   8.398  16.667  1.00  0.00     0.060 A 
BRANCH  97  98
ATOM     98  S   UNL     1      12.888   9.407  18.052  1.00  0.00     0.124 S 
ATOM     99  O   UNL     1      13.117  10.694  17.404  1.00  0.00    -0.237 OA
ATOM    100  O   UNL     1      11.750   9.350  18.965  1.00  0.00    -0.237 OA
ATOM    101  O   UNL     1      14.088   8.713  18.512  1.00  0.00    -0.744 OA
ENDBRANCH  97  98
ENDBRANCH  65  90
ENDBRANCH  39  40
ENDBRANCH  31  34
ENDBRANCH  29  30
ENDBRANCH   1  29
TORSDOF 16
