REMARK SMILES O=C(C[C@H]1SC[C@@H](C(=O)NCCCCNC(=O)c2ccc(-c3c4nc(c(-c5c(F)cc(S(=O)(=O)[O-])cc5F)c5ccc([nH]5)c(-c5c(F)cc(S(=O)(=O)[O-])cc5F)c5nc(c(-c6c(F)cc(S(=O)(=O)[O-])cc6F)c6ccc3[nH]6)C=C5)C=C4)cc2)NC1=O)Nc1cccc(Cl)c1
REMARK SMILES IDX 12 1 11 2 10 3 8 4 9 5 7 7 4 8 5 9 85 10 6 11 84 12 86 13
REMARK SMILES IDX 3 15 2 16 1 17 87 18 88 20 89 21 94 22 90 23 92 24 91 25
REMARK SMILES IDX 93 26 13 27 14 28 15 29 16 30 17 32 18 33 19 34 83 35 20 36
REMARK SMILES IDX 82 37 21 38 22 39 23 40 76 41 24 42 81 43 75 44 77 45 25 46
REMARK SMILES IDX 80 47 74 48 73 49 26 51 60 52 39 53 59 54 40 55 43 56 58 57
REMARK SMILES IDX 78 58 41 59 42 60 57 62 79 63 44 64 27 65 28 66 37 67 29 68
REMARK SMILES IDX 30 69 36 70 38 71 31 72 32 73 33 74 34 75 35 76 61 77 62 78
REMARK SMILES IDX 71 79 63 80 64 81 70 82 72 83 65 84 66 85 67 86 68 87 69 88
REMARK SMILES IDX 45 89 46 90 55 91 47 92 48 93 54 94 56 95 49 96 50 97 51 98
REMARK SMILES IDX 52 99 53 100
REMARK H PARENT 10 6 84 14 87 19 15 31 77 50 43 61
REMARK Flexibility Score: inf
ROOT
ATOM      1  C   UNL     1       5.648  -6.429   2.173  1.00  0.00     0.023 C 
ENDROOT
BRANCH   1   2
ATOM      2  C   UNL     1       5.645  -5.905   3.620  1.00  0.00     0.116 C 
BRANCH   2   3
ATOM      3  N   UNL     1       6.283  -4.602   3.825  1.00  0.00    -0.354 N 
ATOM      4  C   UNL     1       5.852  -3.308   3.952  1.00  0.00     0.243 C 
ATOM      5  O   UNL     1       6.697  -2.495   4.354  1.00  0.00    -0.273 OA
ATOM      6  H   UNL     1       7.263  -4.675   3.888  1.00  0.00     0.163 HD
BRANCH   4   7
ATOM      7  C   UNL     1       4.387  -2.806   3.706  1.00  0.00     0.181 C 
ATOM      8  C   UNL     1       3.603  -1.848   0.868  1.00  0.00     0.145 C 
ATOM      9  S   UNL     1       4.434  -3.417   1.201  1.00  0.00    -0.145 SA
ATOM     10  C   UNL     1       4.195  -0.874   1.919  1.00  0.00     0.234 C 
ATOM     11  C   UNL     1       3.591  -3.668   2.765  1.00  0.00     0.105 C 
ATOM     12  N   UNL     1       4.377  -1.362   3.224  1.00  0.00    -0.343 N 
ATOM     13  O   UNL     1       4.392   0.314   1.676  1.00  0.00    -0.274 OA
ATOM     14  H   UNL     1       4.517  -0.680   3.919  1.00  0.00     0.164 HD
BRANCH   8  15
ATOM     15  C   UNL     1       3.648  -1.615  -0.655  1.00  0.00     0.124 C 
BRANCH  15  16
ATOM     16  C   UNL     1       2.790  -2.665  -1.464  1.00  0.00     0.226 C 
ATOM     17  O   UNL     1       2.032  -2.331  -2.367  1.00  0.00    -0.275 OA
ATOM     18  N   UNL     1       2.967  -3.960  -1.020  1.00  0.00    -0.326 N 
ATOM     19  H   UNL     1       3.692  -4.035  -0.358  1.00  0.00     0.169 HD
BRANCH  18  20
ATOM     20  C   UNL     1       2.359  -5.190  -1.288  1.00  0.00     0.042 A 
ATOM     21  C   UNL     1       2.434  -6.145  -0.250  1.00  0.00     0.026 A 
ATOM     22  C   UNL     1       1.777  -5.536  -2.493  1.00  0.00     0.046 A 
ATOM     23  C   UNL     1       1.932  -7.432  -0.403  1.00  0.00     0.004 A 
ATOM     24  C   UNL     1       1.319  -6.849  -2.662  1.00  0.00     0.043 A 
ATOM     25  C   UNL     1       1.385  -7.791  -1.626  1.00  0.00     0.020 A 
ATOM     26  Cl  UNL     1       0.696  -7.345  -4.188  1.00  0.00    -0.084 Cl
ENDBRANCH  18  20
ENDBRANCH  15  16
ENDBRANCH   8  15
ENDBRANCH   4   7
ENDBRANCH   2   3
ENDBRANCH   1   2
BRANCH   1  27
ATOM     27  C   UNL     1       7.008  -6.811   1.597  1.00  0.00     0.023 C 
BRANCH  27  28
ATOM     28  C   UNL     1       7.641  -8.004   2.285  1.00  0.00     0.116 C 
BRANCH  28  29
ATOM     29  N   UNL     1       6.798  -9.191   2.240  1.00  0.00    -0.352 N 
ATOM     30  C   UNL     1       7.176 -10.507   2.193  1.00  0.00     0.251 C 
ATOM     31  H   UNL     1       5.827  -9.025   2.242  1.00  0.00     0.163 HD
ATOM     32  O   UNL     1       6.326 -11.380   2.028  1.00  0.00    -0.269 OA
BRANCH  30  33
ATOM     33  C   UNL     1       8.606 -10.854   2.305  1.00  0.00     0.039 A 
ATOM     34  C   UNL     1       9.134 -11.816   1.443  1.00  0.00     0.014 A 
ATOM     35  C   UNL     1       9.426 -10.211   3.236  1.00  0.00     0.014 A 
ATOM     36  C   UNL     1      10.498 -12.103   1.492  1.00  0.00     0.010 A 
ATOM     37  C   UNL     1      10.797 -10.421   3.210  1.00  0.00     0.010 A 
ATOM     38  C   UNL     1      11.343 -11.389   2.358  1.00  0.00    -0.014 A 
BRANCH  38  39
ATOM     39  C   UNL     1      12.797 -11.675   2.417  1.00  0.00     0.031 A 
ATOM     40  C   UNL     1      13.410 -12.182   3.694  1.00  0.00     0.074 A 
ATOM     41  C   UNL     1      13.566 -11.434   1.339  1.00  0.00     0.049 A 
ATOM     42  N   UNL     1      14.660 -12.462   3.955  1.00  0.00    -0.248 NA
ATOM     43  C   UNL     1      12.504 -12.366   4.841  1.00  0.00     0.031 C 
ATOM     44  C   UNL     1      13.094 -10.877   0.069  1.00  0.00     0.029 A 
ATOM     45  N   UNL     1      14.910 -11.621   1.141  1.00  0.00    -0.354 N 
ATOM     46  C   UNL     1      14.690 -12.850   5.290  1.00  0.00     0.074 A 
ATOM     47  C   UNL     1      13.349 -12.689   5.807  1.00  0.00     0.031 C 
ATOM     48  C   UNL     1      14.127 -10.792  -0.784  1.00  0.00     0.029 A 
ATOM     49  C   UNL     1      15.338 -11.253  -0.112  1.00  0.00     0.049 A 
ATOM     50  H   UNL     1      15.511 -11.983   1.831  1.00  0.00     0.167 HD
ATOM     51  C   UNL     1      15.730 -13.331   6.010  1.00  0.00     0.037 A 
ATOM     52  C   UNL     1      16.570 -11.282  -0.657  1.00  0.00     0.037 A 
ATOM     53  C   UNL     1      17.058 -13.497   5.482  1.00  0.00     0.049 A 
ATOM     54  C   UNL     1      17.712 -11.828   0.156  1.00  0.00     0.074 A 
ATOM     55  C   UNL     1      18.177 -14.014   6.110  1.00  0.00     0.029 A 
ATOM     56  N   UNL     1      17.448 -13.146   4.196  1.00  0.00    -0.354 N 
ATOM     57  N   UNL     1      17.710 -12.257   1.396  1.00  0.00    -0.248 NA
ATOM     58  C   UNL     1      19.018 -11.912  -0.509  1.00  0.00     0.031 C 
ATOM     59  C   UNL     1      19.254 -13.930   5.221  1.00  0.00     0.029 A 
ATOM     60  C   UNL     1      18.794 -13.418   4.017  1.00  0.00     0.049 A 
ATOM     61  H   UNL     1      16.854 -12.759   3.512  1.00  0.00     0.167 HD
ATOM     62  C   UNL     1      19.008 -12.684   1.653  1.00  0.00     0.074 A 
ATOM     63  C   UNL     1      19.761 -12.477   0.433  1.00  0.00     0.031 C 
ATOM     64  C   UNL     1      19.529 -13.204   2.794  1.00  0.00     0.037 A 
BRANCH  51  65
ATOM     65  C   UNL     1      15.461 -13.713   7.442  1.00  0.00     0.058 A 
ATOM     66  C   UNL     1      14.630 -14.798   7.772  1.00  0.00     0.135 A 
ATOM     67  C   UNL     1      16.037 -12.990   8.499  1.00  0.00     0.135 A 
ATOM     68  F   UNL     1      14.037 -15.516   6.805  1.00  0.00    -0.206 F 
ATOM     69  C   UNL     1      14.341 -15.120   9.094  1.00  0.00     0.059 A 
ATOM     70  C   UNL     1      15.791 -13.317   9.829  1.00  0.00     0.059 A 
ATOM     71  F   UNL     1      16.840 -11.945   8.245  1.00  0.00    -0.206 F 
ATOM     72  C   UNL     1      14.924 -14.371  10.117  1.00  0.00     0.060 A 
BRANCH  72  73
ATOM     73  S   UNL     1      14.522 -14.789  11.825  1.00  0.00     0.124 S 
ATOM     74  O   UNL     1      13.144 -14.316  11.923  1.00  0.00    -0.237 OA
ATOM     75  O   UNL     1      14.696 -16.238  11.841  1.00  0.00    -0.237 OA
ATOM     76  O   UNL     1      15.501 -14.034  12.600  1.00  0.00    -0.744 OA
ENDBRANCH  72  73
ENDBRANCH  51  65
BRANCH  52  77
ATOM     77  C   UNL     1      16.768 -10.802  -2.050  1.00  0.00     0.058 A 
ATOM     78  C   UNL     1      17.049 -11.694  -3.095  1.00  0.00     0.135 A 
ATOM     79  C   UNL     1      16.641  -9.441  -2.370  1.00  0.00     0.135 A 
ATOM     80  F   UNL     1      17.184 -13.005  -2.840  1.00  0.00    -0.206 F 
ATOM     81  C   UNL     1      17.207 -11.255  -4.405  1.00  0.00     0.059 A 
ATOM     82  C   UNL     1      16.767  -8.981  -3.677  1.00  0.00     0.059 A 
ATOM     83  F   UNL     1      16.353  -8.548  -1.410  1.00  0.00    -0.206 F 
ATOM     84  C   UNL     1      17.057  -9.896  -4.687  1.00  0.00     0.060 A 
BRANCH  84  85
ATOM     85  S   UNL     1      17.198  -9.347  -6.402  1.00  0.00     0.124 S 
ATOM     86  O   UNL     1      18.630  -9.489  -6.640  1.00  0.00    -0.237 OA
ATOM     87  O   UNL     1      16.337 -10.298  -7.098  1.00  0.00    -0.237 OA
ATOM     88  O   UNL     1      16.698  -7.976  -6.357  1.00  0.00    -0.744 OA
ENDBRANCH  84  85
ENDBRANCH  52  77
BRANCH  64  89
ATOM     89  C   UNL     1      20.975 -13.619   2.765  1.00  0.00     0.058 A 
ATOM     90  C   UNL     1      22.017 -12.680   2.711  1.00  0.00     0.135 A 
ATOM     91  C   UNL     1      21.322 -14.979   2.833  1.00  0.00     0.135 A 
ATOM     92  F   UNL     1      21.741 -11.368   2.641  1.00  0.00    -0.206 F 
ATOM     93  C   UNL     1      23.350 -13.075   2.688  1.00  0.00     0.059 A 
ATOM     94  C   UNL     1      22.649 -15.394   2.845  1.00  0.00     0.059 A 
ATOM     95  F   UNL     1      20.366 -15.919   2.902  1.00  0.00    -0.206 F 
ATOM     96  C   UNL     1      23.657 -14.435   2.755  1.00  0.00     0.060 A 
BRANCH  96  97
ATOM     97  S   UNL     1      25.391 -14.933   2.740  1.00  0.00     0.124 S 
ATOM     98  O   UNL     1      25.755 -14.689   1.349  1.00  0.00    -0.237 OA
ATOM     99  O   UNL     1      25.984 -14.028   3.720  1.00  0.00    -0.237 OA
ATOM    100  O   UNL     1      25.346 -16.337   3.140  1.00  0.00    -0.744 OA
ENDBRANCH  96  97
ENDBRANCH  64  89
ENDBRANCH  38  39
ENDBRANCH  30  33
ENDBRANCH  28  29
ENDBRANCH  27  28
ENDBRANCH   1  27
TORSDOF 17
