REMARK SMILES COC(=O)[C@@H]1[C@@H](NC(=O)COCC(=O)NCCCCNC(=O)c2ccc(-c3c4nc(c(-c5c(F)cc(S(=O)(=O)[O-])cc5F)c5ccc([nH]5)c(-c5c(F)cc(S(=O)(=O)[O-])cc5F)c5nc(c(-c6c(F)cc(S(=O)(=O)[O-])cc6F)c6ccc3[nH]6)C=C5)C=C4)cc2)CCN1C(C)=O
REMARK SMILES IDX 16 1 15 2 13 3 14 4 12 6 11 7 10 8 8 9 7 10 9 12 6 13 5 14
REMARK SMILES IDX 91 15 89 16 90 17 3 18 4 19 2 20 1 21 92 22 93 23 94 24
REMARK SMILES IDX 17 25 18 26 19 27 20 28 21 29 22 31 23 32 24 33 88 34 25 35
REMARK SMILES IDX 87 36 26 37 27 38 28 39 81 40 29 41 86 42 80 43 82 44 30 45
REMARK SMILES IDX 85 46 79 47 78 48 31 50 65 51 44 52 64 53 45 54 48 55 63 56
REMARK SMILES IDX 83 57 46 58 47 59 62 61 84 62 49 63 32 64 33 65 42 66 34 67
REMARK SMILES IDX 35 68 41 69 43 70 36 71 37 72 38 73 39 74 40 75 66 76 67 77
REMARK SMILES IDX 76 78 68 79 69 80 75 81 77 82 70 83 71 84 72 85 73 86 74 87
REMARK SMILES IDX 50 88 51 89 60 90 52 91 53 92 59 93 61 94 54 95 55 96 56 97
REMARK SMILES IDX 57 98 58 99
REMARK H PARENT 15 5 7 11 20 30 82 49 48 60
REMARK Flexibility Score: inf
ROOT
ATOM      1  C   UNL     1      -0.494  -1.477  -0.670  1.00  0.00     0.116 C 
ENDROOT
BRANCH   1   2
ATOM      2  N   UNL     1      -1.166  -0.412  -1.391  1.00  0.00    -0.354 N 
ATOM      3  C   UNL     1      -1.359   0.888  -1.025  1.00  0.00     0.246 C 
ATOM      4  O   UNL     1      -1.968   1.635  -1.792  1.00  0.00    -0.272 OA
ATOM      5  H   UNL     1      -1.536  -0.663  -2.268  1.00  0.00     0.163 HD
BRANCH   3   6
ATOM      6  C   UNL     1      -0.739   1.417   0.267  1.00  0.00     0.260 C 
BRANCH   6   7
ATOM      7  O   UNL     1      -0.923   0.587   1.408  1.00  0.00    -0.362 OA
BRANCH   7   8
ATOM      8  C   UNL     1      -1.750   1.169   2.403  1.00  0.00     0.260 C 
BRANCH   8   9
ATOM      9  C   UNL     1      -1.105   2.380   3.064  1.00  0.00     0.246 C 
ATOM     10  N   UNL     1       0.142   2.327   3.600  1.00  0.00    -0.349 N 
ATOM     11  H   UNL     1       0.567   3.214   3.640  1.00  0.00     0.163 HD
ATOM     12  O   UNL     1      -1.677   3.473   3.080  1.00  0.00    -0.272 OA
BRANCH  10  13
ATOM     13  C   UNL     1       1.010   1.272   4.134  1.00  0.00     0.118 C 
ATOM     14  C   UNL     1       0.929  -0.218   3.715  1.00  0.00     0.217 C 
ATOM     15  N   UNL     1       1.233  -0.950   4.969  1.00  0.00    -0.327 N 
ATOM     16  C   UNL     1       0.845   1.228   5.659  1.00  0.00     0.049 C 
ATOM     17  C   UNL     1       1.548  -0.052   6.056  1.00  0.00     0.122 C 
BRANCH  14  18
ATOM     18  C   UNL     1       2.024  -0.557   2.681  1.00  0.00     0.330 C 
ATOM     19  O   UNL     1       2.827  -1.479   2.770  1.00  0.00    -0.250 OA
BRANCH  18  20
ATOM     20  O   UNL     1       1.986   0.299   1.621  1.00  0.00    -0.467 OA
ATOM     21  C   UNL     1       2.866  -0.058   0.552  1.00  0.00     0.282 C 
ENDBRANCH  18  20
ENDBRANCH  14  18
BRANCH  15  22
ATOM     22  C   UNL     1       1.103  -2.319   5.044  1.00  0.00     0.220 C 
ATOM     23  C   UNL     1       1.820  -3.006   6.180  1.00  0.00     0.114 C 
ATOM     24  O   UNL     1       0.511  -2.965   4.181  1.00  0.00    -0.275 OA
ENDBRANCH  15  22
ENDBRANCH  10  13
ENDBRANCH   8   9
ENDBRANCH   7   8
ENDBRANCH   6   7
ENDBRANCH   3   6
ENDBRANCH   1   2
BRANCH   1  25
ATOM     25  C   UNL     1      -1.469  -2.416   0.039  1.00  0.00     0.023 C 
BRANCH  25  26
ATOM     26  C   UNL     1      -2.554  -3.012  -0.860  1.00  0.00     0.023 C 
BRANCH  26  27
ATOM     27  C   UNL     1      -2.052  -3.699  -2.124  1.00  0.00     0.116 C 
BRANCH  27  28
ATOM     28  N   UNL     1      -1.324  -4.930  -1.860  1.00  0.00    -0.352 N 
ATOM     29  C   UNL     1      -1.453  -6.141  -2.505  1.00  0.00     0.251 C 
ATOM     30  H   UNL     1      -0.660  -4.894  -1.135  1.00  0.00     0.163 HD
ATOM     31  O   UNL     1      -0.851  -7.133  -2.107  1.00  0.00    -0.269 OA
BRANCH  29  32
ATOM     32  C   UNL     1      -2.367  -6.237  -3.665  1.00  0.00     0.039 A 
ATOM     33  C   UNL     1      -3.382  -7.197  -3.655  1.00  0.00     0.014 A 
ATOM     34  C   UNL     1      -2.264  -5.326  -4.719  1.00  0.00     0.014 A 
ATOM     35  C   UNL     1      -4.348  -7.191  -4.666  1.00  0.00     0.010 A 
ATOM     36  C   UNL     1      -3.263  -5.281  -5.687  1.00  0.00     0.010 A 
ATOM     37  C   UNL     1      -4.321  -6.205  -5.666  1.00  0.00    -0.014 A 
BRANCH  37  38
ATOM     38  C   UNL     1      -5.379  -6.104  -6.706  1.00  0.00     0.031 A 
ATOM     39  C   UNL     1      -5.007  -6.267  -8.155  1.00  0.00     0.074 A 
ATOM     40  C   UNL     1      -6.635  -5.752  -6.365  1.00  0.00     0.049 A 
ATOM     41  N   UNL     1      -5.716  -6.015  -9.224  1.00  0.00    -0.248 NA
ATOM     42  C   UNL     1      -3.643  -6.745  -8.438  1.00  0.00     0.031 C 
ATOM     43  C   UNL     1      -7.115  -5.527  -4.999  1.00  0.00     0.029 A 
ATOM     44  N   UNL     1      -7.735  -5.488  -7.146  1.00  0.00    -0.354 N 
ATOM     45  C   UNL     1      -4.874  -6.260 -10.302  1.00  0.00     0.074 A 
ATOM     46  C   UNL     1      -3.594  -6.659  -9.759  1.00  0.00     0.031 C 
ATOM     47  C   UNL     1      -8.406  -5.156  -5.040  1.00  0.00     0.029 A 
ATOM     48  C   UNL     1      -8.836  -5.073  -6.432  1.00  0.00     0.049 A 
ATOM     49  H   UNL     1      -7.735  -5.587  -8.126  1.00  0.00     0.167 HD
ATOM     50  C   UNL     1      -5.148  -6.171 -11.625  1.00  0.00     0.037 A 
ATOM     51  C   UNL     1     -10.044  -4.647  -6.852  1.00  0.00     0.037 A 
ATOM     52  C   UNL     1      -6.440  -5.832 -12.159  1.00  0.00     0.049 A 
ATOM     53  C   UNL     1     -10.334  -4.592  -8.329  1.00  0.00     0.074 A 
ATOM     54  C   UNL     1      -6.835  -5.788 -13.485  1.00  0.00     0.029 A 
ATOM     55  N   UNL     1      -7.548  -5.492 -11.399  1.00  0.00    -0.354 N 
ATOM     56  N   UNL     1      -9.540  -4.875  -9.334  1.00  0.00    -0.248 NA
ATOM     57  C   UNL     1     -11.681  -4.161  -8.733  1.00  0.00     0.031 C 
ATOM     58  C   UNL     1      -8.175  -5.394 -13.528  1.00  0.00     0.029 A 
ATOM     59  C   UNL     1      -8.625  -5.230 -12.227  1.00  0.00     0.049 A 
ATOM     60  H   UNL     1      -7.565  -5.444 -10.415  1.00  0.00     0.167 HD
ATOM     61  C   UNL     1     -10.302  -4.692 -10.483  1.00  0.00     0.074 A 
ATOM     62  C   UNL     1     -11.619  -4.274 -10.053  1.00  0.00     0.031 C 
ATOM     63  C   UNL     1      -9.941  -4.857 -11.779  1.00  0.00     0.037 A 
BRANCH  50  64
ATOM     64  C   UNL     1      -4.037  -6.453 -12.596  1.00  0.00     0.058 A 
ATOM     65  C   UNL     1      -3.572  -7.757 -12.824  1.00  0.00     0.135 A 
ATOM     66  C   UNL     1      -3.480  -5.413 -13.358  1.00  0.00     0.135 A 
ATOM     67  F   UNL     1      -4.061  -8.783 -12.109  1.00  0.00    -0.206 F 
ATOM     68  C   UNL     1      -2.583  -8.020 -13.765  1.00  0.00     0.059 A 
ATOM     69  C   UNL     1      -2.506  -5.657 -14.322  1.00  0.00     0.059 A 
ATOM     70  F   UNL     1      -3.888  -4.147 -13.176  1.00  0.00    -0.206 F 
ATOM     71  C   UNL     1      -2.059  -6.963 -14.512  1.00  0.00     0.060 A 
BRANCH  71  72
ATOM     72  S   UNL     1      -0.800  -7.327 -15.754  1.00  0.00     0.124 S 
ATOM     73  O   UNL     1       0.371  -7.570 -14.918  1.00  0.00    -0.237 OA
ATOM     74  O   UNL     1      -1.352  -8.498 -16.426  1.00  0.00    -0.237 OA
ATOM     75  O   UNL     1      -0.755  -6.109 -16.558  1.00  0.00    -0.744 OA
ENDBRANCH  71  72
ENDBRANCH  50  64
BRANCH  51  76
ATOM     76  C   UNL     1     -11.079  -4.233  -5.867  1.00  0.00     0.058 A 
ATOM     77  C   UNL     1     -12.227  -5.011  -5.656  1.00  0.00     0.135 A 
ATOM     78  C   UNL     1     -10.955  -3.042  -5.134  1.00  0.00     0.135 A 
ATOM     79  F   UNL     1     -12.395  -6.155  -6.338  1.00  0.00    -0.206 F 
ATOM     80  C   UNL     1     -13.230  -4.611  -4.779  1.00  0.00     0.059 A 
ATOM     81  C   UNL     1     -11.932  -2.633  -4.232  1.00  0.00     0.059 A 
ATOM     82  F   UNL     1      -9.867  -2.270  -5.285  1.00  0.00    -0.206 F 
ATOM     83  C   UNL     1     -13.075  -3.416  -4.074  1.00  0.00     0.060 A 
BRANCH  83  84
ATOM     84  S   UNL     1     -14.374  -2.910  -2.925  1.00  0.00     0.124 S 
ATOM     85  O   UNL     1     -15.395  -2.412  -3.839  1.00  0.00    -0.237 OA
ATOM     86  O   UNL     1     -14.686  -4.160  -2.240  1.00  0.00    -0.237 OA
ATOM     87  O   UNL     1     -13.715  -1.901  -2.101  1.00  0.00    -0.744 OA
ENDBRANCH  83  84
ENDBRANCH  51  76
BRANCH  63  88
ATOM     88  C   UNL     1     -10.991  -4.654 -12.833  1.00  0.00     0.058 A 
ATOM     89  C   UNL     1     -11.398  -3.373 -13.233  1.00  0.00     0.135 A 
ATOM     90  C   UNL     1     -11.517  -5.759 -13.523  1.00  0.00     0.135 A 
ATOM     91  F   UNL     1     -10.929  -2.287 -12.599  1.00  0.00    -0.206 F 
ATOM     92  C   UNL     1     -12.292  -3.193 -14.284  1.00  0.00     0.059 A 
ATOM     93  C   UNL     1     -12.395  -5.601 -14.590  1.00  0.00     0.059 A 
ATOM     94  F   UNL     1     -11.152  -7.005 -13.182  1.00  0.00    -0.206 F 
ATOM     95  C   UNL     1     -12.778  -4.313 -14.962  1.00  0.00     0.060 A 
BRANCH  95  96
ATOM     96  S   UNL     1     -13.874  -4.064 -16.375  1.00  0.00     0.124 S 
ATOM     97  O   UNL     1     -15.129  -3.718 -15.717  1.00  0.00    -0.237 OA
ATOM     98  O   UNL     1     -13.215  -2.978 -17.095  1.00  0.00    -0.237 OA
ATOM     99  O   UNL     1     -13.854  -5.357 -17.052  1.00  0.00    -0.744 OA
ENDBRANCH  95  96
ENDBRANCH  63  88
ENDBRANCH  37  38
ENDBRANCH  29  32
ENDBRANCH  27  28
ENDBRANCH  26  27
ENDBRANCH  25  26
ENDBRANCH   1  25
TORSDOF 21
