REMARK SMILES C[C@H](C(=O)NCCCCNC(=O)c1ccc(-c2c3nc(c(-c4c(F)cc(S(=O)(=O)[O-])cc4F)c4ccc([nH]4)c(-c4c(F)cc(S(=O)(=O)[O-])cc4F)c4nc(c(-c5c(F)cc(S(=O)(=O)[O-])cc5F)c5ccc2[nH]5)C=C4)C=C3)cc1)[C@@H](C)Sc1ccc2c(c1)OCCCO2
REMARK SMILES IDX 6 1 5 2 3 3 4 4 2 6 1 7 79 8 80 9 81 10 82 11 83 12 87 13
REMARK SMILES IDX 84 14 86 15 85 16 88 17 89 18 90 19 92 21 91 22 7 24 8 25
REMARK SMILES IDX 9 26 10 27 11 28 12 30 13 31 14 32 78 33 15 34 77 35 16 36
REMARK SMILES IDX 17 37 18 38 71 39 19 40 76 41 70 42 72 43 20 44 75 45 69 46
REMARK SMILES IDX 68 47 21 49 55 50 34 51 54 52 35 53 38 54 53 55 73 56 36 57
REMARK SMILES IDX 37 58 52 60 74 61 39 62 22 63 23 64 32 65 24 66 25 67 31 68
REMARK SMILES IDX 33 69 26 70 27 71 28 72 29 73 30 74 56 75 57 76 66 77 58 78
REMARK SMILES IDX 59 79 65 80 67 81 60 82 61 83 62 84 63 85 64 86 40 87 41 88
REMARK SMILES IDX 50 89 42 90 43 91 49 92 51 93 44 94 45 95 46 96 47 97 48 98
REMARK H PARENT 5 5 10 29 72 48 38 59
REMARK Flexibility Score: 90.00
ROOT
ATOM      1  C   UNL     1      -1.541  -0.947  -0.917  1.00  0.00     0.116 C 
ENDROOT
BRANCH   1   2
ATOM      2  N   UNL     1      -0.120  -0.814  -0.677  1.00  0.00    -0.356 N 
ATOM      3  C   UNL     1       0.566  -0.014   0.185  1.00  0.00     0.223 C 
ATOM      4  O   UNL     1       1.767  -0.276   0.330  1.00  0.00    -0.275 OA
ATOM      5  H   UNL     1       0.445  -1.401  -1.229  1.00  0.00     0.163 HD
BRANCH   3   6
ATOM      6  C   UNL     1      -0.005   1.238   0.890  1.00  0.00     0.088 C 
ATOM      7  C   UNL     1       0.410   2.443   0.034  1.00  0.00     0.019 C 
BRANCH   6   8
ATOM      8  C   UNL     1      -1.496   1.219   1.306  1.00  0.00     0.061 C 
ATOM      9  C   UNL     1      -1.923   0.016   2.148  1.00  0.00     0.020 C 
BRANCH   8  10
ATOM     10  S   UNL     1      -2.309   2.716   2.016  1.00  0.00    -0.122 SA
BRANCH  10  11
ATOM     11  C   UNL     1      -1.460   3.090   3.536  1.00  0.00     0.011 A 
ATOM     12  C   UNL     1      -0.401   2.361   4.088  1.00  0.00     0.019 A 
ATOM     13  C   UNL     1      -1.817   4.315   4.113  1.00  0.00     0.065 A 
ATOM     14  C   UNL     1       0.447   2.946   5.025  1.00  0.00     0.051 A 
ATOM     15  C   UNL     1      -0.964   4.908   5.027  1.00  0.00     0.162 A 
ATOM     16  C   UNL     1       0.214   4.263   5.389  1.00  0.00     0.161 A 
BRANCH  15  17
ATOM     17  O   UNL     1      -1.190   6.193   5.439  1.00  0.00    -0.490 OA
BRANCH  17  18
ATOM     18  C   UNL     1      -0.551   7.095   4.535  1.00  0.00     0.233 C 
BRANCH  18  19
ATOM     19  C   UNL     1       0.967   7.178   4.720  1.00  0.00     0.083 CG0
ATOM     20  G   UNL     1       1.698   5.835   4.745  1.00  0.00     0.000 G0
ENDBRANCH  18  19
ENDBRANCH  17  18
ENDBRANCH  15  17
BRANCH  16  21
ATOM     21  O   UNL     1       1.274   5.006   5.849  1.00  0.00    -0.490 OA
BRANCH  21  22
ATOM     22  C   UNL     1       1.698   5.835   4.745  1.00  0.00     0.233 CG0
ATOM     23  G   UNL     1       0.967   7.178   4.720  1.00  0.00     0.000 G0
ENDBRANCH  21  22
ENDBRANCH  16  21
ENDBRANCH  10  11
ENDBRANCH   8  10
ENDBRANCH   6   8
ENDBRANCH   3   6
ENDBRANCH   1   2
BRANCH   1  24
ATOM     24  C   UNL     1      -1.946  -1.729  -2.156  1.00  0.00     0.023 C 
BRANCH  24  25
ATOM     25  C   UNL     1      -1.551  -3.198  -2.199  1.00  0.00     0.023 C 
BRANCH  25  26
ATOM     26  C   UNL     1      -1.794  -4.005  -0.929  1.00  0.00     0.116 C 
BRANCH  26  27
ATOM     27  N   UNL     1      -3.181  -4.007  -0.474  1.00  0.00    -0.352 N 
ATOM     28  C   UNL     1      -4.058  -5.064  -0.331  1.00  0.00     0.251 C 
ATOM     29  H   UNL     1      -3.545  -3.125  -0.233  1.00  0.00     0.163 HD
ATOM     30  O   UNL     1      -5.212  -4.875   0.019  1.00  0.00    -0.269 OA
BRANCH  28  31
ATOM     31  C   UNL     1      -3.586  -6.423  -0.663  1.00  0.00     0.039 A 
ATOM     32  C   UNL     1      -4.256  -7.151  -1.649  1.00  0.00     0.014 A 
ATOM     33  C   UNL     1      -2.414  -6.913  -0.087  1.00  0.00     0.014 A 
ATOM     34  C   UNL     1      -3.675  -8.316  -2.154  1.00  0.00     0.010 A 
ATOM     35  C   UNL     1      -1.795  -8.019  -0.655  1.00  0.00     0.010 A 
ATOM     36  C   UNL     1      -2.407  -8.718  -1.709  1.00  0.00    -0.014 A 
BRANCH  36  37
ATOM     37  C   UNL     1      -1.667  -9.845  -2.334  1.00  0.00     0.031 A 
ATOM     38  C   UNL     1      -1.246 -11.011  -1.487  1.00  0.00     0.074 A 
ATOM     39  C   UNL     1      -1.251  -9.752  -3.613  1.00  0.00     0.049 A 
ATOM     40  N   UNL     1      -0.414 -11.980  -1.765  1.00  0.00    -0.248 NA
ATOM     41  C   UNL     1      -1.798 -11.062  -0.124  1.00  0.00     0.031 C 
ATOM     42  C   UNL     1      -1.544  -8.644  -4.525  1.00  0.00     0.029 A 
ATOM     43  N   UNL     1      -0.461 -10.592  -4.359  1.00  0.00    -0.354 N 
ATOM     44  C   UNL     1      -0.303 -12.725  -0.598  1.00  0.00     0.074 A 
ATOM     45  C   UNL     1      -1.123 -12.073   0.400  1.00  0.00     0.031 C 
ATOM     46  C   UNL     1      -0.949  -8.876  -5.707  1.00  0.00     0.029 A 
ATOM     47  C   UNL     1      -0.195 -10.123  -5.624  1.00  0.00     0.049 A 
ATOM     48  H   UNL     1      -0.117 -11.450  -4.020  1.00  0.00     0.167 HD
ATOM     49  C   UNL     1       0.406 -13.858  -0.382  1.00  0.00     0.037 A 
ATOM     50  C   UNL     1       0.584 -10.628  -6.601  1.00  0.00     0.037 A 
ATOM     51  C   UNL     1       1.177 -14.528  -1.395  1.00  0.00     0.049 A 
ATOM     52  C   UNL     1       1.315 -11.919  -6.364  1.00  0.00     0.074 A 
ATOM     53  C   UNL     1       1.868 -15.722  -1.302  1.00  0.00     0.029 A 
ATOM     54  N   UNL     1       1.350 -14.063  -2.691  1.00  0.00    -0.354 N 
ATOM     55  N   UNL     1       1.370 -12.642  -5.271  1.00  0.00    -0.248 NA
ATOM     56  C   UNL     1       2.086 -12.468  -7.488  1.00  0.00     0.031 C 
ATOM     57  C   UNL     1       2.481 -15.968  -2.535  1.00  0.00     0.029 A 
ATOM     58  C   UNL     1       2.142 -14.944  -3.407  1.00  0.00     0.049 A 
ATOM     59  H   UNL     1       0.967 -13.229  -3.048  1.00  0.00     0.167 HD
ATOM     60  C   UNL     1       2.159 -13.743  -5.582  1.00  0.00     0.074 A 
ATOM     61  C   UNL     1       2.559 -13.593  -6.966  1.00  0.00     0.031 C 
ATOM     62  C   UNL     1       2.515 -14.786  -4.792  1.00  0.00     0.037 A 
BRANCH  49  63
ATOM     63  C   UNL     1       0.379 -14.426   1.009  1.00  0.00     0.058 A 
ATOM     64  C   UNL     1      -0.781 -15.009   1.546  1.00  0.00     0.135 A 
ATOM     65  C   UNL     1       1.518 -14.360   1.827  1.00  0.00     0.135 A 
ATOM     66  F   UNL     1      -1.902 -15.083   0.811  1.00  0.00    -0.206 F 
ATOM     67  C   UNL     1      -0.829 -15.451   2.863  1.00  0.00     0.059 A 
ATOM     68  C   UNL     1       1.502 -14.825   3.139  1.00  0.00     0.059 A 
ATOM     69  F   UNL     1       2.654 -13.817   1.363  1.00  0.00    -0.206 F 
ATOM     70  C   UNL     1       0.315 -15.343   3.656  1.00  0.00     0.060 A 
BRANCH  70  71
ATOM     71  S   UNL     1       0.229 -15.875   5.378  1.00  0.00     0.124 S 
ATOM     72  O   UNL     1      -0.451 -14.740   5.996  1.00  0.00    -0.237 OA
ATOM     73  O   UNL     1      -0.548 -17.107   5.291  1.00  0.00    -0.237 OA
ATOM     74  O   UNL     1       1.630 -16.047   5.749  1.00  0.00    -0.744 OA
ENDBRANCH  70  71
ENDBRANCH  49  63
BRANCH  50  75
ATOM     75  C   UNL     1       0.679  -9.914  -7.902  1.00  0.00     0.058 A 
ATOM     76  C   UNL     1      -0.003 -10.388  -9.031  1.00  0.00     0.135 A 
ATOM     77  C   UNL     1       1.395  -8.713  -8.025  1.00  0.00     0.135 A 
ATOM     78  F   UNL     1      -0.695 -11.535  -8.963  1.00  0.00    -0.206 F 
ATOM     79  C   UNL     1       0.014  -9.695 -10.237  1.00  0.00     0.059 A 
ATOM     80  C   UNL     1       1.413  -7.992  -9.215  1.00  0.00     0.059 A 
ATOM     81  F   UNL     1       2.050  -8.210  -6.967  1.00  0.00    -0.206 F 
ATOM     82  C   UNL     1       0.718  -8.491 -10.316  1.00  0.00     0.060 A 
BRANCH  82  83
ATOM     83  S   UNL     1       0.651  -7.549 -11.857  1.00  0.00     0.124 S 
ATOM     84  O   UNL     1       1.536  -8.325 -12.716  1.00  0.00    -0.237 OA
ATOM     85  O   UNL     1      -0.770  -7.603 -12.188  1.00  0.00    -0.237 OA
ATOM     86  O   UNL     1       1.143  -6.232 -11.464  1.00  0.00    -0.744 OA
ENDBRANCH  82  83
ENDBRANCH  50  75
BRANCH  62  87
ATOM     87  C   UNL     1       3.345 -15.876  -5.407  1.00  0.00     0.058 A 
ATOM     88  C   UNL     1       4.721 -15.719  -5.624  1.00  0.00     0.135 A 
ATOM     89  C   UNL     1       2.769 -17.124  -5.693  1.00  0.00     0.135 A 
ATOM     90  F   UNL     1       5.316 -14.543  -5.373  1.00  0.00    -0.206 F 
ATOM     91  C   UNL     1       5.501 -16.765  -6.107  1.00  0.00     0.059 A 
ATOM     92  C   UNL     1       3.533 -18.189  -6.157  1.00  0.00     0.059 A 
ATOM     93  F   UNL     1       1.456 -17.325  -5.494  1.00  0.00    -0.206 F 
ATOM     94  C   UNL     1       4.898 -17.999  -6.364  1.00  0.00     0.060 A 
BRANCH  94  95
ATOM     95  S   UNL     1       5.931 -19.370  -6.923  1.00  0.00     0.124 S 
ATOM     96  O   UNL     1       6.155 -19.019  -8.321  1.00  0.00    -0.237 OA
ATOM     97  O   UNL     1       7.095 -19.264  -6.048  1.00  0.00    -0.237 OA
ATOM     98  O   UNL     1       5.091 -20.542  -6.697  1.00  0.00    -0.744 OA
ENDBRANCH  94  95
ENDBRANCH  62  87
ENDBRANCH  36  37
ENDBRANCH  28  31
ENDBRANCH  26  27
ENDBRANCH  25  26
ENDBRANCH  24  25
ENDBRANCH   1  24
TORSDOF 17
