REMARK SMILES C[C@](NC(=O)N1CCC[NH2+]CC1)(C(=O)NCCCCNC(=O)c1ccc(-c2c3nc(c(-c4c(F)cc(S(=O)(=O)[O-])cc4F)c4ccc([nH]4)c(-c4c(F)cc(S(=O)(=O)[O-])cc4F)c4nc(c(-c5c(F)cc(S(=O)(=O)[O-])cc5F)c5ccc2[nH]5)C=C4)C=C3)cc1)C(F)(F)F
REMARK SMILES IDX 16 1 15 2 13 3 14 4 2 6 1 7 89 8 90 9 91 10 92 11 3 12 4 13
REMARK SMILES IDX 5 15 6 16 7 17 8 18 12 20 11 21 10 22 9 25 17 27 18 28 19 29
REMARK SMILES IDX 20 30 21 31 22 33 23 34 24 35 88 36 25 37 87 38 26 39 27 40
REMARK SMILES IDX 28 41 81 42 29 43 86 44 80 45 82 46 30 47 85 48 79 49 78 50
REMARK SMILES IDX 31 52 65 53 44 54 64 55 45 56 48 57 63 58 83 59 46 60 47 61
REMARK SMILES IDX 62 63 84 64 49 65 32 66 33 67 42 68 34 69 35 70 41 71 43 72
REMARK SMILES IDX 36 73 37 74 38 75 39 76 40 77 66 78 67 79 76 80 68 81 69 82
REMARK SMILES IDX 75 83 77 84 70 85 71 86 72 87 73 88 74 89 50 90 51 91 60 92
REMARK SMILES IDX 52 93 53 94 59 95 61 96 54 97 55 98 56 99 57 100 58 101
REMARK H PARENT 15 5 3 14 10 23 10 24 20 32 82 51 48 62
REMARK Flexibility Score: 80.00
ROOT
ATOM      1  C   UNL     1      -0.739   1.736   1.342  1.00  0.00     0.116 C 
ENDROOT
BRANCH   1   2
ATOM      2  N   UNL     1      -1.453   0.487   1.150  1.00  0.00    -0.354 N 
ATOM      3  C   UNL     1      -1.044  -0.806   1.039  1.00  0.00     0.255 C 
ATOM      4  O   UNL     1      -1.909  -1.575   0.610  1.00  0.00    -0.272 OA
ATOM      5  H   UNL     1      -2.429   0.598   1.087  1.00  0.00     0.163 HD
BRANCH   3   6
ATOM      6  C   UNL     1       0.416  -1.254   1.291  1.00  0.00     0.213 C 
ATOM      7  C   UNL     1       0.950  -0.723   2.632  1.00  0.00     0.056 C 
BRANCH   6   8
ATOM      8  C   UNL     1       0.287  -2.793   1.434  1.00  0.00     0.420 C 
ATOM      9  F   UNL     1       0.076  -3.422   0.256  1.00  0.00    -0.168 F 
ATOM     10  F   UNL     1       1.409  -3.337   1.976  1.00  0.00    -0.168 F 
ATOM     11  F   UNL     1      -0.705  -3.152   2.287  1.00  0.00    -0.168 F 
ENDBRANCH   6   8
BRANCH   6  12
ATOM     12  N   UNL     1       1.180  -0.708   0.114  1.00  0.00    -0.316 N 
ATOM     13  C   UNL     1       2.499  -0.478  -0.077  1.00  0.00     0.318 C 
ATOM     14  H   UNL     1       0.615  -0.476  -0.659  1.00  0.00     0.166 HD
ATOM     15  O   UNL     1       2.809   0.561  -0.660  1.00  0.00    -0.249 OA
BRANCH  13  16
ATOM     16  N   UNL     1       3.429  -1.338   0.432  1.00  0.00    -0.319 N 
BRANCH  16  17
ATOM     17  C   UNL     1       3.342  -2.784   0.258  1.00  0.00     0.127 C 
BRANCH  17  18
ATOM     18  C   UNL     1       4.095  -3.350  -0.942  1.00  0.00     0.083 CG0
ATOM     19  G   UNL     1       5.620  -3.356  -0.888  1.00  0.00     0.000 G0
ENDBRANCH  17  18
ENDBRANCH  16  17
BRANCH  16  20
ATOM     20  C   UNL     1       4.695  -0.780   0.913  1.00  0.00     0.182 C 
BRANCH  20  21
ATOM     21  C   UNL     1       5.957  -1.188   0.139  1.00  0.00     0.282 C 
BRANCH  21  22
ATOM     22  N   UNL     1       6.259  -2.622   0.195  1.00  0.00    -0.345 N 
ATOM     23  H   UNL     1       7.268  -2.750   0.128  1.00  0.00     0.346 HD
ATOM     24  H   UNL     1       5.898  -2.986   1.077  1.00  0.00     0.346 HD
BRANCH  22  25
ATOM     25  C   UNL     1       5.620  -3.356  -0.888  1.00  0.00     0.262 CG0
ATOM     26  G   UNL     1       4.095  -3.350  -0.942  1.00  0.00     0.000 G0
ENDBRANCH  22  25
ENDBRANCH  21  22
ENDBRANCH  20  21
ENDBRANCH  16  20
ENDBRANCH  13  16
ENDBRANCH   6  12
ENDBRANCH   3   6
ENDBRANCH   1   2
BRANCH   1  27
ATOM     27  C   UNL     1      -1.224   2.809   0.368  1.00  0.00     0.023 C 
BRANCH  27  28
ATOM     28  C   UNL     1      -2.723   3.122   0.419  1.00  0.00     0.023 C 
BRANCH  28  29
ATOM     29  C   UNL     1      -3.273   3.460   1.800  1.00  0.00     0.116 C 
BRANCH  29  30
ATOM     30  N   UNL     1      -2.651   4.642   2.372  1.00  0.00    -0.352 N 
ATOM     31  C   UNL     1      -3.237   5.799   2.834  1.00  0.00     0.251 C 
ATOM     32  H   UNL     1      -1.669   4.611   2.439  1.00  0.00     0.163 HD
ATOM     33  O   UNL     1      -2.540   6.760   3.126  1.00  0.00    -0.269 OA
BRANCH  31  34
ATOM     34  C   UNL     1      -4.711   5.881   2.947  1.00  0.00     0.039 A 
ATOM     35  C   UNL     1      -5.364   7.012   2.453  1.00  0.00     0.014 A 
ATOM     36  C   UNL     1      -5.445   4.842   3.526  1.00  0.00     0.014 A 
ATOM     37  C   UNL     1      -6.760   7.070   2.477  1.00  0.00     0.010 A 
ATOM     38  C   UNL     1      -6.836   4.867   3.477  1.00  0.00     0.010 A 
ATOM     39  C   UNL     1      -7.510   5.982   2.953  1.00  0.00    -0.014 A 
BRANCH  39  40
ATOM     40  C   UNL     1      -8.996   5.988   2.904  1.00  0.00     0.031 A 
ATOM     41  C   UNL     1      -9.796   5.920   4.177  1.00  0.00     0.074 A 
ATOM     42  C   UNL     1      -9.624   5.992   1.711  1.00  0.00     0.049 A 
ATOM     43  N   UNL     1     -11.093   5.850   4.335  1.00  0.00    -0.248 NA
ATOM     44  C   UNL     1      -9.038   5.899   5.439  1.00  0.00     0.031 C 
ATOM     45  C   UNL     1      -8.960   6.008   0.406  1.00  0.00     0.029 A 
ATOM     46  N   UNL     1     -10.961   5.972   1.400  1.00  0.00    -0.354 N 
ATOM     47  C   UNL     1     -11.306   5.766   5.706  1.00  0.00     0.074 A 
ATOM     48  C   UNL     1     -10.002   5.735   6.333  1.00  0.00     0.031 C 
ATOM     49  C   UNL     1      -9.890   6.021  -0.562  1.00  0.00     0.029 A 
ATOM     50  C   UNL     1     -11.215   5.971   0.048  1.00  0.00     0.049 A 
ATOM     51  H   UNL     1     -11.672   5.959   2.081  1.00  0.00     0.167 HD
ATOM     52  C   UNL     1     -12.479   5.742   6.382  1.00  0.00     0.037 A 
ATOM     53  C   UNL     1     -12.381   5.927  -0.625  1.00  0.00     0.037 A 
ATOM     54  C   UNL     1     -13.773   5.793   5.752  1.00  0.00     0.049 A 
ATOM     55  C   UNL     1     -13.672   5.890   0.148  1.00  0.00     0.074 A 
ATOM     56  C   UNL     1     -15.020   5.831   6.351  1.00  0.00     0.029 A 
ATOM     57  N   UNL     1     -13.988   5.808   4.381  1.00  0.00    -0.354 N 
ATOM     58  N   UNL     1     -13.855   5.879   1.447  1.00  0.00    -0.248 NA
ATOM     59  C   UNL     1     -14.916   5.868  -0.635  1.00  0.00     0.031 C 
ATOM     60  C   UNL     1     -15.990   5.816   5.343  1.00  0.00     0.029 A 
ATOM     61  C   UNL     1     -15.348   5.830   4.115  1.00  0.00     0.049 A 
ATOM     62  H   UNL     1     -13.279   5.804   3.698  1.00  0.00     0.167 HD
ATOM     63  C   UNL     1     -15.233   5.877   1.637  1.00  0.00     0.074 A 
ATOM     64  C   UNL     1     -15.835   5.902   0.320  1.00  0.00     0.031 C 
ATOM     65  C   UNL     1     -15.935   5.860   2.798  1.00  0.00     0.037 A 
BRANCH  52  66
ATOM     66  C   UNL     1     -12.418   5.657   7.884  1.00  0.00     0.058 A 
ATOM     67  C   UNL     1     -11.948   6.725   8.666  1.00  0.00     0.135 A 
ATOM     68  C   UNL     1     -12.868   4.508   8.554  1.00  0.00     0.135 A 
ATOM     69  F   UNL     1     -11.492   7.844   8.079  1.00  0.00    -0.206 F 
ATOM     70  C   UNL     1     -11.894   6.645  10.054  1.00  0.00     0.059 A 
ATOM     71  C   UNL     1     -12.853   4.417   9.944  1.00  0.00     0.059 A 
ATOM     72  F   UNL     1     -13.328   3.456   7.859  1.00  0.00    -0.206 F 
ATOM     73  C   UNL     1     -12.349   5.485  10.684  1.00  0.00     0.060 A 
BRANCH  73  74
ATOM     74  S   UNL     1     -12.274   5.399  12.485  1.00  0.00     0.124 S 
ATOM     75  O   UNL     1     -10.837   5.266  12.709  1.00  0.00    -0.237 OA
ATOM     76  O   UNL     1     -12.861   6.674  12.883  1.00  0.00    -0.237 OA
ATOM     77  O   UNL     1     -13.070   4.218  12.804  1.00  0.00    -0.744 OA
ENDBRANCH  73  74
ENDBRANCH  52  66
BRANCH  53  78
ATOM     78  C   UNL     1     -12.381   5.934  -2.114  1.00  0.00     0.058 A 
ATOM     79  C   UNL     1     -12.844   7.047  -2.831  1.00  0.00     0.135 A 
ATOM     80  C   UNL     1     -11.905   4.837  -2.849  1.00  0.00     0.135 A 
ATOM     81  F   UNL     1     -13.315   8.119  -2.175  1.00  0.00    -0.206 F 
ATOM     82  C   UNL     1     -12.851   7.068  -4.222  1.00  0.00     0.059 A 
ATOM     83  C   UNL     1     -11.876   4.844  -4.240  1.00  0.00     0.059 A 
ATOM     84  F   UNL     1     -11.436   3.752  -2.211  1.00  0.00    -0.206 F 
ATOM     85  C   UNL     1     -12.360   5.962  -4.918  1.00  0.00     0.060 A 
BRANCH  85  86
ATOM     86  S   UNL     1     -12.326   6.021  -6.723  1.00  0.00     0.124 S 
ATOM     87  O   UNL     1     -13.743   5.904  -7.047  1.00  0.00    -0.237 OA
ATOM     88  O   UNL     1     -11.718   7.324  -6.974  1.00  0.00    -0.237 OA
ATOM     89  O   UNL     1     -11.499   4.872  -7.080  1.00  0.00    -0.744 OA
ENDBRANCH  85  86
ENDBRANCH  53  78
BRANCH  65  90
ATOM     90  C   UNL     1     -17.436   5.904   2.703  1.00  0.00     0.058 A 
ATOM     91  C   UNL     1     -18.183   4.805   2.251  1.00  0.00     0.135 A 
ATOM     92  C   UNL     1     -18.139   7.045   3.122  1.00  0.00     0.135 A 
ATOM     93  F   UNL     1     -17.561   3.691   1.832  1.00  0.00    -0.206 F 
ATOM     94  C   UNL     1     -19.573   4.844   2.196  1.00  0.00     0.059 A 
ATOM     95  C   UNL     1     -19.529   7.095   3.105  1.00  0.00     0.059 A 
ATOM     96  F   UNL     1     -17.475   8.121   3.573  1.00  0.00    -0.206 F 
ATOM     97  C   UNL     1     -20.237   5.993   2.629  1.00  0.00     0.060 A 
BRANCH  97  98
ATOM     98  S   UNL     1     -22.042   6.017   2.586  1.00  0.00     0.124 S 
ATOM     99  O   UNL     1     -22.301   6.127   1.154  1.00  0.00    -0.237 OA
ATOM    100  O   UNL     1     -22.385   4.736   3.195  1.00  0.00    -0.237 OA
ATOM    101  O   UNL     1     -22.386   7.193   3.379  1.00  0.00    -0.744 OA
ENDBRANCH  97  98
ENDBRANCH  65  90
ENDBRANCH  39  40
ENDBRANCH  31  34
ENDBRANCH  29  30
ENDBRANCH  28  29
ENDBRANCH  27  28
ENDBRANCH   1  27
TORSDOF 17
