REMARK SMILES Cc1ccccc1-c1c(Cl)ccc2c1C=C(C(=O)NCCCCNC(=O)c1ccc(-c3c4nc(c(-c5c(F)cc(S(=O)(=O)[O-])cc5F)c5ccc([nH]5)c(-c5c(F)cc(S(=O)(=O)[O-])cc5F)c5nc(c(-c6c(F)cc(S(=O)(=O)[O-])cc6F)c6ccc3[nH]6)C=C5)C=C4)cc1)[C@@H](C(F)(F)F)O2
REMARK SMILES IDX 22 1 21 2 20 3 19 4 17 5 18 6 16 8 8 9 9 10 14 11 10 12
REMARK SMILES IDX 11 13 13 14 15 15 12 16 98 17 93 18 7 19 1 20 2 21 3 22 4 23
REMARK SMILES IDX 6 24 5 25 94 26 95 27 96 28 97 29 23 30 24 31 25 32 26 34
REMARK SMILES IDX 27 35 28 36 92 37 29 38 91 39 30 40 31 41 32 42 85 43 33 44
REMARK SMILES IDX 90 45 84 46 86 47 34 48 89 49 83 50 82 51 35 53 69 54 48 55
REMARK SMILES IDX 68 56 49 57 52 58 67 59 87 60 50 61 51 62 66 64 88 65 53 66
REMARK SMILES IDX 36 67 37 68 46 69 38 70 39 71 45 72 47 73 40 74 41 75 42 76
REMARK SMILES IDX 43 77 44 78 70 79 71 80 80 81 72 82 73 83 79 84 81 85 74 86
REMARK SMILES IDX 75 87 76 88 77 89 78 90 54 91 55 92 64 93 56 94 57 95 63 96
REMARK SMILES IDX 65 97 58 98 59 99 60 100 61 101 62 102
REMARK H PARENT 19 7 24 33 86 52 52 63
REMARK Flexibility Score: inf
ROOT
ATOM      1  C   UNL     1       7.326  -1.733  -2.755  1.00  0.00     0.023 C 
ENDROOT
BRANCH   1   2
ATOM      2  C   UNL     1       5.843  -1.585  -3.120  1.00  0.00     0.023 C 
BRANCH   2   3
ATOM      3  C   UNL     1       5.013  -0.665  -2.213  1.00  0.00     0.116 C 
BRANCH   3   4
ATOM      4  N   UNL     1       5.614   0.652  -2.101  1.00  0.00    -0.352 N 
ATOM      5  C   UNL     1       5.202   1.904  -2.389  1.00  0.00     0.251 C 
ATOM      6  O   UNL     1       6.073   2.779  -2.405  1.00  0.00    -0.270 OA
ATOM      7  H   UNL     1       6.526   0.625  -1.732  1.00  0.00     0.163 HD
BRANCH   5   8
ATOM      8  C   UNL     1       3.781   2.315  -2.584  1.00  0.00     0.067 C 
ATOM      9  C   UNL     1       1.162   2.404   0.054  1.00  0.00     0.012 A 
ATOM     10  C   UNL     1       0.843   3.372   1.042  1.00  0.00     0.049 A 
ATOM     11  C   UNL     1       2.067   2.792  -0.971  1.00  0.00     0.027 A 
ATOM     12  Cl  UNL     1      -0.155   2.998   2.411  1.00  0.00    -0.084 Cl
ATOM     13  C   UNL     1       1.334   4.681   0.978  1.00  0.00     0.025 A 
ATOM     14  C   UNL     1       2.471   4.145  -1.066  1.00  0.00     0.128 A 
ATOM     15  C   UNL     1       2.851   1.809  -1.759  1.00  0.00     0.026 C 
ATOM     16  C   UNL     1       2.115   5.077  -0.097  1.00  0.00     0.049 A 
ATOM     17  O   UNL     1       3.287   4.638  -2.055  1.00  0.00    -0.475 OA
ATOM     18  C   UNL     1       3.594   3.713  -3.121  1.00  0.00     0.314 C 
BRANCH   9  19
ATOM     19  C   UNL     1       0.459   1.094   0.045  1.00  0.00    -0.013 A 
ATOM     20  C   UNL     1       2.464  -0.323   0.821  1.00  0.00     0.045 C 
ATOM     21  C   UNL     1       1.034  -0.146   0.392  1.00  0.00    -0.043 A 
ATOM     22  C   UNL     1       0.245  -1.314   0.342  1.00  0.00     0.004 A 
ATOM     23  C   UNL     1      -1.106  -1.266   0.008  1.00  0.00     0.000 A 
ATOM     24  C   UNL     1      -0.915   1.110  -0.297  1.00  0.00     0.009 A 
ATOM     25  C   UNL     1      -1.692  -0.048  -0.300  1.00  0.00     0.001 A 
ENDBRANCH   9  19
BRANCH  18  26
ATOM     26  C   UNL     1       2.565   3.795  -4.261  1.00  0.00     0.429 C 
ATOM     27  F   UNL     1       2.540   5.038  -4.806  1.00  0.00    -0.167 F 
ATOM     28  F   UNL     1       2.875   2.941  -5.270  1.00  0.00    -0.167 F 
ATOM     29  F   UNL     1       1.302   3.510  -3.871  1.00  0.00    -0.167 F 
ENDBRANCH  18  26
ENDBRANCH   5   8
ENDBRANCH   3   4
ENDBRANCH   2   3
ENDBRANCH   1   2
BRANCH   1  30
ATOM     30  C   UNL     1       7.594  -2.382  -1.400  1.00  0.00     0.116 C 
BRANCH  30  31
ATOM     31  N   UNL     1       8.004  -3.770  -1.492  1.00  0.00    -0.352 N 
ATOM     32  C   UNL     1       8.535  -4.591  -0.499  1.00  0.00     0.251 C 
ATOM     33  H   UNL     1       7.891  -4.190  -2.375  1.00  0.00     0.163 HD
ATOM     34  O   UNL     1       9.151  -5.584  -0.765  1.00  0.00    -0.269 OA
BRANCH  32  35
ATOM     35  C   UNL     1       8.186  -4.259   0.908  1.00  0.00     0.039 A 
ATOM     36  C   UNL     1       7.460  -5.219   1.627  1.00  0.00     0.014 A 
ATOM     37  C   UNL     1       8.368  -2.980   1.419  1.00  0.00     0.014 A 
ATOM     38  C   UNL     1       6.755  -4.841   2.770  1.00  0.00     0.010 A 
ATOM     39  C   UNL     1       7.605  -2.586   2.500  1.00  0.00     0.010 A 
ATOM     40  C   UNL     1       6.763  -3.502   3.150  1.00  0.00    -0.014 A 
BRANCH  40  41
ATOM     41  C   UNL     1       5.894  -2.917   4.164  1.00  0.00     0.031 A 
ATOM     42  C   UNL     1       6.462  -2.438   5.449  1.00  0.00     0.074 A 
ATOM     43  C   UNL     1       4.605  -2.643   3.868  1.00  0.00     0.049 A 
ATOM     44  N   UNL     1       5.771  -2.076   6.478  1.00  0.00    -0.248 NA
ATOM     45  C   UNL     1       7.899  -2.377   5.686  1.00  0.00     0.031 C 
ATOM     46  C   UNL     1       3.745  -1.671   4.540  1.00  0.00     0.029 A 
ATOM     47  N   UNL     1       3.740  -3.242   2.971  1.00  0.00    -0.354 N 
ATOM     48  C   UNL     1       6.620  -1.443   7.361  1.00  0.00     0.074 A 
ATOM     49  C   UNL     1       7.940  -1.756   6.868  1.00  0.00     0.031 C 
ATOM     50  C   UNL     1       2.465  -1.937   4.238  1.00  0.00     0.029 A 
ATOM     51  C   UNL     1       2.451  -3.189   3.503  1.00  0.00     0.049 A 
ATOM     52  H   UNL     1       3.991  -3.638   2.105  1.00  0.00     0.167 HD
ATOM     53  C   UNL     1       6.089  -0.612   8.310  1.00  0.00     0.037 A 
ATOM     54  C   UNL     1       1.741  -4.290   3.894  1.00  0.00     0.037 A 
ATOM     55  C   UNL     1       4.624  -0.727   8.339  1.00  0.00     0.049 A 
ATOM     56  C   UNL     1       1.372  -4.285   5.366  1.00  0.00     0.074 A 
ATOM     57  C   UNL     1       3.603   0.067   7.842  1.00  0.00     0.029 A 
ATOM     58  N   UNL     1       4.034  -1.935   8.707  1.00  0.00    -0.354 N 
ATOM     59  N   UNL     1       1.931  -3.508   6.253  1.00  0.00    -0.248 NA
ATOM     60  C   UNL     1       0.362  -5.158   5.960  1.00  0.00     0.031 C 
ATOM     61  C   UNL     1       2.407  -0.698   7.846  1.00  0.00     0.029 A 
ATOM     62  C   UNL     1       2.695  -1.949   8.363  1.00  0.00     0.049 A 
ATOM     63  H   UNL     1       4.506  -2.676   9.150  1.00  0.00     0.167 HD
ATOM     64  C   UNL     1       1.415  -3.767   7.494  1.00  0.00     0.074 A 
ATOM     65  C   UNL     1       0.415  -4.791   7.253  1.00  0.00     0.031 C 
ATOM     66  C   UNL     1       1.867  -3.124   8.613  1.00  0.00     0.037 A 
BRANCH  53  67
ATOM     67  C   UNL     1       6.848   0.523   9.002  1.00  0.00     0.058 A 
ATOM     68  C   UNL     1       6.152   1.625   9.557  1.00  0.00     0.135 A 
ATOM     69  C   UNL     1       8.250   0.647   9.081  1.00  0.00     0.135 A 
ATOM     70  F   UNL     1       4.816   1.627   9.669  1.00  0.00    -0.206 F 
ATOM     71  C   UNL     1       6.785   2.784  10.026  1.00  0.00     0.059 A 
ATOM     72  C   UNL     1       8.907   1.808   9.505  1.00  0.00     0.059 A 
ATOM     73  F   UNL     1       9.069  -0.370   8.810  1.00  0.00    -0.206 F 
ATOM     74  C   UNL     1       8.166   2.883   9.961  1.00  0.00     0.060 A 
BRANCH  74  75
ATOM     75  S   UNL     1       8.975   4.400  10.498  1.00  0.00     0.124 S 
ATOM     76  O   UNL     1       8.380   5.395   9.611  1.00  0.00    -0.237 OA
ATOM     77  O   UNL     1       8.580   4.479  11.900  1.00  0.00    -0.237 OA
ATOM     78  O   UNL     1      10.392   4.132  10.265  1.00  0.00    -0.744 OA
ENDBRANCH  74  75
ENDBRANCH  53  67
BRANCH  54  79
ATOM     79  C   UNL     1       2.033  -5.503   3.086  1.00  0.00     0.058 A 
ATOM     80  C   UNL     1       1.617  -5.493   1.742  1.00  0.00     0.135 A 
ATOM     81  C   UNL     1       3.069  -6.377   3.445  1.00  0.00     0.135 A 
ATOM     82  F   UNL     1       0.610  -4.693   1.356  1.00  0.00    -0.206 F 
ATOM     83  C   UNL     1       2.332  -6.162   0.758  1.00  0.00     0.059 A 
ATOM     84  C   UNL     1       3.793  -7.069   2.474  1.00  0.00     0.059 A 
ATOM     85  F   UNL     1       3.492  -6.441   4.716  1.00  0.00    -0.206 F 
ATOM     86  C   UNL     1       3.465  -6.884   1.129  1.00  0.00     0.060 A 
BRANCH  86  87
ATOM     87  S   UNL     1       4.610  -7.372  -0.183  1.00  0.00     0.124 S 
ATOM     88  O   UNL     1       3.753  -8.168  -1.054  1.00  0.00    -0.237 OA
ATOM     89  O   UNL     1       5.009  -6.067  -0.707  1.00  0.00    -0.237 OA
ATOM     90  O   UNL     1       5.645  -8.107   0.534  1.00  0.00    -0.744 OA
ENDBRANCH  86  87
ENDBRANCH  54  79
BRANCH  66  91
ATOM     91  C   UNL     1       1.506  -3.480  10.036  1.00  0.00     0.058 A 
ATOM     92  C   UNL     1       1.200  -4.783  10.467  1.00  0.00     0.135 A 
ATOM     93  C   UNL     1       1.592  -2.506  11.060  1.00  0.00     0.135 A 
ATOM     94  F   UNL     1       1.205  -5.818   9.615  1.00  0.00    -0.206 F 
ATOM     95  C   UNL     1       0.921  -5.085  11.802  1.00  0.00     0.059 A 
ATOM     96  C   UNL     1       1.371  -2.797  12.405  1.00  0.00     0.059 A 
ATOM     97  F   UNL     1       1.906  -1.230  10.787  1.00  0.00    -0.206 F 
ATOM     98  C   UNL     1       1.007  -4.086  12.765  1.00  0.00     0.060 A 
BRANCH  98  99
ATOM     99  S   UNL     1       0.707  -4.476  14.499  1.00  0.00     0.124 S 
ATOM    100  O   UNL     1      -0.712  -4.161  14.628  1.00  0.00    -0.237 OA
ATOM    101  O   UNL     1       1.046  -5.894  14.579  1.00  0.00    -0.237 OA
ATOM    102  O   UNL     1       1.622  -3.582  15.202  1.00  0.00    -0.744 OA
ENDBRANCH  98  99
ENDBRANCH  66  91
ENDBRANCH  40  41
ENDBRANCH  32  35
ENDBRANCH  30  31
ENDBRANCH   1  30
TORSDOF 16
