REMARK SMILES O=C(NCCCCNC(=O)c1ccc(-c2c3nc(c(-c4c(F)cc(S(=O)(=O)[O-])cc4F)c4ccc([nH]4)c(-c4c(F)cc(S(=O)(=O)[O-])cc4F)c4nc(c(-c5c(F)cc(S(=O)(=O)[O-])cc5F)c5ccc2[nH]5)C=C4)C=C3)cc1)c1ccc(CN2C(=O)CSC2=S)cc1
REMARK SMILES IDX 6 1 5 2 4 3 3 4 1 5 2 6 77 8 78 9 90 10 79 11 89 12 80 13
REMARK SMILES IDX 81 14 82 15 83 16 87 17 84 18 85 19 86 20 88 21 7 22 8 23
REMARK SMILES IDX 9 24 10 26 11 27 12 28 76 29 13 30 75 31 14 32 15 33 16 34
REMARK SMILES IDX 69 35 17 36 74 37 68 38 70 39 18 40 73 41 67 42 66 43 19 45
REMARK SMILES IDX 53 46 32 47 52 48 33 49 36 50 51 51 71 52 34 53 35 54 50 56
REMARK SMILES IDX 72 57 37 58 20 59 21 60 30 61 22 62 23 63 29 64 31 65 24 66
REMARK SMILES IDX 25 67 26 68 27 69 28 70 54 71 55 72 64 73 56 74 57 75 63 76
REMARK SMILES IDX 65 77 58 78 59 79 60 80 61 81 62 82 38 83 39 84 48 85 40 86
REMARK SMILES IDX 41 87 47 88 49 89 42 90 43 91 44 92 45 93 46 94
REMARK H PARENT 3 7 8 25 70 44 36 55
REMARK Flexibility Score: inf
ROOT
ATOM      1  C   UNL     1       4.534  -3.367  -1.536  1.00  0.00     0.023 C 
ENDROOT
BRANCH   1   2
ATOM      2  C   UNL     1       5.010  -2.334  -0.515  1.00  0.00     0.023 C 
BRANCH   2   3
ATOM      3  C   UNL     1       4.635  -0.888  -0.830  1.00  0.00     0.116 C 
BRANCH   3   4
ATOM      4  N   UNL     1       3.197  -0.667  -0.811  1.00  0.00    -0.352 N 
ATOM      5  O   UNL     1       1.231   0.091   0.024  1.00  0.00    -0.269 OA
ATOM      6  C   UNL     1       2.457   0.104   0.052  1.00  0.00     0.251 C 
ATOM      7  H   UNL     1       2.686  -1.133  -1.511  1.00  0.00     0.163 HD
BRANCH   6   8
ATOM      8  C   UNL     1       3.156   0.939   1.045  1.00  0.00     0.039 A 
ATOM      9  C   UNL     1       4.048   1.930   0.630  1.00  0.00     0.014 A 
ATOM     10  C   UNL     1       2.935   0.704   2.402  1.00  0.00     0.014 A 
ATOM     11  C   UNL     1       4.796   2.621   1.581  1.00  0.00     0.006 A 
ATOM     12  C   UNL     1       3.680   1.406   3.352  1.00  0.00     0.006 A 
ATOM     13  C   UNL     1       4.639   2.349   2.950  1.00  0.00    -0.028 A 
BRANCH  13  14
ATOM     14  C   UNL     1       5.542   3.024   3.963  1.00  0.00     0.162 C 
BRANCH  14  15
ATOM     15  N   UNL     1       6.755   2.238   4.206  1.00  0.00    -0.293 N 
ATOM     16  C   UNL     1       7.808   2.355   3.314  1.00  0.00     0.238 C 
ATOM     17  C   UNL     1       6.948   1.405   5.283  1.00  0.00     0.143 C 
ATOM     18  O   UNL     1       7.856   3.141   2.373  1.00  0.00    -0.273 OA
ATOM     19  C   UNL     1       8.927   1.398   3.615  1.00  0.00     0.177 C 
ATOM     20  S   UNL     1       8.530   0.649   5.199  1.00  0.00    -0.086 SA
ATOM     21  S   UNL     1       5.920   1.105   6.562  1.00  0.00    -0.052 S 
ENDBRANCH  14  15
ENDBRANCH  13  14
ENDBRANCH   6   8
ENDBRANCH   3   4
ENDBRANCH   2   3
ENDBRANCH   1   2
BRANCH   1  22
ATOM     22  C   UNL     1       4.927  -3.091  -2.984  1.00  0.00     0.116 C 
BRANCH  22  23
ATOM     23  N   UNL     1       6.367  -3.022  -3.187  1.00  0.00    -0.352 N 
ATOM     24  C   UNL     1       7.127  -3.616  -4.170  1.00  0.00     0.251 C 
ATOM     25  H   UNL     1       6.865  -2.478  -2.534  1.00  0.00     0.163 HD
ATOM     26  O   UNL     1       8.351  -3.541  -4.135  1.00  0.00    -0.269 OA
BRANCH  24  27
ATOM     27  C   UNL     1       6.454  -4.377  -5.244  1.00  0.00     0.039 A 
ATOM     28  C   UNL     1       6.871  -5.684  -5.514  1.00  0.00     0.014 A 
ATOM     29  C   UNL     1       5.382  -3.819  -5.944  1.00  0.00     0.014 A 
ATOM     30  C   UNL     1       6.154  -6.463  -6.426  1.00  0.00     0.010 A 
ATOM     31  C   UNL     1       4.632  -4.617  -6.804  1.00  0.00     0.010 A 
ATOM     32  C   UNL     1       5.003  -5.951  -7.044  1.00  0.00    -0.014 A 
BRANCH  32  33
ATOM     33  C   UNL     1       4.151  -6.781  -7.936  1.00  0.00     0.031 A 
ATOM     34  C   UNL     1       3.985  -6.392  -9.379  1.00  0.00     0.074 A 
ATOM     35  C   UNL     1       3.442  -7.808  -7.424  1.00  0.00     0.049 A 
ATOM     36  N   UNL     1       3.151  -6.862 -10.270  1.00  0.00    -0.248 NA
ATOM     37  C   UNL     1       4.847  -5.307  -9.877  1.00  0.00     0.031 C 
ATOM     38  C   UNL     1       3.481  -8.258  -6.030  1.00  0.00     0.029 A 
ATOM     39  N   UNL     1       2.523  -8.642  -8.012  1.00  0.00    -0.354 N 
ATOM     40  C   UNL     1       3.356  -6.105 -11.417  1.00  0.00     0.074 A 
ATOM     41  C   UNL     1       4.380  -5.131 -11.106  1.00  0.00     0.031 C 
ATOM     42  C   UNL     1       2.626  -9.282  -5.872  1.00  0.00     0.029 A 
ATOM     43  C   UNL     1       1.948  -9.537  -7.139  1.00  0.00     0.049 A 
ATOM     44  H   UNL     1       2.296  -8.603  -8.969  1.00  0.00     0.167 HD
ATOM     45  C   UNL     1       2.752  -6.219 -12.623  1.00  0.00     0.037 A 
ATOM     46  C   UNL     1       0.969 -10.443  -7.331  1.00  0.00     0.037 A 
ATOM     47  C   UNL     1       1.782  -7.231 -12.947  1.00  0.00     0.049 A 
ATOM     48  C   UNL     1       0.345 -10.575  -8.695  1.00  0.00     0.074 A 
ATOM     49  C   UNL     1       1.180  -7.482 -14.168  1.00  0.00     0.029 A 
ATOM     50  N   UNL     1       1.280  -8.163 -12.053  1.00  0.00    -0.354 N 
ATOM     51  N   UNL     1       0.596  -9.890  -9.785  1.00  0.00    -0.248 NA
ATOM     52  C   UNL     1      -0.695 -11.602  -8.858  1.00  0.00     0.031 C 
ATOM     53  C   UNL     1       0.293  -8.550 -14.006  1.00  0.00     0.029 A 
ATOM     54  C   UNL     1       0.369  -8.985 -12.693  1.00  0.00     0.049 A 
ATOM     55  H   UNL     1       1.534  -8.230 -11.104  1.00  0.00     0.167 HD
ATOM     56  C   UNL     1      -0.228 -10.426 -10.768  1.00  0.00     0.074 A 
ATOM     57  C   UNL     1      -0.984 -11.493 -10.148  1.00  0.00     0.031 C 
ATOM     58  C   UNL     1      -0.347 -10.067 -12.069  1.00  0.00     0.037 A 
BRANCH  45  59
ATOM     59  C   UNL     1       3.126  -5.238 -13.695  1.00  0.00     0.058 A 
ATOM     60  C   UNL     1       4.349  -5.323 -14.376  1.00  0.00     0.135 A 
ATOM     61  C   UNL     1       2.214  -4.250 -14.101  1.00  0.00     0.135 A 
ATOM     62  F   UNL     1       5.261  -6.239 -14.015  1.00  0.00    -0.206 F 
ATOM     63  C   UNL     1       4.661  -4.457 -15.418  1.00  0.00     0.059 A 
ATOM     64  C   UNL     1       2.496  -3.386 -15.155  1.00  0.00     0.059 A 
ATOM     65  F   UNL     1       1.031  -4.125 -13.479  1.00  0.00    -0.206 F 
ATOM     66  C   UNL     1       3.726  -3.494 -15.803  1.00  0.00     0.060 A 
BRANCH  66  67
ATOM     67  S   UNL     1       4.128  -2.404 -17.185  1.00  0.00     0.124 S 
ATOM     68  O   UNL     1       5.078  -1.486 -16.563  1.00  0.00    -0.237 OA
ATOM     69  O   UNL     1       4.691  -3.330 -18.162  1.00  0.00    -0.237 OA
ATOM     70  O   UNL     1       2.839  -1.824 -17.546  1.00  0.00    -0.744 OA
ENDBRANCH  66  67
ENDBRANCH  45  59
BRANCH  46  71
ATOM     71  C   UNL     1       0.507 -11.304  -6.210  1.00  0.00     0.058 A 
ATOM     72  C   UNL     1       0.796 -12.677  -6.192  1.00  0.00     0.135 A 
ATOM     73  C   UNL     1      -0.258 -10.782  -5.157  1.00  0.00     0.135 A 
ATOM     74  F   UNL     1       1.520 -13.222  -7.181  1.00  0.00    -0.206 F 
ATOM     75  C   UNL     1       0.314 -13.510  -5.188  1.00  0.00     0.059 A 
ATOM     76  C   UNL     1      -0.732 -11.591  -4.128  1.00  0.00     0.059 A 
ATOM     77  F   UNL     1      -0.545  -9.472  -5.118  1.00  0.00    -0.206 F 
ATOM     78  C   UNL     1      -0.457 -12.958  -4.164  1.00  0.00     0.060 A 
BRANCH  78  79
ATOM     79  S   UNL     1      -1.075 -14.042  -2.858  1.00  0.00     0.124 S 
ATOM     80  O   UNL     1      -2.211 -14.675  -3.519  1.00  0.00    -0.237 OA
ATOM     81  O   UNL     1       0.074 -14.904  -2.599  1.00  0.00    -0.237 OA
ATOM     82  O   UNL     1      -1.406 -13.112  -1.783  1.00  0.00    -0.744 OA
ENDBRANCH  78  79
ENDBRANCH  46  71
BRANCH  58  83
ATOM     83  C   UNL     1      -1.281 -10.864 -12.931  1.00  0.00     0.058 A 
ATOM     84  C   UNL     1      -2.670 -10.685 -12.873  1.00  0.00     0.135 A 
ATOM     85  C   UNL     1      -0.769 -11.756 -13.888  1.00  0.00     0.135 A 
ATOM     86  F   UNL     1      -3.207  -9.849 -11.971  1.00  0.00    -0.206 F 
ATOM     87  C   UNL     1      -3.524 -11.368 -13.733  1.00  0.00     0.059 A 
ATOM     88  C   UNL     1      -1.603 -12.434 -14.770  1.00  0.00     0.059 A 
ATOM     89  F   UNL     1       0.555 -11.954 -13.986  1.00  0.00    -0.206 F 
ATOM     90  C   UNL     1      -2.980 -12.237 -14.682  1.00  0.00     0.060 A 
BRANCH  90  91
ATOM     91  S   UNL     1      -4.091 -13.069 -15.837  1.00  0.00     0.124 S 
ATOM     92  O   UNL     1      -4.648 -14.126 -14.999  1.00  0.00    -0.237 OA
ATOM     93  O   UNL     1      -5.016 -12.002 -16.209  1.00  0.00    -0.237 OA
ATOM     94  O   UNL     1      -3.199 -13.515 -16.903  1.00  0.00    -0.744 OA
ENDBRANCH  90  91
ENDBRANCH  58  83
ENDBRANCH  32  33
ENDBRANCH  24  27
ENDBRANCH  22  23
ENDBRANCH   1  22
TORSDOF 16
