REMARK SMILES Cc1nn(C)c2c1nc(SCC(=O)NCCCCNC(=O)c1ccc(-c3c4nc(c(-c5c(F)cc(S(=O)(=O)[O-])cc5F)c5ccc([nH]5)c(-c5c(F)cc(S(=O)(=O)[O-])cc5F)c5nc(c(-c6c(F)cc(S(=O)(=O)[O-])cc6F)c6ccc3[nH]6)C=C5)C=C4)cc1)n2[C@H]1CC[N@@H+](C)C1
REMARK SMILES IDX 16 1 15 2 14 3 12 4 13 5 11 7 10 8 9 9 1 10 2 11 3 12 7 13
REMARK SMILES IDX 4 14 6 15 8 16 5 17 88 18 89 19 90 20 94 21 91 22 92 23
REMARK SMILES IDX 93 24 17 26 18 27 19 28 20 29 21 31 22 32 23 33 87 34 24 35
REMARK SMILES IDX 86 36 25 37 26 38 27 39 80 40 28 41 85 42 79 43 81 44 29 45
REMARK SMILES IDX 84 46 78 47 77 48 30 50 64 51 43 52 63 53 44 54 47 55 62 56
REMARK SMILES IDX 82 57 45 58 46 59 61 61 83 62 48 63 31 64 32 65 41 66 33 67
REMARK SMILES IDX 34 68 40 69 42 70 35 71 36 72 37 73 38 74 39 75 65 76 66 77
REMARK SMILES IDX 75 78 67 79 68 80 74 81 76 82 69 83 70 84 71 85 72 86 73 87
REMARK SMILES IDX 49 88 50 89 59 90 51 91 52 92 58 93 60 94 53 95 54 96 55 97
REMARK SMILES IDX 56 98 57 99
REMARK H PARENT 14 6 92 25 19 30 81 49 47 60
REMARK Flexibility Score: inf
ROOT
ATOM      1  C   UNL     1      -0.021  -1.673   0.336  1.00  0.00     0.023 C 
ENDROOT
BRANCH   1   2
ATOM      2  C   UNL     1      -1.506  -1.314   0.492  1.00  0.00     0.116 C 
BRANCH   2   3
ATOM      3  N   UNL     1      -2.094  -0.873  -0.759  1.00  0.00    -0.355 N 
ATOM      4  C   UNL     1      -2.904  -1.518  -1.651  1.00  0.00     0.230 C 
ATOM      5  O   UNL     1      -3.233  -0.889  -2.661  1.00  0.00    -0.274 OA
ATOM      6  H   UNL     1      -1.870   0.053  -1.009  1.00  0.00     0.163 HD
BRANCH   4   7
ATOM      7  C   UNL     1      -3.498  -2.879  -1.355  1.00  0.00     0.178 C 
BRANCH   7   8
ATOM      8  S   UNL     1      -2.301  -4.187  -1.060  1.00  0.00    -0.078 SA
BRANCH   8   9
ATOM      9  C   UNL     1      -1.512  -4.454  -2.581  1.00  0.00     0.171 A 
ATOM     10  C   UNL     1      -1.339  -3.575  -7.026  1.00  0.00     0.071 C 
ATOM     11  C   UNL     1      -0.661  -4.328  -5.952  1.00  0.00     0.087 A 
ATOM     12  N   UNL     1       0.423  -5.073  -6.232  1.00  0.00    -0.174 NA
ATOM     13  C   UNL     1      -0.955  -4.424  -4.593  1.00  0.00     0.132 A 
ATOM     14  N   UNL     1       0.805  -5.590  -5.037  1.00  0.00    -0.250 N 
ATOM     15  C   UNL     1      -0.037  -5.238  -4.020  1.00  0.00     0.159 A 
ATOM     16  N   UNL     1      -1.874  -3.936  -3.737  1.00  0.00    -0.219 NA
ATOM     17  C   UNL     1       2.001  -6.397  -5.051  1.00  0.00     0.176 C 
ATOM     18  N   UNL     1      -0.401  -5.304  -2.695  1.00  0.00    -0.295 N 
BRANCH  18  19
ATOM     19  C   UNL     1       0.225  -6.002  -1.576  1.00  0.00     0.152 C 
ATOM     20  C   UNL     1      -0.697  -6.970  -0.803  1.00  0.00     0.093 C 
ATOM     21  C   UNL     1       1.415  -6.888  -1.933  1.00  0.00     0.288 C 
ATOM     22  C   UNL     1      -0.082  -8.350  -0.965  1.00  0.00     0.264 C 
ATOM     23  N   UNL     1       1.351  -8.068  -1.066  1.00  0.00    -0.336 N 
ATOM     24  C   UNL     1       2.066  -9.190  -1.676  1.00  0.00     0.332 C 
ATOM     25  H   UNL     1       1.784  -7.918  -0.155  1.00  0.00     0.347 HD
ENDBRANCH  18  19
ENDBRANCH   8   9
ENDBRANCH   7   8
ENDBRANCH   4   7
ENDBRANCH   2   3
ENDBRANCH   1   2
BRANCH   1  26
ATOM     26  C   UNL     1       0.891  -0.544  -0.172  1.00  0.00     0.023 C 
BRANCH  26  27
ATOM     27  C   UNL     1       0.968   0.672   0.740  1.00  0.00     0.116 C 
BRANCH  27  28
ATOM     28  N   UNL     1       1.630   0.391   2.014  1.00  0.00    -0.352 N 
ATOM     29  C   UNL     1       1.852   1.268   3.064  1.00  0.00     0.251 C 
ATOM     30  H   UNL     1       1.956  -0.529   2.140  1.00  0.00     0.163 HD
ATOM     31  O   UNL     1       2.741   1.063   3.873  1.00  0.00    -0.269 OA
BRANCH  29  32
ATOM     32  C   UNL     1       0.978   2.452   3.187  1.00  0.00     0.039 A 
ATOM     33  C   UNL     1       1.482   3.706   3.545  1.00  0.00     0.014 A 
ATOM     34  C   UNL     1      -0.373   2.287   2.897  1.00  0.00     0.014 A 
ATOM     35  C   UNL     1       0.625   4.806   3.520  1.00  0.00     0.010 A 
ATOM     36  C   UNL     1      -1.170   3.387   2.715  1.00  0.00     0.010 A 
ATOM     37  C   UNL     1      -0.699   4.644   3.078  1.00  0.00    -0.014 A 
BRANCH  37  38
ATOM     38  C   UNL     1      -1.553   5.802   2.804  1.00  0.00     0.031 A 
ATOM     39  C   UNL     1      -0.921   6.766   1.861  1.00  0.00     0.074 A 
ATOM     40  C   UNL     1      -2.864   5.847   3.145  1.00  0.00     0.049 A 
ATOM     41  N   UNL     1      -0.442   7.938   2.126  1.00  0.00    -0.248 NA
ATOM     42  C   UNL     1      -0.577   6.293   0.505  1.00  0.00     0.031 C 
ATOM     43  C   UNL     1      -3.644   4.777   3.786  1.00  0.00     0.029 A 
ATOM     44  N   UNL     1      -3.822   6.786   2.888  1.00  0.00    -0.354 N 
ATOM     45  C   UNL     1      -0.056   8.461   0.892  1.00  0.00     0.074 A 
ATOM     46  C   UNL     1       0.111   7.331   0.024  1.00  0.00     0.031 C 
ATOM     47  C   UNL     1      -4.964   5.010   3.626  1.00  0.00     0.029 A 
ATOM     48  C   UNL     1      -5.133   6.328   3.045  1.00  0.00     0.049 A 
ATOM     49  H   UNL     1      -3.607   7.707   2.616  1.00  0.00     0.167 HD
ATOM     50  C   UNL     1      -0.313   9.769   0.600  1.00  0.00     0.037 A 
ATOM     51  C   UNL     1      -6.284   6.977   2.726  1.00  0.00     0.037 A 
ATOM     52  C   UNL     1      -0.656  10.479   1.810  1.00  0.00     0.049 A 
ATOM     53  C   UNL     1      -5.959   8.420   2.662  1.00  0.00     0.074 A 
ATOM     54  C   UNL     1      -0.017  10.888   2.958  1.00  0.00     0.029 A 
ATOM     55  N   UNL     1      -2.002  10.479   2.066  1.00  0.00    -0.354 N 
ATOM     56  N   UNL     1      -5.582   9.116   3.702  1.00  0.00    -0.248 NA
ATOM     57  C   UNL     1      -5.673   9.026   1.368  1.00  0.00     0.031 C 
ATOM     58  C   UNL     1      -1.027  10.972   3.964  1.00  0.00     0.029 A 
ATOM     59  C   UNL     1      -2.263  10.674   3.390  1.00  0.00     0.049 A 
ATOM     60  H   UNL     1      -2.696  10.353   1.378  1.00  0.00     0.167 HD
ATOM     61  C   UNL     1      -4.645   9.998   3.200  1.00  0.00     0.074 A 
ATOM     62  C   UNL     1      -4.870  10.019   1.759  1.00  0.00     0.031 C 
ATOM     63  C   UNL     1      -3.561  10.358   3.947  1.00  0.00     0.037 A 
BRANCH  50  64
ATOM     64  C   UNL     1      -0.836  10.282  -0.745  1.00  0.00     0.058 A 
ATOM     65  C   UNL     1      -1.115  11.664  -0.869  1.00  0.00     0.135 A 
ATOM     66  C   UNL     1      -1.385   9.473  -1.765  1.00  0.00     0.135 A 
ATOM     67  F   UNL     1      -0.630  12.543   0.024  1.00  0.00    -0.206 F 
ATOM     68  C   UNL     1      -1.962  12.179  -1.854  1.00  0.00     0.059 A 
ATOM     69  C   UNL     1      -2.199   9.971  -2.777  1.00  0.00     0.059 A 
ATOM     70  F   UNL     1      -1.238   8.146  -1.802  1.00  0.00    -0.206 F 
ATOM     71  C   UNL     1      -2.518  11.317  -2.791  1.00  0.00     0.060 A 
BRANCH  71  72
ATOM     72  S   UNL     1      -3.685  11.950  -4.007  1.00  0.00     0.124 S 
ATOM     73  O   UNL     1      -4.821  12.301  -3.163  1.00  0.00    -0.237 OA
ATOM     74  O   UNL     1      -2.941  13.067  -4.581  1.00  0.00    -0.237 OA
ATOM     75  O   UNL     1      -3.886  10.813  -4.900  1.00  0.00    -0.744 OA
ENDBRANCH  71  72
ENDBRANCH  50  64
BRANCH  51  76
ATOM     76  C   UNL     1      -7.584   6.429   2.250  1.00  0.00     0.058 A 
ATOM     77  C   UNL     1      -8.767   7.193   2.277  1.00  0.00     0.135 A 
ATOM     78  C   UNL     1      -7.636   5.241   1.494  1.00  0.00     0.135 A 
ATOM     79  F   UNL     1      -8.807   8.348   2.958  1.00  0.00    -0.206 F 
ATOM     80  C   UNL     1      -9.915   6.826   1.561  1.00  0.00     0.059 A 
ATOM     81  C   UNL     1      -8.768   4.853   0.775  1.00  0.00     0.059 A 
ATOM     82  F   UNL     1      -6.549   4.464   1.364  1.00  0.00    -0.206 F 
ATOM     83  C   UNL     1      -9.899   5.662   0.794  1.00  0.00     0.060 A 
BRANCH  83  84
ATOM     84  S   UNL     1     -11.323   5.261  -0.252  1.00  0.00     0.124 S 
ATOM     85  O   UNL     1     -12.347   4.948   0.739  1.00  0.00    -0.237 OA
ATOM     86  O   UNL     1     -11.518   6.497  -1.000  1.00  0.00    -0.237 OA
ATOM     87  O   UNL     1     -10.855   4.124  -1.041  1.00  0.00    -0.744 OA
ENDBRANCH  83  84
ENDBRANCH  51  76
BRANCH  63  88
ATOM     88  C   UNL     1      -3.686  10.310   5.439  1.00  0.00     0.058 A 
ATOM     89  C   UNL     1      -3.806   9.146   6.215  1.00  0.00     0.135 A 
ATOM     90  C   UNL     1      -3.574  11.533   6.119  1.00  0.00     0.135 A 
ATOM     91  F   UNL     1      -3.839   7.934   5.642  1.00  0.00    -0.206 F 
ATOM     92  C   UNL     1      -3.844   9.204   7.610  1.00  0.00     0.059 A 
ATOM     93  C   UNL     1      -3.576  11.611   7.504  1.00  0.00     0.059 A 
ATOM     94  F   UNL     1      -3.411  12.674   5.428  1.00  0.00    -0.206 F 
ATOM     95  C   UNL     1      -3.725  10.443   8.245  1.00  0.00     0.060 A 
BRANCH  95  96
ATOM     96  S   UNL     1      -3.708  10.519  10.048  1.00  0.00     0.124 S 
ATOM     97  O   UNL     1      -5.086  10.175  10.383  1.00  0.00    -0.237 OA
ATOM     98  O   UNL     1      -2.701   9.522  10.397  1.00  0.00    -0.237 OA
ATOM     99  O   UNL     1      -3.326  11.902  10.328  1.00  0.00    -0.744 OA
ENDBRANCH  95  96
ENDBRANCH  63  88
ENDBRANCH  37  38
ENDBRANCH  29  32
ENDBRANCH  27  28
ENDBRANCH  26  27
ENDBRANCH   1  26
TORSDOF 17
