REMARK SMILES CC[C@@]1(CC(=O)NCCCCNC(=O)c2ccc(-c3c4nc(c(-c5c(F)cc(S(=O)(=O)[O-])cc5F)c5ccc([nH]5)c(-c5c(F)cc(S(=O)(=O)[O-])cc5F)c5nc(c(-c6c(F)cc(S(=O)(=O)[O-])cc6F)c6ccc3[nH]6)C=C5)C=C4)cc2)OC[C@H](Cc2ccccc2)c2c1[nH]c1ccccc21
REMARK SMILES IDX 9 1 8 2 7 3 5 4 6 5 4 7 3 8 81 9 92 10 82 11 91 12 93 13
REMARK SMILES IDX 83 14 99 15 94 16 98 18 95 19 97 20 96 21 2 22 1 23 84 24
REMARK SMILES IDX 85 25 86 26 90 27 87 28 89 29 88 30 10 31 11 32 12 33 13 34
REMARK SMILES IDX 14 36 15 37 16 38 80 39 17 40 79 41 18 42 19 43 20 44 73 45
REMARK SMILES IDX 21 46 78 47 72 48 74 49 22 50 77 51 71 52 70 53 23 55 57 56
REMARK SMILES IDX 36 57 56 58 37 59 40 60 55 61 75 62 38 63 39 64 54 66 76 67
REMARK SMILES IDX 41 68 24 69 25 70 34 71 26 72 27 73 33 74 35 75 28 76 29 77
REMARK SMILES IDX 30 78 31 79 32 80 58 81 59 82 68 83 60 84 61 85 67 86 69 87
REMARK SMILES IDX 62 88 63 89 64 90 65 91 66 92 42 93 43 94 52 95 44 96 45 97
REMARK SMILES IDX 51 98 53 99 46 100 47 101 48 102 49 103 50 104
REMARK H PARENT 7 6 93 17 12 35 74 54 40 65
REMARK Flexibility Score: inf
ROOT
ATOM      1  C   UNL     1       1.115   2.204   2.846  1.00  0.00     0.023 C 
ENDROOT
BRANCH   1   2
ATOM      2  C   UNL     1       0.384   1.742   1.592  1.00  0.00     0.116 C 
BRANCH   2   3
ATOM      3  N   UNL     1       1.292   1.139   0.641  1.00  0.00    -0.356 N 
ATOM      4  C   UNL     1       1.346  -0.148   0.191  1.00  0.00     0.223 C 
ATOM      5  O   UNL     1       2.176  -0.428  -0.675  1.00  0.00    -0.275 OA
ATOM      6  H   UNL     1       1.970   1.745   0.263  1.00  0.00     0.163 HD
BRANCH   4   7
ATOM      7  C   UNL     1       0.343  -1.168   0.689  1.00  0.00     0.142 C 
BRANCH   7   8
ATOM      8  C   UNL     1       0.813  -2.044   1.867  1.00  0.00     0.117 C 
ATOM      9  O   UNL     1       2.007  -2.790   1.510  1.00  0.00    -0.368 OA
ATOM     10  C   UNL     1      -0.250  -3.062   2.190  1.00  0.00     0.052 A 
ATOM     11  C   UNL     1       1.838  -3.900   0.627  1.00  0.00     0.170 C 
ATOM     12  C   UNL     1      -0.182  -4.423   1.992  1.00  0.00    -0.011 A 
ATOM     13  N   UNL     1      -1.478  -2.792   2.732  1.00  0.00    -0.356 N 
ATOM     14  C   UNL     1       0.947  -5.031   1.216  1.00  0.00     0.052 C 
ATOM     15  C   UNL     1      -1.229  -5.004   2.765  1.00  0.00     0.003 A 
ATOM     16  C   UNL     1      -2.019  -3.952   3.231  1.00  0.00     0.046 A 
ATOM     17  H   UNL     1      -1.906  -1.906   2.761  1.00  0.00     0.166 HD
ATOM     18  C   UNL     1      -1.567  -6.313   3.158  1.00  0.00     0.010 A 
ATOM     19  C   UNL     1      -3.122  -4.131   4.072  1.00  0.00     0.026 A 
ATOM     20  C   UNL     1      -2.651  -6.510   4.026  1.00  0.00     0.001 A 
ATOM     21  C   UNL     1      -3.413  -5.434   4.476  1.00  0.00     0.002 A 
BRANCH   8  22
ATOM     22  C   UNL     1       1.271  -1.303   3.152  1.00  0.00     0.039 C 
ATOM     23  C   UNL     1       0.215  -0.758   4.107  1.00  0.00     0.007 C 
ENDBRANCH   8  22
BRANCH  14  24
ATOM     24  C   UNL     1       0.410  -5.920   0.076  1.00  0.00     0.046 C 
BRANCH  24  25
ATOM     25  C   UNL     1       1.489  -6.507  -0.801  1.00  0.00    -0.047 A 
ATOM     26  C   UNL     1       2.389  -7.446  -0.284  1.00  0.00     0.004 A 
ATOM     27  C   UNL     1       1.629  -6.084  -2.130  1.00  0.00     0.004 A 
ATOM     28  C   UNL     1       3.421  -7.944  -1.080  1.00  0.00     0.000 A 
ATOM     29  C   UNL     1       2.661  -6.584  -2.925  1.00  0.00     0.000 A 
ATOM     30  C   UNL     1       3.557  -7.511  -2.398  1.00  0.00     0.000 A 
ENDBRANCH  24  25
ENDBRANCH  14  24
ENDBRANCH   7   8
ENDBRANCH   4   7
ENDBRANCH   2   3
ENDBRANCH   1   2
BRANCH   1  31
ATOM     31  C   UNL     1       1.458   3.688   2.856  1.00  0.00     0.023 C 
BRANCH  31  32
ATOM     32  C   UNL     1       0.243   4.624   2.840  1.00  0.00     0.116 C 
BRANCH  32  33
ATOM     33  N   UNL     1      -0.801   4.273   3.786  1.00  0.00    -0.352 N 
ATOM     34  C   UNL     1      -1.114   4.684   5.054  1.00  0.00     0.251 C 
ATOM     35  H   UNL     1      -1.420   3.590   3.440  1.00  0.00     0.163 HD
ATOM     36  O   UNL     1      -2.217   4.333   5.481  1.00  0.00    -0.269 OA
BRANCH  34  37
ATOM     37  C   UNL     1      -0.209   5.459   5.944  1.00  0.00     0.039 A 
ATOM     38  C   UNL     1       1.133   5.707   5.675  1.00  0.00     0.014 A 
ATOM     39  C   UNL     1      -0.726   5.861   7.190  1.00  0.00     0.014 A 
ATOM     40  C   UNL     1       1.966   6.228   6.652  1.00  0.00     0.010 A 
ATOM     41  C   UNL     1       0.098   6.421   8.165  1.00  0.00     0.010 A 
ATOM     42  C   UNL     1       1.458   6.554   7.910  1.00  0.00    -0.014 A 
BRANCH  42  43
ATOM     43  C   UNL     1       2.417   7.083   8.875  1.00  0.00     0.031 A 
ATOM     44  C   UNL     1       3.179   8.281   8.413  1.00  0.00     0.074 A 
ATOM     45  C   UNL     1       2.620   6.571  10.103  1.00  0.00     0.049 A 
ATOM     46  N   UNL     1       4.442   8.376   8.148  1.00  0.00    -0.248 NA
ATOM     47  C   UNL     1       2.404   9.484   8.078  1.00  0.00     0.031 C 
ATOM     48  C   UNL     1       1.824   5.581  10.830  1.00  0.00     0.029 A 
ATOM     49  N   UNL     1       3.586   6.910  11.001  1.00  0.00    -0.354 N 
ATOM     50  C   UNL     1       4.662   9.704   7.785  1.00  0.00     0.074 A 
ATOM     51  C   UNL     1       3.360  10.301   7.632  1.00  0.00     0.031 C 
ATOM     52  C   UNL     1       2.211   5.566  12.127  1.00  0.00     0.029 A 
ATOM     53  C   UNL     1       3.370   6.429  12.284  1.00  0.00     0.049 A 
ATOM     54  H   UNL     1       4.372   7.452  10.760  1.00  0.00     0.167 HD
ATOM     55  C   UNL     1       5.903  10.268   7.801  1.00  0.00     0.037 A 
ATOM     56  C   UNL     1       4.063   6.771  13.398  1.00  0.00     0.037 A 
ATOM     57  C   UNL     1       6.941   9.271   7.803  1.00  0.00     0.049 A 
ATOM     58  C   UNL     1       5.385   7.287  12.954  1.00  0.00     0.074 A 
ATOM     59  C   UNL     1       7.341   8.281   6.927  1.00  0.00     0.029 A 
ATOM     60  N   UNL     1       7.561   8.982   8.994  1.00  0.00    -0.354 N 
ATOM     61  N   UNL     1       6.304   6.554  12.387  1.00  0.00    -0.248 NA
ATOM     62  C   UNL     1       5.527   8.722  12.759  1.00  0.00     0.031 C 
ATOM     63  C   UNL     1       7.767   7.202   7.756  1.00  0.00     0.029 A 
ATOM     64  C   UNL     1       7.637   7.615   9.083  1.00  0.00     0.049 A 
ATOM     65  H   UNL     1       7.888   9.632   9.657  1.00  0.00     0.167 HD
ATOM     66  C   UNL     1       6.888   7.380  11.439  1.00  0.00     0.074 A 
ATOM     67  C   UNL     1       6.432   8.726  11.778  1.00  0.00     0.031 C 
ATOM     68  C   UNL     1       7.472   6.874  10.313  1.00  0.00     0.037 A 
BRANCH  55  69
ATOM     69  C   UNL     1       6.176  11.717   8.127  1.00  0.00     0.058 A 
ATOM     70  C   UNL     1       7.472  12.245   7.950  1.00  0.00     0.135 A 
ATOM     71  C   UNL     1       5.287  12.525   8.871  1.00  0.00     0.135 A 
ATOM     72  F   UNL     1       8.401  11.562   7.261  1.00  0.00    -0.206 F 
ATOM     73  C   UNL     1       7.878  13.445   8.537  1.00  0.00     0.059 A 
ATOM     74  C   UNL     1       5.655  13.749   9.419  1.00  0.00     0.059 A 
ATOM     75  F   UNL     1       4.051  12.121   9.188  1.00  0.00    -0.206 F 
ATOM     76  C   UNL     1       6.965  14.179   9.287  1.00  0.00     0.060 A 
BRANCH  76  77
ATOM     77  S   UNL     1       7.519  15.655  10.160  1.00  0.00     0.124 S 
ATOM     78  O   UNL     1       8.409  15.081  11.162  1.00  0.00    -0.237 OA
ATOM     79  O   UNL     1       8.160  16.415   9.093  1.00  0.00    -0.237 OA
ATOM     80  O   UNL     1       6.277  16.228  10.672  1.00  0.00    -0.744 OA
ENDBRANCH  76  77
ENDBRANCH  55  69
BRANCH  56  81
ATOM     81  C   UNL     1       3.513   7.041  14.753  1.00  0.00     0.058 A 
ATOM     82  C   UNL     1       4.362   7.205  15.861  1.00  0.00     0.135 A 
ATOM     83  C   UNL     1       2.171   7.435  14.935  1.00  0.00     0.135 A 
ATOM     84  F   UNL     1       5.660   6.876  15.771  1.00  0.00    -0.206 F 
ATOM     85  C   UNL     1       3.923   7.779  17.059  1.00  0.00     0.059 A 
ATOM     86  C   UNL     1       1.708   7.998  16.122  1.00  0.00     0.059 A 
ATOM     87  F   UNL     1       1.287   7.375  13.928  1.00  0.00    -0.206 F 
ATOM     88  C   UNL     1       2.597   8.195  17.171  1.00  0.00     0.060 A 
BRANCH  88  89
ATOM     89  S   UNL     1       2.071   9.102  18.644  1.00  0.00     0.124 S 
ATOM     90  O   UNL     1       2.159   8.077  19.677  1.00  0.00    -0.237 OA
ATOM     91  O   UNL     1       3.063  10.169  18.717  1.00  0.00    -0.237 OA
ATOM     92  O   UNL     1       0.717   9.537  18.310  1.00  0.00    -0.744 OA
ENDBRANCH  88  89
ENDBRANCH  56  81
BRANCH  68  93
ATOM     93  C   UNL     1       7.731   5.390  10.247  1.00  0.00     0.058 A 
ATOM     94  C   UNL     1       6.720   4.413  10.234  1.00  0.00     0.135 A 
ATOM     95  C   UNL     1       9.045   4.954  10.020  1.00  0.00     0.135 A 
ATOM     96  F   UNL     1       5.428   4.756  10.341  1.00  0.00    -0.206 F 
ATOM     97  C   UNL     1       7.007   3.061  10.037  1.00  0.00     0.059 A 
ATOM     98  C   UNL     1       9.352   3.615   9.790  1.00  0.00     0.059 A 
ATOM     99  F   UNL     1      10.049   5.846   9.959  1.00  0.00    -0.206 F 
ATOM    100  C   UNL     1       8.327   2.672   9.809  1.00  0.00     0.060 A 
BRANCH 100 101
ATOM    101  S   UNL     1       8.686   0.937   9.455  1.00  0.00     0.124 S 
ATOM    102  O   UNL     1       8.435   0.302  10.749  1.00  0.00    -0.237 OA
ATOM    103  O   UNL     1       7.717   0.625   8.403  1.00  0.00    -0.237 OA
ATOM    104  O   UNL     1      10.075   0.952   9.027  1.00  0.00    -0.744 OA
ENDBRANCH 100 101
ENDBRANCH  68  93
ENDBRANCH  42  43
ENDBRANCH  34  37
ENDBRANCH  32  33
ENDBRANCH  31  32
ENDBRANCH   1  31
TORSDOF 18
