REMARK SMILES Cc1ccc(Cl)c(Nc2ccccc2C(=O)NCC(=O)NCCCCNC(=O)c2ccc(-c3c4nc(c(-c5c(F)cc(S(=O)(=O)[O-])cc5F)c5ccc([nH]5)c(-c5c(F)cc(S(=O)(=O)[O-])cc5F)c5nc(c(-c6c(F)cc(S(=O)(=O)[O-])cc6F)c6ccc3[nH]6)C=C5)C=C4)cc2)c1Cl
REMARK SMILES IDX 23 1 22 2 21 3 19 4 20 5 18 7 17 8 15 9 16 10 14 12 9 13
REMARK SMILES IDX 10 14 11 15 13 16 12 17 8 18 7 20 1 21 2 22 3 23 95 24 4 25
REMARK SMILES IDX 96 26 5 27 6 28 24 29 25 30 26 31 27 32 28 34 29 35 30 36
REMARK SMILES IDX 94 37 31 38 93 39 32 40 33 41 34 42 87 43 35 44 92 45 86 46
REMARK SMILES IDX 88 47 36 48 91 49 85 50 84 51 37 53 71 54 50 55 70 56 51 57
REMARK SMILES IDX 54 58 69 59 89 60 52 61 53 62 68 64 90 65 55 66 38 67 39 68
REMARK SMILES IDX 48 69 40 70 41 71 47 72 49 73 42 74 43 75 44 76 45 77 46 78
REMARK SMILES IDX 72 79 73 80 82 81 74 82 75 83 81 84 83 85 76 86 77 87 78 88
REMARK SMILES IDX 79 89 80 90 56 91 57 92 66 93 58 94 59 95 65 96 67 97 60 98
REMARK SMILES IDX 61 99 62 100 63 101 64 102
REMARK H PARENT 21 6 17 11 8 19 26 33 88 52 54 63
REMARK Flexibility Score: inf
ROOT
ATOM      1  C   UNL     1      -1.138  -3.718   3.977  1.00  0.00     0.023 C 
ENDROOT
BRANCH   1   2
ATOM      2  C   UNL     1      -1.642  -3.550   2.548  1.00  0.00     0.116 C 
BRANCH   2   3
ATOM      3  N   UNL     1      -2.545  -2.429   2.479  1.00  0.00    -0.355 N 
ATOM      4  C   UNL     1      -2.200  -1.116   2.360  1.00  0.00     0.239 C 
ATOM      5  O   UNL     1      -3.083  -0.262   2.457  1.00  0.00    -0.273 OA
ATOM      6  H   UNL     1      -3.507  -2.632   2.522  1.00  0.00     0.163 HD
BRANCH   4   7
ATOM      7  C   UNL     1      -0.815  -0.763   1.827  1.00  0.00     0.216 C 
BRANCH   7   8
ATOM      8  N   UNL     1       0.437  -1.221   2.390  1.00  0.00    -0.343 N 
ATOM      9  C   UNL     1       1.530  -1.829   1.815  1.00  0.00     0.253 C 
ATOM     10  O   UNL     1       2.605  -1.631   2.395  1.00  0.00    -0.269 OA
ATOM     11  H   UNL     1       0.522  -1.071   3.359  1.00  0.00     0.164 HD
BRANCH   9  12
ATOM     12  C   UNL     1       1.504  -2.860   0.716  1.00  0.00     0.063 A 
ATOM     13  C   UNL     1       0.809  -2.902  -0.515  1.00  0.00     0.051 A 
ATOM     14  C   UNL     1       0.912  -4.084  -1.298  1.00  0.00     0.027 A 
ATOM     15  C   UNL     1       1.724  -5.159  -0.941  1.00  0.00     0.002 A 
ATOM     16  C   UNL     1       2.335  -3.968   1.045  1.00  0.00     0.016 A 
ATOM     17  C   UNL     1       2.458  -5.091   0.227  1.00  0.00     0.001 A 
BRANCH  13  18
ATOM     18  N   UNL     1       0.108  -1.866  -1.170  1.00  0.00    -0.352 N 
ATOM     19  H   UNL     1      -0.631  -2.193  -1.732  1.00  0.00     0.167 HD
BRANCH  18  20
ATOM     20  C   UNL     1       0.242  -0.455  -1.191  1.00  0.00     0.077 A 
ATOM     21  C   UNL     1       2.695   2.287  -0.144  1.00  0.00     0.046 C 
ATOM     22  C   UNL     1       1.438   1.589  -0.582  1.00  0.00    -0.030 A 
ATOM     23  C   UNL     1       0.228   2.299  -0.597  1.00  0.00     0.006 A 
ATOM     24  C   UNL     1       1.445   0.223  -0.925  1.00  0.00     0.069 A 
ATOM     25  C   UNL     1      -0.953   1.676  -0.988  1.00  0.00     0.023 A 
ATOM     26  Cl  UNL     1       2.974  -0.582  -1.125  1.00  0.00    -0.082 Cl
ATOM     27  C   UNL     1      -0.943   0.318  -1.293  1.00  0.00     0.066 A 
ATOM     28  Cl  UNL     1      -2.459  -0.435  -1.676  1.00  0.00    -0.082 Cl
ENDBRANCH  18  20
ENDBRANCH  13  18
ENDBRANCH   9  12
ENDBRANCH   7   8
ENDBRANCH   4   7
ENDBRANCH   2   3
ENDBRANCH   1   2
BRANCH   1  29
ATOM     29  C   UNL     1      -2.259  -4.072   4.956  1.00  0.00     0.023 C 
BRANCH  29  30
ATOM     30  C   UNL     1      -3.027  -5.330   4.581  1.00  0.00     0.116 C 
BRANCH  30  31
ATOM     31  N   UNL     1      -2.160  -6.495   4.493  1.00  0.00    -0.352 N 
ATOM     32  C   UNL     1      -2.412  -7.768   4.944  1.00  0.00     0.251 C 
ATOM     33  H   UNL     1      -1.288  -6.353   4.058  1.00  0.00     0.163 HD
ATOM     34  O   UNL     1      -1.531  -8.612   4.962  1.00  0.00    -0.269 OA
BRANCH  32  35
ATOM     35  C   UNL     1      -3.771  -8.072   5.431  1.00  0.00     0.039 A 
ATOM     36  C   UNL     1      -3.926  -8.608   6.709  1.00  0.00     0.014 A 
ATOM     37  C   UNL     1      -4.882  -7.750   4.646  1.00  0.00     0.014 A 
ATOM     38  C   UNL     1      -5.211  -8.777   7.224  1.00  0.00     0.010 A 
ATOM     39  C   UNL     1      -6.156  -7.852   5.189  1.00  0.00     0.010 A 
ATOM     40  C   UNL     1      -6.333  -8.373   6.480  1.00  0.00    -0.014 A 
BRANCH  40  41
ATOM     41  C   UNL     1      -7.704  -8.496   7.034  1.00  0.00     0.031 A 
ATOM     42  C   UNL     1      -8.698  -9.408   6.368  1.00  0.00     0.074 A 
ATOM     43  C   UNL     1      -8.068  -7.739   8.089  1.00  0.00     0.049 A 
ATOM     44  N   UNL     1      -9.958  -9.604   6.657  1.00  0.00    -0.248 NA
ATOM     45  C   UNL     1      -8.224 -10.182   5.207  1.00  0.00     0.031 C 
ATOM     46  C   UNL     1      -7.207  -6.775   8.780  1.00  0.00     0.029 A 
ATOM     47  N   UNL     1      -9.262  -7.652   8.759  1.00  0.00    -0.354 N 
ATOM     48  C   UNL     1     -10.430 -10.498   5.704  1.00  0.00     0.074 A 
ATOM     49  C   UNL     1      -9.336 -10.777   4.802  1.00  0.00     0.031 C 
ATOM     50  C   UNL     1      -7.895  -6.210   9.786  1.00  0.00     0.029 A 
ATOM     51  C   UNL     1      -9.254  -6.742   9.791  1.00  0.00     0.049 A 
ATOM     52  H   UNL     1     -10.052  -8.191   8.524  1.00  0.00     0.167 HD
ATOM     53  C   UNL     1     -11.661 -11.052   5.605  1.00  0.00     0.037 A 
ATOM     54  C   UNL     1     -10.235  -6.373  10.637  1.00  0.00     0.037 A 
ATOM     55  C   UNL     1     -12.728 -10.810   6.539  1.00  0.00     0.049 A 
ATOM     56  C   UNL     1     -11.588  -7.026  10.515  1.00  0.00     0.074 A 
ATOM     57  C   UNL     1     -13.980 -11.397   6.581  1.00  0.00     0.029 A 
ATOM     58  N   UNL     1     -12.670  -9.912   7.594  1.00  0.00    -0.354 N 
ATOM     59  N   UNL     1     -11.988  -7.941   9.664  1.00  0.00    -0.248 NA
ATOM     60  C   UNL     1     -12.620  -6.604  11.472  1.00  0.00     0.031 C 
ATOM     61  C   UNL     1     -14.697 -10.819   7.632  1.00  0.00     0.029 A 
ATOM     62  C   UNL     1     -13.874  -9.910   8.276  1.00  0.00     0.049 A 
ATOM     63  H   UNL     1     -11.889  -9.358   7.823  1.00  0.00     0.167 HD
ATOM     64  C   UNL     1     -13.305  -8.227  10.006  1.00  0.00     0.074 A 
ATOM     65  C   UNL     1     -13.630  -7.399  11.148  1.00  0.00     0.031 C 
ATOM     66  C   UNL     1     -14.170  -9.095   9.427  1.00  0.00     0.037 A 
BRANCH  53  67
ATOM     67  C   UNL     1     -11.930 -11.988   4.460  1.00  0.00     0.058 A 
ATOM     68  C   UNL     1     -11.382 -13.280   4.419  1.00  0.00     0.135 A 
ATOM     69  C   UNL     1     -12.819 -11.619   3.438  1.00  0.00     0.135 A 
ATOM     70  F   UNL     1     -10.511 -13.676   5.360  1.00  0.00    -0.206 F 
ATOM     71  C   UNL     1     -11.704 -14.172   3.402  1.00  0.00     0.059 A 
ATOM     72  C   UNL     1     -13.176 -12.504   2.425  1.00  0.00     0.059 A 
ATOM     73  F   UNL     1     -13.365 -10.393   3.428  1.00  0.00    -0.206 F 
ATOM     74  C   UNL     1     -12.610 -13.778   2.415  1.00  0.00     0.060 A 
BRANCH  74  75
ATOM     75  S   UNL     1     -13.062 -14.970   1.136  1.00  0.00     0.124 S 
ATOM     76  O   UNL     1     -11.840 -15.018   0.338  1.00  0.00    -0.237 OA
ATOM     77  O   UNL     1     -13.355 -16.167   1.917  1.00  0.00    -0.237 OA
ATOM     78  O   UNL     1     -14.212 -14.351   0.485  1.00  0.00    -0.744 OA
ENDBRANCH  74  75
ENDBRANCH  53  67
BRANCH  54  79
ATOM     79  C   UNL     1      -9.988  -5.341  11.681  1.00  0.00     0.058 A 
ATOM     80  C   UNL     1      -9.991  -5.676  13.044  1.00  0.00     0.135 A 
ATOM     81  C   UNL     1      -9.787  -3.994  11.341  1.00  0.00     0.135 A 
ATOM     82  F   UNL     1     -10.182  -6.949  13.420  1.00  0.00    -0.206 F 
ATOM     83  C   UNL     1      -9.849  -4.708  14.034  1.00  0.00     0.059 A 
ATOM     84  C   UNL     1      -9.612  -3.013  12.312  1.00  0.00     0.059 A 
ATOM     85  F   UNL     1      -9.753  -3.623  10.052  1.00  0.00    -0.206 F 
ATOM     86  C   UNL     1      -9.668  -3.377  13.657  1.00  0.00     0.060 A 
BRANCH  86  87
ATOM     87  S   UNL     1      -9.492  -2.126  14.947  1.00  0.00     0.124 S 
ATOM     88  O   UNL     1     -10.865  -2.001  15.421  1.00  0.00    -0.237 OA
ATOM     89  O   UNL     1      -8.553  -2.761  15.867  1.00  0.00    -0.237 OA
ATOM     90  O   UNL     1      -8.965  -0.972  14.223  1.00  0.00    -0.744 OA
ENDBRANCH  86  87
ENDBRANCH  54  79
BRANCH  66  91
ATOM     91  C   UNL     1     -15.532  -9.236  10.046  1.00  0.00     0.058 A 
ATOM     92  C   UNL     1     -16.506  -8.233   9.924  1.00  0.00     0.135 A 
ATOM     93  C   UNL     1     -15.884 -10.415  10.723  1.00  0.00     0.135 A 
ATOM     94  F   UNL     1     -16.219  -7.085   9.291  1.00  0.00    -0.206 F 
ATOM     95  C   UNL     1     -17.775  -8.385  10.473  1.00  0.00     0.059 A 
ATOM     96  C   UNL     1     -17.156 -10.600  11.254  1.00  0.00     0.059 A 
ATOM     97  F   UNL     1     -14.992 -11.410  10.857  1.00  0.00    -0.206 F 
ATOM     98  C   UNL     1     -18.091  -9.573  11.134  1.00  0.00     0.060 A 
BRANCH  98  99
ATOM     99  S   UNL     1     -19.752  -9.772  11.812  1.00  0.00     0.124 S 
ATOM    100  O   UNL     1     -19.696  -8.908  12.986  1.00  0.00    -0.237 OA
ATOM    101  O   UNL     1     -20.595  -9.301  10.717  1.00  0.00    -0.237 OA
ATOM    102  O   UNL     1     -19.837 -11.203  12.088  1.00  0.00    -0.744 OA
ENDBRANCH  98  99
ENDBRANCH  66  91
ENDBRANCH  40  41
ENDBRANCH  32  35
ENDBRANCH  30  31
ENDBRANCH  29  30
ENDBRANCH   1  29
TORSDOF 18
