REMARK SMILES O=C(NCCCCNC(=O)[C@@H]1CCCC[C@@H]1NS(=O)(=O)c1ccc2ccccc2c1)c1ccc(-c2c3nc(c(-c4c(F)cc(S(=O)(=O)[O-])cc4F)c4ccc([nH]4)c(-c4c(F)cc(S(=O)(=O)[O-])cc4F)c4nc(c(-c5c(F)cc(S(=O)(=O)[O-])cc5F)c5ccc2[nH]5)C=C4)C=C3)cc1
REMARK SMILES IDX 5 1 4 2 3 3 1 4 2 5 31 7 32 8 96 9 33 10 95 11 34 12 35 13
REMARK SMILES IDX 36 14 89 15 37 16 94 17 88 18 90 19 38 20 93 21 87 22 86 23
REMARK SMILES IDX 39 25 73 26 52 27 72 28 53 29 56 30 71 31 91 32 54 33 55 34
REMARK SMILES IDX 70 36 92 37 57 38 40 39 41 40 50 41 42 42 43 43 49 44 51 45
REMARK SMILES IDX 44 46 45 47 46 48 47 49 48 50 74 51 75 52 84 53 76 54 77 55
REMARK SMILES IDX 83 56 85 57 78 58 79 59 80 60 81 61 82 62 58 63 59 64 68 65
REMARK SMILES IDX 60 66 61 67 67 68 69 69 62 70 63 71 64 72 65 73 66 74 6 75
REMARK SMILES IDX 7 76 8 77 9 78 10 80 11 81 12 82 16 83 13 84 15 85 14 86
REMARK SMILES IDX 17 87 18 89 19 90 20 91 21 92 22 93 30 94 23 95 29 96 24 97
REMARK SMILES IDX 28 98 25 99 27 100 26 101
REMARK H PARENT 3 6 90 24 56 35 8 79 17 88
REMARK Flexibility Score: inf
ROOT
ATOM      1  C   UNL     1       4.879   2.054   1.835  1.00  0.00     0.023 C 
ENDROOT
BRANCH   1   2
ATOM      2  C   UNL     1       4.544   0.723   1.168  1.00  0.00     0.116 C 
BRANCH   2   3
ATOM      3  N   UNL     1       3.115   0.457   1.119  1.00  0.00    -0.352 N 
ATOM      4  O   UNL     1       1.139  -0.039   0.155  1.00  0.00    -0.269 OA
ATOM      5  C   UNL     1       2.361   0.004   0.062  1.00  0.00     0.251 C 
ATOM      6  H   UNL     1       2.621   0.622   1.955  1.00  0.00     0.163 HD
BRANCH   5   7
ATOM      7  C   UNL     1       3.032  -0.403  -1.192  1.00  0.00     0.039 A 
ATOM      8  C   UNL     1       4.153  -1.237  -1.161  1.00  0.00     0.014 A 
ATOM      9  C   UNL     1       2.533   0.060  -2.412  1.00  0.00     0.014 A 
ATOM     10  C   UNL     1       4.846  -1.508  -2.336  1.00  0.00     0.010 A 
ATOM     11  C   UNL     1       3.188  -0.274  -3.600  1.00  0.00     0.010 A 
ATOM     12  C   UNL     1       4.362  -1.042  -3.570  1.00  0.00    -0.014 A 
BRANCH  12  13
ATOM     13  C   UNL     1       5.055  -1.437  -4.822  1.00  0.00     0.031 A 
ATOM     14  C   UNL     1       5.741  -0.419  -5.688  1.00  0.00     0.074 A 
ATOM     15  C   UNL     1       5.057  -2.740  -5.169  1.00  0.00     0.049 A 
ATOM     16  N   UNL     1       6.375  -0.598  -6.819  1.00  0.00    -0.248 NA
ATOM     17  C   UNL     1       5.708   0.980  -5.235  1.00  0.00     0.031 C 
ATOM     18  C   UNL     1       4.407  -3.813  -4.411  1.00  0.00     0.029 A 
ATOM     19  N   UNL     1       5.623  -3.385  -6.237  1.00  0.00    -0.354 N 
ATOM     20  C   UNL     1       6.799   0.662  -7.224  1.00  0.00     0.074 A 
ATOM     21  C   UNL     1       6.335   1.602  -6.225  1.00  0.00     0.031 C 
ATOM     22  C   UNL     1       4.632  -4.984  -5.023  1.00  0.00     0.029 A 
ATOM     23  C   UNL     1       5.390  -4.740  -6.245  1.00  0.00     0.049 A 
ATOM     24  H   UNL     1       6.145  -2.924  -6.932  1.00  0.00     0.167 HD
ATOM     25  C   UNL     1       7.513   0.998  -8.326  1.00  0.00     0.037 A 
ATOM     26  C   UNL     1       5.724  -5.681  -7.147  1.00  0.00     0.037 A 
ATOM     27  C   UNL     1       7.986   0.049  -9.303  1.00  0.00     0.049 A 
ATOM     28  C   UNL     1       6.497  -5.278  -8.368  1.00  0.00     0.074 A 
ATOM     29  C   UNL     1       8.767   0.284 -10.422  1.00  0.00     0.029 A 
ATOM     30  N   UNL     1       7.715  -1.311  -9.286  1.00  0.00    -0.354 N 
ATOM     31  N   UNL     1       6.931  -4.088  -8.709  1.00  0.00    -0.248 NA
ATOM     32  C   UNL     1       6.820  -6.338  -9.331  1.00  0.00     0.031 C 
ATOM     33  C   UNL     1       8.929  -0.926 -11.105  1.00  0.00     0.029 A 
ATOM     34  C   UNL     1       8.287  -1.923 -10.389  1.00  0.00     0.049 A 
ATOM     35  H   UNL     1       7.192  -1.774  -8.591  1.00  0.00     0.167 HD
ATOM     36  C   UNL     1       7.587  -4.258  -9.921  1.00  0.00     0.074 A 
ATOM     37  C   UNL     1       7.510  -5.668 -10.245  1.00  0.00     0.031 C 
ATOM     38  C   UNL     1       8.196  -3.329 -10.698  1.00  0.00     0.037 A 
BRANCH  25  39
ATOM     39  C   UNL     1       7.818   2.454  -8.552  1.00  0.00     0.058 A 
ATOM     40  C   UNL     1       8.777   3.137  -7.788  1.00  0.00     0.135 A 
ATOM     41  C   UNL     1       7.187   3.158  -9.591  1.00  0.00     0.135 A 
ATOM     42  F   UNL     1       9.402   2.515  -6.775  1.00  0.00    -0.206 F 
ATOM     43  C   UNL     1       9.085   4.472  -8.032  1.00  0.00     0.059 A 
ATOM     44  C   UNL     1       7.495   4.487  -9.867  1.00  0.00     0.059 A 
ATOM     45  F   UNL     1       6.263   2.552 -10.354  1.00  0.00    -0.206 F 
ATOM     46  C   UNL     1       8.438   5.139  -9.074  1.00  0.00     0.060 A 
BRANCH  46  47
ATOM     47  S   UNL     1       8.855   6.869  -9.385  1.00  0.00     0.124 S 
ATOM     48  O   UNL     1       8.196   7.532  -8.264  1.00  0.00    -0.237 OA
ATOM     49  O   UNL     1      10.314   6.852  -9.341  1.00  0.00    -0.237 OA
ATOM     50  O   UNL     1       8.274   7.129 -10.697  1.00  0.00    -0.744 OA
ENDBRANCH  46  47
ENDBRANCH  25  39
BRANCH  26  51
ATOM     51  C   UNL     1       5.304  -7.089  -6.929  1.00  0.00     0.058 A 
ATOM     52  C   UNL     1       6.237  -8.082  -6.604  1.00  0.00     0.135 A 
ATOM     53  C   UNL     1       3.951  -7.460  -7.008  1.00  0.00     0.135 A 
ATOM     54  F   UNL     1       7.541  -7.776  -6.521  1.00  0.00    -0.206 F 
ATOM     55  C   UNL     1       5.848  -9.398  -6.375  1.00  0.00     0.059 A 
ATOM     56  C   UNL     1       3.535  -8.762  -6.756  1.00  0.00     0.059 A 
ATOM     57  F   UNL     1       3.017  -6.540  -7.296  1.00  0.00    -0.206 F 
ATOM     58  C   UNL     1       4.493  -9.727  -6.450  1.00  0.00     0.060 A 
BRANCH  58  59
ATOM     59  S   UNL     1       3.990 -11.424  -6.095  1.00  0.00     0.124 S 
ATOM     60  O   UNL     1       4.381 -12.108  -7.322  1.00  0.00    -0.237 OA
ATOM     61  O   UNL     1       4.779 -11.739  -4.909  1.00  0.00    -0.237 OA
ATOM     62  O   UNL     1       2.552 -11.305  -5.868  1.00  0.00    -0.744 OA
ENDBRANCH  58  59
ENDBRANCH  26  51
BRANCH  38  63
ATOM     63  C   UNL     1       8.837  -3.810 -11.968  1.00  0.00     0.058 A 
ATOM     64  C   UNL     1       8.069  -4.162 -13.088  1.00  0.00     0.135 A 
ATOM     65  C   UNL     1      10.235  -3.872 -12.082  1.00  0.00     0.135 A 
ATOM     66  F   UNL     1       6.728  -4.131 -13.025  1.00  0.00    -0.206 F 
ATOM     67  C   UNL     1       8.664  -4.575 -14.275  1.00  0.00     0.059 A 
ATOM     68  C   UNL     1      10.852  -4.259 -13.267  1.00  0.00     0.059 A 
ATOM     69  F   UNL     1      11.014  -3.539 -11.041  1.00  0.00    -0.206 F 
ATOM     70  C   UNL     1      10.057  -4.618 -14.356  1.00  0.00     0.060 A 
BRANCH  70  71
ATOM     71  S   UNL     1      10.820  -5.114 -15.915  1.00  0.00     0.124 S 
ATOM     72  O   UNL     1      10.603  -6.557 -15.902  1.00  0.00    -0.237 OA
ATOM     73  O   UNL     1      10.041  -4.365 -16.897  1.00  0.00    -0.237 OA
ATOM     74  O   UNL     1      12.207  -4.685 -15.766  1.00  0.00    -0.744 OA
ENDBRANCH  70  71
ENDBRANCH  38  63
ENDBRANCH  12  13
ENDBRANCH   5   7
ENDBRANCH   2   3
ENDBRANCH   1   2
BRANCH   1  75
ATOM     75  C   UNL     1       4.410   2.196   3.285  1.00  0.00     0.023 C 
BRANCH  75  76
ATOM     76  C   UNL     1       4.880   1.081   4.215  1.00  0.00     0.116 C 
BRANCH  76  77
ATOM     77  N   UNL     1       6.323   1.088   4.393  1.00  0.00    -0.356 N 
ATOM     78  C   UNL     1       7.086   1.423   5.471  1.00  0.00     0.224 C 
ATOM     79  H   UNL     1       6.834   0.802   3.602  1.00  0.00     0.163 HD
ATOM     80  O   UNL     1       8.307   1.278   5.390  1.00  0.00    -0.275 OA
BRANCH  78  81
ATOM     81  C   UNL     1       6.429   1.921   6.746  1.00  0.00     0.096 C 
ATOM     82  C   UNL     1       6.831   3.353   7.098  1.00  0.00     0.015 C 
ATOM     83  C   UNL     1       6.683   0.971   7.931  1.00  0.00     0.082 C 
ATOM     84  C   UNL     1       5.952   3.858   8.243  1.00  0.00     0.001 C 
ATOM     85  C   UNL     1       5.823   1.445   9.105  1.00  0.00     0.021 C 
ATOM     86  C   UNL     1       5.952   2.929   9.456  1.00  0.00     0.002 C 
BRANCH  83  87
ATOM     87  N   UNL     1       8.126   0.773   8.165  1.00  0.00    -0.207 NA
ATOM     88  H   UNL     1       8.565   1.444   7.535  1.00  0.00     0.141 HD
BRANCH  87  89
ATOM     89  S   UNL     1       9.047   0.868   9.542  1.00  0.00     0.240 S 
ATOM     90  O   UNL     1      10.323   0.275   9.221  1.00  0.00    -0.207 OA
ATOM     91  O   UNL     1       8.975   2.220  10.061  1.00  0.00    -0.207 OA
BRANCH  89  92
ATOM     92  C   UNL     1       8.254  -0.221  10.691  1.00  0.00     0.083 A 
ATOM     93  C   UNL     1       7.726   0.295  11.876  1.00  0.00     0.022 A 
ATOM     94  C   UNL     1       8.126  -1.575  10.376  1.00  0.00     0.030 A 
ATOM     95  C   UNL     1       7.005  -0.542  12.727  1.00  0.00     0.010 A 
ATOM     96  C   UNL     1       7.413  -2.426  11.234  1.00  0.00    -0.017 A 
ATOM     97  C   UNL     1       6.831  -1.899  12.414  1.00  0.00    -0.018 A 
ATOM     98  C   UNL     1       7.251  -3.788  10.940  1.00  0.00     0.009 A 
ATOM     99  C   UNL     1       6.086  -2.744  13.250  1.00  0.00     0.009 A 
ATOM    100  C   UNL     1       6.513  -4.616  11.788  1.00  0.00     0.001 A 
ATOM    101  C   UNL     1       5.926  -4.094  12.937  1.00  0.00     0.001 A 
ENDBRANCH  89  92
ENDBRANCH  87  89
ENDBRANCH  83  87
ENDBRANCH  78  81
ENDBRANCH  76  77
ENDBRANCH  75  76
ENDBRANCH   1  75
TORSDOF 17
