REMARK SMILES O=C(Cc1ccc(NC(=O)c2ccc(N3C(=O)c4ccccc4C3=O)cc2)cc1)NCCCCNC(=O)c1ccc(-c2c3nc(c(-c4c(F)cc(S(=O)(=O)[O-])cc4F)c4ccc([nH]4)c(-c4c(F)cc(S(=O)(=O)[O-])cc4F)c4nc(c(-c5c(F)cc(S(=O)(=O)[O-])cc5F)c5ccc2[nH]5)C=C4)C=C3)cc1
REMARK SMILES IDX 32 1 31 2 30 3 1 4 2 5 3 7 4 8 5 9 29 10 6 11 28 12 7 13
REMARK SMILES IDX 8 14 9 15 10 17 11 18 12 19 27 20 13 21 26 22 14 23 15 24
REMARK SMILES IDX 16 25 24 26 17 27 18 28 23 29 25 30 19 31 22 32 20 33 21 34
REMARK SMILES IDX 33 35 34 36 35 37 36 38 37 40 38 41 39 42 103 43 40 44
REMARK SMILES IDX 102 45 41 46 42 47 43 48 96 49 44 50 101 51 95 52 97 53
REMARK SMILES IDX 45 54 100 55 94 56 93 57 46 59 80 60 59 61 79 62 60 63 63 64
REMARK SMILES IDX 78 65 98 66 61 67 62 68 77 70 99 71 64 72 47 73 48 74 57 75
REMARK SMILES IDX 49 76 50 77 56 78 58 79 51 80 52 81 53 82 54 83 55 84 81 85
REMARK SMILES IDX 82 86 91 87 83 88 84 89 90 90 92 91 85 92 86 93 87 94 88 95
REMARK SMILES IDX 89 96 65 97 66 98 75 99 67 100 68 101 74 102 76 103 69 104
REMARK SMILES IDX 70 105 71 106 72 107 73 108
REMARK H PARENT 30 6 8 16 35 39 97 58 63 69
REMARK Flexibility Score: inf
ROOT
ATOM      1  C   UNL     1       2.433   3.167  -1.767  1.00  0.00     0.023 C 
ENDROOT
BRANCH   1   2
ATOM      2  C   UNL     1       2.127   1.671  -1.854  1.00  0.00     0.116 C 
BRANCH   2   3
ATOM      3  N   UNL     1       2.910   0.921  -0.895  1.00  0.00    -0.356 N 
ATOM      4  O   UNL     1       1.162  -0.063   0.227  1.00  0.00    -0.275 OA
ATOM      5  C   UNL     1       2.366   0.134   0.095  1.00  0.00     0.224 C 
ATOM      6  H   UNL     1       3.891   0.978  -0.955  1.00  0.00     0.163 HD
BRANCH   5   7
ATOM      7  C   UNL     1       3.397  -0.426   1.064  1.00  0.00     0.135 C 
BRANCH   7   8
ATOM      8  C   UNL     1       4.162  -1.613   0.530  1.00  0.00    -0.039 A 
ATOM      9  C   UNL     1       3.833  -2.901   0.955  1.00  0.00     0.006 A 
ATOM     10  C   UNL     1       5.221  -1.464  -0.375  1.00  0.00     0.006 A 
ATOM     11  C   UNL     1       4.522  -4.012   0.460  1.00  0.00     0.026 A 
ATOM     12  C   UNL     1       5.880  -2.584  -0.899  1.00  0.00     0.026 A 
ATOM     13  C   UNL     1       5.504  -3.875  -0.523  1.00  0.00     0.041 A 
BRANCH  13  14
ATOM     14  N   UNL     1       6.162  -4.953  -1.155  1.00  0.00    -0.322 N 
ATOM     15  C   UNL     1       5.848  -6.295  -1.242  1.00  0.00     0.255 C 
ATOM     16  H   UNL     1       6.994  -4.703  -1.616  1.00  0.00     0.170 HD
ATOM     17  O   UNL     1       6.659  -7.108  -1.678  1.00  0.00    -0.269 OA
BRANCH  15  18
ATOM     18  C   UNL     1       4.508  -6.774  -0.858  1.00  0.00     0.040 A 
ATOM     19  C   UNL     1       4.391  -7.710   0.165  1.00  0.00     0.016 A 
ATOM     20  C   UNL     1       3.366  -6.222  -1.435  1.00  0.00     0.016 A 
ATOM     21  C   UNL     1       3.128  -7.982   0.708  1.00  0.00     0.028 A 
ATOM     22  C   UNL     1       2.111  -6.498  -0.882  1.00  0.00     0.028 A 
ATOM     23  C   UNL     1       1.968  -7.338   0.237  1.00  0.00     0.052 A 
BRANCH  23  24
ATOM     24  N   UNL     1       0.710  -7.479   0.903  1.00  0.00    -0.242 N 
ATOM     25  C   UNL     1      -0.473  -6.890   0.494  1.00  0.00     0.266 C 
ATOM     26  C   UNL     1       0.509  -8.164   2.087  1.00  0.00     0.266 C 
ATOM     27  O   UNL     1      -0.761  -6.212  -0.475  1.00  0.00    -0.268 OA
ATOM     28  C   UNL     1      -1.487  -7.217   1.488  1.00  0.00     0.053 A 
ATOM     29  C   UNL     1      -0.893  -7.995   2.454  1.00  0.00     0.053 A 
ATOM     30  O   UNL     1       1.261  -8.802   2.804  1.00  0.00    -0.268 OA
ATOM     31  C   UNL     1      -2.820  -6.859   1.551  1.00  0.00     0.015 A 
ATOM     32  C   UNL     1      -1.598  -8.466   3.546  1.00  0.00     0.015 A 
ATOM     33  C   UNL     1      -3.558  -7.325   2.643  1.00  0.00     0.001 A 
ATOM     34  C   UNL     1      -2.952  -8.123   3.633  1.00  0.00     0.001 A 
ENDBRANCH  23  24
ENDBRANCH  15  18
ENDBRANCH  13  14
ENDBRANCH   7   8
ENDBRANCH   5   7
ENDBRANCH   2   3
ENDBRANCH   1   2
BRANCH   1  35
ATOM     35  C   UNL     1       3.911   3.541  -1.939  1.00  0.00     0.023 C 
BRANCH  35  36
ATOM     36  C   UNL     1       4.566   3.069  -3.234  1.00  0.00     0.116 C 
BRANCH  36  37
ATOM     37  N   UNL     1       3.983   3.687  -4.412  1.00  0.00    -0.352 N 
ATOM     38  C   UNL     1       4.601   4.327  -5.460  1.00  0.00     0.251 C 
ATOM     39  H   UNL     1       3.001   3.640  -4.469  1.00  0.00     0.163 HD
ATOM     40  O   UNL     1       3.920   4.924  -6.290  1.00  0.00    -0.269 OA
BRANCH  38  41
ATOM     41  C   UNL     1       6.079   4.327  -5.579  1.00  0.00     0.039 A 
ATOM     42  C   UNL     1       6.725   5.521  -5.911  1.00  0.00     0.014 A 
ATOM     43  C   UNL     1       6.826   3.162  -5.384  1.00  0.00     0.014 A 
ATOM     44  C   UNL     1       8.121   5.563  -5.981  1.00  0.00     0.010 A 
ATOM     45  C   UNL     1       8.220   3.219  -5.394  1.00  0.00     0.010 A 
ATOM     46  C   UNL     1       8.883   4.420  -5.688  1.00  0.00    -0.014 A 
BRANCH  46  47
ATOM     47  C   UNL     1      10.370   4.469  -5.670  1.00  0.00     0.031 A 
ATOM     48  C   UNL     1      11.172   3.661  -6.655  1.00  0.00     0.074 A 
ATOM     49  C   UNL     1      11.002   5.190  -4.722  1.00  0.00     0.049 A 
ATOM     50  N   UNL     1      12.469   3.512  -6.739  1.00  0.00    -0.248 NA
ATOM     51  C   UNL     1      10.415   2.904  -7.663  1.00  0.00     0.031 C 
ATOM     52  C   UNL     1      10.342   5.981  -3.681  1.00  0.00     0.029 A 
ATOM     53  N   UNL     1      12.341   5.365  -4.471  1.00  0.00    -0.354 N 
ATOM     54  C   UNL     1      12.684   2.637  -7.797  1.00  0.00     0.074 A 
ATOM     55  C   UNL     1      11.381   2.251  -8.294  1.00  0.00     0.031 C 
ATOM     56  C   UNL     1      11.276   6.564  -2.912  1.00  0.00     0.029 A 
ATOM     57  C   UNL     1      12.599   6.163  -3.381  1.00  0.00     0.049 A 
ATOM     58  H   UNL     1      13.049   4.956  -5.019  1.00  0.00     0.167 HD
ATOM     59  C   UNL     1      13.859   2.210  -8.321  1.00  0.00     0.037 A 
ATOM     60  C   UNL     1      13.768   6.524  -2.815  1.00  0.00     0.037 A 
ATOM     61  C   UNL     1      15.155   2.614  -7.840  1.00  0.00     0.049 A 
ATOM     62  C   UNL     1      15.059   6.043  -3.417  1.00  0.00     0.074 A 
ATOM     63  C   UNL     1      16.402   2.273  -8.337  1.00  0.00     0.029 A 
ATOM     64  N   UNL     1      15.375   3.449  -6.755  1.00  0.00    -0.354 N 
ATOM     65  N   UNL     1      15.243   5.256  -4.450  1.00  0.00    -0.248 NA
ATOM     66  C   UNL     1      16.302   6.503  -2.783  1.00  0.00     0.031 C 
ATOM     67  C   UNL     1      17.375   2.874  -7.530  1.00  0.00     0.029 A 
ATOM     68  C   UNL     1      16.735   3.623  -6.557  1.00  0.00     0.049 A 
ATOM     69  H   UNL     1      14.667   3.857  -6.205  1.00  0.00     0.167 HD
ATOM     70  C   UNL     1      16.620   5.146  -4.604  1.00  0.00     0.074 A 
ATOM     71  C   UNL     1      17.223   5.956  -3.565  1.00  0.00     0.031 C 
ATOM     72  C   UNL     1      17.322   4.438  -5.523  1.00  0.00     0.037 A 
BRANCH  59  73
ATOM     73  C   UNL     1      13.796   1.260  -9.485  1.00  0.00     0.058 A 
ATOM     74  C   UNL     1      13.379   1.683 -10.757  1.00  0.00     0.135 A 
ATOM     75  C   UNL     1      14.189  -0.081  -9.338  1.00  0.00     0.135 A 
ATOM     76  F   UNL     1      12.980   2.951 -10.950  1.00  0.00    -0.206 F 
ATOM     77  C   UNL     1      13.322   0.806 -11.834  1.00  0.00     0.059 A 
ATOM     78  C   UNL     1      14.166  -0.970 -10.409  1.00  0.00     0.059 A 
ATOM     79  F   UNL     1      14.598  -0.538  -8.145  1.00  0.00    -0.206 F 
ATOM     80  C   UNL     1      13.715  -0.521 -11.650  1.00  0.00     0.060 A 
BRANCH  80  81
ATOM     81  S   UNL     1      13.634  -1.648 -13.058  1.00  0.00     0.124 S 
ATOM     82  O   UNL     1      12.197  -1.879 -13.161  1.00  0.00    -0.237 OA
ATOM     83  O   UNL     1      14.227  -0.854 -14.129  1.00  0.00    -0.237 OA
ATOM     84  O   UNL     1      14.424  -2.794 -12.621  1.00  0.00    -0.744 OA
ENDBRANCH  80  81
ENDBRANCH  59  73
BRANCH  60  85
ATOM     85  C   UNL     1      13.768   7.404  -1.616  1.00  0.00     0.058 A 
ATOM     86  C   UNL     1      14.186   8.740  -1.701  1.00  0.00     0.135 A 
ATOM     87  C   UNL     1      13.335   6.931  -0.367  1.00  0.00     0.135 A 
ATOM     88  F   UNL     1      14.614   9.235  -2.872  1.00  0.00    -0.206 F 
ATOM     89  C   UNL     1      14.189   9.574  -0.588  1.00  0.00     0.059 A 
ATOM     90  C   UNL     1      13.307   7.752   0.755  1.00  0.00     0.059 A 
ATOM     91  F   UNL     1      12.909   5.665  -0.238  1.00  0.00    -0.206 F 
ATOM     92  C   UNL     1      13.745   9.071   0.636  1.00  0.00     0.060 A 
BRANCH  92  93
ATOM     93  S   UNL     1      13.700  10.176   2.064  1.00  0.00     0.124 S 
ATOM     94  O   UNL     1      15.113  10.260   2.414  1.00  0.00    -0.237 OA
ATOM     95  O   UNL     1      13.108  11.385   1.499  1.00  0.00    -0.237 OA
ATOM     96  O   UNL     1      12.854   9.459   3.014  1.00  0.00    -0.744 OA
ENDBRANCH  92  93
ENDBRANCH  60  85
BRANCH  72  97
ATOM     97  C   UNL     1      18.822   4.529  -5.470  1.00  0.00     0.058 A 
ATOM     98  C   UNL     1      19.565   3.878  -4.474  1.00  0.00     0.135 A 
ATOM     99  C   UNL     1      19.526   5.237  -6.458  1.00  0.00     0.135 A 
ATOM    100  F   UNL     1      18.940   3.195  -3.502  1.00  0.00    -0.206 F 
ATOM    101  C   UNL     1      20.955   3.941  -4.447  1.00  0.00     0.059 A 
ATOM    102  C   UNL     1      20.916   5.293  -6.465  1.00  0.00     0.059 A 
ATOM    103  F   UNL     1      18.863   5.870  -7.439  1.00  0.00    -0.206 F 
ATOM    104  C   UNL     1      21.622   4.651  -5.448  1.00  0.00     0.060 A 
BRANCH 104 105
ATOM    105  S   UNL     1      23.427   4.697  -5.422  1.00  0.00     0.124 S 
ATOM    106  O   UNL     1      23.681   5.645  -4.343  1.00  0.00    -0.237 OA
ATOM    107  O   UNL     1      23.772   3.307  -5.140  1.00  0.00    -0.237 OA
ATOM    108  O   UNL     1      23.773   5.162  -6.762  1.00  0.00    -0.744 OA
ENDBRANCH 104 105
ENDBRANCH  72  97
ENDBRANCH  46  47
ENDBRANCH  38  41
ENDBRANCH  36  37
ENDBRANCH  35  36
ENDBRANCH   1  35
TORSDOF 18
