REMARK SMILES CC(C)C[C@H](NC(=O)Cc1ccccc1)C(=O)NCCCCNC(=O)c1ccc(-c2c3nc(c(-c4c(F)cc(S(=O)(=O)[O-])cc4F)c4ccc([nH]4)c(-c4c(F)cc(S(=O)(=O)[O-])cc4F)c4nc(c(-c5c(F)cc(S(=O)(=O)[O-])cc5F)c5ccc2[nH]5)C=C4)C=C3)cc1
REMARK SMILES IDX 20 1 19 2 18 3 16 4 17 5 5 7 4 8 2 9 1 10 3 11 6 12 7 13
REMARK SMILES IDX 8 15 9 16 10 17 11 18 15 19 12 20 14 21 13 22 21 23 22 24
REMARK SMILES IDX 23 25 24 26 25 28 26 29 27 30 91 31 28 32 90 33 29 34 30 35
REMARK SMILES IDX 31 36 84 37 32 38 89 39 83 40 85 41 33 42 88 43 82 44 81 45
REMARK SMILES IDX 34 47 68 48 47 49 67 50 48 51 51 52 66 53 86 54 49 55 50 56
REMARK SMILES IDX 65 58 87 59 52 60 35 61 36 62 45 63 37 64 38 65 44 66 46 67
REMARK SMILES IDX 39 68 40 69 41 70 42 71 43 72 69 73 70 74 79 75 71 76 72 77
REMARK SMILES IDX 78 78 80 79 73 80 74 81 75 82 76 83 77 84 53 85 54 86 63 87
REMARK SMILES IDX 55 88 56 89 62 90 64 91 57 92 58 93 59 94 60 95 61 96
REMARK H PARENT 18 6 6 14 23 27 85 46 51 57
REMARK Flexibility Score: inf
ROOT
ATOM      1  C   UNL     1      -3.502  -3.857  -1.309  1.00  0.00     0.023 C 
ENDROOT
BRANCH   1   2
ATOM      2  C   UNL     1      -3.118  -2.607  -2.091  1.00  0.00     0.116 C 
BRANCH   2   3
ATOM      3  N   UNL     1      -3.720  -1.410  -1.525  1.00  0.00    -0.354 N 
ATOM      4  C   UNL     1      -3.177  -0.195  -1.215  1.00  0.00     0.242 C 
ATOM      5  O   UNL     1      -3.940   0.708  -0.865  1.00  0.00    -0.273 OA
ATOM      6  H   UNL     1      -4.683  -1.488  -1.333  1.00  0.00     0.163 HD
BRANCH   4   7
ATOM      7  C   UNL     1      -1.671   0.070  -1.393  1.00  0.00     0.171 C 
BRANCH   7   8
ATOM      8  C   UNL     1      -1.311   0.041  -2.893  1.00  0.00     0.038 C 
BRANCH   8   9
ATOM      9  C   UNL     1      -2.053   1.067  -3.781  1.00  0.00    -0.015 C 
ATOM     10  C   UNL     1      -1.929   2.511  -3.298  1.00  0.00     0.007 C 
ATOM     11  C   UNL     1      -1.538   0.959  -5.221  1.00  0.00     0.007 C 
ENDBRANCH   8   9
ENDBRANCH   7   8
BRANCH   7  12
ATOM     12  N   UNL     1      -0.928  -0.907  -0.582  1.00  0.00    -0.344 N 
ATOM     13  C   UNL     1       0.277  -0.820   0.043  1.00  0.00     0.225 C 
ATOM     14  H   UNL     1      -1.382  -1.774  -0.473  1.00  0.00     0.164 HD
ATOM     15  O   UNL     1       0.670  -1.804   0.675  1.00  0.00    -0.275 OA
BRANCH  13  16
ATOM     16  C   UNL     1       1.100   0.454  -0.015  1.00  0.00     0.135 C 
BRANCH  16  17
ATOM     17  C   UNL     1       1.749   0.688  -1.354  1.00  0.00    -0.039 A 
ATOM     18  C   UNL     1       1.535   1.891  -2.039  1.00  0.00     0.004 A 
ATOM     19  C   UNL     1       2.524  -0.312  -1.961  1.00  0.00     0.004 A 
ATOM     20  C   UNL     1       1.999   2.052  -3.345  1.00  0.00     0.000 A 
ATOM     21  C   UNL     1       2.996  -0.144  -3.263  1.00  0.00     0.000 A 
ATOM     22  C   UNL     1       2.714   1.028  -3.962  1.00  0.00     0.000 A 
ENDBRANCH  16  17
ENDBRANCH  13  16
ENDBRANCH   7  12
ENDBRANCH   4   7
ENDBRANCH   2   3
ENDBRANCH   1   2
BRANCH   1  23
ATOM     23  C   UNL     1      -4.986  -4.212  -1.381  1.00  0.00     0.023 C 
BRANCH  23  24
ATOM     24  C   UNL     1      -5.540  -4.370  -2.793  1.00  0.00     0.116 C 
BRANCH  24  25
ATOM     25  N   UNL     1      -4.865  -5.417  -3.547  1.00  0.00    -0.352 N 
ATOM     26  C   UNL     1      -5.415  -6.480  -4.223  1.00  0.00     0.251 C 
ATOM     27  H   UNL     1      -3.883  -5.355  -3.577  1.00  0.00     0.163 HD
ATOM     28  O   UNL     1      -4.691  -7.362  -4.676  1.00  0.00    -0.269 OA
BRANCH  26  29
ATOM     29  C   UNL     1      -6.882  -6.564  -4.372  1.00  0.00     0.039 A 
ATOM     30  C   UNL     1      -7.528  -7.761  -4.058  1.00  0.00     0.014 A 
ATOM     31  C   UNL     1      -7.619  -5.449  -4.784  1.00  0.00     0.014 A 
ATOM     32  C   UNL     1      -8.923  -7.818  -4.087  1.00  0.00     0.010 A 
ATOM     33  C   UNL     1      -9.009  -5.486  -4.735  1.00  0.00     0.010 A 
ATOM     34  C   UNL     1      -9.676  -6.670  -4.386  1.00  0.00    -0.014 A 
BRANCH  34  35
ATOM     35  C   UNL     1     -11.161  -6.686  -4.335  1.00  0.00     0.031 A 
ATOM     36  C   UNL     1     -11.961  -6.424  -5.582  1.00  0.00     0.074 A 
ATOM     37  C   UNL     1     -11.786  -6.868  -3.155  1.00  0.00     0.049 A 
ATOM     38  N   UNL     1     -13.258  -6.322  -5.724  1.00  0.00    -0.248 NA
ATOM     39  C   UNL     1     -11.204  -6.223  -6.828  1.00  0.00     0.031 C 
ATOM     40  C   UNL     1     -11.120  -7.079  -1.867  1.00  0.00     0.029 A 
ATOM     41  N   UNL     1     -13.123  -6.894  -2.842  1.00  0.00    -0.354 N 
ATOM     42  C   UNL     1     -13.470  -6.035  -7.068  1.00  0.00     0.074 A 
ATOM     43  C   UNL     1     -12.167  -5.921  -7.686  1.00  0.00     0.031 C 
ATOM     44  C   UNL     1     -12.049  -7.231  -0.910  1.00  0.00     0.029 A 
ATOM     45  C   UNL     1     -13.375  -7.091  -1.504  1.00  0.00     0.049 A 
ATOM     46  H   UNL     1     -13.834  -6.782  -3.513  1.00  0.00     0.167 HD
ATOM     47  C   UNL     1     -14.643  -5.905  -7.731  1.00  0.00     0.037 A 
ATOM     48  C   UNL     1     -14.541  -7.143  -0.831  1.00  0.00     0.037 A 
ATOM     49  C   UNL     1     -15.937  -6.042  -7.114  1.00  0.00     0.049 A 
ATOM     50  C   UNL     1     -15.832  -6.993  -1.590  1.00  0.00     0.074 A 
ATOM     51  C   UNL     1     -17.185  -5.980  -7.710  1.00  0.00     0.029 A 
ATOM     52  N   UNL     1     -16.151  -6.268  -5.762  1.00  0.00    -0.354 N 
ATOM     53  N   UNL     1     -16.015  -6.785  -2.872  1.00  0.00    -0.248 NA
ATOM     54  C   UNL     1     -17.076  -7.093  -0.814  1.00  0.00     0.031 C 
ATOM     55  C   UNL     1     -18.153  -6.124  -6.711  1.00  0.00     0.029 A 
ATOM     56  C   UNL     1     -17.510  -6.329  -5.501  1.00  0.00     0.049 A 
ATOM     57  H   UNL     1     -15.441  -6.370  -5.087  1.00  0.00     0.167 HD
ATOM     58  C   UNL     1     -17.393  -6.757  -3.060  1.00  0.00     0.074 A 
ATOM     59  C   UNL     1     -17.995  -6.982  -1.762  1.00  0.00     0.031 C 
ATOM     60  C   UNL     1     -18.095  -6.562  -4.204  1.00  0.00     0.037 A 
BRANCH  47  61
ATOM     61  C   UNL     1     -14.582  -5.607  -9.205  1.00  0.00     0.058 A 
ATOM     62  C   UNL     1     -14.136  -6.564 -10.131  1.00  0.00     0.135 A 
ATOM     63  C   UNL     1     -15.011  -4.367  -9.704  1.00  0.00     0.135 A 
ATOM     64  F   UNL     1     -13.699  -7.762  -9.709  1.00  0.00    -0.206 F 
ATOM     65  C   UNL     1     -14.088  -6.292 -11.494  1.00  0.00     0.059 A 
ATOM     66  C   UNL     1     -15.000  -4.083 -11.066  1.00  0.00     0.059 A 
ATOM     67  F   UNL     1     -15.447  -3.414  -8.864  1.00  0.00    -0.206 F 
ATOM     68  C   UNL     1     -14.523  -5.048 -11.953  1.00  0.00     0.060 A 
BRANCH  68  69
ATOM     69  S   UNL     1     -14.462  -4.715 -13.726  1.00  0.00     0.124 S 
ATOM     70  O   UNL     1     -13.026  -4.564 -13.944  1.00  0.00    -0.237 OA
ATOM     71  O   UNL     1     -15.066  -5.917 -14.290  1.00  0.00    -0.237 OA
ATOM     72  O   UNL     1     -15.249  -3.494 -13.870  1.00  0.00    -0.744 OA
ENDBRANCH  68  69
ENDBRANCH  47  61
BRANCH  48  73
ATOM     73  C   UNL     1     -14.541  -7.363   0.641  1.00  0.00     0.058 A 
ATOM     74  C   UNL     1     -15.001  -8.568   1.192  1.00  0.00     0.135 A 
ATOM     75  C   UNL     1     -14.075  -6.377   1.524  1.00  0.00     0.135 A 
ATOM     76  F   UNL     1     -15.462  -9.540   0.389  1.00  0.00    -0.206 F 
ATOM     77  C   UNL     1     -15.019  -8.782   2.567  1.00  0.00     0.059 A 
ATOM     78  C   UNL     1     -14.057  -6.577   2.901  1.00  0.00     0.059 A 
ATOM     79  F   UNL     1     -13.608  -5.213   1.048  1.00  0.00    -0.206 F 
ATOM     80  C   UNL     1     -14.542  -7.780   3.414  1.00  0.00     0.060 A 
BRANCH  80  81
ATOM     81  S   UNL     1     -14.529  -8.084   5.194  1.00  0.00     0.124 S 
ATOM     82  O   UNL     1     -15.948  -7.990   5.518  1.00  0.00    -0.237 OA
ATOM     83  O   UNL     1     -13.943  -9.419   5.272  1.00  0.00    -0.237 OA
ATOM     84  O   UNL     1     -13.690  -7.008   5.711  1.00  0.00    -0.744 OA
ENDBRANCH  80  81
ENDBRANCH  48  73
BRANCH  60  85
ATOM     85  C   UNL     1     -19.595  -6.621  -4.115  1.00  0.00     0.058 A 
ATOM     86  C   UNL     1     -20.341  -5.595  -3.514  1.00  0.00     0.135 A 
ATOM     87  C   UNL     1     -20.298  -7.693  -4.690  1.00  0.00     0.135 A 
ATOM     88  F   UNL     1     -19.718  -4.551  -2.944  1.00  0.00    -0.206 F 
ATOM     89  C   UNL     1     -21.731  -5.642  -3.465  1.00  0.00     0.059 A 
ATOM     90  C   UNL     1     -21.688  -7.745  -4.678  1.00  0.00     0.059 A 
ATOM     91  F   UNL     1     -19.634  -8.695  -5.287  1.00  0.00    -0.206 F 
ATOM     92  C   UNL     1     -22.395  -6.720  -4.052  1.00  0.00     0.060 A 
BRANCH  92  93
ATOM     93  S   UNL     1     -24.200  -6.749  -4.012  1.00  0.00     0.124 S 
ATOM     94  O   UNL     1     -24.458  -7.078  -2.614  1.00  0.00    -0.237 OA
ATOM     95  O   UNL     1     -24.544  -5.390  -4.418  1.00  0.00    -0.237 OA
ATOM     96  O   UNL     1     -24.545  -7.790  -4.976  1.00  0.00    -0.744 OA
ENDBRANCH  92  93
ENDBRANCH  60  85
ENDBRANCH  34  35
ENDBRANCH  26  29
ENDBRANCH  24  25
ENDBRANCH  23  24
ENDBRANCH   1  23
TORSDOF 19
