REMARK SMILES C[C@@H](Oc1ccccc1Cl)C(=O)N1CC[C@H](C(=O)NCCCCNC(=O)c2ccc(-c3c4nc(c(-c5c(F)cc(S(=O)(=O)[O-])cc5F)c5ccc([nH]5)c(-c5c(F)cc(S(=O)(=O)[O-])cc5F)c5nc(c(-c6c(F)cc(S(=O)(=O)[O-])cc6F)c6ccc3[nH]6)C=C5)C=C4)cc2)[C@@H]1C
REMARK SMILES IDX 21 1 20 2 19 3 17 4 18 5 16 7 13 8 14 9 93 10 15 11 94 12
REMARK SMILES IDX 11 13 12 14 2 15 1 16 3 17 4 18 5 19 9 20 6 21 8 22 10 23
REMARK SMILES IDX 7 24 22 25 23 26 24 27 25 28 26 30 27 31 28 32 92 33 29 34
REMARK SMILES IDX 91 35 30 36 31 37 32 38 85 39 33 40 90 41 84 42 86 43 34 44
REMARK SMILES IDX 89 45 83 46 82 47 35 49 69 50 48 51 68 52 49 53 52 54 67 55
REMARK SMILES IDX 87 56 50 57 51 58 66 60 88 61 53 62 36 63 37 64 46 65 38 66
REMARK SMILES IDX 39 67 45 68 47 69 40 70 41 71 42 72 43 73 44 74 70 75 71 76
REMARK SMILES IDX 80 77 72 78 73 79 79 80 81 81 74 82 75 83 76 84 77 85 78 86
REMARK SMILES IDX 54 87 55 88 64 89 56 90 57 91 63 92 65 93 58 94 59 95 60 96
REMARK SMILES IDX 61 97 62 98
REMARK H PARENT 19 6 24 29 86 48 52 59
REMARK Flexibility Score: inf
ROOT
ATOM      1  C   UNL     1      -3.193   6.025   2.870  1.00  0.00     0.023 C 
ENDROOT
BRANCH   1   2
ATOM      2  C   UNL     1      -3.763   4.619   3.039  1.00  0.00     0.116 C 
BRANCH   2   3
ATOM      3  N   UNL     1      -4.154   4.040   1.767  1.00  0.00    -0.356 N 
ATOM      4  C   UNL     1      -3.614   2.990   1.080  1.00  0.00     0.225 C 
ATOM      5  O   UNL     1      -4.167   2.657   0.035  1.00  0.00    -0.275 OA
ATOM      6  H   UNL     1      -4.926   4.469   1.333  1.00  0.00     0.163 HD
BRANCH   4   7
ATOM      7  C   UNL     1      -2.433   2.250   1.699  1.00  0.00     0.102 C 
ATOM      8  N   UNL     1      -1.774  -0.010   1.250  1.00  0.00    -0.336 N 
ATOM      9  C   UNL     1      -3.011  -0.059   2.001  1.00  0.00     0.121 C 
ATOM     10  C   UNL     1      -1.526   1.368   0.796  1.00  0.00     0.094 C 
ATOM     11  C   UNL     1      -2.994   1.268   2.741  1.00  0.00     0.037 C 
ATOM     12  C   UNL     1      -1.754   1.526  -0.706  1.00  0.00     0.032 C 
BRANCH   8  13
ATOM     13  C   UNL     1      -0.961  -1.124   1.215  1.00  0.00     0.263 C 
ATOM     14  O   UNL     1      -1.419  -2.246   1.469  1.00  0.00    -0.271 OA
BRANCH  13  15
ATOM     15  C   UNL     1       0.552  -0.990   0.954  1.00  0.00     0.259 C 
ATOM     16  C   UNL     1       0.896  -0.609  -0.477  1.00  0.00     0.064 C 
BRANCH  15  17
ATOM     17  O   UNL     1       1.111  -0.057   1.894  1.00  0.00    -0.479 OA
BRANCH  17  18
ATOM     18  C   UNL     1       2.406  -0.362   2.229  1.00  0.00     0.139 A 
ATOM     19  C   UNL     1       2.655  -1.388   3.145  1.00  0.00     0.048 A 
ATOM     20  C   UNL     1       3.467   0.400   1.729  1.00  0.00     0.083 A 
ATOM     21  C   UNL     1       3.969  -1.690   3.511  1.00  0.00     0.004 A 
ATOM     22  C   UNL     1       4.780   0.080   2.079  1.00  0.00     0.024 A 
ATOM     23  Cl  UNL     1       3.204   1.752   0.689  1.00  0.00    -0.080 Cl
ATOM     24  C   UNL     1       5.031  -0.967   2.966  1.00  0.00     0.002 A 
ENDBRANCH  17  18
ENDBRANCH  15  17
ENDBRANCH  13  15
ENDBRANCH   8  13
ENDBRANCH   4   7
ENDBRANCH   2   3
ENDBRANCH   1   2
BRANCH   1  25
ATOM     25  C   UNL     1      -4.155   7.032   2.234  1.00  0.00     0.023 C 
BRANCH  25  26
ATOM     26  C   UNL     1      -5.525   7.131   2.896  1.00  0.00     0.116 C 
BRANCH  26  27
ATOM     27  N   UNL     1      -5.449   7.535   4.289  1.00  0.00    -0.352 N 
ATOM     28  C   UNL     1      -6.191   8.481   4.957  1.00  0.00     0.251 C 
ATOM     29  H   UNL     1      -4.774   7.066   4.830  1.00  0.00     0.163 HD
ATOM     30  O   UNL     1      -5.883   8.796   6.101  1.00  0.00    -0.269 OA
BRANCH  28  31
ATOM     31  C   UNL     1      -7.340   9.130   4.285  1.00  0.00     0.039 A 
ATOM     32  C   UNL     1      -7.515  10.509   4.431  1.00  0.00     0.014 A 
ATOM     33  C   UNL     1      -8.246   8.387   3.525  1.00  0.00     0.014 A 
ATOM     34  C   UNL     1      -8.576  11.145   3.782  1.00  0.00     0.010 A 
ATOM     35  C   UNL     1      -9.249   9.034   2.809  1.00  0.00     0.010 A 
ATOM     36  C   UNL     1      -9.441  10.417   2.948  1.00  0.00    -0.014 A 
BRANCH  36  37
ATOM     37  C   UNL     1     -10.580  11.077   2.257  1.00  0.00     0.031 A 
ATOM     38  C   UNL     1     -11.995  10.669   2.582  1.00  0.00     0.074 A 
ATOM     39  C   UNL     1     -10.347  12.010   1.313  1.00  0.00     0.049 A 
ATOM     40  N   UNL     1     -13.119  11.099   2.068  1.00  0.00    -0.248 NA
ATOM     41  C   UNL     1     -12.166   9.617   3.597  1.00  0.00     0.031 C 
ATOM     42  C   UNL     1      -9.024  12.455   0.871  1.00  0.00     0.029 A 
ATOM     43  N   UNL     1     -11.216  12.748   0.549  1.00  0.00    -0.354 N 
ATOM     44  C   UNL     1     -14.124  10.362   2.684  1.00  0.00     0.074 A 
ATOM     45  C   UNL     1     -13.474   9.412   3.560  1.00  0.00     0.031 C 
ATOM     46  C   UNL     1      -9.170  13.409  -0.063  1.00  0.00     0.029 A 
ATOM     47  C   UNL     1     -10.592  13.618  -0.315  1.00  0.00     0.049 A 
ATOM     48  H   UNL     1     -12.195  12.664   0.614  1.00  0.00     0.167 HD
ATOM     49  C   UNL     1     -15.467  10.483   2.557  1.00  0.00     0.037 A 
ATOM     50  C   UNL     1     -11.108  14.486  -1.208  1.00  0.00     0.037 A 
ATOM     51  C   UNL     1     -16.108  11.446   1.700  1.00  0.00     0.049 A 
ATOM     52  C   UNL     1     -12.604  14.612  -1.326  1.00  0.00     0.074 A 
ATOM     53  C   UNL     1     -17.461  11.686   1.535  1.00  0.00     0.029 A 
ATOM     54  N   UNL     1     -15.442  12.328   0.862  1.00  0.00    -0.354 N 
ATOM     55  N   UNL     1     -13.542  13.950  -0.690  1.00  0.00    -0.248 NA
ATOM     56  C   UNL     1     -13.112  15.615  -2.271  1.00  0.00     0.031 C 
ATOM     57  C   UNL     1     -17.614  12.678   0.560  1.00  0.00     0.029 A 
ATOM     58  C   UNL     1     -16.355  13.103   0.166  1.00  0.00     0.049 A 
ATOM     59  H   UNL     1     -14.463  12.394   0.774  1.00  0.00     0.167 HD
ATOM     60  C   UNL     1     -14.750  14.484  -1.127  1.00  0.00     0.074 A 
ATOM     61  C   UNL     1     -14.421  15.528  -2.077  1.00  0.00     0.031 C 
ATOM     62  C   UNL     1     -16.015  14.147  -0.770  1.00  0.00     0.037 A 
BRANCH  49  63
ATOM     63  C   UNL     1     -16.331   9.547   3.363  1.00  0.00     0.058 A 
ATOM     64  C   UNL     1     -16.398   9.623   4.765  1.00  0.00     0.135 A 
ATOM     65  C   UNL     1     -17.115   8.572   2.726  1.00  0.00     0.135 A 
ATOM     66  F   UNL     1     -15.659  10.525   5.430  1.00  0.00    -0.206 F 
ATOM     67  C   UNL     1     -17.177   8.740   5.506  1.00  0.00     0.059 A 
ATOM     68  C   UNL     1     -17.929   7.701   3.445  1.00  0.00     0.059 A 
ATOM     69  F   UNL     1     -17.093   8.453   1.389  1.00  0.00    -0.206 F 
ATOM     70  C   UNL     1     -17.938   7.781   4.837  1.00  0.00     0.060 A 
BRANCH  70  71
ATOM     71  S   UNL     1     -18.938   6.640   5.814  1.00  0.00     0.124 S 
ATOM     72  O   UNL     1     -17.912   5.783   6.401  1.00  0.00    -0.237 OA
ATOM     73  O   UNL     1     -19.619   7.538   6.742  1.00  0.00    -0.237 OA
ATOM     74  O   UNL     1     -19.795   6.001   4.821  1.00  0.00    -0.744 OA
ENDBRANCH  70  71
ENDBRANCH  49  63
BRANCH  50  75
ATOM     75  C   UNL     1     -10.201  15.330  -2.031  1.00  0.00     0.058 A 
ATOM     76  C   UNL     1     -10.107  16.714  -1.818  1.00  0.00     0.135 A 
ATOM     77  C   UNL     1      -9.397  14.770  -3.036  1.00  0.00     0.135 A 
ATOM     78  F   UNL     1     -10.859  17.299  -0.873  1.00  0.00    -0.206 F 
ATOM     79  C   UNL     1      -9.263  17.515  -2.581  1.00  0.00     0.059 A 
ATOM     80  C   UNL     1      -8.525  15.545  -3.794  1.00  0.00     0.059 A 
ATOM     81  F   UNL     1      -9.436  13.449  -3.270  1.00  0.00    -0.206 F 
ATOM     82  C   UNL     1      -8.472  16.919  -3.564  1.00  0.00     0.060 A 
BRANCH  82  83
ATOM     83  S   UNL     1      -7.340  17.961  -4.511  1.00  0.00     0.124 S 
ATOM     84  O   UNL     1      -8.264  18.712  -5.352  1.00  0.00    -0.237 OA
ATOM     85  O   UNL     1      -6.671  18.720  -3.459  1.00  0.00    -0.237 OA
ATOM     86  O   UNL     1      -6.496  16.993  -5.207  1.00  0.00    -0.744 OA
ENDBRANCH  82  83
ENDBRANCH  50  75
BRANCH  62  87
ATOM     87  C   UNL     1     -17.140  14.956  -1.358  1.00  0.00     0.058 A 
ATOM     88  C   UNL     1     -17.492  14.874  -2.715  1.00  0.00     0.135 A 
ATOM     89  C   UNL     1     -17.899  15.806  -0.537  1.00  0.00     0.135 A 
ATOM     90  F   UNL     1     -16.800  14.078  -3.546  1.00  0.00    -0.206 F 
ATOM     91  C   UNL     1     -18.529  15.637  -3.244  1.00  0.00     0.059 A 
ATOM     92  C   UNL     1     -18.961  16.552  -1.037  1.00  0.00     0.059 A 
ATOM     93  F   UNL     1     -17.617  15.913   0.772  1.00  0.00    -0.206 F 
ATOM     94  C   UNL     1     -19.256  16.475  -2.397  1.00  0.00     0.060 A 
BRANCH  94  95
ATOM     95  S   UNL     1     -20.601  17.457  -3.094  1.00  0.00     0.124 S 
ATOM     96  O   UNL     1     -19.865  18.477  -3.835  1.00  0.00    -0.237 OA
ATOM     97  O   UNL     1     -21.316  16.477  -3.905  1.00  0.00    -0.237 OA
ATOM     98  O   UNL     1     -21.320  17.933  -1.917  1.00  0.00    -0.744 OA
ENDBRANCH  94  95
ENDBRANCH  62  87
ENDBRANCH  36  37
ENDBRANCH  28  31
ENDBRANCH  26  27
ENDBRANCH  25  26
ENDBRANCH   1  25
TORSDOF 18
