REMARK SMILES CC(C)(C)c1cc2c(cc1Cl)C=C(C(=O)NCCCCNC(=O)c1ccc(-c3c4nc(c(-c5c(F)cc(S(=O)(=O)[O-])cc5F)c5ccc([nH]5)c(-c5c(F)cc(S(=O)(=O)[O-])cc5F)c5nc(c(-c6c(F)cc(S(=O)(=O)[O-])cc6F)c6ccc3[nH]6)C=C5)C=C4)cc1)[C@@H](C(F)(F)F)O2
REMARK SMILES IDX 19 1 18 2 17 3 16 4 14 5 15 6 13 8 5 9 6 10 10 11 7 12 9 13
REMARK SMILES IDX 11 14 8 15 95 16 12 17 90 18 2 19 1 20 3 21 4 22 91 23 92 24
REMARK SMILES IDX 93 25 94 26 20 27 21 28 22 29 23 31 24 32 25 33 89 34 26 35
REMARK SMILES IDX 88 36 27 37 28 38 29 39 82 40 30 41 87 42 81 43 83 44 31 45
REMARK SMILES IDX 86 46 80 47 79 48 32 50 66 51 45 52 65 53 46 54 49 55 64 56
REMARK SMILES IDX 84 57 47 58 48 59 63 61 85 62 50 63 33 64 34 65 43 66 35 67
REMARK SMILES IDX 36 68 42 69 44 70 37 71 38 72 39 73 40 74 41 75 67 76 68 77
REMARK SMILES IDX 77 78 69 79 70 80 76 81 78 82 71 83 72 84 73 85 74 86 75 87
REMARK SMILES IDX 51 88 52 89 61 90 53 91 54 92 60 93 62 94 55 95 56 96 57 97
REMARK SMILES IDX 58 98 59 99
REMARK H PARENT 16 7 21 30 83 49 49 60
REMARK Flexibility Score: inf
ROOT
ATOM      1  C   UNL     1      -0.886  11.626   0.439  1.00  0.00     0.023 C 
ENDROOT
BRANCH   1   2
ATOM      2  C   UNL     1      -0.961  10.173  -0.039  1.00  0.00     0.023 C 
BRANCH   2   3
ATOM      3  C   UNL     1      -0.241   9.905  -1.359  1.00  0.00     0.116 C 
BRANCH   3   4
ATOM      4  N   UNL     1       1.171   9.622  -1.168  1.00  0.00    -0.352 N 
ATOM      5  C   UNL     1       1.954   8.520  -1.091  1.00  0.00     0.251 C 
ATOM      6  O   UNL     1       3.159   8.738  -0.925  1.00  0.00    -0.270 OA
ATOM      7  H   UNL     1       1.696  10.448  -1.069  1.00  0.00     0.163 HD
BRANCH   5   8
ATOM      8  C   UNL     1       1.474   7.110  -1.189  1.00  0.00     0.067 C 
ATOM      9  C   UNL     1       1.160   2.025  -1.173  1.00  0.00    -0.020 A 
ATOM     10  C   UNL     1       0.245   3.103  -1.164  1.00  0.00     0.053 A 
ATOM     11  C   UNL     1       2.531   2.381  -1.120  1.00  0.00     0.045 A 
ATOM     12  C   UNL     1       0.661   4.435  -1.121  1.00  0.00     0.128 A 
ATOM     13  C   UNL     1       2.941   3.728  -1.055  1.00  0.00     0.032 A 
ATOM     14  Cl  UNL     1       3.832   1.239  -1.123  1.00  0.00    -0.084 Cl
ATOM     15  C   UNL     1       2.007   4.759  -1.056  1.00  0.00     0.019 A 
ATOM     16  O   UNL     1      -0.322   5.384  -1.105  1.00  0.00    -0.475 OA
ATOM     17  C   UNL     1       2.400   6.159  -0.955  1.00  0.00     0.025 C 
ATOM     18  C   UNL     1       0.074   6.709  -1.563  1.00  0.00     0.314 C 
BRANCH   9  19
ATOM     19  C   UNL     1       0.626   0.572  -1.235  1.00  0.00    -0.012 C 
ATOM     20  C   UNL     1       1.050  -0.228   0.016  1.00  0.00     0.016 C 
ATOM     21  C   UNL     1       1.104  -0.138  -2.520  1.00  0.00     0.016 C 
ATOM     22  C   UNL     1      -0.928   0.483  -1.270  1.00  0.00     0.016 C 
ENDBRANCH   9  19
BRANCH  18  23
ATOM     23  C   UNL     1      -0.187   6.821  -3.078  1.00  0.00     0.429 C 
ATOM     24  F   UNL     1      -1.518   6.742  -3.335  1.00  0.00    -0.167 F 
ATOM     25  F   UNL     1       0.235   7.998  -3.594  1.00  0.00    -0.167 F 
ATOM     26  F   UNL     1       0.418   5.841  -3.786  1.00  0.00    -0.167 F 
ENDBRANCH  18  23
ENDBRANCH   5   8
ENDBRANCH   3   4
ENDBRANCH   2   3
ENDBRANCH   1   2
BRANCH   1  27
ATOM     27  C   UNL     1      -1.386  12.675  -0.553  1.00  0.00     0.116 C 
BRANCH  27  28
ATOM     28  N   UNL     1      -2.720  12.419  -1.082  1.00  0.00    -0.352 N 
ATOM     29  C   UNL     1      -3.603  13.336  -1.610  1.00  0.00     0.251 C 
ATOM     30  H   UNL     1      -3.025  11.483  -1.059  1.00  0.00     0.163 HD
ATOM     31  O   UNL     1      -4.725  12.995  -1.968  1.00  0.00    -0.269 OA
BRANCH  29  32
ATOM     32  C   UNL     1      -3.184  14.750  -1.676  1.00  0.00     0.039 A 
ATOM     33  C   UNL     1      -1.987  15.094  -2.307  1.00  0.00     0.014 A 
ATOM     34  C   UNL     1      -3.929  15.708  -0.985  1.00  0.00     0.014 A 
ATOM     35  C   UNL     1      -1.445  16.355  -2.092  1.00  0.00     0.010 A 
ATOM     36  C   UNL     1      -3.413  16.997  -0.830  1.00  0.00     0.010 A 
ATOM     37  C   UNL     1      -2.136  17.308  -1.325  1.00  0.00    -0.014 A 
BRANCH  37  38
ATOM     38  C   UNL     1      -1.474  18.596  -0.998  1.00  0.00     0.031 A 
ATOM     39  C   UNL     1      -1.067  18.905   0.420  1.00  0.00     0.074 A 
ATOM     40  C   UNL     1      -1.163  19.451  -1.991  1.00  0.00     0.049 A 
ATOM     41  N   UNL     1      -0.461  19.965   0.891  1.00  0.00    -0.248 NA
ATOM     42  C   UNL     1      -1.381  17.893   1.443  1.00  0.00     0.031 C 
ATOM     43  C   UNL     1      -1.481  19.248  -3.406  1.00  0.00     0.029 A 
ATOM     44  N   UNL     1      -0.484  20.641  -1.968  1.00  0.00    -0.354 N 
ATOM     45  C   UNL     1      -0.341  19.760   2.261  1.00  0.00     0.074 A 
ATOM     46  C   UNL     1      -0.954  18.482   2.552  1.00  0.00     0.031 C 
ATOM     47  C   UNL     1      -0.947  20.249  -4.122  1.00  0.00     0.029 A 
ATOM     48  C   UNL     1      -0.299  21.190  -3.214  1.00  0.00     0.049 A 
ATOM     49  H   UNL     1      -0.159  21.061  -1.139  1.00  0.00     0.167 HD
ATOM     50  C   UNL     1       0.239  20.558   3.189  1.00  0.00     0.037 A 
ATOM     51  C   UNL     1       0.318  22.329  -3.584  1.00  0.00     0.037 A 
ATOM     52  C   UNL     1       0.879  21.812   2.893  1.00  0.00     0.049 A 
ATOM     53  C   UNL     1       0.923  23.212  -2.532  1.00  0.00     0.074 A 
ATOM     54  C   UNL     1       1.509  22.684   3.764  1.00  0.00     0.029 A 
ATOM     55  N   UNL     1       0.981  22.369   1.628  1.00  0.00    -0.354 N 
ATOM     56  N   UNL     1       1.002  23.014  -1.238  1.00  0.00    -0.248 NA
ATOM     57  C   UNL     1       1.503  24.483  -2.987  1.00  0.00     0.031 C 
ATOM     58  C   UNL     1       1.968  23.782   3.028  1.00  0.00     0.029 A 
ATOM     59  C   UNL     1       1.649  23.580   1.695  1.00  0.00     0.049 A 
ATOM     60  H   UNL     1       0.630  21.963   0.802  1.00  0.00     0.167 HD
ATOM     61  C   UNL     1       1.634  24.138  -0.722  1.00  0.00     0.074 A 
ATOM     62  C   UNL     1       1.938  25.001  -1.846  1.00  0.00     0.031 C 
ATOM     63  C   UNL     1       1.927  24.432   0.568  1.00  0.00     0.037 A 
BRANCH  50  64
ATOM     64  C   UNL     1       0.201  20.104   4.621  1.00  0.00     0.058 A 
ATOM     65  C   UNL     1       1.053  19.095   5.095  1.00  0.00     0.135 A 
ATOM     66  C   UNL     1      -0.665  20.717   5.540  1.00  0.00     0.135 A 
ATOM     67  F   UNL     1       1.887  18.464   4.252  1.00  0.00    -0.206 F 
ATOM     68  C   UNL     1       1.036  18.697   6.428  1.00  0.00     0.059 A 
ATOM     69  C   UNL     1      -0.687  20.348   6.882  1.00  0.00     0.059 A 
ATOM     70  F   UNL     1      -1.502  21.686   5.137  1.00  0.00    -0.206 F 
ATOM     71  C   UNL     1       0.161  19.328   7.314  1.00  0.00     0.060 A 
BRANCH  71  72
ATOM     72  S   UNL     1       0.153  18.803   9.041  1.00  0.00     0.124 S 
ATOM     73  O   UNL     1      -0.546  17.524   8.952  1.00  0.00    -0.237 OA
ATOM     74  O   UNL     1       1.576  18.725   9.352  1.00  0.00    -0.237 OA
ATOM     75  O   UNL     1      -0.576  19.871   9.718  1.00  0.00    -0.744 OA
ENDBRANCH  71  72
ENDBRANCH  50  64
BRANCH  51  76
ATOM     76  C   UNL     1       0.381  22.692  -5.021  1.00  0.00     0.058 A 
ATOM     77  C   UNL     1       1.581  22.582  -5.737  1.00  0.00     0.135 A 
ATOM     78  C   UNL     1      -0.765  23.108  -5.715  1.00  0.00     0.135 A 
ATOM     79  F   UNL     1       2.703  22.194  -5.112  1.00  0.00    -0.206 F 
ATOM     80  C   UNL     1       1.643  22.869  -7.096  1.00  0.00     0.059 A 
ATOM     81  C   UNL     1      -0.733  23.381  -7.078  1.00  0.00     0.059 A 
ATOM     82  F   UNL     1      -1.939  23.214  -5.073  1.00  0.00    -0.206 F 
ATOM     83  C   UNL     1       0.478  23.262  -7.759  1.00  0.00     0.060 A 
BRANCH  83  84
ATOM     84  S   UNL     1       0.548  23.555  -9.540  1.00  0.00     0.124 S 
ATOM     85  O   UNL     1       1.171  24.872  -9.595  1.00  0.00    -0.237 OA
ATOM     86  O   UNL     1       1.367  22.441 -10.005  1.00  0.00    -0.237 OA
ATOM     87  O   UNL     1      -0.855  23.500  -9.941  1.00  0.00    -0.744 OA
ENDBRANCH  83  84
ENDBRANCH  51  76
BRANCH  63  88
ATOM     88  C   UNL     1       2.594  25.748   0.835  1.00  0.00     0.058 A 
ATOM     89  C   UNL     1       1.859  26.944   0.840  1.00  0.00     0.135 A 
ATOM     90  C   UNL     1       3.961  25.812   1.143  1.00  0.00     0.135 A 
ATOM     91  F   UNL     1       0.550  26.933   0.544  1.00  0.00    -0.206 F 
ATOM     92  C   UNL     1       2.461  28.162   1.131  1.00  0.00     0.059 A 
ATOM     93  C   UNL     1       4.581  27.018   1.454  1.00  0.00     0.059 A 
ATOM     94  F   UNL     1       4.703  24.693   1.157  1.00  0.00    -0.206 F 
ATOM     95  C   UNL     1       3.823  28.189   1.438  1.00  0.00     0.060 A 
BRANCH  95  96
ATOM     96  S   UNL     1       4.585  29.772   1.855  1.00  0.00     0.124 S 
ATOM     97  O   UNL     1       4.710  30.392   0.540  1.00  0.00    -0.237 OA
ATOM     98  O   UNL     1       3.597  30.372   2.747  1.00  0.00    -0.237 OA
ATOM     99  O   UNL     1       5.841  29.386   2.491  1.00  0.00    -0.744 OA
ENDBRANCH  95  96
ENDBRANCH  63  88
ENDBRANCH  37  38
ENDBRANCH  29  32
ENDBRANCH  27  28
ENDBRANCH   1  27
TORSDOF 16
