REMARK SMILES O=C(NCCCCNC(=O)c1cc(NC(=S)NC(=O)c2ccccc2F)ccc1Cl)c1ccc(-c2c3nc(c(-c4c(F)cc(S(=O)(=O)[O-])cc4F)c4ccc([nH]4)c(-c4c(F)cc(S(=O)(=O)[O-])cc4F)c4nc(c(-c5c(F)cc(S(=O)(=O)[O-])cc5F)c5ccc2[nH]5)C=C4)C=C3)cc1
REMARK SMILES IDX 6 1 5 2 4 3 3 4 1 5 2 6 31 8 32 9 96 10 33 11 95 12 34 13
REMARK SMILES IDX 35 14 36 15 89 16 37 17 94 18 88 19 90 20 38 21 93 22 87 23
REMARK SMILES IDX 86 24 39 26 73 27 52 28 72 29 53 30 56 31 71 32 91 33 54 34
REMARK SMILES IDX 55 35 70 37 92 38 57 39 40 40 41 41 50 42 42 43 43 44 49 45
REMARK SMILES IDX 51 46 44 47 45 48 46 49 47 50 48 51 74 52 75 53 84 54 76 55
REMARK SMILES IDX 77 56 83 57 85 58 78 59 79 60 80 61 81 62 82 63 58 64 59 65
REMARK SMILES IDX 68 66 60 67 61 68 67 69 69 70 62 71 63 72 64 73 65 74 66 75
REMARK SMILES IDX 7 76 8 77 9 78 10 80 11 81 12 82 29 83 13 84 28 85 30 86
REMARK SMILES IDX 27 87 14 88 15 90 16 91 17 92 18 93 19 95 20 96 21 97 25 98
REMARK SMILES IDX 22 99 24 100 26 101 23 102
REMARK H PARENT 3 7 90 25 56 36 8 79 14 89 17 94
REMARK Flexibility Score: inf
ROOT
ATOM      1  C   UNL     1       4.161  -0.939  -3.564  1.00  0.00     0.023 C 
ENDROOT
BRANCH   1   2
ATOM      2  C   UNL     1       4.761  -1.284  -2.201  1.00  0.00     0.023 C 
BRANCH   2   3
ATOM      3  C   UNL     1       4.470  -0.268  -1.109  1.00  0.00     0.116 C 
BRANCH   3   4
ATOM      4  N   UNL     1       3.045  -0.013  -0.947  1.00  0.00    -0.352 N 
ATOM      5  O   UNL     1       1.072   0.044   0.151  1.00  0.00    -0.269 OA
ATOM      6  C   UNL     1       2.292  -0.062   0.200  1.00  0.00     0.251 C 
ATOM      7  H   UNL     1       2.557   0.225  -1.768  1.00  0.00     0.163 HD
BRANCH   6   8
ATOM      8  C   UNL     1       2.987  -0.278   1.480  1.00  0.00     0.039 A 
ATOM      9  C   UNL     1       4.122   0.475   1.786  1.00  0.00     0.014 A 
ATOM     10  C   UNL     1       2.549  -1.292   2.333  1.00  0.00     0.014 A 
ATOM     11  C   UNL     1       4.911   0.108   2.863  1.00  0.00     0.010 A 
ATOM     12  C   UNL     1       3.285  -1.582   3.482  1.00  0.00     0.010 A 
ATOM     13  C   UNL     1       4.485  -0.902   3.743  1.00  0.00    -0.014 A 
BRANCH  13  14
ATOM     14  C   UNL     1       5.269  -1.157   4.975  1.00  0.00     0.031 A 
ATOM     15  C   UNL     1       5.918  -2.488   5.231  1.00  0.00     0.074 A 
ATOM     16  C   UNL     1       5.413  -0.142   5.850  1.00  0.00     0.049 A 
ATOM     17  N   UNL     1       6.626  -2.866   6.264  1.00  0.00    -0.248 NA
ATOM     18  C   UNL     1       5.752  -3.532   4.206  1.00  0.00     0.031 C 
ATOM     19  C   UNL     1       4.828   1.195   5.691  1.00  0.00     0.029 A 
ATOM     20  N   UNL     1       6.110  -0.055   7.026  1.00  0.00    -0.354 N 
ATOM     21  C   UNL     1       6.986  -4.186   6.020  1.00  0.00     0.074 A 
ATOM     22  C   UNL     1       6.388  -4.559   4.757  1.00  0.00     0.031 C 
ATOM     23  C   UNL     1       5.245   1.982   6.691  1.00  0.00     0.029 A 
ATOM     24  C   UNL     1       6.051   1.189   7.609  1.00  0.00     0.049 A 
ATOM     25  H   UNL     1       6.606  -0.811   7.416  1.00  0.00     0.167 HD
ATOM     26  C   UNL     1       7.759  -5.000   6.779  1.00  0.00     0.037 A 
ATOM     27  C   UNL     1       6.566   1.639   8.767  1.00  0.00     0.037 A 
ATOM     28  C   UNL     1       8.355  -4.605   8.032  1.00  0.00     0.049 A 
ATOM     29  C   UNL     1       7.358   0.690   9.617  1.00  0.00     0.074 A 
ATOM     30  C   UNL     1       9.157  -5.356   8.874  1.00  0.00     0.029 A 
ATOM     31  N   UNL     1       8.221  -3.355   8.620  1.00  0.00    -0.354 N 
ATOM     32  N   UNL     1       7.688  -0.555   9.371  1.00  0.00    -0.248 NA
ATOM     33  C   UNL     1       7.838   1.199  10.907  1.00  0.00     0.031 C 
ATOM     34  C   UNL     1       9.464  -4.579   9.995  1.00  0.00     0.029 A 
ATOM     35  C   UNL     1       8.907  -3.322   9.824  1.00  0.00     0.049 A 
ATOM     36  H   UNL     1       7.713  -2.603   8.239  1.00  0.00     0.167 HD
ATOM     37  C   UNL     1       8.437  -0.971  10.464  1.00  0.00     0.074 A 
ATOM     38  C   UNL     1       8.526   0.162  11.363  1.00  0.00     0.031 C 
ATOM     39  C   UNL     1       8.996  -2.182  10.703  1.00  0.00     0.037 A 
BRANCH  26  40
ATOM     40  C   UNL     1       8.023  -6.399   6.290  1.00  0.00     0.058 A 
ATOM     41  C   UNL     1       7.505  -7.508   6.980  1.00  0.00     0.135 A 
ATOM     42  C   UNL     1       8.883  -6.648   5.208  1.00  0.00     0.135 A 
ATOM     43  F   UNL     1       6.674  -7.330   8.019  1.00  0.00    -0.206 F 
ATOM     44  C   UNL     1       7.854  -8.810   6.636  1.00  0.00     0.059 A 
ATOM     45  C   UNL     1       9.225  -7.944   4.829  1.00  0.00     0.059 A 
ATOM     46  F   UNL     1       9.391  -5.626   4.501  1.00  0.00    -0.206 F 
ATOM     47  C   UNL     1       8.721  -9.018   5.562  1.00  0.00     0.060 A 
BRANCH  47  48
ATOM     48  S   UNL     1       9.170 -10.714   5.134  1.00  0.00     0.124 S 
ATOM     49  O   UNL     1       9.943 -11.125   6.301  1.00  0.00    -0.237 OA
ATOM     50  O   UNL     1       7.862 -11.344   4.982  1.00  0.00    -0.237 OA
ATOM     51  O   UNL     1       9.931 -10.562   3.897  1.00  0.00    -0.744 OA
ENDBRANCH  47  48
ENDBRANCH  26  40
BRANCH  27  52
ATOM     52  C   UNL     1       6.346   3.050   9.180  1.00  0.00     0.058 A 
ATOM     53  C   UNL     1       5.063   3.531   9.488  1.00  0.00     0.135 A 
ATOM     54  C   UNL     1       7.416   3.954   9.253  1.00  0.00     0.135 A 
ATOM     55  F   UNL     1       4.000   2.713   9.418  1.00  0.00    -0.206 F 
ATOM     56  C   UNL     1       4.846   4.858   9.836  1.00  0.00     0.059 A 
ATOM     57  C   UNL     1       7.229   5.279   9.634  1.00  0.00     0.059 A 
ATOM     58  F   UNL     1       8.661   3.541   8.972  1.00  0.00    -0.206 F 
ATOM     59  C   UNL     1       5.937   5.724   9.911  1.00  0.00     0.060 A 
BRANCH  59  60
ATOM     60  S   UNL     1       5.636   7.436  10.397  1.00  0.00     0.124 S 
ATOM     61  O   UNL     1       4.906   7.944   9.239  1.00  0.00    -0.237 OA
ATOM     62  O   UNL     1       4.855   7.271  11.618  1.00  0.00    -0.237 OA
ATOM     63  O   UNL     1       6.978   7.976  10.580  1.00  0.00    -0.744 OA
ENDBRANCH  59  60
ENDBRANCH  27  52
BRANCH  39  64
ATOM     64  C   UNL     1       9.784  -2.343  11.974  1.00  0.00     0.058 A 
ATOM     65  C   UNL     1      11.176  -2.517  11.928  1.00  0.00     0.135 A 
ATOM     66  C   UNL     1       9.157  -2.392  13.229  1.00  0.00     0.135 A 
ATOM     67  F   UNL     1      11.826  -2.483  10.754  1.00  0.00    -0.206 F 
ATOM     68  C   UNL     1      11.917  -2.755  13.080  1.00  0.00     0.059 A 
ATOM     69  C   UNL     1       9.883  -2.595  14.398  1.00  0.00     0.059 A 
ATOM     70  F   UNL     1       7.829  -2.217  13.328  1.00  0.00    -0.206 F 
ATOM     71  C   UNL     1      11.261  -2.793  14.311  1.00  0.00     0.060 A 
BRANCH  71  72
ATOM     72  S   UNL     1      12.241  -3.091  15.796  1.00  0.00     0.124 S 
ATOM     73  O   UNL     1      12.645  -4.481  15.616  1.00  0.00    -0.237 OA
ATOM     74  O   UNL     1      13.304  -2.099  15.666  1.00  0.00    -0.237 OA
ATOM     75  O   UNL     1      11.296  -2.848  16.882  1.00  0.00    -0.744 OA
ENDBRANCH  71  72
ENDBRANCH  39  64
ENDBRANCH  13  14
ENDBRANCH   6   8
ENDBRANCH   3   4
ENDBRANCH   2   3
ENDBRANCH   1   2
BRANCH   1  76
ATOM     76  C   UNL     1       4.372   0.514  -3.990  1.00  0.00     0.116 C 
BRANCH  76  77
ATOM     77  N   UNL     1       5.778   0.851  -4.028  1.00  0.00    -0.352 N 
ATOM     78  C   UNL     1       6.590   1.223  -5.058  1.00  0.00     0.252 C 
ATOM     79  H   UNL     1       6.229   0.803  -3.154  1.00  0.00     0.163 HD
ATOM     80  O   UNL     1       7.750   1.534  -4.795  1.00  0.00    -0.269 OA
BRANCH  78  81
ATOM     81  C   UNL     1       6.059   1.354  -6.480  1.00  0.00     0.060 A 
ATOM     82  C   UNL     1       6.309   0.389  -8.236  1.00  0.00     0.041 A 
ATOM     83  C   UNL     1       5.136   2.913  -6.588  1.00  0.00     0.053 A 
ATOM     84  C   UNL     1       5.831   1.043  -9.732  1.00  0.00     0.041 A 
ATOM     85  C   UNL     1       4.575   3.451  -8.197  1.00  0.00     0.023 A 
ATOM     86  Cl  UNL     1       4.806   3.910  -5.228  1.00  0.00    -0.083 Cl
ATOM     87  C   UNL     1       4.929   2.544  -9.712  1.00  0.00     0.028 A 
BRANCH  84  88
ATOM     88  N   UNL     1       6.625   0.497 -10.754  1.00  0.00    -0.332 N 
ATOM     89  H   UNL     1       6.365   0.758 -11.667  1.00  0.00     0.169 HD
BRANCH  88  90
ATOM     90  C   UNL     1       7.717  -0.350 -10.678  1.00  0.00     0.177 C 
ATOM     91  S   UNL     1       8.291  -0.937 -12.149  1.00  0.00    -0.040 S 
BRANCH  90  92
ATOM     92  N   UNL     1       8.447  -0.788  -9.515  1.00  0.00    -0.299 N 
ATOM     93  C   UNL     1       8.754  -0.879  -8.041  1.00  0.00     0.260 C 
ATOM     94  H   UNL     1       9.149  -1.355  -9.910  1.00  0.00     0.172 HD
ATOM     95  O   UNL     1       9.667  -1.612  -7.671  1.00  0.00    -0.269 OA
BRANCH  93  96
ATOM     96  C   UNL     1       7.956  -0.096  -7.007  1.00  0.00     0.075 A 
ATOM     97  C   UNL     1       7.984   1.538  -7.633  1.00  0.00     0.017 A 
ATOM     98  C   UNL     1       6.437  -0.960  -6.567  1.00  0.00     0.135 A 
ATOM     99  C   UNL     1       6.444   2.272  -8.106  1.00  0.00     0.001 A 
ATOM    100  C   UNL     1       4.812  -0.353  -6.997  1.00  0.00     0.040 A 
ATOM    101  F   UNL     1       6.518  -2.274  -6.300  1.00  0.00    -0.206 F 
ATOM    102  C   UNL     1       4.711   1.254  -7.830  1.00  0.00     0.003 A 
ENDBRANCH  93  96
ENDBRANCH  90  92
ENDBRANCH  88  90
ENDBRANCH  84  88
ENDBRANCH  78  81
ENDBRANCH  76  77
ENDBRANCH   1  76
TORSDOF 18
