REMARK SMILES C[C@H](C(=O)NCCCCNC(=O)c1ccc(-c2c3nc(c(-c4c(F)cc(S(=O)(=O)[O-])cc4F)c4ccc([nH]4)c(-c4c(F)cc(S(=O)(=O)[O-])cc4F)c4nc(c(-c5c(F)cc(S(=O)(=O)[O-])cc5F)c5ccc2[nH]5)C=C4)C=C3)cc1)[C@H](C)S(=O)(=O)C1CCOCC1
REMARK SMILES IDX 7 1 6 2 5 3 3 4 4 5 2 7 1 8 79 9 80 10 81 11 82 12 83 13
REMARK SMILES IDX 84 14 85 15 89 16 86 17 88 18 87 19 8 20 9 21 10 22 11 23
REMARK SMILES IDX 12 25 13 26 14 27 78 28 15 29 77 30 16 31 17 32 18 33 71 34
REMARK SMILES IDX 19 35 76 36 70 37 72 38 20 39 75 40 69 41 68 42 21 44 55 45
REMARK SMILES IDX 34 46 54 47 35 48 38 49 53 50 73 51 36 52 37 53 52 55 74 56
REMARK SMILES IDX 39 57 22 58 23 59 32 60 24 61 25 62 31 63 33 64 26 65 27 66
REMARK SMILES IDX 28 67 29 68 30 69 56 70 57 71 66 72 58 73 59 74 65 75 67 76
REMARK SMILES IDX 60 77 61 78 62 79 63 80 64 81 40 82 41 83 50 84 42 85 43 86
REMARK SMILES IDX 49 87 51 88 44 89 45 90 46 91 47 92 48 93
REMARK H PARENT 5 6 10 24 72 43 38 54
REMARK Flexibility Score: inf
ROOT
ATOM      1  C   UNL     1      -4.258  -2.521  -1.214  1.00  0.00     0.023 C 
ENDROOT
BRANCH   1   2
ATOM      2  C   UNL     1      -4.082  -1.178  -1.925  1.00  0.00     0.116 C 
BRANCH   2   3
ATOM      3  N   UNL     1      -3.887  -0.140  -0.935  1.00  0.00    -0.356 N 
ATOM      4  C   UNL     1      -2.733   0.396  -0.453  1.00  0.00     0.224 C 
ATOM      5  O   UNL     1      -2.790   0.985   0.627  1.00  0.00    -0.275 OA
ATOM      6  H   UNL     1      -4.713   0.234  -0.553  1.00  0.00     0.163 HD
BRANCH   4   7
ATOM      7  C   UNL     1      -1.442   0.358  -1.288  1.00  0.00     0.093 C 
ATOM      8  C   UNL     1      -0.675   1.652  -0.938  1.00  0.00     0.019 C 
BRANCH   7   9
ATOM      9  C   UNL     1      -0.595  -0.926  -1.111  1.00  0.00     0.118 C 
ATOM     10  C   UNL     1       0.824  -0.711  -0.557  1.00  0.00     0.026 C 
BRANCH   9  11
ATOM     11  S   UNL     1      -0.477  -2.114  -2.530  1.00  0.00     0.156 S 
ATOM     12  O   UNL     1       0.819  -2.769  -2.417  1.00  0.00    -0.228 OA
ATOM     13  O   UNL     1      -1.643  -2.969  -2.431  1.00  0.00    -0.228 OA
BRANCH  11  14
ATOM     14  C   UNL     1      -0.467  -1.438  -4.216  1.00  0.00     0.113 C 
ATOM     15  C   UNL     1      -0.946  -0.020  -4.450  1.00  0.00     0.048 C 
ATOM     16  C   UNL     1      -1.238  -2.394  -5.152  1.00  0.00     0.048 C 
ATOM     17  C   UNL     1      -0.865   0.333  -5.931  1.00  0.00     0.161 C 
ATOM     18  C   UNL     1      -1.200  -1.915  -6.595  1.00  0.00     0.161 C 
ATOM     19  O   UNL     1      -1.662  -0.570  -6.690  1.00  0.00    -0.381 OA
ENDBRANCH  11  14
ENDBRANCH   9  11
ENDBRANCH   7   9
ENDBRANCH   4   7
ENDBRANCH   2   3
ENDBRANCH   1   2
BRANCH   1  20
ATOM     20  C   UNL     1      -5.709  -2.886  -0.923  1.00  0.00     0.023 C 
BRANCH  20  21
ATOM     21  C   UNL     1      -6.552  -3.138  -2.169  1.00  0.00     0.116 C 
BRANCH  21  22
ATOM     22  N   UNL     1      -5.979  -4.106  -3.098  1.00  0.00    -0.352 N 
ATOM     23  C   UNL     1      -6.637  -4.984  -3.933  1.00  0.00     0.251 C 
ATOM     24  H   UNL     1      -4.996  -4.137  -3.132  1.00  0.00     0.163 HD
ATOM     25  O   UNL     1      -6.022  -5.777  -4.623  1.00  0.00    -0.269 OA
BRANCH  23  26
ATOM     26  C   UNL     1      -8.114  -4.973  -3.927  1.00  0.00     0.039 A 
ATOM     27  C   UNL     1      -8.790  -6.164  -3.657  1.00  0.00     0.014 A 
ATOM     28  C   UNL     1      -8.812  -3.772  -4.077  1.00  0.00     0.014 A 
ATOM     29  C   UNL     1     -10.167  -6.132  -3.440  1.00  0.00     0.010 A 
ATOM     30  C   UNL     1     -10.168  -3.730  -3.781  1.00  0.00     0.010 A 
ATOM     31  C   UNL     1     -10.856  -4.907  -3.446  1.00  0.00    -0.014 A 
BRANCH  31  32
ATOM     32  C   UNL     1     -12.290  -4.831  -3.072  1.00  0.00     0.031 A 
ATOM     33  C   UNL     1     -13.305  -4.354  -4.072  1.00  0.00     0.074 A 
ATOM     34  C   UNL     1     -12.661  -5.118  -1.808  1.00  0.00     0.049 A 
ATOM     35  N   UNL     1     -14.587  -4.151  -3.912  1.00  0.00    -0.248 NA
ATOM     36  C   UNL     1     -12.810  -4.032  -5.421  1.00  0.00     0.031 C 
ATOM     37  C   UNL     1     -11.755  -5.521  -0.727  1.00  0.00     0.029 A 
ATOM     38  N   UNL     1     -13.897  -5.105  -1.212  1.00  0.00    -0.354 N 
ATOM     39  C   UNL     1     -15.047  -3.664  -5.129  1.00  0.00     0.074 A 
ATOM     40  C   UNL     1     -13.900  -3.551  -6.002  1.00  0.00     0.031 C 
ATOM     41  C   UNL     1     -12.470  -5.742   0.388  1.00  0.00     0.029 A 
ATOM     42  C   UNL     1     -13.876  -5.468   0.114  1.00  0.00     0.049 A 
ATOM     43  H   UNL     1     -14.722  -4.859  -1.690  1.00  0.00     0.167 HD
ATOM     44  C   UNL     1     -16.317  -3.367  -5.495  1.00  0.00     0.037 A 
ATOM     45  C   UNL     1     -14.879  -5.567   1.008  1.00  0.00     0.037 A 
ATOM     46  C   UNL     1     -17.460  -3.520  -4.634  1.00  0.00     0.049 A 
ATOM     47  C   UNL     1     -16.284  -5.264   0.565  1.00  0.00     0.074 A 
ATOM     48  C   UNL     1     -18.795  -3.307  -4.931  1.00  0.00     0.029 A 
ATOM     49  N   UNL     1     -17.405  -3.932  -3.311  1.00  0.00    -0.354 N 
ATOM     50  N   UNL     1     -16.710  -4.867  -0.610  1.00  0.00    -0.248 NA
ATOM     51  C   UNL     1     -17.346  -5.430   1.567  1.00  0.00     0.031 C 
ATOM     52  C   UNL     1     -19.545  -3.564  -3.778  1.00  0.00     0.029 A 
ATOM     53  C   UNL     1     -18.680  -3.972  -2.775  1.00  0.00     0.049 A 
ATOM     54  H   UNL     1     -16.580  -4.163  -2.825  1.00  0.00     0.167 HD
ATOM     55  C   UNL     1     -18.091  -4.758  -0.496  1.00  0.00     0.074 A 
ATOM     56  C   UNL     1     -18.430  -5.146   0.858  1.00  0.00     0.031 C 
ATOM     57  C   UNL     1     -18.997  -4.368  -1.426  1.00  0.00     0.037 A 
BRANCH  44  58
ATOM     58  C   UNL     1     -16.537  -2.870  -6.895  1.00  0.00     0.058 A 
ATOM     59  C   UNL     1     -16.419  -3.726  -8.002  1.00  0.00     0.135 A 
ATOM     60  C   UNL     1     -16.904  -1.536  -7.133  1.00  0.00     0.135 A 
ATOM     61  F   UNL     1     -16.052  -5.006  -7.831  1.00  0.00    -0.206 F 
ATOM     62  C   UNL     1     -16.636  -3.272  -9.298  1.00  0.00     0.059 A 
ATOM     63  C   UNL     1     -17.150  -1.067  -8.421  1.00  0.00     0.059 A 
ATOM     64  F   UNL     1     -17.026  -0.675  -6.111  1.00  0.00    -0.206 F 
ATOM     65  C   UNL     1     -17.001  -1.940  -9.498  1.00  0.00     0.060 A 
BRANCH  65  66
ATOM     66  S   UNL     1     -17.295  -1.371 -11.185  1.00  0.00     0.124 S 
ATOM     67  O   UNL     1     -15.933  -1.272 -11.700  1.00  0.00    -0.237 OA
ATOM     68  O   UNL     1     -18.106  -2.448 -11.743  1.00  0.00    -0.237 OA
ATOM     69  O   UNL     1     -17.989  -0.100 -10.998  1.00  0.00    -0.744 OA
ENDBRANCH  65  66
ENDBRANCH  44  58
BRANCH  45  70
ATOM     70  C   UNL     1     -14.599  -5.998   2.403  1.00  0.00     0.058 A 
ATOM     71  C   UNL     1     -14.996  -7.264   2.858  1.00  0.00     0.135 A 
ATOM     72  C   UNL     1     -13.938  -5.155   3.309  1.00  0.00     0.135 A 
ATOM     73  F   UNL     1     -15.635  -8.104   2.029  1.00  0.00    -0.206 F 
ATOM     74  C   UNL     1     -14.773  -7.671   4.169  1.00  0.00     0.059 A 
ATOM     75  C   UNL     1     -13.682  -5.548   4.619  1.00  0.00     0.059 A 
ATOM     76  F   UNL     1     -13.520  -3.942   2.916  1.00  0.00    -0.206 F 
ATOM     77  C   UNL     1     -14.117  -6.803   5.044  1.00  0.00     0.060 A 
BRANCH  77  78
ATOM     78  S   UNL     1     -13.806  -7.348   6.738  1.00  0.00     0.124 S 
ATOM     79  O   UNL     1     -15.124  -7.194   7.342  1.00  0.00    -0.237 OA
ATOM     80  O   UNL     1     -13.349  -8.721   6.542  1.00  0.00    -0.237 OA
ATOM     81  O   UNL     1     -12.783  -6.417   7.204  1.00  0.00    -0.744 OA
ENDBRANCH  77  78
ENDBRANCH  45  70
BRANCH  57  82
ATOM     82  C   UNL     1     -20.442  -4.370  -1.018  1.00  0.00     0.058 A 
ATOM     83  C   UNL     1     -20.965  -3.386  -0.164  1.00  0.00     0.135 A 
ATOM     84  C   UNL     1     -21.321  -5.345  -1.516  1.00  0.00     0.135 A 
ATOM     85  F   UNL     1     -20.164  -2.436   0.343  1.00  0.00    -0.206 F 
ATOM     86  C   UNL     1     -22.306  -3.385   0.205  1.00  0.00     0.059 A 
ATOM     87  C   UNL     1     -22.671  -5.348  -1.180  1.00  0.00     0.059 A 
ATOM     88  F   UNL     1     -20.872  -6.301  -2.344  1.00  0.00    -0.206 F 
ATOM     89  C   UNL     1     -23.151  -4.372  -0.307  1.00  0.00     0.060 A 
BRANCH  89  90
ATOM     90  S   UNL     1     -24.895  -4.348   0.159  1.00  0.00     0.124 S 
ATOM     91  O   UNL     1     -24.844  -4.897   1.510  1.00  0.00    -0.237 OA
ATOM     92  O   UNL     1     -25.227  -2.930   0.063  1.00  0.00    -0.237 OA
ATOM     93  O   UNL     1     -25.524  -5.202  -0.844  1.00  0.00    -0.744 OA
ENDBRANCH  89  90
ENDBRANCH  57  82
ENDBRANCH  31  32
ENDBRANCH  23  26
ENDBRANCH  21  22
ENDBRANCH  20  21
ENDBRANCH   1  20
TORSDOF 17
