REMARK SMILES O=C(Nc1ccc2c(c1)OCO2)N[C@H]1C=C[C@@H](C(=O)NCCCCNC(=O)c2ccc(-c3c4nc(c(-c5c(F)cc(S(=O)(=O)[O-])cc5F)c5ccc([nH]5)c(-c5c(F)cc(S(=O)(=O)[O-])cc5F)c5nc(c(-c6c(F)cc(S(=O)(=O)[O-])cc6F)c6ccc3[nH]6)C=C5)C=C4)cc2)C1
REMARK SMILES IDX 23 1 22 2 21 3 20 4 18 5 19 6 17 8 14 9 15 10 94 11 16 12
REMARK SMILES IDX 13 13 1 14 2 15 3 16 4 19 5 20 9 21 6 22 8 23 7 24 10 25
REMARK SMILES IDX 12 26 11 27 24 28 25 29 26 30 27 32 28 33 29 34 93 35 30 36
REMARK SMILES IDX 92 37 31 38 32 39 33 40 86 41 34 42 91 43 85 44 87 45 35 46
REMARK SMILES IDX 90 47 84 48 83 49 36 51 70 52 49 53 69 54 50 55 53 56 68 57
REMARK SMILES IDX 88 58 51 59 52 60 67 62 89 63 54 64 37 65 38 66 47 67 39 68
REMARK SMILES IDX 40 69 46 70 48 71 41 72 42 73 43 74 44 75 45 76 71 77 72 78
REMARK SMILES IDX 81 79 73 80 74 81 80 82 82 83 75 84 76 85 77 86 78 87 79 88
REMARK SMILES IDX 55 89 56 90 65 91 57 92 58 93 64 94 66 95 59 96 60 97 61 98
REMARK SMILES IDX 62 99 63 100
REMARK H PARENT 20 7 3 17 13 18 25 31 87 50 53 61
REMARK Flexibility Score: inf
ROOT
ATOM      1  C   UNL     1       4.277   3.830   3.720  1.00  0.00     0.023 C 
ENDROOT
BRANCH   1   2
ATOM      2  C   UNL     1       3.784   3.180   2.430  1.00  0.00     0.023 C 
BRANCH   2   3
ATOM      3  C   UNL     1       2.311   3.422   2.117  1.00  0.00     0.116 C 
BRANCH   3   4
ATOM      4  N   UNL     1       2.081   4.792   1.711  1.00  0.00    -0.356 N 
ATOM      5  C   UNL     1       1.759   5.315   0.498  1.00  0.00     0.227 C 
ATOM      6  O   UNL     1       1.619   6.542   0.435  1.00  0.00    -0.274 OA
ATOM      7  H   UNL     1       2.171   5.455   2.433  1.00  0.00     0.163 HD
BRANCH   5   8
ATOM      8  C   UNL     1       1.529   4.458  -0.752  1.00  0.00     0.103 C 
ATOM      9  C   UNL     1       2.065   2.123  -1.381  1.00  0.00     0.107 C 
ATOM     10  C   UNL     1       0.652   2.294  -0.937  1.00  0.00    -0.006 C 
ATOM     11  C   UNL     1       2.673   3.530  -1.184  1.00  0.00     0.047 C 
ATOM     12  C   UNL     1       0.352   3.553  -0.606  1.00  0.00    -0.016 C 
BRANCH   9  13
ATOM     13  N   UNL     1       2.830   1.121  -0.652  1.00  0.00    -0.332 N 
ATOM     14  O   UNL     1       1.178  -0.341  -0.033  1.00  0.00    -0.248 OA
ATOM     15  C   UNL     1       2.364  -0.032  -0.104  1.00  0.00     0.319 C 
ATOM     16  N   UNL     1       3.280  -0.951   0.316  1.00  0.00    -0.308 N 
ATOM     17  H   UNL     1       2.875  -1.813   0.564  1.00  0.00     0.171 HD
ATOM     18  H   UNL     1       3.792   1.299  -0.543  1.00  0.00     0.165 HD
BRANCH  16  19
ATOM     19  C   UNL     1       4.677  -0.935   0.473  1.00  0.00     0.046 A 
ATOM     20  C   UNL     1       5.434   0.231   0.689  1.00  0.00     0.030 A 
ATOM     21  C   UNL     1       5.325  -2.177   0.426  1.00  0.00     0.076 A 
ATOM     22  C   UNL     1       6.828   0.178   0.815  1.00  0.00     0.053 A 
ATOM     23  C   UNL     1       6.702  -2.197   0.508  1.00  0.00     0.167 A 
ATOM     24  C   UNL     1       7.434  -1.050   0.694  1.00  0.00     0.165 A 
ATOM     25  O   UNL     1       7.489  -3.301   0.394  1.00  0.00    -0.454 OA
ATOM     26  O   UNL     1       8.771  -1.287   0.731  1.00  0.00    -0.454 OA
ATOM     27  C   UNL     1       8.801  -2.704   0.466  1.00  0.00     0.468 C 
ENDBRANCH  16  19
ENDBRANCH   9  13
ENDBRANCH   5   8
ENDBRANCH   3   4
ENDBRANCH   2   3
ENDBRANCH   1   2
BRANCH   1  28
ATOM     28  C   UNL     1       3.548   3.365   4.974  1.00  0.00     0.116 C 
BRANCH  28  29
ATOM     29  N   UNL     1       3.593   1.921   5.152  1.00  0.00    -0.352 N 
ATOM     30  C   UNL     1       3.864   1.195   6.285  1.00  0.00     0.251 C 
ATOM     31  H   UNL     1       3.401   1.390   4.346  1.00  0.00     0.163 HD
ATOM     32  O   UNL     1       4.013  -0.022   6.210  1.00  0.00    -0.269 OA
BRANCH  30  33
ATOM     33  C   UNL     1       3.998   1.886   7.584  1.00  0.00     0.039 A 
ATOM     34  C   UNL     1       5.030   1.509   8.445  1.00  0.00     0.014 A 
ATOM     35  C   UNL     1       3.115   2.907   7.947  1.00  0.00     0.014 A 
ATOM     36  C   UNL     1       5.205   2.194   9.648  1.00  0.00     0.010 A 
ATOM     37  C   UNL     1       3.350   3.649   9.099  1.00  0.00     0.010 A 
ATOM     38  C   UNL     1       4.387   3.290   9.971  1.00  0.00    -0.014 A 
BRANCH  38  39
ATOM     39  C   UNL     1       4.595   4.053  11.226  1.00  0.00     0.031 A 
ATOM     40  C   UNL     1       3.515   4.095  12.275  1.00  0.00     0.074 A 
ATOM     41  C   UNL     1       5.742   4.739  11.404  1.00  0.00     0.049 A 
ATOM     42  N   UNL     1       3.512   4.707  13.431  1.00  0.00    -0.248 NA
ATOM     43  C   UNL     1       2.264   3.379  11.975  1.00  0.00     0.031 C 
ATOM     44  C   UNL     1       6.834   4.827  10.431  1.00  0.00     0.029 A 
ATOM     45  N   UNL     1       6.182   5.490  12.463  1.00  0.00    -0.354 N 
ATOM     46  C   UNL     1       2.263   4.458  13.989  1.00  0.00     0.074 A 
ATOM     47  C   UNL     1       1.511   3.697  13.017  1.00  0.00     0.031 C 
ATOM     48  C   UNL     1       7.832   5.558  10.954  1.00  0.00     0.029 A 
ATOM     49  C   UNL     1       7.438   6.020  12.281  1.00  0.00     0.049 A 
ATOM     50  H   UNL     1       5.649   5.637  13.278  1.00  0.00     0.167 HD
ATOM     51  C   UNL     1       1.795   4.806  15.211  1.00  0.00     0.037 A 
ATOM     52  C   UNL     1       8.188   6.789  13.093  1.00  0.00     0.037 A 
ATOM     53  C   UNL     1       2.560   5.546  16.181  1.00  0.00     0.049 A 
ATOM     54  C   UNL     1       7.652   7.152  14.452  1.00  0.00     0.074 A 
ATOM     55  C   UNL     1       2.203   5.900  17.470  1.00  0.00     0.029 A 
ATOM     56  N   UNL     1       3.835   6.051  15.967  1.00  0.00    -0.354 N 
ATOM     57  N   UNL     1       6.497   6.843  14.993  1.00  0.00    -0.248 NA
ATOM     58  C   UNL     1       8.527   7.956  15.315  1.00  0.00     0.031 C 
ATOM     59  C   UNL     1       3.240   6.663  18.017  1.00  0.00     0.029 A 
ATOM     60  C   UNL     1       4.270   6.734  17.092  1.00  0.00     0.049 A 
ATOM     61  H   UNL     1       4.354   5.941  15.138  1.00  0.00     0.167 HD
ATOM     62  C   UNL     1       6.517   7.393  16.271  1.00  0.00     0.074 A 
ATOM     63  C   UNL     1       7.808   8.034  16.426  1.00  0.00     0.031 C 
ATOM     64  C   UNL     1       5.556   7.371  17.229  1.00  0.00     0.037 A 
BRANCH  51  65
ATOM     65  C   UNL     1       0.394   4.384  15.569  1.00  0.00     0.058 A 
ATOM     66  C   UNL     1       0.057   3.036  15.772  1.00  0.00     0.135 A 
ATOM     67  C   UNL     1      -0.618   5.342  15.739  1.00  0.00     0.135 A 
ATOM     68  F   UNL     1       0.979   2.074  15.607  1.00  0.00    -0.206 F 
ATOM     69  C   UNL     1      -1.239   2.650  16.099  1.00  0.00     0.059 A 
ATOM     70  C   UNL     1      -1.914   4.981  16.098  1.00  0.00     0.059 A 
ATOM     71  F   UNL     1      -0.355   6.645  15.556  1.00  0.00    -0.206 F 
ATOM     72  C   UNL     1      -2.218   3.631  16.261  1.00  0.00     0.060 A 
BRANCH  72  73
ATOM     73  S   UNL     1      -3.892   3.113  16.694  1.00  0.00     0.124 S 
ATOM     74  O   UNL     1      -4.342   2.506  15.445  1.00  0.00    -0.237 OA
ATOM     75  O   UNL     1      -3.656   2.188  17.799  1.00  0.00    -0.237 OA
ATOM     76  O   UNL     1      -4.553   4.363  17.057  1.00  0.00    -0.744 OA
ENDBRANCH  72  73
ENDBRANCH  51  65
BRANCH  52  77
ATOM     77  C   UNL     1       9.538   7.238  12.655  1.00  0.00     0.058 A 
ATOM     78  C   UNL     1      10.700   6.737  13.260  1.00  0.00     0.135 A 
ATOM     79  C   UNL     1       9.693   8.168  11.616  1.00  0.00     0.135 A 
ATOM     80  F   UNL     1      10.606   5.849  14.262  1.00  0.00    -0.206 F 
ATOM     81  C   UNL     1      11.967   7.155  12.865  1.00  0.00     0.059 A 
ATOM     82  C   UNL     1      10.950   8.580  11.183  1.00  0.00     0.059 A 
ATOM     83  F   UNL     1       8.614   8.665  10.991  1.00  0.00    -0.206 F 
ATOM     84  C   UNL     1      12.081   8.075  11.822  1.00  0.00     0.060 A 
BRANCH  84  85
ATOM     85  S   UNL     1      13.731   8.575  11.285  1.00  0.00     0.124 S 
ATOM     86  O   UNL     1      14.160   9.416  12.396  1.00  0.00    -0.237 OA
ATOM     87  O   UNL     1      14.412   7.290  11.156  1.00  0.00    -0.237 OA
ATOM     88  O   UNL     1      13.478   9.271  10.027  1.00  0.00    -0.744 OA
ENDBRANCH  84  85
ENDBRANCH  52  77
BRANCH  64  89
ATOM     89  C   UNL     1       5.881   8.033  18.541  1.00  0.00     0.058 A 
ATOM     90  C   UNL     1       6.003   9.427  18.659  1.00  0.00     0.135 A 
ATOM     91  C   UNL     1       6.055   7.261  19.702  1.00  0.00     0.135 A 
ATOM     92  F   UNL     1       5.849  10.212  17.581  1.00  0.00    -0.206 F 
ATOM     93  C   UNL     1       6.334  10.027  19.869  1.00  0.00     0.059 A 
ATOM     94  C   UNL     1       6.351   7.843  20.930  1.00  0.00     0.059 A 
ATOM     95  F   UNL     1       5.934   5.925  19.651  1.00  0.00    -0.206 F 
ATOM     96  C   UNL     1       6.510   9.226  20.998  1.00  0.00     0.060 A 
BRANCH  96  97
ATOM     97  S   UNL     1       6.944  10.017  22.562  1.00  0.00     0.124 S 
ATOM     98  O   UNL     1       8.340  10.373  22.332  1.00  0.00    -0.237 OA
ATOM     99  O   UNL     1       6.006  11.134  22.618  1.00  0.00    -0.237 OA
ATOM    100  O   UNL     1       6.718   8.966  23.549  1.00  0.00    -0.744 OA
ENDBRANCH  96  97
ENDBRANCH  64  89
ENDBRANCH  38  39
ENDBRANCH  30  33
ENDBRANCH  28  29
ENDBRANCH   1  28
TORSDOF 16
