REMARK SMILES COc1cc(/N=N/c2ccccc2)ccc1NC(=O)[C@H]1CC=CC[C@@H]1C(=O)NCCCCNC(=O)c1ccc(-c2c3nc(c(-c4c(F)cc(S(=O)(=O)[O-])cc4F)c4ccc([nH]4)c(-c4c(F)cc(S(=O)(=O)[O-])cc4F)c4nc(c(-c5c(F)cc(S(=O)(=O)[O-])cc5F)c5ccc2[nH]5)C=C4)C=C3)cc1
REMARK SMILES IDX 30 1 29 2 28 3 26 4 27 5 25 7 20 8 21 9 22 10 24 11 23 12
REMARK SMILES IDX 18 13 17 14 19 16 16 17 3 18 4 19 5 20 15 21 14 22 2 23 1 24
REMARK SMILES IDX 6 25 7 26 8 27 9 28 13 29 10 30 12 31 11 32 31 33 32 34
REMARK SMILES IDX 33 35 34 36 35 38 36 39 37 40 101 41 38 42 100 43 39 44
REMARK SMILES IDX 40 45 41 46 94 47 42 48 99 49 93 50 95 51 43 52 98 53 92 54
REMARK SMILES IDX 91 55 44 57 78 58 57 59 77 60 58 61 61 62 76 63 96 64 59 65
REMARK SMILES IDX 60 66 75 68 97 69 62 70 45 71 46 72 55 73 47 74 48 75 54 76
REMARK SMILES IDX 56 77 49 78 50 79 51 80 52 81 53 82 79 83 80 84 89 85 81 86
REMARK SMILES IDX 82 87 88 88 90 89 83 90 84 91 85 92 86 93 87 94 63 95 64 96
REMARK SMILES IDX 73 97 65 98 66 99 72 100 74 101 67 102 68 103 69 104 70 105
REMARK SMILES IDX 71 106
REMARK H PARENT 28 6 17 15 33 37 95 56 61 67
REMARK Flexibility Score: inf
ROOT
ATOM      1  C   UNL     1       5.687   5.854  -1.230  1.00  0.00     0.023 C 
ENDROOT
BRANCH   1   2
ATOM      2  C   UNL     1       4.966   5.467  -2.518  1.00  0.00     0.116 C 
BRANCH   2   3
ATOM      3  N   UNL     1       5.842   4.833  -3.470  1.00  0.00    -0.356 N 
ATOM      4  C   UNL     1       5.921   3.542  -3.895  1.00  0.00     0.224 C 
ATOM      5  O   UNL     1       6.692   3.343  -4.837  1.00  0.00    -0.275 OA
ATOM      6  H   UNL     1       6.497   5.439  -3.886  1.00  0.00     0.163 HD
BRANCH   4   7
ATOM      7  C   UNL     1       5.053   2.412  -3.285  1.00  0.00     0.095 C 
ATOM      8  C   UNL     1       5.255   2.195  -1.762  1.00  0.00     0.095 C 
ATOM      9  C   UNL     1       6.757   1.880  -1.519  1.00  0.00     0.041 C 
ATOM     10  C   UNL     1       7.296   0.837  -2.463  1.00  0.00    -0.030 C 
ATOM     11  C   UNL     1       5.362   1.088  -4.029  1.00  0.00     0.041 C 
ATOM     12  C   UNL     1       6.648   0.453  -3.574  1.00  0.00    -0.030 C 
BRANCH   8  13
ATOM     13  C   UNL     1       4.401   1.061  -1.139  1.00  0.00     0.228 C 
ATOM     14  N   UNL     1       3.049   0.948  -1.251  1.00  0.00    -0.323 N 
ATOM     15  H   UNL     1       2.717   0.086  -0.910  1.00  0.00     0.170 HD
ATOM     16  O   UNL     1       4.929   0.156  -0.477  1.00  0.00    -0.274 OA
BRANCH  14  17
ATOM     17  C   UNL     1       2.017   1.760  -1.736  1.00  0.00     0.083 A 
ATOM     18  C   UNL     1       0.805   1.159  -2.109  1.00  0.00     0.144 A 
ATOM     19  C   UNL     1      -0.121   1.846  -2.901  1.00  0.00     0.079 A 
ATOM     20  C   UNL     1       0.108   3.182  -3.234  1.00  0.00     0.090 A 
ATOM     21  C   UNL     1       2.120   3.130  -1.868  1.00  0.00     0.032 A 
ATOM     22  C   UNL     1       1.190   3.838  -2.633  1.00  0.00     0.033 A 
BRANCH  18  23
ATOM     23  O   UNL     1       0.508  -0.133  -1.748  1.00  0.00    -0.494 OA
ATOM     24  C   UNL     1       0.182  -0.187  -0.350  1.00  0.00     0.278 C 
ENDBRANCH  18  23
BRANCH  20  25
ATOM     25  N   UNL     1      -0.756   3.861  -4.118  1.00  0.00    -0.150 NA
ATOM     26  N   UNL     1      -0.090   4.314  -5.077  1.00  0.00    -0.151 NA
BRANCH  26  27
ATOM     27  C   UNL     1      -0.824   5.101  -5.990  1.00  0.00     0.086 A 
ATOM     28  C   UNL     1      -0.206   5.409  -7.212  1.00  0.00     0.030 A 
ATOM     29  C   UNL     1      -2.095   5.638  -5.740  1.00  0.00     0.030 A 
ATOM     30  C   UNL     1      -0.838   6.218  -8.160  1.00  0.00     0.002 A 
ATOM     31  C   UNL     1      -2.731   6.447  -6.687  1.00  0.00     0.002 A 
ATOM     32  C   UNL     1      -2.103   6.737  -7.897  1.00  0.00     0.000 A 
ENDBRANCH  26  27
ENDBRANCH  20  25
ENDBRANCH  14  17
ENDBRANCH   8  13
ENDBRANCH   4   7
ENDBRANCH   2   3
ENDBRANCH   1   2
BRANCH   1  33
ATOM     33  C   UNL     1       6.505   7.143  -1.334  1.00  0.00     0.023 C 
BRANCH  33  34
ATOM     34  C   UNL     1       5.699   8.395  -1.669  1.00  0.00     0.116 C 
BRANCH  34  35
ATOM     35  N   UNL     1       4.653   8.689  -0.701  1.00  0.00    -0.352 N 
ATOM     36  C   UNL     1       4.213   9.923  -0.272  1.00  0.00     0.251 C 
ATOM     37  H   UNL     1       4.204   7.909  -0.303  1.00  0.00     0.163 HD
ATOM     38  O   UNL     1       3.388  10.009   0.623  1.00  0.00    -0.269 OA
BRANCH  36  39
ATOM     39  C   UNL     1       4.793  11.138  -0.885  1.00  0.00     0.039 A 
ATOM     40  C   UNL     1       5.336  12.120  -0.054  1.00  0.00     0.014 A 
ATOM     41  C   UNL     1       4.856  11.271  -2.275  1.00  0.00     0.014 A 
ATOM     42  C   UNL     1       6.016  13.201  -0.620  1.00  0.00     0.010 A 
ATOM     43  C   UNL     1       5.591  12.311  -2.833  1.00  0.00     0.010 A 
ATOM     44  C   UNL     1       6.185  13.282  -2.012  1.00  0.00    -0.014 A 
BRANCH  44  45
ATOM     45  C   UNL     1       6.993  14.365  -2.630  1.00  0.00     0.031 A 
ATOM     46  C   UNL     1       6.339  15.357  -3.553  1.00  0.00     0.074 A 
ATOM     47  C   UNL     1       8.325  14.404  -2.425  1.00  0.00     0.049 A 
ATOM     48  N   UNL     1       6.887  16.316  -4.254  1.00  0.00    -0.248 NA
ATOM     49  C   UNL     1       4.883  15.238  -3.735  1.00  0.00     0.031 C 
ATOM     50  C   UNL     1       9.084  13.464  -1.596  1.00  0.00     0.029 A 
ATOM     51  N   UNL     1       9.282  15.261  -2.909  1.00  0.00    -0.354 N 
ATOM     52  C   UNL     1       5.851  16.895  -4.978  1.00  0.00     0.074 A 
ATOM     53  C   UNL     1       4.649  16.156  -4.662  1.00  0.00     0.031 C 
ATOM     54  C   UNL     1      10.382  13.810  -1.612  1.00  0.00     0.029 A 
ATOM     55  C   UNL     1      10.556  14.972  -2.477  1.00  0.00     0.049 A 
ATOM     56  H   UNL     1       9.075  16.014  -3.509  1.00  0.00     0.167 HD
ATOM     57  C   UNL     1       5.897  17.958  -5.815  1.00  0.00     0.037 A 
ATOM     58  C   UNL     1      11.730  15.572  -2.753  1.00  0.00     0.037 A 
ATOM     59  C   UNL     1       7.086  18.722  -6.085  1.00  0.00     0.049 A 
ATOM     60  C   UNL     1      11.746  16.768  -3.667  1.00  0.00     0.074 A 
ATOM     61  C   UNL     1       7.215  19.871  -6.846  1.00  0.00     0.029 A 
ATOM     62  N   UNL     1       8.350  18.418  -5.602  1.00  0.00    -0.354 N 
ATOM     63  N   UNL     1      10.743  17.349  -4.282  1.00  0.00    -0.248 NA
ATOM     64  C   UNL     1      13.051  17.392  -3.924  1.00  0.00     0.031 C 
ATOM     65  C   UNL     1       8.563  20.242  -6.853  1.00  0.00     0.029 A 
ATOM     66  C   UNL     1       9.267  19.347  -6.064  1.00  0.00     0.049 A 
ATOM     67  H   UNL     1       8.563  17.655  -5.018  1.00  0.00     0.167 HD
ATOM     68  C   UNL     1      11.292  18.425  -4.969  1.00  0.00     0.074 A 
ATOM     69  C   UNL     1      12.713  18.419  -4.691  1.00  0.00     0.031 C 
ATOM     70  C   UNL     1      10.675  19.337  -5.760  1.00  0.00     0.037 A 
BRANCH  57  71
ATOM     71  C   UNL     1       4.622  18.373  -6.493  1.00  0.00     0.058 A 
ATOM     72  C   UNL     1       3.586  19.007  -5.790  1.00  0.00     0.135 A 
ATOM     73  C   UNL     1       4.459  18.188  -7.876  1.00  0.00     0.135 A 
ATOM     74  F   UNL     1       3.684  19.192  -4.464  1.00  0.00    -0.206 F 
ATOM     75  C   UNL     1       2.425  19.428  -6.429  1.00  0.00     0.059 A 
ATOM     76  C   UNL     1       3.316  18.623  -8.541  1.00  0.00     0.059 A 
ATOM     77  F   UNL     1       5.418  17.584  -8.595  1.00  0.00    -0.206 F 
ATOM     78  C   UNL     1       2.300  19.234  -7.806  1.00  0.00     0.060 A 
BRANCH  78  79
ATOM     79  S   UNL     1       0.799  19.810  -8.626  1.00  0.00     0.124 S 
ATOM     80  O   UNL     1      -0.170  18.806  -8.197  1.00  0.00    -0.237 OA
ATOM     81  O   UNL     1       0.624  21.143  -8.058  1.00  0.00    -0.237 OA
ATOM     82  O   UNL     1       1.151  19.778 -10.042  1.00  0.00    -0.744 OA
ENDBRANCH  78  79
ENDBRANCH  57  71
BRANCH  58  83
ATOM     83  C   UNL     1      12.991  15.076  -2.141  1.00  0.00     0.058 A 
ATOM     84  C   UNL     1      13.654  15.825  -1.157  1.00  0.00     0.135 A 
ATOM     85  C   UNL     1      13.570  13.861  -2.538  1.00  0.00     0.135 A 
ATOM     86  F   UNL     1      13.141  16.995  -0.748  1.00  0.00    -0.206 F 
ATOM     87  C   UNL     1      14.861  15.404  -0.609  1.00  0.00     0.059 A 
ATOM     88  C   UNL     1      14.765  13.407  -1.988  1.00  0.00     0.059 A 
ATOM     89  F   UNL     1      12.966  13.098  -3.463  1.00  0.00    -0.206 F 
ATOM     90  C   UNL     1      15.411  14.194  -1.035  1.00  0.00     0.060 A 
BRANCH  90  91
ATOM     91  S   UNL     1      16.969  13.645  -0.305  1.00  0.00     0.124 S 
ATOM     92  O   UNL     1      17.930  14.502  -0.989  1.00  0.00    -0.237 OA
ATOM     93  O   UNL     1      16.761  13.922   1.113  1.00  0.00    -0.237 OA
ATOM     94  O   UNL     1      17.021  12.229  -0.657  1.00  0.00    -0.744 OA
ENDBRANCH  90  91
ENDBRANCH  58  83
BRANCH  70  95
ATOM     95  C   UNL     1      11.522  20.431  -6.345  1.00  0.00     0.058 A 
ATOM     96  C   UNL     1      12.403  20.192  -7.410  1.00  0.00     0.135 A 
ATOM     97  C   UNL     1      11.409  21.747  -5.866  1.00  0.00     0.135 A 
ATOM     98  F   UNL     1      12.551  18.950  -7.898  1.00  0.00    -0.206 F 
ATOM     99  C   UNL     1      13.159  21.216  -7.970  1.00  0.00     0.059 A 
ATOM    100  C   UNL     1      12.137  22.791  -6.427  1.00  0.00     0.059 A 
ATOM    101  F   UNL     1      10.573  22.029  -4.855  1.00  0.00    -0.206 F 
ATOM    102  C   UNL     1      13.018  22.514  -7.471  1.00  0.00     0.060 A 
BRANCH 102 103
ATOM    103  S   UNL     1      13.975  23.843  -8.230  1.00  0.00     0.124 S 
ATOM    104  O   UNL     1      15.300  23.610  -7.665  1.00  0.00    -0.237 OA
ATOM    105  O   UNL     1      13.835  23.559  -9.655  1.00  0.00    -0.237 OA
ATOM    106  O   UNL     1      13.299  25.052  -7.769  1.00  0.00    -0.744 OA
ENDBRANCH 102 103
ENDBRANCH  70  95
ENDBRANCH  44  45
ENDBRANCH  36  39
ENDBRANCH  34  35
ENDBRANCH  33  34
ENDBRANCH   1  33
TORSDOF 19
