REMARK SMILES O=C(NCCCCNC(=O)c1cnccc1C(=O)N1CCC(Cc2ccccc2)CC1)c1ccc(-c2c3nc(c(-c4c(F)cc(S(=O)(=O)[O-])cc4F)c4ccc([nH]4)c(-c4c(F)cc(S(=O)(=O)[O-])cc4F)c4nc(c(-c5c(F)cc(S(=O)(=O)[O-])cc5F)c5ccc2[nH]5)C=C4)C=C3)cc1
REMARK SMILES IDX 5 1 4 2 3 3 1 4 2 5 32 7 33 8 97 9 34 10 96 11 35 12 36 13
REMARK SMILES IDX 37 14 90 15 38 16 95 17 89 18 91 19 39 20 94 21 88 22 87 23
REMARK SMILES IDX 40 25 74 26 53 27 73 28 54 29 57 30 72 31 92 32 55 33 56 34
REMARK SMILES IDX 71 36 93 37 58 38 41 39 42 40 51 41 43 42 44 43 50 44 52 45
REMARK SMILES IDX 45 46 46 47 47 48 48 49 49 50 75 51 76 52 85 53 77 54 78 55
REMARK SMILES IDX 84 56 86 57 79 58 80 59 81 60 82 61 83 62 59 63 60 64 69 65
REMARK SMILES IDX 61 66 62 67 68 68 70 69 63 70 64 71 65 72 66 73 67 74 6 75
REMARK SMILES IDX 7 76 8 77 9 78 10 80 11 81 12 82 16 83 13 84 15 85 14 86
REMARK SMILES IDX 17 87 18 88 19 89 20 90 31 91 21 92 30 93 22 94 23 95 24 96
REMARK SMILES IDX 25 97 29 98 26 99 28 100 27 101
REMARK H PARENT 3 6 91 24 57 35 8 79
REMARK Flexibility Score: inf
ROOT
ATOM      1  C   UNL     1       4.830   0.307  -3.074  1.00  0.00     0.023 C 
ENDROOT
BRANCH   1   2
ATOM      2  C   UNL     1       4.606   0.497  -1.579  1.00  0.00     0.116 C 
BRANCH   2   3
ATOM      3  N   UNL     1       3.205   0.590  -1.205  1.00  0.00    -0.352 N 
ATOM      4  O   UNL     1       1.301  -0.024  -0.153  1.00  0.00    -0.269 OA
ATOM      5  C   UNL     1       2.514  -0.143  -0.262  1.00  0.00     0.251 C 
ATOM      6  H   UNL     1       2.678   1.266  -1.689  1.00  0.00     0.163 HD
BRANCH   5   7
ATOM      7  C   UNL     1       3.250  -1.105   0.590  1.00  0.00     0.039 A 
ATOM      8  C   UNL     1       4.415  -0.716   1.253  1.00  0.00     0.014 A 
ATOM      9  C   UNL     1       2.785  -2.419   0.697  1.00  0.00     0.014 A 
ATOM     10  C   UNL     1       5.196  -1.677   1.889  1.00  0.00     0.010 A 
ATOM     11  C   UNL     1       3.532  -3.367   1.406  1.00  0.00     0.010 A 
ATOM     12  C   UNL     1       4.765  -3.013   1.975  1.00  0.00    -0.014 A 
BRANCH  12  13
ATOM     13  C   UNL     1       5.609  -3.997   2.705  1.00  0.00     0.031 A 
ATOM     14  C   UNL     1       6.271  -5.149   1.995  1.00  0.00     0.074 A 
ATOM     15  C   UNL     1       5.824  -3.804   4.022  1.00  0.00     0.049 A 
ATOM     16  N   UNL     1       7.091  -6.048   2.478  1.00  0.00    -0.248 NA
ATOM     17  C   UNL     1       5.972  -5.321   0.565  1.00  0.00     0.031 C 
ATOM     18  C   UNL     1       5.211  -2.744   4.827  1.00  0.00     0.029 A 
ATOM     19  N   UNL     1       6.631  -4.468   4.908  1.00  0.00    -0.354 N 
ATOM     20  C   UNL     1       7.401  -6.896   1.420  1.00  0.00     0.074 A 
ATOM     21  C   UNL     1       6.658  -6.419   0.273  1.00  0.00     0.031 C 
ATOM     22  C   UNL     1       5.702  -2.798   6.073  1.00  0.00     0.029 A 
ATOM     23  C   UNL     1       6.627  -3.922   6.169  1.00  0.00     0.049 A 
ATOM     24  H   UNL     1       7.163  -5.260   4.665  1.00  0.00     0.167 HD
ATOM     25  C   UNL     1       8.235  -7.965   1.405  1.00  0.00     0.037 A 
ATOM     26  C   UNL     1       7.288  -4.286   7.284  1.00  0.00     0.037 A 
ATOM     27  C   UNL     1       8.983  -8.430   2.547  1.00  0.00     0.049 A 
ATOM     28  C   UNL     1       8.222  -5.459   7.232  1.00  0.00     0.074 A 
ATOM     29  C   UNL     1       9.862  -9.498   2.626  1.00  0.00     0.029 A 
ATOM     30  N   UNL     1       8.946  -7.855   3.809  1.00  0.00    -0.354 N 
ATOM     31  N   UNL     1       8.511  -6.236   6.216  1.00  0.00    -0.248 NA
ATOM     32  C   UNL     1       8.918  -5.807   8.478  1.00  0.00     0.031 C 
ATOM     33  C   UNL     1      10.336  -9.584   3.940  1.00  0.00     0.029 A 
ATOM     34  C   UNL     1       9.780  -8.548   4.672  1.00  0.00     0.049 A 
ATOM     35  H   UNL     1       8.406  -7.069   4.055  1.00  0.00     0.167 HD
ATOM     36  C   UNL     1       9.420  -7.168   6.700  1.00  0.00     0.074 A 
ATOM     37  C   UNL     1       9.661  -6.835   8.090  1.00  0.00     0.031 C 
ATOM     38  C   UNL     1       9.996  -8.213   6.056  1.00  0.00     0.037 A 
BRANCH  25  39
ATOM     39  C   UNL     1       8.395  -8.715   0.111  1.00  0.00     0.058 A 
ATOM     40  C   UNL     1       9.155  -8.194  -0.948  1.00  0.00     0.135 A 
ATOM     41  C   UNL     1       7.848  -9.998  -0.047  1.00  0.00     0.135 A 
ATOM     42  F   UNL     1       9.689  -6.965  -0.855  1.00  0.00    -0.206 F 
ATOM     43  C   UNL     1       9.359  -8.914  -2.121  1.00  0.00     0.059 A 
ATOM     44  C   UNL     1       8.055 -10.745  -1.204  1.00  0.00     0.059 A 
ATOM     45  F   UNL     1       7.113 -10.544   0.935  1.00  0.00    -0.206 F 
ATOM     46  C   UNL     1       8.806 -10.190  -2.239  1.00  0.00     0.060 A 
BRANCH  46  47
ATOM     47  S   UNL     1       9.103 -11.123  -3.757  1.00  0.00     0.124 S 
ATOM     48  O   UNL     1       8.220 -10.437  -4.696  1.00  0.00    -0.237 OA
ATOM     49  O   UNL     1      10.532 -10.925  -3.973  1.00  0.00    -0.237 OA
ATOM     50  O   UNL     1       8.708 -12.483  -3.404  1.00  0.00    -0.744 OA
ENDBRANCH  46  47
ENDBRANCH  25  39
BRANCH  26  51
ATOM     51  C   UNL     1       7.076  -3.530   8.545  1.00  0.00     0.058 A 
ATOM     52  C   UNL     1       8.076  -2.702   9.072  1.00  0.00     0.135 A 
ATOM     53  C   UNL     1       5.857  -3.610   9.235  1.00  0.00     0.135 A 
ATOM     54  F   UNL     1       9.259  -2.597   8.447  1.00  0.00    -0.206 F 
ATOM     55  C   UNL     1       7.883  -1.990  10.251  1.00  0.00     0.059 A 
ATOM     56  C   UNL     1       5.630  -2.889  10.401  1.00  0.00     0.059 A 
ATOM     57  F   UNL     1       4.862  -4.373   8.756  1.00  0.00    -0.206 F 
ATOM     58  C   UNL     1       6.655  -2.091  10.909  1.00  0.00     0.060 A 
BRANCH  58  59
ATOM     59  S   UNL     1       6.386  -1.132  12.415  1.00  0.00     0.124 S 
ATOM     60  O   UNL     1       7.047  -1.965  13.412  1.00  0.00    -0.237 OA
ATOM     61  O   UNL     1       7.042   0.133  12.101  1.00  0.00    -0.237 OA
ATOM     62  O   UNL     1       4.930  -1.066  12.508  1.00  0.00    -0.744 OA
ENDBRANCH  58  59
ENDBRANCH  26  51
BRANCH  38  63
ATOM     63  C   UNL     1      10.936  -9.065   6.859  1.00  0.00     0.058 A 
ATOM     64  C   UNL     1      10.461  -9.963   7.827  1.00  0.00     0.135 A 
ATOM     65  C   UNL     1      12.323  -8.983   6.661  1.00  0.00     0.135 A 
ATOM     66  F   UNL     1       9.143 -10.073   8.057  1.00  0.00    -0.206 F 
ATOM     67  C   UNL     1      11.331 -10.725   8.600  1.00  0.00     0.059 A 
ATOM     68  C   UNL     1      13.211  -9.752   7.407  1.00  0.00     0.059 A 
ATOM     69  F   UNL     1      12.827  -8.146   5.740  1.00  0.00    -0.206 F 
ATOM     70  C   UNL     1      12.705 -10.606   8.387  1.00  0.00     0.060 A 
BRANCH  70  71
ATOM     71  S   UNL     1      13.829 -11.592   9.399  1.00  0.00     0.124 S 
ATOM     72  O   UNL     1      13.847 -10.831  10.643  1.00  0.00    -0.237 OA
ATOM     73  O   UNL     1      13.153 -12.885   9.456  1.00  0.00    -0.237 OA
ATOM     74  O   UNL     1      15.073 -11.577   8.634  1.00  0.00    -0.744 OA
ENDBRANCH  70  71
ENDBRANCH  38  63
ENDBRANCH  12  13
ENDBRANCH   5   7
ENDBRANCH   2   3
ENDBRANCH   1   2
BRANCH   1  75
ATOM     75  C   UNL     1       4.369   1.448  -3.983  1.00  0.00     0.023 C 
BRANCH  75  76
ATOM     76  C   UNL     1       4.802   2.853  -3.574  1.00  0.00     0.116 C 
BRANCH  76  77
ATOM     77  N   UNL     1       6.235   2.977  -3.370  1.00  0.00    -0.352 N 
ATOM     78  C   UNL     1       7.042   4.066  -3.551  1.00  0.00     0.253 C 
ATOM     79  H   UNL     1       6.689   2.162  -3.056  1.00  0.00     0.163 HD
ATOM     80  O   UNL     1       8.252   3.987  -3.353  1.00  0.00    -0.269 OA
BRANCH  78  81
ATOM     81  C   UNL     1       6.506   5.337  -4.039  1.00  0.00     0.070 A 
ATOM     82  C   UNL     1       6.968   5.749  -5.283  1.00  0.00     0.125 A 
ATOM     83  C   UNL     1       5.580   6.144  -3.382  1.00  0.00     0.055 A 
ATOM     84  N   UNL     1       6.523   6.853  -5.931  1.00  0.00    -0.264 NA
ATOM     85  C   UNL     1       5.094   7.282  -4.042  1.00  0.00     0.035 A 
ATOM     86  C   UNL     1       5.583   7.586  -5.301  1.00  0.00     0.112 A 
BRANCH  83  87
ATOM     87  C   UNL     1       4.873   5.751  -2.147  1.00  0.00     0.254 C 
ATOM     88  O   UNL     1       3.642   5.761  -2.234  1.00  0.00    -0.269 OA
ATOM     89  N   UNL     1       5.537   5.328  -0.998  1.00  0.00    -0.339 N 
ATOM     90  C   UNL     1       4.796   4.421  -0.125  1.00  0.00     0.120 C 
ATOM     91  C   UNL     1       6.962   5.506  -0.695  1.00  0.00     0.120 C 
ATOM     92  C   UNL     1       5.052   4.646   1.352  1.00  0.00     0.025 C 
ATOM     93  C   UNL     1       7.229   5.708   0.805  1.00  0.00     0.025 C 
ATOM     94  C   UNL     1       6.558   4.600   1.637  1.00  0.00    -0.003 C 
BRANCH  94  95
ATOM     95  C   UNL     1       6.855   4.734   3.142  1.00  0.00     0.039 C 
BRANCH  95  96
ATOM     96  C   UNL     1       6.303   3.576   3.948  1.00  0.00    -0.048 A 
ATOM     97  C   UNL     1       5.188   3.756   4.779  1.00  0.00     0.004 A 
ATOM     98  C   UNL     1       6.876   2.299   3.854  1.00  0.00     0.004 A 
ATOM     99  C   UNL     1       4.655   2.681   5.494  1.00  0.00     0.000 A 
ATOM    100  C   UNL     1       6.343   1.226   4.573  1.00  0.00     0.000 A 
ATOM    101  C   UNL     1       5.231   1.417   5.390  1.00  0.00     0.000 A 
ENDBRANCH  95  96
ENDBRANCH  94  95
ENDBRANCH  83  87
ENDBRANCH  78  81
ENDBRANCH  76  77
ENDBRANCH  75  76
ENDBRANCH   1  75
TORSDOF 17
