REMARK SMILES C[C@@H](C(=O)NCCCCNC(=O)c1ccc(-c2c3nc(c(-c4c(F)cc(S(=O)(=O)[O-])cc4F)c4ccc([nH]4)c(-c4c(F)cc(S(=O)(=O)[O-])cc4F)c4nc(c(-c5c(F)cc(S(=O)(=O)[O-])cc5F)c5ccc2[nH]5)C=C4)C=C3)cc1)c1ccc2c(c1)[nH]c1ccc(Cl)cc12
REMARK SMILES IDX 8 1 7 2 6 3 5 4 3 5 4 6 2 8 1 9 79 10 80 11 84 12 81 13
REMARK SMILES IDX 83 14 82 15 85 16 92 17 86 18 91 20 87 21 89 22 88 23 90 24
REMARK SMILES IDX 9 25 10 26 11 27 12 29 13 30 14 31 78 32 15 33 77 34 16 35
REMARK SMILES IDX 17 36 18 37 71 38 19 39 76 40 70 41 72 42 20 43 75 44 69 45
REMARK SMILES IDX 68 46 21 48 55 49 34 50 54 51 35 52 38 53 53 54 73 55 36 56
REMARK SMILES IDX 37 57 52 59 74 60 39 61 22 62 23 63 32 64 24 65 25 66 31 67
REMARK SMILES IDX 33 68 26 69 27 70 28 71 29 72 30 73 56 74 57 75 66 76 58 77
REMARK SMILES IDX 59 78 65 79 67 80 60 81 61 82 62 83 63 84 64 85 40 86 41 87
REMARK SMILES IDX 50 88 42 89 43 90 49 91 51 92 44 93 45 94 46 95 47 96 48 97
REMARK H PARENT 5 7 85 19 10 28 72 47 38 58
REMARK Flexibility Score: inf
ROOT
ATOM      1  C   UNL     1       4.958   1.881   1.867  1.00  0.00     0.023 C 
ENDROOT
BRANCH   1   2
ATOM      2  C   UNL     1       4.144   0.870   1.057  1.00  0.00     0.023 C 
BRANCH   2   3
ATOM      3  C   UNL     1       3.291  -0.082   1.896  1.00  0.00     0.116 C 
BRANCH   3   4
ATOM      4  N   UNL     1       2.214   0.621   2.568  1.00  0.00    -0.356 N 
ATOM      5  C   UNL     1       0.877   0.658   2.278  1.00  0.00     0.227 C 
ATOM      6  O   UNL     1       0.174   1.418   2.946  1.00  0.00    -0.274 OA
ATOM      7  H   UNL     1       2.486   1.151   3.352  1.00  0.00     0.163 HD
BRANCH   5   8
ATOM      8  C   UNL     1       0.328  -0.230   1.154  1.00  0.00     0.105 C 
ATOM      9  C   UNL     1       0.617   0.369  -0.222  1.00  0.00     0.023 C 
BRANCH   8  10
ATOM     10  C   UNL     1      -1.153  -0.559   1.314  1.00  0.00    -0.034 A 
ATOM     11  C   UNL     1      -2.155   0.396   1.089  1.00  0.00     0.005 A 
ATOM     12  C   UNL     1      -1.514  -1.859   1.706  1.00  0.00     0.031 A 
ATOM     13  C   UNL     1      -3.515   0.068   1.201  1.00  0.00     0.011 A 
ATOM     14  C   UNL     1      -2.872  -2.152   1.861  1.00  0.00     0.047 A 
ATOM     15  C   UNL     1      -3.884  -1.234   1.595  1.00  0.00     0.007 A 
ATOM     16  N   UNL     1      -3.474  -3.305   2.298  1.00  0.00    -0.355 N 
ATOM     17  C   UNL     1      -5.132  -1.894   1.838  1.00  0.00     0.009 A 
ATOM     18  C   UNL     1      -4.837  -3.156   2.356  1.00  0.00     0.047 A 
ATOM     19  H   UNL     1      -2.992  -4.130   2.538  1.00  0.00     0.167 HD
ATOM     20  C   UNL     1      -6.486  -1.523   1.703  1.00  0.00     0.031 A 
ATOM     21  C   UNL     1      -5.816  -4.036   2.829  1.00  0.00     0.028 A 
ATOM     22  C   UNL     1      -7.476  -2.409   2.141  1.00  0.00     0.041 A 
ATOM     23  C   UNL     1      -7.149  -3.633   2.721  1.00  0.00     0.022 A 
ATOM     24  Cl  UNL     1      -9.136  -1.977   1.968  1.00  0.00    -0.084 Cl
ENDBRANCH   8  10
ENDBRANCH   5   8
ENDBRANCH   3   4
ENDBRANCH   2   3
ENDBRANCH   1   2
BRANCH   1  25
ATOM     25  C   UNL     1       5.952   1.273   2.849  1.00  0.00     0.116 C 
BRANCH  25  26
ATOM     26  N   UNL     1       6.947   0.438   2.199  1.00  0.00    -0.352 N 
ATOM     27  C   UNL     1       8.304   0.377   2.407  1.00  0.00     0.251 C 
ATOM     28  H   UNL     1       6.599  -0.173   1.509  1.00  0.00     0.163 HD
ATOM     29  O   UNL     1       8.999  -0.291   1.648  1.00  0.00    -0.269 OA
BRANCH  27  30
ATOM     30  C   UNL     1       8.927   1.127   3.523  1.00  0.00     0.039 A 
ATOM     31  C   UNL     1      10.156   1.754   3.306  1.00  0.00     0.014 A 
ATOM     32  C   UNL     1       8.326   1.193   4.784  1.00  0.00     0.014 A 
ATOM     33  C   UNL     1      10.764   2.470   4.340  1.00  0.00     0.010 A 
ATOM     34  C   UNL     1       8.889   1.980   5.785  1.00  0.00     0.010 A 
ATOM     35  C   UNL     1      10.127   2.606   5.585  1.00  0.00    -0.014 A 
BRANCH  35  36
ATOM     36  C   UNL     1      10.771   3.357   6.695  1.00  0.00     0.031 A 
ATOM     37  C   UNL     1      11.158   2.643   7.965  1.00  0.00     0.074 A 
ATOM     38  C   UNL     1      10.981   4.683   6.575  1.00  0.00     0.049 A 
ATOM     39  N   UNL     1      11.727   3.122   9.042  1.00  0.00    -0.248 NA
ATOM     40  C   UNL     1      10.839   1.208   8.049  1.00  0.00     0.031 C 
ATOM     41  C   UNL     1      10.605   5.498   5.418  1.00  0.00     0.029 A 
ATOM     42  N   UNL     1      11.566   5.580   7.434  1.00  0.00    -0.354 N 
ATOM     43  C   UNL     1      11.819   2.056   9.930  1.00  0.00     0.074 A 
ATOM     44  C   UNL     1      11.191   0.920   9.292  1.00  0.00     0.031 C 
ATOM     45  C   UNL     1      11.002   6.765   5.624  1.00  0.00     0.029 A 
ATOM     46  C   UNL     1      11.629   6.861   6.939  1.00  0.00     0.049 A 
ATOM     47  H   UNL     1      11.908   5.329   8.322  1.00  0.00     0.167 HD
ATOM     48  C   UNL     1      12.398   2.017  11.154  1.00  0.00     0.037 A 
ATOM     49  C   UNL     1      12.139   7.984   7.480  1.00  0.00     0.037 A 
ATOM     50  C   UNL     1      13.048   3.144  11.772  1.00  0.00     0.049 A 
ATOM     51  C   UNL     1      12.788   7.913   8.837  1.00  0.00     0.074 A 
ATOM     52  C   UNL     1      13.721   3.193  12.980  1.00  0.00     0.029 A 
ATOM     53  N   UNL     1      13.105   4.420  11.231  1.00  0.00    -0.354 N 
ATOM     54  N   UNL     1      12.931   6.879   9.632  1.00  0.00    -0.248 NA
ATOM     55  C   UNL     1      13.359   9.160   9.364  1.00  0.00     0.031 C 
ATOM     56  C   UNL     1      14.137   4.511  13.195  1.00  0.00     0.029 A 
ATOM     57  C   UNL     1      13.782   5.269  12.091  1.00  0.00     0.049 A 
ATOM     58  H   UNL     1      12.720   4.683  10.364  1.00  0.00     0.167 HD
ATOM     59  C   UNL     1      13.644   7.341  10.733  1.00  0.00     0.074 A 
ATOM     60  C   UNL     1      13.909   8.746  10.497  1.00  0.00     0.031 C 
ATOM     61  C   UNL     1      14.049   6.664  11.837  1.00  0.00     0.037 A 
BRANCH  48  62
ATOM     62  C   UNL     1      12.355   0.713  11.909  1.00  0.00     0.058 A 
ATOM     63  C   UNL     1      13.077  -0.415  11.485  1.00  0.00     0.135 A 
ATOM     64  C   UNL     1      11.603   0.599  13.090  1.00  0.00     0.135 A 
ATOM     65  F   UNL     1      13.801  -0.370  10.355  1.00  0.00    -0.206 F 
ATOM     66  C   UNL     1      13.029  -1.617  12.184  1.00  0.00     0.059 A 
ATOM     67  C   UNL     1      11.567  -0.584  13.824  1.00  0.00     0.059 A 
ATOM     68  F   UNL     1      10.893   1.644  13.543  1.00  0.00    -0.206 F 
ATOM     69  C   UNL     1      12.270  -1.691  13.353  1.00  0.00     0.060 A 
BRANCH  69  70
ATOM     70  S   UNL     1      12.220  -3.257  14.249  1.00  0.00     0.124 S 
ATOM     71  O   UNL     1      11.397  -4.074  13.361  1.00  0.00    -0.237 OA
ATOM     72  O   UNL     1      13.631  -3.622  14.318  1.00  0.00    -0.237 OA
ATOM     73  O   UNL     1      11.604  -2.902  15.524  1.00  0.00    -0.744 OA
ENDBRANCH  69  70
ENDBRANCH  48  62
BRANCH  49  74
ATOM     74  C   UNL     1      12.099   9.264   6.721  1.00  0.00     0.058 A 
ATOM     75  C   UNL     1      13.274   9.843   6.218  1.00  0.00     0.135 A 
ATOM     76  C   UNL     1      10.889   9.932   6.479  1.00  0.00     0.135 A 
ATOM     77  F   UNL     1      14.458   9.246   6.426  1.00  0.00    -0.206 F 
ATOM     78  C   UNL     1      13.256  11.049   5.525  1.00  0.00     0.059 A 
ATOM     79  C   UNL     1      10.841  11.125   5.763  1.00  0.00     0.059 A 
ATOM     80  F   UNL     1       9.733   9.413   6.923  1.00  0.00    -0.206 F 
ATOM     81  C   UNL     1      12.032  11.682   5.300  1.00  0.00     0.060 A 
BRANCH  81  82
ATOM     82  S   UNL     1      12.016  13.225   4.363  1.00  0.00     0.124 S 
ATOM     83  O   UNL     1      12.603  14.156   5.320  1.00  0.00    -0.237 OA
ATOM     84  O   UNL     1      12.842  12.890   3.208  1.00  0.00    -0.237 OA
ATOM     85  O   UNL     1      10.599  13.427   4.074  1.00  0.00    -0.744 OA
ENDBRANCH  81  82
ENDBRANCH  49  74
BRANCH  61  86
ATOM     86  C   UNL     1      14.871   7.416  12.849  1.00  0.00     0.058 A 
ATOM     87  C   UNL     1      14.324   8.425  13.656  1.00  0.00     0.135 A 
ATOM     88  C   UNL     1      16.228   7.098  13.031  1.00  0.00     0.135 A 
ATOM     89  F   UNL     1      13.033   8.771  13.523  1.00  0.00    -0.206 F 
ATOM     90  C   UNL     1      15.101   9.121  14.577  1.00  0.00     0.059 A 
ATOM     91  C   UNL     1      17.015   7.756  13.970  1.00  0.00     0.059 A 
ATOM     92  F   UNL     1      16.801   6.130  12.297  1.00  0.00    -0.206 F 
ATOM     93  C   UNL     1      16.447   8.781  14.725  1.00  0.00     0.060 A 
BRANCH  93  94
ATOM     94  S   UNL     1      17.443   9.687  15.926  1.00  0.00     0.124 S 
ATOM     95  O   UNL     1      17.620  10.969  15.253  1.00  0.00    -0.237 OA
ATOM     96  O   UNL     1      16.578   9.702  17.102  1.00  0.00    -0.237 OA
ATOM     97  O   UNL     1      18.648   8.872  16.053  1.00  0.00    -0.744 OA
ENDBRANCH  93  94
ENDBRANCH  61  86
ENDBRANCH  35  36
ENDBRANCH  27  30
ENDBRANCH  25  26
ENDBRANCH   1  25
TORSDOF 15
