REMARK SMILES O=C(Cc1cn2ccsc2n1)N[C@@H]1C=C[C@H](C(=O)NCCCCNC(=O)c2ccc(-c3c4nc(c(-c5c(F)cc(S(=O)(=O)[O-])cc5F)c5ccc([nH]5)c(-c5c(F)cc(S(=O)(=O)[O-])cc5F)c5nc(c(-c6c(F)cc(S(=O)(=O)[O-])cc6F)c6ccc3[nH]6)C=C5)C=C4)cc2)C1
REMARK SMILES IDX 21 1 20 2 19 3 17 4 18 5 16 7 13 8 14 9 93 10 15 11 12 12
REMARK SMILES IDX 1 13 2 14 3 16 4 17 5 18 11 19 6 20 10 21 7 22 9 23 8 24
REMARK SMILES IDX 22 25 23 26 24 27 25 28 26 30 27 31 28 32 92 33 29 34 91 35
REMARK SMILES IDX 30 36 31 37 32 38 85 39 33 40 90 41 84 42 86 43 34 44 89 45
REMARK SMILES IDX 83 46 82 47 35 49 69 50 48 51 68 52 49 53 52 54 67 55 87 56
REMARK SMILES IDX 50 57 51 58 66 60 88 61 53 62 36 63 37 64 46 65 38 66 39 67
REMARK SMILES IDX 45 68 47 69 40 70 41 71 42 72 43 73 44 74 70 75 71 76 80 77
REMARK SMILES IDX 72 78 73 79 79 80 81 81 74 82 75 83 76 84 77 85 78 86 54 87
REMARK SMILES IDX 55 88 64 89 56 90 57 91 63 92 65 93 58 94 59 95 60 96 61 97
REMARK SMILES IDX 62 98
REMARK H PARENT 19 6 12 15 24 29 86 48 52 59
REMARK Flexibility Score: inf
ROOT
ATOM      1  C   UNL     1      -2.481   4.823  -1.017  1.00  0.00     0.023 C 
ENDROOT
BRANCH   1   2
ATOM      2  C   UNL     1      -1.403   4.065  -1.790  1.00  0.00     0.116 C 
BRANCH   2   3
ATOM      3  N   UNL     1      -0.272   4.917  -2.099  1.00  0.00    -0.356 N 
ATOM      4  C   UNL     1       0.988   5.006  -1.607  1.00  0.00     0.227 C 
ATOM      5  O   UNL     1       1.696   5.898  -2.095  1.00  0.00    -0.274 OA
ATOM      6  H   UNL     1      -0.457   5.567  -2.815  1.00  0.00     0.163 HD
BRANCH   4   7
ATOM      7  C   UNL     1       1.568   4.122  -0.485  1.00  0.00     0.103 C 
ATOM      8  C   UNL     1       2.654   2.005  -1.159  1.00  0.00     0.106 C 
ATOM      9  C   UNL     1       1.378   1.776  -0.428  1.00  0.00    -0.006 C 
ATOM     10  C   UNL     1       2.907   3.506  -0.951  1.00  0.00     0.047 C 
ATOM     11  C   UNL     1       0.832   2.918   0.001  1.00  0.00    -0.016 C 
BRANCH   8  12
ATOM     12  N   UNL     1       2.506   1.653  -2.549  1.00  0.00    -0.350 N 
ATOM     13  O   UNL     1       4.232   0.138  -2.559  1.00  0.00    -0.275 OA
ATOM     14  C   UNL     1       3.378   0.782  -3.168  1.00  0.00     0.226 C 
ATOM     15  H   UNL     1       1.765   2.043  -3.067  1.00  0.00     0.164 HD
BRANCH  14  16
ATOM     16  C   UNL     1       3.301   0.753  -4.681  1.00  0.00     0.157 C 
BRANCH  16  17
ATOM     17  C   UNL     1       2.031   0.182  -5.199  1.00  0.00     0.070 A 
ATOM     18  C   UNL     1       1.850  -0.982  -5.941  1.00  0.00     0.118 A 
ATOM     19  N   UNL     1       0.833   0.869  -5.043  1.00  0.00    -0.223 NA
ATOM     20  N   UNL     1       0.523  -0.990  -6.245  1.00  0.00    -0.297 N 
ATOM     21  C   UNL     1      -0.025   0.122  -5.683  1.00  0.00     0.193 A 
ATOM     22  C   UNL     1      -0.342  -1.793  -6.950  1.00  0.00     0.104 A 
ATOM     23  S   UNL     1      -1.725   0.218  -6.021  1.00  0.00    -0.105 S 
ATOM     24  C   UNL     1      -1.591  -1.297  -6.938  1.00  0.00     0.087 A 
ENDBRANCH  16  17
ENDBRANCH  14  16
ENDBRANCH   8  12
ENDBRANCH   4   7
ENDBRANCH   2   3
ENDBRANCH   1   2
BRANCH   1  25
ATOM     25  C   UNL     1      -3.341   5.746  -1.885  1.00  0.00     0.023 C 
BRANCH  25  26
ATOM     26  C   UNL     1      -4.028   5.070  -3.069  1.00  0.00     0.116 C 
BRANCH  26  27
ATOM     27  N   UNL     1      -4.822   3.912  -2.687  1.00  0.00    -0.352 N 
ATOM     28  C   UNL     1      -6.030   3.488  -3.189  1.00  0.00     0.251 C 
ATOM     29  H   UNL     1      -4.441   3.355  -1.970  1.00  0.00     0.163 HD
ATOM     30  O   UNL     1      -6.616   2.554  -2.663  1.00  0.00    -0.269 OA
BRANCH  28  31
ATOM     31  C   UNL     1      -6.626   4.193  -4.346  1.00  0.00     0.039 A 
ATOM     32  C   UNL     1      -7.981   4.525  -4.301  1.00  0.00     0.014 A 
ATOM     33  C   UNL     1      -5.854   4.533  -5.460  1.00  0.00     0.014 A 
ATOM     34  C   UNL     1      -8.549   5.247  -5.352  1.00  0.00     0.010 A 
ATOM     35  C   UNL     1      -6.402   5.322  -6.467  1.00  0.00     0.010 A 
ATOM     36  C   UNL     1      -7.758   5.678  -6.430  1.00  0.00    -0.014 A 
BRANCH  36  37
ATOM     37  C   UNL     1      -8.344   6.491  -7.526  1.00  0.00     0.031 A 
ATOM     38  C   UNL     1      -8.390   5.952  -8.931  1.00  0.00     0.074 A 
ATOM     39  C   UNL     1      -8.803   7.731  -7.261  1.00  0.00     0.049 A 
ATOM     40  N   UNL     1      -8.864   6.512 -10.014  1.00  0.00    -0.248 NA
ATOM     41  C   UNL     1      -7.804   4.620  -9.154  1.00  0.00     0.031 C 
ATOM     42  C   UNL     1      -8.755   8.388  -5.952  1.00  0.00     0.029 A 
ATOM     43  N   UNL     1      -9.400   8.659  -8.075  1.00  0.00    -0.354 N 
ATOM     44  C   UNL     1      -8.626   5.609 -11.044  1.00  0.00     0.074 A 
ATOM     45  C   UNL     1      -7.910   4.492 -10.468  1.00  0.00     0.031 C 
ATOM     46  C   UNL     1      -9.330   9.598  -6.046  1.00  0.00     0.029 A 
ATOM     47  C   UNL     1      -9.757   9.817  -7.424  1.00  0.00     0.049 A 
ATOM     48  H   UNL     1      -9.558   8.511  -9.036  1.00  0.00     0.167 HD
ATOM     49  C   UNL     1      -8.996   5.688 -12.345  1.00  0.00     0.037 A 
ATOM     50  C   UNL     1     -10.363  10.928  -7.886  1.00  0.00     0.037 A 
ATOM     51  C   UNL     1      -9.727   6.794 -12.907  1.00  0.00     0.049 A 
ATOM     52  C   UNL     1     -10.777  10.987  -9.331  1.00  0.00     0.074 A 
ATOM     53  C   UNL     1     -10.201   6.947 -14.198  1.00  0.00     0.029 A 
ATOM     54  N   UNL     1     -10.087   7.941 -12.213  1.00  0.00    -0.354 N 
ATOM     55  N   UNL     1     -10.612  10.090 -10.274  1.00  0.00    -0.248 NA
ATOM     56  C   UNL     1     -11.473  12.203  -9.772  1.00  0.00     0.031 C 
ATOM     57  C   UNL     1     -10.805   8.205 -14.297  1.00  0.00     0.029 A 
ATOM     58  C   UNL     1     -10.758   8.814 -13.054  1.00  0.00     0.049 A 
ATOM     59  H   UNL     1      -9.894   8.109 -11.262  1.00  0.00     0.167 HD
ATOM     60  C   UNL     1     -11.206  10.623 -11.414  1.00  0.00     0.074 A 
ATOM     61  C   UNL     1     -11.751  11.910 -11.034  1.00  0.00     0.031 C 
ATOM     62  C   UNL     1     -11.292  10.095 -12.661  1.00  0.00     0.037 A 
BRANCH  49  63
ATOM     63  C   UNL     1      -8.620   4.543 -13.247  1.00  0.00     0.058 A 
ATOM     64  C   UNL     1      -9.208   3.274 -13.115  1.00  0.00     0.135 A 
ATOM     65  C   UNL     1      -7.680   4.721 -14.275  1.00  0.00     0.135 A 
ATOM     66  F   UNL     1     -10.102   3.040 -12.140  1.00  0.00    -0.206 F 
ATOM     67  C   UNL     1      -8.854   2.215 -13.946  1.00  0.00     0.059 A 
ATOM     68  C   UNL     1      -7.333   3.684 -15.138  1.00  0.00     0.059 A 
ATOM     69  F   UNL     1      -7.085   5.911 -14.449  1.00  0.00    -0.206 F 
ATOM     70  C   UNL     1      -7.914   2.431 -14.954  1.00  0.00     0.060 A 
BRANCH  70  71
ATOM     71  S   UNL     1      -7.466   1.046 -16.023  1.00  0.00     0.124 S 
ATOM     72  O   UNL     1      -6.671   0.224 -15.116  1.00  0.00    -0.237 OA
ATOM     73  O   UNL     1      -8.769   0.503 -16.392  1.00  0.00    -0.237 OA
ATOM     74  O   UNL     1      -6.723   1.679 -17.108  1.00  0.00    -0.744 OA
ENDBRANCH  70  71
ENDBRANCH  49  63
BRANCH  50  75
ATOM     75  C   UNL     1     -10.644  12.060  -6.962  1.00  0.00     0.058 A 
ATOM     76  C   UNL     1     -11.957  12.374  -6.579  1.00  0.00     0.135 A 
ATOM     77  C   UNL     1      -9.606  12.844  -6.434  1.00  0.00     0.135 A 
ATOM     78  F   UNL     1     -12.985  11.658  -7.060  1.00  0.00    -0.206 F 
ATOM     79  C   UNL     1     -12.234  13.435  -5.723  1.00  0.00     0.059 A 
ATOM     80  C   UNL     1      -9.856  13.893  -5.554  1.00  0.00     0.059 A 
ATOM     81  F   UNL     1      -8.331  12.575  -6.754  1.00  0.00    -0.206 F 
ATOM     82  C   UNL     1     -11.175  14.187  -5.213  1.00  0.00     0.060 A 
BRANCH  82  83
ATOM     83  S   UNL     1     -11.542  15.532  -4.064  1.00  0.00     0.124 S 
ATOM     84  O   UNL     1     -12.123  16.529  -4.955  1.00  0.00    -0.237 OA
ATOM     85  O   UNL     1     -12.465  14.893  -3.131  1.00  0.00    -0.237 OA
ATOM     86  O   UNL     1     -10.233  15.866  -3.509  1.00  0.00    -0.744 OA
ENDBRANCH  82  83
ENDBRANCH  50  75
BRANCH  62  87
ATOM     87  C   UNL     1     -12.030  10.900 -13.697  1.00  0.00     0.058 A 
ATOM     88  C   UNL     1     -11.508  12.095 -14.218  1.00  0.00     0.135 A 
ATOM     89  C   UNL     1     -13.271  10.459 -14.187  1.00  0.00     0.135 A 
ATOM     90  F   UNL     1     -10.328  12.563 -13.783  1.00  0.00    -0.206 F 
ATOM     91  C   UNL     1     -12.210  12.847 -15.154  1.00  0.00     0.059 A 
ATOM     92  C   UNL     1     -13.974  11.179 -15.148  1.00  0.00     0.059 A 
ATOM     93  F   UNL     1     -13.810   9.316 -13.736  1.00  0.00    -0.206 F 
ATOM     94  C   UNL     1     -13.445  12.383 -15.610  1.00  0.00     0.060 A 
BRANCH  94  95
ATOM     95  S   UNL     1     -14.348  13.369 -16.823  1.00  0.00     0.124 S 
ATOM     96  O   UNL     1     -14.839  14.468 -15.999  1.00  0.00    -0.237 OA
ATOM     97  O   UNL     1     -13.305  13.713 -17.785  1.00  0.00    -0.237 OA
ATOM     98  O   UNL     1     -15.368  12.449 -17.317  1.00  0.00    -0.744 OA
ENDBRANCH  94  95
ENDBRANCH  62  87
ENDBRANCH  36  37
ENDBRANCH  28  31
ENDBRANCH  26  27
ENDBRANCH  25  26
ENDBRANCH   1  25
TORSDOF 17
