REMARK SMILES COc1ccccc1C(=O)Nc1sc2c(c1C(=O)NCCCCNC(=O)c1ccc(-c3c4nc(c(-c5c(F)cc(S(=O)(=O)[O-])cc5F)c5ccc([nH]5)c(-c5c(F)cc(S(=O)(=O)[O-])cc5F)c5nc(c(-c6c(F)cc(S(=O)(=O)[O-])cc6F)c6ccc3[nH]6)C=C5)C=C4)cc1)CCCC2
REMARK SMILES IDX 21 1 20 2 19 3 17 4 18 5 16 7 12 8 13 9 14 10 15 11 96 12
REMARK SMILES IDX 93 13 95 14 94 15 11 16 9 17 10 18 8 20 3 21 4 22 5 23 7 24
REMARK SMILES IDX 6 25 2 26 1 27 22 28 23 29 24 30 25 31 26 33 27 34 28 35
REMARK SMILES IDX 92 36 29 37 91 38 30 39 31 40 32 41 85 42 33 43 90 44 84 45
REMARK SMILES IDX 86 46 34 47 89 48 83 49 82 50 35 52 69 53 48 54 68 55 49 56
REMARK SMILES IDX 52 57 67 58 87 59 50 60 51 61 66 63 88 64 53 65 36 66 37 67
REMARK SMILES IDX 46 68 38 69 39 70 45 71 47 72 40 73 41 74 42 75 43 76 44 77
REMARK SMILES IDX 70 78 71 79 80 80 72 81 73 82 79 83 81 84 74 85 75 86 76 87
REMARK SMILES IDX 77 88 78 89 54 90 55 91 64 92 56 93 57 94 63 95 65 96 58 97
REMARK SMILES IDX 59 98 60 99 61 100 62 101
REMARK H PARENT 19 6 11 19 24 32 86 51 52 62
REMARK Flexibility Score: inf
ROOT
ATOM      1  C   UNL     1      -1.062  -4.087   2.331  1.00  0.00     0.023 C 
ENDROOT
BRANCH   1   2
ATOM      2  C   UNL     1      -0.540  -2.681   2.625  1.00  0.00     0.116 C 
BRANCH   2   3
ATOM      3  N   UNL     1       0.816  -2.567   2.156  1.00  0.00    -0.352 N 
ATOM      4  C   UNL     1       1.377  -2.160   0.979  1.00  0.00     0.254 C 
ATOM      5  O   UNL     1       2.612  -2.232   0.962  1.00  0.00    -0.269 OA
ATOM      6  H   UNL     1       1.482  -2.841   2.828  1.00  0.00     0.163 HD
BRANCH   4   7
ATOM      7  C   UNL     1       0.662  -1.567  -0.171  1.00  0.00     0.078 A 
ATOM      8  C   UNL     1       1.315  -0.531  -0.842  1.00  0.00     0.109 A 
ATOM      9  S   UNL     1       0.616  -0.111  -2.324  1.00  0.00    -0.122 S 
ATOM     10  C   UNL     1      -0.792  -0.958  -1.923  1.00  0.00     0.011 A 
ATOM     11  C   UNL     1      -0.648  -1.757  -0.795  1.00  0.00    -0.019 A 
ATOM     12  C   UNL     1      -2.020  -0.831  -2.772  1.00  0.00     0.047 C 
ATOM     13  C   UNL     1      -1.799  -2.626  -0.375  1.00  0.00     0.037 C 
ATOM     14  C   UNL     1      -3.245  -1.323  -2.000  1.00  0.00     0.006 C 
ATOM     15  C   UNL     1      -2.956  -2.692  -1.383  1.00  0.00     0.005 C 
BRANCH   8  16
ATOM     16  N   UNL     1       2.488   0.080  -0.454  1.00  0.00    -0.313 N 
ATOM     17  C   UNL     1       2.848   1.407  -0.506  1.00  0.00     0.260 C 
ATOM     18  O   UNL     1       4.003   1.708  -0.183  1.00  0.00    -0.269 OA
ATOM     19  H   UNL     1       3.171  -0.524  -0.084  1.00  0.00     0.171 HD
BRANCH  17  20
ATOM     20  C   UNL     1       1.924   2.528  -0.847  1.00  0.00     0.082 A 
ATOM     21  C   UNL     1       0.566   2.632  -0.502  1.00  0.00     0.131 A 
ATOM     22  C   UNL     1      -0.197   3.712  -0.967  1.00  0.00     0.047 A 
ATOM     23  C   UNL     1       0.403   4.751  -1.675  1.00  0.00     0.004 A 
ATOM     24  C   UNL     1       2.520   3.607  -1.528  1.00  0.00     0.018 A 
ATOM     25  C   UNL     1       1.769   4.713  -1.931  1.00  0.00     0.001 A 
BRANCH  21  26
ATOM     26  O   UNL     1      -0.146   1.694   0.196  1.00  0.00    -0.496 OA
ATOM     27  C   UNL     1       0.176   1.678   1.582  1.00  0.00     0.278 C 
ENDBRANCH  21  26
ENDBRANCH  17  20
ENDBRANCH   8  16
ENDBRANCH   4   7
ENDBRANCH   2   3
ENDBRANCH   1   2
BRANCH   1  28
ATOM     28  C   UNL     1      -0.895  -5.080   3.477  1.00  0.00     0.023 C 
BRANCH  28  29
ATOM     29  C   UNL     1      -1.843  -4.840   4.643  1.00  0.00     0.116 C 
BRANCH  29  30
ATOM     30  N   UNL     1      -3.249  -4.929   4.270  1.00  0.00    -0.352 N 
ATOM     31  C   UNL     1      -4.302  -5.422   5.002  1.00  0.00     0.251 C 
ATOM     32  H   UNL     1      -3.475  -4.591   3.373  1.00  0.00     0.163 HD
ATOM     33  O   UNL     1      -5.417  -5.507   4.495  1.00  0.00    -0.269 OA
BRANCH  31  34
ATOM     34  C   UNL     1      -4.064  -5.891   6.381  1.00  0.00     0.039 A 
ATOM     35  C   UNL     1      -4.567  -7.135   6.765  1.00  0.00     0.014 A 
ATOM     36  C   UNL     1      -3.295  -5.133   7.268  1.00  0.00     0.014 A 
ATOM     37  C   UNL     1      -4.237  -7.649   8.019  1.00  0.00     0.010 A 
ATOM     38  C   UNL     1      -2.891  -5.688   8.476  1.00  0.00     0.010 A 
ATOM     39  C   UNL     1      -3.364  -6.947   8.867  1.00  0.00    -0.014 A 
BRANCH  39  40
ATOM     40  C   UNL     1      -2.944  -7.518  10.171  1.00  0.00     0.031 A 
ATOM     41  C   UNL     1      -3.318  -6.826  11.452  1.00  0.00     0.074 A 
ATOM     42  C   UNL     1      -2.190  -8.634  10.194  1.00  0.00     0.049 A 
ATOM     43  N   UNL     1      -3.052  -7.173  12.685  1.00  0.00    -0.248 NA
ATOM     44  C   UNL     1      -4.060  -5.561  11.332  1.00  0.00     0.031 C 
ATOM     45  C   UNL     1      -1.710  -9.358   9.014  1.00  0.00     0.029 A 
ATOM     46  N   UNL     1      -1.703  -9.361  11.249  1.00  0.00    -0.354 N 
ATOM     47  C   UNL     1      -3.589  -6.170  13.483  1.00  0.00     0.074 A 
ATOM     48  C   UNL     1      -4.126  -5.164  12.593  1.00  0.00     0.031 C 
ATOM     49  C   UNL     1      -1.044 -10.454   9.412  1.00  0.00     0.029 A 
ATOM     50  C   UNL     1      -1.024 -10.495  10.870  1.00  0.00     0.049 A 
ATOM     51  H   UNL     1      -1.827  -9.097  12.190  1.00  0.00     0.167 HD
ATOM     52  C   UNL     1      -3.661  -6.106  14.835  1.00  0.00     0.037 A 
ATOM     53  C   UNL     1      -0.469 -11.469  11.616  1.00  0.00     0.037 A 
ATOM     54  C   UNL     1      -3.138  -7.119  15.713  1.00  0.00     0.049 A 
ATOM     55  C   UNL     1      -0.570 -11.386  13.114  1.00  0.00     0.074 A 
ATOM     56  C   UNL     1      -3.190  -7.176  17.095  1.00  0.00     0.029 A 
ATOM     57  N   UNL     1      -2.466  -8.258  15.292  1.00  0.00    -0.354 N 
ATOM     58  N   UNL     1      -1.134 -10.461  13.854  1.00  0.00    -0.248 NA
ATOM     59  C   UNL     1       0.031 -12.487  13.878  1.00  0.00     0.031 C 
ATOM     60  C   UNL     1      -2.521  -8.334  17.510  1.00  0.00     0.029 A 
ATOM     61  C   UNL     1      -2.089  -9.020  16.386  1.00  0.00     0.049 A 
ATOM     62  H   UNL     1      -2.283  -8.491  14.353  1.00  0.00     0.167 HD
ATOM     63  C   UNL     1      -0.985 -10.884  15.170  1.00  0.00     0.074 A 
ATOM     64  C   UNL     1      -0.285 -12.152  15.121  1.00  0.00     0.031 C 
ATOM     65  C   UNL     1      -1.393 -10.280  16.315  1.00  0.00     0.037 A 
BRANCH  52  66
ATOM     66  C   UNL     1      -4.338  -4.900  15.427  1.00  0.00     0.058 A 
ATOM     67  C   UNL     1      -5.720  -4.688  15.280  1.00  0.00     0.135 A 
ATOM     68  C   UNL     1      -3.599  -3.930  16.123  1.00  0.00     0.135 A 
ATOM     69  F   UNL     1      -6.472  -5.574  14.608  1.00  0.00    -0.206 F 
ATOM     70  C   UNL     1      -6.334  -3.533  15.753  1.00  0.00     0.059 A 
ATOM     71  C   UNL     1      -4.200  -2.782  16.632  1.00  0.00     0.059 A 
ATOM     72  F   UNL     1      -2.277  -4.081  16.295  1.00  0.00    -0.206 F 
ATOM     73  C   UNL     1      -5.563  -2.580  16.419  1.00  0.00     0.060 A 
BRANCH  73  74
ATOM     74  S   UNL     1      -6.364  -1.067  16.989  1.00  0.00     0.124 S 
ATOM     75  O   UNL     1      -6.508  -0.328  15.739  1.00  0.00    -0.237 OA
ATOM     76  O   UNL     1      -7.604  -1.568  17.575  1.00  0.00    -0.237 OA
ATOM     77  O   UNL     1      -5.405  -0.513  17.939  1.00  0.00    -0.744 OA
ENDBRANCH  73  74
ENDBRANCH  52  66
BRANCH  53  78
ATOM     78  C   UNL     1       0.162 -12.641  10.954  1.00  0.00     0.058 A 
ATOM     79  C   UNL     1      -0.469 -13.894  10.971  1.00  0.00     0.135 A 
ATOM     80  C   UNL     1       1.382 -12.531  10.271  1.00  0.00     0.135 A 
ATOM     81  F   UNL     1      -1.636 -14.048  11.615  1.00  0.00    -0.206 F 
ATOM     82  C   UNL     1       0.091 -15.001  10.343  1.00  0.00     0.059 A 
ATOM     83  C   UNL     1       1.952 -13.619   9.616  1.00  0.00     0.059 A 
ATOM     84  F   UNL     1       2.015 -11.350  10.211  1.00  0.00    -0.206 F 
ATOM     85  C   UNL     1       1.301 -14.852   9.664  1.00  0.00     0.060 A 
BRANCH  85  86
ATOM     86  S   UNL     1       1.987 -16.282   8.798  1.00  0.00     0.124 S 
ATOM     87  O   UNL     1       2.474 -17.092   9.909  1.00  0.00    -0.237 OA
ATOM     88  O   UNL     1       0.820 -16.800   8.091  1.00  0.00    -0.237 OA
ATOM     89  O   UNL     1       3.016 -15.694   7.945  1.00  0.00    -0.744 OA
ENDBRANCH  85  86
ENDBRANCH  53  78
BRANCH  65  90
ATOM     90  C   UNL     1      -1.122 -11.008  17.602  1.00  0.00     0.058 A 
ATOM     91  C   UNL     1       0.172 -11.112  18.135  1.00  0.00     0.135 A 
ATOM     92  C   UNL     1      -2.177 -11.597  18.318  1.00  0.00     0.135 A 
ATOM     93  F   UNL     1       1.215 -10.570  17.487  1.00  0.00    -0.206 F 
ATOM     94  C   UNL     1       0.418 -11.809  19.314  1.00  0.00     0.059 A 
ATOM     95  C   UNL     1      -1.958 -12.275  19.513  1.00  0.00     0.059 A 
ATOM     96  F   UNL     1      -3.436 -11.515  17.859  1.00  0.00    -0.206 F 
ATOM     97  C   UNL     1      -0.654 -12.392  19.992  1.00  0.00     0.060 A 
BRANCH  97  98
ATOM     98  S   UNL     1      -0.326 -13.294  21.521  1.00  0.00     0.124 S 
ATOM     99  O   UNL     1       0.222 -14.546  21.010  1.00  0.00    -0.237 OA
ATOM    100  O   UNL     1       0.621 -12.420  22.205  1.00  0.00    -0.237 OA
ATOM    101  O   UNL     1      -1.642 -13.391  22.145  1.00  0.00    -0.744 OA
ENDBRANCH  97  98
ENDBRANCH  65  90
ENDBRANCH  39  40
ENDBRANCH  31  34
ENDBRANCH  29  30
ENDBRANCH  28  29
ENDBRANCH   1  28
TORSDOF 17
