REMARK SMILES COc1ccc(-n2c(SCC(=O)NCCCCNC(=O)c3ccc(-c4c5nc(c(-c6c(F)cc(S(=O)(=O)[O-])cc6F)c6ccc([nH]6)c(-c6c(F)cc(S(=O)(=O)[O-])cc6F)c6nc(c(-c7c(F)cc(S(=O)(=O)[O-])cc7F)c7ccc4[nH]7)C=C6)C=C5)cc3)nc3sc4c(c3c2=O)CC[N@H+](C)C4)cc1
REMARK SMILES IDX 15 1 14 2 13 3 11 4 12 5 10 7 9 8 8 9 7 10 93 11 87 12 92 13
REMARK SMILES IDX 94 14 88 15 91 16 89 17 90 18 95 19 99 20 96 21 97 22 98 23
REMARK SMILES IDX 6 25 3 26 4 27 101 28 5 29 100 30 2 31 1 32 16 33 17 34
REMARK SMILES IDX 18 35 19 36 20 38 21 39 22 40 86 41 23 42 85 43 24 44 25 45
REMARK SMILES IDX 26 46 79 47 27 48 84 49 78 50 80 51 28 52 83 53 77 54 76 55
REMARK SMILES IDX 29 57 63 58 42 59 62 60 43 61 46 62 61 63 81 64 44 65 45 66
REMARK SMILES IDX 60 68 82 69 47 70 30 71 31 72 40 73 32 74 33 75 39 76 41 77
REMARK SMILES IDX 34 78 35 79 36 80 37 81 38 82 64 83 65 84 74 85 66 86 67 87
REMARK SMILES IDX 73 88 75 89 68 90 69 91 70 92 71 93 72 94 48 95 49 96 58 97
REMARK SMILES IDX 50 98 51 99 57 100 59 101 52 102 53 103 54 104 55 105 56 106
REMARK H PARENT 13 6 97 24 18 37 80 56 46 67
REMARK Flexibility Score: inf
ROOT
ATOM      1  C   UNL     1       6.752   0.439  -4.259  1.00  0.00     0.023 C 
ENDROOT
BRANCH   1   2
ATOM      2  C   UNL     1       6.135  -0.944  -4.034  1.00  0.00     0.116 C 
BRANCH   2   3
ATOM      3  N   UNL     1       4.830  -0.910  -3.396  1.00  0.00    -0.355 N 
ATOM      4  C   UNL     1       3.604  -1.264  -3.881  1.00  0.00     0.230 C 
ATOM      5  O   UNL     1       2.765  -1.616  -3.045  1.00  0.00    -0.274 OA
ATOM      6  H   UNL     1       4.830  -0.582  -2.468  1.00  0.00     0.163 HD
BRANCH   4   7
ATOM      7  C   UNL     1       3.255  -1.335  -5.363  1.00  0.00     0.178 C 
BRANCH   7   8
ATOM      8  S   UNL     1       4.053  -0.141  -6.411  1.00  0.00    -0.077 SA
BRANCH   8   9
ATOM      9  C   UNL     1       3.081   1.262  -6.778  1.00  0.00     0.177 A 
ATOM     10  N   UNL     1       2.057   1.802  -5.991  1.00  0.00    -0.255 N 
ATOM     11  C   UNL     1       1.401   2.998  -6.369  1.00  0.00     0.267 A 
ATOM     12  N   UNL     1       3.490   1.797  -7.893  1.00  0.00    -0.212 NA
ATOM     13  C   UNL     1       1.956   3.638  -7.543  1.00  0.00     0.081 A 
ATOM     14  O   UNL     1       0.457   3.504  -5.775  1.00  0.00    -0.268 OA
ATOM     15  C   UNL     1       2.936   2.977  -8.234  1.00  0.00     0.132 A 
ATOM     16  C   UNL     1       1.672   4.921  -8.100  1.00  0.00    -0.008 A 
ATOM     17  S   UNL     1       3.458   3.850  -9.605  1.00  0.00    -0.114 S 
ATOM     18  C   UNL     1       2.414   5.143  -9.245  1.00  0.00     0.065 A 
ATOM     19  C   UNL     1       0.708   5.953  -7.596  1.00  0.00     0.099 C 
ATOM     20  C   UNL     1       2.354   6.395 -10.071  1.00  0.00     0.310 C 
ATOM     21  C   UNL     1       0.883   7.294  -8.349  1.00  0.00     0.267 C 
ATOM     22  N   UNL     1       1.123   7.179  -9.808  1.00  0.00    -0.333 N 
ATOM     23  C   UNL     1      -0.031   6.606 -10.501  1.00  0.00     0.333 C 
ATOM     24  H   UNL     1       1.257   8.120 -10.179  1.00  0.00     0.348 HD
BRANCH  10  25
ATOM     25  C   UNL     1       1.635   1.293  -4.741  1.00  0.00     0.052 A 
ATOM     26  C   UNL     1       0.615   0.610  -2.222  1.00  0.00     0.119 A 
ATOM     27  C   UNL     1      -0.111   0.317  -3.379  1.00  0.00     0.048 A 
ATOM     28  C   UNL     1       1.836   1.281  -2.328  1.00  0.00     0.048 A 
ATOM     29  C   UNL     1       0.387   0.667  -4.635  1.00  0.00     0.030 A 
ATOM     30  C   UNL     1       2.349   1.622  -3.585  1.00  0.00     0.030 A 
BRANCH  26  31
ATOM     31  O   UNL     1       0.021   0.208  -1.058  1.00  0.00    -0.497 OA
ATOM     32  C   UNL     1       0.850   0.194   0.099  1.00  0.00     0.278 C 
ENDBRANCH  26  31
ENDBRANCH  10  25
ENDBRANCH   8   9
ENDBRANCH   7   8
ENDBRANCH   4   7
ENDBRANCH   2   3
ENDBRANCH   1   2
BRANCH   1  33
ATOM     33  C   UNL     1       7.144   1.226  -2.998  1.00  0.00     0.023 C 
BRANCH  33  34
ATOM     34  C   UNL     1       8.163   0.564  -2.061  1.00  0.00     0.116 C 
BRANCH  34  35
ATOM     35  N   UNL     1       9.383   0.200  -2.756  1.00  0.00    -0.352 N 
ATOM     36  C   UNL     1      10.693   0.150  -2.364  1.00  0.00     0.251 C 
ATOM     37  H   UNL     1       9.240  -0.061  -3.694  1.00  0.00     0.163 HD
ATOM     38  O   UNL     1      11.529  -0.052  -3.247  1.00  0.00    -0.269 OA
BRANCH  36  39
ATOM     39  C   UNL     1      11.154   0.339  -0.964  1.00  0.00     0.039 A 
ATOM     40  C   UNL     1      12.445   0.863  -0.794  1.00  0.00     0.014 A 
ATOM     41  C   UNL     1      10.441  -0.077   0.163  1.00  0.00     0.014 A 
ATOM     42  C   UNL     1      13.004   0.996   0.478  1.00  0.00     0.010 A 
ATOM     43  C   UNL     1      11.001   0.066   1.444  1.00  0.00     0.010 A 
ATOM     44  C   UNL     1      12.283   0.608   1.613  1.00  0.00    -0.014 A 
BRANCH  44  45
ATOM     45  C   UNL     1      12.875   0.881   2.942  1.00  0.00     0.031 A 
ATOM     46  C   UNL     1      11.984   1.510   3.957  1.00  0.00     0.074 A 
ATOM     47  C   UNL     1      13.968   0.239   3.410  1.00  0.00     0.049 A 
ATOM     48  N   UNL     1      11.149   0.819   4.675  1.00  0.00    -0.248 NA
ATOM     49  C   UNL     1      11.828   2.957   4.096  1.00  0.00     0.031 C 
ATOM     50  C   UNL     1      14.353  -1.120   3.015  1.00  0.00     0.029 A 
ATOM     51  N   UNL     1      14.804   0.535   4.462  1.00  0.00    -0.354 N 
ATOM     52  C   UNL     1      10.329   1.717   5.330  1.00  0.00     0.074 A 
ATOM     53  C   UNL     1      10.792   3.033   4.948  1.00  0.00     0.031 C 
ATOM     54  C   UNL     1      15.227  -1.601   3.924  1.00  0.00     0.029 A 
ATOM     55  C   UNL     1      15.596  -0.540   4.859  1.00  0.00     0.049 A 
ATOM     56  H   UNL     1      14.839   1.420   4.893  1.00  0.00     0.167 HD
ATOM     57  C   UNL     1       9.312   1.325   6.140  1.00  0.00     0.037 A 
ATOM     58  C   UNL     1      16.064  -0.768   6.118  1.00  0.00     0.037 A 
ATOM     59  C   UNL     1       9.179  -0.090   6.323  1.00  0.00     0.049 A 
ATOM     60  C   UNL     1      14.785  -0.964   6.889  1.00  0.00     0.074 A 
ATOM     61  C   UNL     1       8.495  -1.128   5.727  1.00  0.00     0.029 A 
ATOM     62  N   UNL     1       9.951  -0.691   7.291  1.00  0.00    -0.354 N 
ATOM     63  N   UNL     1      14.081  -2.064   6.939  1.00  0.00    -0.248 NA
ATOM     64  C   UNL     1      14.084   0.231   7.365  1.00  0.00     0.031 C 
ATOM     65  C   UNL     1       9.233  -2.309   6.054  1.00  0.00     0.029 A 
ATOM     66  C   UNL     1      10.349  -1.901   6.782  1.00  0.00     0.049 A 
ATOM     67  H   UNL     1      10.174  -0.323   8.177  1.00  0.00     0.167 HD
ATOM     68  C   UNL     1      12.771  -1.653   7.191  1.00  0.00     0.074 A 
ATOM     69  C   UNL     1      12.848  -0.234   7.476  1.00  0.00     0.031 C 
ATOM     70  C   UNL     1      11.678  -2.438   6.971  1.00  0.00     0.037 A 
BRANCH  57  71
ATOM     71  C   UNL     1       8.436   2.229   6.907  1.00  0.00     0.058 A 
ATOM     72  C   UNL     1       8.618   2.324   8.295  1.00  0.00     0.135 A 
ATOM     73  C   UNL     1       7.282   2.787   6.347  1.00  0.00     0.135 A 
ATOM     74  F   UNL     1       9.715   1.797   8.865  1.00  0.00    -0.206 F 
ATOM     75  C   UNL     1       7.653   2.889   9.115  1.00  0.00     0.059 A 
ATOM     76  C   UNL     1       6.302   3.366   7.149  1.00  0.00     0.059 A 
ATOM     77  F   UNL     1       7.067   2.713   5.023  1.00  0.00    -0.206 F 
ATOM     78  C   UNL     1       6.483   3.378   8.534  1.00  0.00     0.060 A 
BRANCH  78  79
ATOM     79  S   UNL     1       5.177   3.972   9.630  1.00  0.00     0.124 S 
ATOM     80  O   UNL     1       4.771   2.742  10.301  1.00  0.00    -0.237 OA
ATOM     81  O   UNL     1       5.891   4.942  10.455  1.00  0.00    -0.237 OA
ATOM     82  O   UNL     1       4.196   4.539   8.710  1.00  0.00    -0.744 OA
ENDBRANCH  78  79
ENDBRANCH  57  71
BRANCH  58  83
ATOM     83  C   UNL     1      17.170   0.136   6.580  1.00  0.00     0.058 A 
ATOM     84  C   UNL     1      18.283   0.332   5.732  1.00  0.00     0.135 A 
ATOM     85  C   UNL     1      17.215   0.813   7.810  1.00  0.00     0.135 A 
ATOM     86  F   UNL     1      18.401  -0.374   4.596  1.00  0.00    -0.206 F 
ATOM     87  C   UNL     1      19.290   1.252   6.016  1.00  0.00     0.059 A 
ATOM     88  C   UNL     1      18.198   1.760   8.107  1.00  0.00     0.059 A 
ATOM     89  F   UNL     1      16.294   0.589   8.758  1.00  0.00    -0.206 F 
ATOM     90  C   UNL     1      19.216   1.995   7.189  1.00  0.00     0.060 A 
BRANCH  90  91
ATOM     91  S   UNL     1      20.420   3.312   7.458  1.00  0.00     0.124 S 
ATOM     92  O   UNL     1      21.643   2.557   7.705  1.00  0.00    -0.237 OA
ATOM     93  O   UNL     1      20.364   4.036   6.192  1.00  0.00    -0.237 OA
ATOM     94  O   UNL     1      19.881   4.032   8.607  1.00  0.00    -0.744 OA
ENDBRANCH  90  91
ENDBRANCH  58  83
BRANCH  70  95
ATOM     95  C   UNL     1      11.940  -3.872   6.659  1.00  0.00     0.058 A 
ATOM     96  C   UNL     1      12.285  -4.763   7.684  1.00  0.00     0.135 A 
ATOM     97  C   UNL     1      11.750  -4.394   5.370  1.00  0.00     0.135 A 
ATOM     98  F   UNL     1      12.473  -4.316   8.937  1.00  0.00    -0.206 F 
ATOM     99  C   UNL     1      12.384  -6.131   7.451  1.00  0.00     0.059 A 
ATOM    100  C   UNL     1      11.824  -5.761   5.119  1.00  0.00     0.059 A 
ATOM    101  F   UNL     1      11.433  -3.586   4.344  1.00  0.00    -0.206 F 
ATOM    102  C   UNL     1      12.129  -6.624   6.170  1.00  0.00     0.060 A 
BRANCH 102 103
ATOM    103  S   UNL     1      12.097  -8.411   5.920  1.00  0.00     0.124 S 
ATOM    104  O   UNL     1      13.513  -8.755   5.984  1.00  0.00    -0.237 OA
ATOM    105  O   UNL     1      11.281  -8.870   7.041  1.00  0.00    -0.237 OA
ATOM    106  O   UNL     1      11.474  -8.562   4.606  1.00  0.00    -0.744 OA
ENDBRANCH 102 103
ENDBRANCH  70  95
ENDBRANCH  44  45
ENDBRANCH  36  39
ENDBRANCH  34  35
ENDBRANCH  33  34
ENDBRANCH   1  33
TORSDOF 18
