REMARK SMILES Cc1ccc([C@@H](CC(=O)NCCCCNC(=O)c2ccc(-c3c4nc(c(-c5c(F)cc(S(=O)(=O)[O-])cc5F)c5ccc([nH]5)c(-c5c(F)cc(S(=O)(=O)[O-])cc5F)c5nc(c(-c6c(F)cc(S(=O)(=O)[O-])cc6F)c6ccc3[nH]6)C=C5)C=C4)cc2)NC(=O)c2ccc(OC(F)F)cc2)cc1
REMARK SMILES IDX 11 1 10 2 8 3 9 4 7 6 6 7 5 8 1 9 2 10 3 11 98 12 4 13 97 14
REMARK SMILES IDX 84 15 85 16 86 18 87 19 88 20 96 21 89 22 95 23 90 24 91 25
REMARK SMILES IDX 92 26 93 27 94 28 12 29 13 30 14 31 15 32 16 33 17 35 18 36
REMARK SMILES IDX 19 37 83 38 20 39 82 40 21 41 22 42 23 43 76 44 24 45 81 46
REMARK SMILES IDX 75 47 77 48 25 49 80 50 74 51 73 52 26 54 60 55 39 56 59 57
REMARK SMILES IDX 40 58 43 59 58 60 78 61 41 62 42 63 57 65 79 66 44 67 27 68
REMARK SMILES IDX 28 69 37 70 29 71 30 72 36 73 38 74 31 75 32 76 33 77 34 78
REMARK SMILES IDX 35 79 61 80 62 81 71 82 63 83 64 84 70 85 72 86 65 87 66 88
REMARK SMILES IDX 67 89 68 90 69 91 45 92 46 93 55 94 47 95 48 96 54 97 56 98
REMARK SMILES IDX 49 99 50 100 51 101 52 102 53 103
REMARK H PARENT 10 5 84 17 15 34 77 53 43 64
REMARK Flexibility Score: inf
ROOT
ATOM      1  C   UNL     1      -0.932  -2.339  -1.004  1.00  0.00     0.116 C 
ENDROOT
BRANCH   1   2
ATOM      2  N   UNL     1      -2.341  -2.697  -1.046  1.00  0.00    -0.356 N 
ATOM      3  C   UNL     1      -3.443  -1.899  -1.101  1.00  0.00     0.222 C 
ATOM      4  O   UNL     1      -4.555  -2.435  -1.101  1.00  0.00    -0.275 OA
ATOM      5  H   UNL     1      -2.527  -3.664  -1.032  1.00  0.00     0.163 HD
BRANCH   3   6
ATOM      6  C   UNL     1      -3.320  -0.394  -1.194  1.00  0.00     0.129 C 
BRANCH   6   7
ATOM      7  C   UNL     1      -3.317   0.376   0.147  1.00  0.00     0.122 C 
BRANCH   7   8
ATOM      8  C   UNL     1      -1.921   0.900   0.474  1.00  0.00    -0.025 A 
ATOM      9  C   UNL     1       2.273   1.916   0.655  1.00  0.00     0.044 C 
ATOM     10  C   UNL     1       0.797   1.644   0.679  1.00  0.00    -0.051 A 
ATOM     11  C   UNL     1       0.253   0.699   1.549  1.00  0.00     0.004 A 
ATOM     12  C   UNL     1      -0.048   2.304  -0.214  1.00  0.00     0.004 A 
ATOM     13  C   UNL     1      -1.098   0.346   1.461  1.00  0.00     0.006 A 
ATOM     14  C   UNL     1      -1.391   1.936  -0.317  1.00  0.00     0.006 A 
ENDBRANCH   7   8
BRANCH   7  15
ATOM     15  N   UNL     1      -3.927  -0.353   1.257  1.00  0.00    -0.345 N 
ATOM     16  C   UNL     1      -5.088  -0.101   1.938  1.00  0.00     0.251 C 
ATOM     17  H   UNL     1      -3.427  -1.145   1.562  1.00  0.00     0.164 HD
ATOM     18  O   UNL     1      -5.299  -0.636   3.024  1.00  0.00    -0.269 OA
BRANCH  16  19
ATOM     19  C   UNL     1      -6.102   0.816   1.378  1.00  0.00     0.040 A 
ATOM     20  C   UNL     1      -6.664   1.792   2.202  1.00  0.00     0.017 A 
ATOM     21  C   UNL     1      -6.573   0.652   0.073  1.00  0.00     0.017 A 
ATOM     22  C   UNL     1      -7.660   2.633   1.699  1.00  0.00     0.047 A 
ATOM     23  C   UNL     1      -7.559   1.506  -0.431  1.00  0.00     0.047 A 
ATOM     24  C   UNL     1      -8.105   2.505   0.378  1.00  0.00     0.126 A 
BRANCH  24  25
ATOM     25  O   UNL     1      -9.079   3.392   0.017  1.00  0.00    -0.435 OA
BRANCH  25  26
ATOM     26  C   UNL     1      -9.502   3.408  -1.340  1.00  0.00     0.542 C 
ATOM     27  F   UNL     1      -8.445   3.637  -2.155  1.00  0.00    -0.167 F 
ATOM     28  F   UNL     1     -10.052   2.216  -1.673  1.00  0.00    -0.167 F 
ENDBRANCH  25  26
ENDBRANCH  24  25
ENDBRANCH  16  19
ENDBRANCH   7  15
ENDBRANCH   6   7
ENDBRANCH   3   6
ENDBRANCH   1   2
BRANCH   1  29
ATOM     29  C   UNL     1      -0.339  -2.580   0.388  1.00  0.00     0.023 C 
BRANCH  29  30
ATOM     30  C   UNL     1       0.241  -3.967   0.629  1.00  0.00     0.023 C 
BRANCH  30  31
ATOM     31  C   UNL     1       1.513  -4.225  -0.163  1.00  0.00     0.116 C 
BRANCH  31  32
ATOM     32  N   UNL     1       2.743  -3.720   0.426  1.00  0.00    -0.352 N 
ATOM     33  C   UNL     1       4.038  -3.904  -0.041  1.00  0.00     0.251 C 
ATOM     34  H   UNL     1       2.647  -3.189   1.249  1.00  0.00     0.163 HD
ATOM     35  O   UNL     1       5.004  -3.749   0.703  1.00  0.00    -0.269 OA
BRANCH  33  36
ATOM     36  C   UNL     1       4.229  -4.166  -1.488  1.00  0.00     0.039 A 
ATOM     37  C   UNL     1       5.017  -3.272  -2.224  1.00  0.00     0.014 A 
ATOM     38  C   UNL     1       3.421  -5.085  -2.143  1.00  0.00     0.014 A 
ATOM     39  C   UNL     1       4.832  -3.159  -3.605  1.00  0.00     0.010 A 
ATOM     40  C   UNL     1       3.126  -4.868  -3.469  1.00  0.00     0.010 A 
ATOM     41  C   UNL     1       3.815  -3.893  -4.206  1.00  0.00    -0.014 A 
BRANCH  41  42
ATOM     42  C   UNL     1       3.355  -3.762  -5.587  1.00  0.00     0.031 A 
ATOM     43  C   UNL     1       3.523  -4.914  -6.508  1.00  0.00     0.074 A 
ATOM     44  C   UNL     1       2.552  -2.731  -5.926  1.00  0.00     0.049 A 
ATOM     45  N   UNL     1       3.192  -4.931  -7.753  1.00  0.00    -0.248 NA
ATOM     46  C   UNL     1       4.094  -6.179  -6.057  1.00  0.00     0.031 C 
ATOM     47  C   UNL     1       1.617  -2.665  -7.047  1.00  0.00     0.029 A 
ATOM     48  N   UNL     1       2.578  -1.428  -5.425  1.00  0.00    -0.354 N 
ATOM     49  C   UNL     1       3.265  -6.233  -8.200  1.00  0.00     0.074 A 
ATOM     50  C   UNL     1       3.828  -6.973  -7.096  1.00  0.00     0.031 C 
ATOM     51  C   UNL     1       1.363  -1.378  -7.326  1.00  0.00     0.029 A 
ATOM     52  C   UNL     1       2.260  -0.580  -6.511  1.00  0.00     0.049 A 
ATOM     53  H   UNL     1       2.779  -1.155  -4.500  1.00  0.00     0.167 HD
ATOM     54  C   UNL     1       2.756  -6.549  -9.426  1.00  0.00     0.037 A 
ATOM     55  C   UNL     1       3.215   0.264  -7.010  1.00  0.00     0.037 A 
ATOM     56  C   UNL     1       2.380  -5.340 -10.160  1.00  0.00     0.049 A 
ATOM     57  C   UNL     1       3.680  -0.069  -8.418  1.00  0.00     0.074 A 
ATOM     58  C   UNL     1       1.199  -4.643 -10.359  1.00  0.00     0.029 A 
ATOM     59  N   UNL     1       3.393  -4.495 -10.572  1.00  0.00    -0.354 N 
ATOM     60  N   UNL     1       3.219  -1.048  -9.149  1.00  0.00    -0.248 NA
ATOM     61  C   UNL     1       4.775   0.647  -9.079  1.00  0.00     0.031 C 
ATOM     62  C   UNL     1       1.534  -3.329 -10.807  1.00  0.00     0.029 A 
ATOM     63  C   UNL     1       2.912  -3.240 -10.894  1.00  0.00     0.049 A 
ATOM     64  H   UNL     1       4.341  -4.755 -10.629  1.00  0.00     0.167 HD
ATOM     65  C   UNL     1       3.985  -1.166 -10.277  1.00  0.00     0.074 A 
ATOM     66  C   UNL     1       4.923  -0.061 -10.210  1.00  0.00     0.031 C 
ATOM     67  C   UNL     1       3.866  -2.184 -11.175  1.00  0.00     0.037 A 
BRANCH  54  68
ATOM     68  C   UNL     1       2.439  -7.955  -9.893  1.00  0.00     0.058 A 
ATOM     69  C   UNL     1       1.416  -8.178 -10.840  1.00  0.00     0.135 A 
ATOM     70  C   UNL     1       3.060  -9.129  -9.420  1.00  0.00     0.135 A 
ATOM     71  F   UNL     1       0.786  -7.159 -11.441  1.00  0.00    -0.206 F 
ATOM     72  C   UNL     1       0.981  -9.455 -11.207  1.00  0.00     0.059 A 
ATOM     73  C   UNL     1       2.600 -10.415  -9.718  1.00  0.00     0.059 A 
ATOM     74  F   UNL     1       4.186  -9.087  -8.699  1.00  0.00    -0.206 F 
ATOM     75  C   UNL     1       1.555 -10.570 -10.613  1.00  0.00     0.060 A 
BRANCH  75  76
ATOM     76  S   UNL     1       0.932 -12.208 -11.032  1.00  0.00     0.124 S 
ATOM     77  O   UNL     1      -0.500 -12.066 -10.786  1.00  0.00    -0.237 OA
ATOM     78  O   UNL     1       1.328 -12.332 -12.431  1.00  0.00    -0.237 OA
ATOM     79  O   UNL     1       1.634 -13.087 -10.101  1.00  0.00    -0.744 OA
ENDBRANCH  75  76
ENDBRANCH  54  68
BRANCH  55  80
ATOM     80  C   UNL     1       4.077   0.824  -5.928  1.00  0.00     0.058 A 
ATOM     81  C   UNL     1       3.449   1.606  -4.936  1.00  0.00     0.135 A 
ATOM     82  C   UNL     1       5.314   0.246  -5.613  1.00  0.00     0.135 A 
ATOM     83  F   UNL     1       2.270   2.199  -5.192  1.00  0.00    -0.206 F 
ATOM     84  C   UNL     1       3.923   1.642  -3.631  1.00  0.00     0.059 A 
ATOM     85  C   UNL     1       5.824   0.296  -4.316  1.00  0.00     0.059 A 
ATOM     86  F   UNL     1       5.964  -0.502  -6.517  1.00  0.00    -0.206 F 
ATOM     87  C   UNL     1       5.073   0.920  -3.320  1.00  0.00     0.060 A 
BRANCH  87  88
ATOM     88  S   UNL     1       5.445   0.637  -1.574  1.00  0.00     0.124 S 
ATOM     89  O   UNL     1       5.467   1.995  -1.040  1.00  0.00    -0.237 OA
ATOM     90  O   UNL     1       4.305  -0.180  -1.167  1.00  0.00    -0.237 OA
ATOM     91  O   UNL     1       6.731  -0.049  -1.612  1.00  0.00    -0.744 OA
ENDBRANCH  87  88
ENDBRANCH  55  80
BRANCH  67  92
ATOM     92  C   UNL     1       4.709  -2.235 -12.408  1.00  0.00     0.058 A 
ATOM     93  C   UNL     1       4.689  -1.183 -13.337  1.00  0.00     0.135 A 
ATOM     94  C   UNL     1       5.467  -3.371 -12.745  1.00  0.00     0.135 A 
ATOM     95  F   UNL     1       3.974  -0.073 -13.093  1.00  0.00    -0.206 F 
ATOM     96  C   UNL     1       5.399  -1.245 -14.533  1.00  0.00     0.059 A 
ATOM     97  C   UNL     1       6.152  -3.472 -13.952  1.00  0.00     0.059 A 
ATOM     98  F   UNL     1       5.575  -4.405 -11.896  1.00  0.00    -0.206 F 
ATOM     99  C   UNL     1       6.126  -2.396 -14.833  1.00  0.00     0.060 A 
BRANCH  99 100
ATOM    100  S   UNL     1       7.019  -2.501 -16.396  1.00  0.00     0.124 S 
ATOM    101  O   UNL     1       6.210  -1.676 -17.289  1.00  0.00    -0.237 OA
ATOM    102  O   UNL     1       8.316  -1.943 -16.026  1.00  0.00    -0.237 OA
ATOM    103  O   UNL     1       7.005  -3.930 -16.691  1.00  0.00    -0.744 OA
ENDBRANCH  99 100
ENDBRANCH  67  92
ENDBRANCH  41  42
ENDBRANCH  33  36
ENDBRANCH  31  32
ENDBRANCH  30  31
ENDBRANCH  29  30
ENDBRANCH   1  29
TORSDOF 20
