REMARK SMILES O=C(NCCCCNC(=O)c1cccc(N[C@H]2CCCC[C@@H]2O)c1)c1ccc(-c2c3nc(c(-c4c(F)cc(S(=O)(=O)[O-])cc4F)c4ccc([nH]4)c(-c4c(F)cc(S(=O)(=O)[O-])cc4F)c4nc(c(-c5c(F)cc(S(=O)(=O)[O-])cc5F)c5ccc2[nH]5)C=C4)C=C3)cc1
REMARK SMILES IDX 5 1 4 2 3 3 1 4 2 5 25 7 26 8 90 9 27 10 89 11 28 12 29 13
REMARK SMILES IDX 30 14 83 15 31 16 88 17 82 18 84 19 32 20 87 21 81 22 80 23
REMARK SMILES IDX 33 25 67 26 46 27 66 28 47 29 50 30 65 31 85 32 48 33 49 34
REMARK SMILES IDX 64 36 86 37 51 38 34 39 35 40 44 41 36 42 37 43 43 44 45 45
REMARK SMILES IDX 38 46 39 47 40 48 41 49 42 50 68 51 69 52 78 53 70 54 71 55
REMARK SMILES IDX 77 56 79 57 72 58 73 59 74 60 75 61 76 62 52 63 53 64 62 65
REMARK SMILES IDX 54 66 55 67 61 68 63 69 56 70 57 71 58 72 59 73 60 74 6 75
REMARK SMILES IDX 7 76 8 77 9 78 10 80 11 81 12 82 24 83 13 84 15 85 14 86
REMARK SMILES IDX 16 87 17 89 18 90 22 91 19 92 21 93 20 94 23 95
REMARK H PARENT 3 6 84 24 50 35 8 79 16 88 23 96
REMARK Flexibility Score: inf
ROOT
ATOM      1  C   UNL     1       4.846  -1.146  -2.295  1.00  0.00     0.023 C 
ENDROOT
BRANCH   1   2
ATOM      2  C   UNL     1       4.520  -0.099  -1.240  1.00  0.00     0.116 C 
BRANCH   2   3
ATOM      3  N   UNL     1       3.091   0.116  -1.069  1.00  0.00    -0.352 N 
ATOM      4  O   UNL     1       1.116   0.140   0.022  1.00  0.00    -0.269 OA
ATOM      5  C   UNL     1       2.339   0.055   0.081  1.00  0.00     0.251 C 
ATOM      6  H   UNL     1       2.594   0.335  -1.890  1.00  0.00     0.163 HD
BRANCH   5   7
ATOM      7  C   UNL     1       3.012  -0.144   1.384  1.00  0.00     0.039 A 
ATOM      8  C   UNL     1       4.147   0.598   1.716  1.00  0.00     0.014 A 
ATOM      9  C   UNL     1       2.515  -1.103   2.271  1.00  0.00     0.014 A 
ATOM     10  C   UNL     1       4.872   0.274   2.856  1.00  0.00     0.010 A 
ATOM     11  C   UNL     1       3.197  -1.364   3.464  1.00  0.00     0.010 A 
ATOM     12  C   UNL     1       4.401  -0.702   3.750  1.00  0.00    -0.014 A 
BRANCH  12  13
ATOM     13  C   UNL     1       5.160  -0.964   5.000  1.00  0.00     0.031 A 
ATOM     14  C   UNL     1       5.809  -2.297   5.257  1.00  0.00     0.074 A 
ATOM     15  C   UNL     1       5.295   0.040   5.889  1.00  0.00     0.049 A 
ATOM     16  N   UNL     1       6.524  -2.677   6.286  1.00  0.00    -0.248 NA
ATOM     17  C   UNL     1       5.631  -3.340   4.235  1.00  0.00     0.031 C 
ATOM     18  C   UNL     1       4.699   1.372   5.751  1.00  0.00     0.029 A 
ATOM     19  N   UNL     1       5.988   0.109   7.070  1.00  0.00    -0.354 N 
ATOM     20  C   UNL     1       6.874  -4.001   6.043  1.00  0.00     0.074 A 
ATOM     21  C   UNL     1       6.266  -4.369   4.781  1.00  0.00     0.031 C 
ATOM     22  C   UNL     1       5.089   2.138   6.780  1.00  0.00     0.029 A 
ATOM     23  C   UNL     1       5.910   1.338   7.680  1.00  0.00     0.049 A 
ATOM     24  H   UNL     1       6.493  -0.648   7.445  1.00  0.00     0.167 HD
ATOM     25  C   UNL     1       7.640  -4.826   6.797  1.00  0.00     0.037 A 
ATOM     26  C   UNL     1       6.426   1.773   8.845  1.00  0.00     0.037 A 
ATOM     27  C   UNL     1       8.248  -4.448   8.049  1.00  0.00     0.049 A 
ATOM     28  C   UNL     1       7.254   0.831   9.669  1.00  0.00     0.074 A 
ATOM     29  C   UNL     1       9.046  -5.210   8.885  1.00  0.00     0.029 A 
ATOM     30  N   UNL     1       8.128  -3.200   8.644  1.00  0.00    -0.354 N 
ATOM     31  N   UNL     1       7.582  -0.414   9.416  1.00  0.00    -0.248 NA
ATOM     32  C   UNL     1       7.780   1.349  10.938  1.00  0.00     0.031 C 
ATOM     33  C   UNL     1       9.381  -4.435  10.001  1.00  0.00     0.029 A 
ATOM     34  C   UNL     1       8.827  -3.175   9.841  1.00  0.00     0.049 A 
ATOM     35  H   UNL     1       7.621  -2.443   8.271  1.00  0.00     0.167 HD
ATOM     36  C   UNL     1       8.363  -0.825  10.488  1.00  0.00     0.074 A 
ATOM     37  C   UNL     1       8.477   0.311  11.381  1.00  0.00     0.031 C 
ATOM     38  C   UNL     1       8.930  -2.035  10.717  1.00  0.00     0.037 A 
BRANCH  25  39
ATOM     39  C   UNL     1       7.863  -6.228   6.296  1.00  0.00     0.058 A 
ATOM     40  C   UNL     1       8.709  -6.494   5.208  1.00  0.00     0.135 A 
ATOM     41  C   UNL     1       7.266  -7.324   6.943  1.00  0.00     0.135 A 
ATOM     42  F   UNL     1       9.295  -5.485   4.545  1.00  0.00    -0.206 F 
ATOM     43  C   UNL     1       8.938  -7.793   4.764  1.00  0.00     0.059 A 
ATOM     44  C   UNL     1       7.500  -8.633   6.530  1.00  0.00     0.059 A 
ATOM     45  F   UNL     1       6.450  -7.127   7.990  1.00  0.00    -0.206 F 
ATOM     46  C   UNL     1       8.328  -8.857   5.431  1.00  0.00     0.060 A 
BRANCH  46  47
ATOM     47  S   UNL     1       8.640 -10.537   4.847  1.00  0.00     0.124 S 
ATOM     48  O   UNL     1       7.845 -10.571   3.624  1.00  0.00    -0.237 OA
ATOM     49  O   UNL     1      10.087 -10.541   4.662  1.00  0.00    -0.237 OA
ATOM     50  O   UNL     1       8.149 -11.374   5.938  1.00  0.00    -0.744 OA
ENDBRANCH  46  47
ENDBRANCH  25  39
BRANCH  26  51
ATOM     51  C   UNL     1       6.159   3.162   9.298  1.00  0.00     0.058 A 
ATOM     52  C   UNL     1       7.177   4.124   9.329  1.00  0.00     0.135 A 
ATOM     53  C   UNL     1       4.870   3.557   9.693  1.00  0.00     0.135 A 
ATOM     54  F   UNL     1       8.425   3.793   8.963  1.00  0.00    -0.206 F 
ATOM     55  C   UNL     1       6.934   5.427   9.752  1.00  0.00     0.059 A 
ATOM     56  C   UNL     1       4.596   4.860  10.092  1.00  0.00     0.059 A 
ATOM     57  F   UNL     1       3.857   2.677   9.661  1.00  0.00    -0.206 F 
ATOM     58  C   UNL     1       5.638   5.785  10.132  1.00  0.00     0.060 A 
BRANCH  58  59
ATOM     59  S   UNL     1       5.319   7.487  10.643  1.00  0.00     0.124 S 
ATOM     60  O   UNL     1       5.862   7.492  11.996  1.00  0.00    -0.237 OA
ATOM     61  O   UNL     1       6.066   8.253   9.650  1.00  0.00    -0.237 OA
ATOM     62  O   UNL     1       3.866   7.597  10.543  1.00  0.00    -0.744 OA
ENDBRANCH  58  59
ENDBRANCH  26  51
BRANCH  38  63
ATOM     63  C   UNL     1       9.743  -2.179  11.972  1.00  0.00     0.058 A 
ATOM     64  C   UNL     1       9.136  -2.266  13.234  1.00  0.00     0.135 A 
ATOM     65  C   UNL     1      11.143  -2.254  11.908  1.00  0.00     0.135 A 
ATOM     66  F   UNL     1       7.801  -2.190  13.349  1.00  0.00    -0.206 F 
ATOM     67  C   UNL     1       9.892  -2.393  14.395  1.00  0.00     0.059 A 
ATOM     68  C   UNL     1      11.917  -2.407  13.053  1.00  0.00     0.059 A 
ATOM     69  F   UNL     1      11.771  -2.184  10.723  1.00  0.00    -0.206 F 
ATOM     70  C   UNL     1      11.283  -2.461  14.294  1.00  0.00     0.060 A 
BRANCH  70  71
ATOM     71  S   UNL     1      12.254  -2.645  15.805  1.00  0.00     0.124 S 
ATOM     72  O   UNL     1      12.204  -1.294  16.352  1.00  0.00    -0.237 OA
ATOM     73  O   UNL     1      11.500  -3.655  16.541  1.00  0.00    -0.237 OA
ATOM     74  O   UNL     1      13.559  -3.079  15.317  1.00  0.00    -0.744 OA
ENDBRANCH  70  71
ENDBRANCH  38  63
ENDBRANCH  12  13
ENDBRANCH   5   7
ENDBRANCH   2   3
ENDBRANCH   1   2
BRANCH   1  75
ATOM     75  C   UNL     1       4.391  -0.806  -3.711  1.00  0.00     0.023 C 
BRANCH  75  76
ATOM     76  C   UNL     1       4.811   0.570  -4.216  1.00  0.00     0.116 C 
BRANCH  76  77
ATOM     77  N   UNL     1       6.253   0.764  -4.198  1.00  0.00    -0.352 N 
ATOM     78  C   UNL     1       7.102   1.053  -5.237  1.00  0.00     0.251 C 
ATOM     79  H   UNL     1       6.681   0.674  -3.316  1.00  0.00     0.163 HD
ATOM     80  O   UNL     1       8.318   1.054  -5.072  1.00  0.00    -0.269 OA
BRANCH  78  81
ATOM     81  C   UNL     1       6.545   1.338  -6.572  1.00  0.00     0.041 A 
ATOM     82  C   UNL     1       7.020   0.615  -7.662  1.00  0.00     0.014 A 
ATOM     83  C   UNL     1       5.548   2.309  -6.734  1.00  0.00     0.039 A 
ATOM     84  C   UNL     1       6.448   0.832  -8.908  1.00  0.00     0.003 A 
ATOM     85  C   UNL     1       4.919   2.503  -7.968  1.00  0.00     0.035 A 
ATOM     86  C   UNL     1       5.406   1.758  -9.050  1.00  0.00     0.026 A 
BRANCH  85  87
ATOM     87  N   UNL     1       3.886   3.417  -8.034  1.00  0.00    -0.380 N 
ATOM     88  H   UNL     1       3.673   3.882  -7.192  1.00  0.00     0.160 HD
BRANCH  87  89
ATOM     89  C   UNL     1       3.065   3.786  -9.189  1.00  0.00     0.107 C 
ATOM     90  C   UNL     1       3.909   4.522 -10.239  1.00  0.00     0.027 C 
ATOM     91  C   UNL     1       2.214   2.599  -9.718  1.00  0.00     0.136 C 
ATOM     92  C   UNL     1       3.158   4.761 -11.542  1.00  0.00     0.002 C 
ATOM     93  C   UNL     1       1.539   2.918 -11.051  1.00  0.00     0.034 C 
ATOM     94  C   UNL     1       2.529   3.476 -12.064  1.00  0.00     0.003 C 
BRANCH  91  95
ATOM     95  O   UNL     1       1.191   2.225  -8.784  1.00  0.00    -0.391 OA
ATOM     96  H   UNL     1       0.573   2.963  -8.668  1.00  0.00     0.211 HD
ENDBRANCH  91  95
ENDBRANCH  87  89
ENDBRANCH  85  87
ENDBRANCH  78  81
ENDBRANCH  76  77
ENDBRANCH  75  76
ENDBRANCH   1  75
TORSDOF 17
