REMARK SMILES Cc1cc(-c2cncc(C(=O)NCCCCNC(=O)c3ccc(-c4c5nc(c(-c6c(F)cc(S(=O)(=O)[O-])cc6F)c6ccc([nH]6)c(-c6c(F)cc(S(=O)(=O)[O-])cc6F)c6nc(c(-c7c(F)cc(S(=O)(=O)[O-])cc7F)c7ccc4[nH]7)C=C6)C=C5)cc3)c2)ccc1F
REMARK SMILES IDX 15 1 14 2 13 3 12 4 10 5 11 6 9 8 5 9 6 10 86 11 7 12 8 13
REMARK SMILES IDX 4 14 1 15 2 16 3 17 89 18 88 19 90 20 87 21 16 22 17 23
REMARK SMILES IDX 18 24 19 26 20 27 21 28 85 29 22 30 84 31 23 32 24 33 25 34
REMARK SMILES IDX 78 35 26 36 83 37 77 38 79 39 27 40 82 41 76 42 75 43 28 45
REMARK SMILES IDX 62 46 41 47 61 48 42 49 45 50 60 51 80 52 43 53 44 54 59 56
REMARK SMILES IDX 81 57 46 58 29 59 30 60 39 61 31 62 32 63 38 64 40 65 33 66
REMARK SMILES IDX 34 67 35 68 36 69 37 70 63 71 64 72 73 73 65 74 66 75 72 76
REMARK SMILES IDX 74 77 67 78 68 79 69 80 70 81 71 82 47 83 48 84 57 85 49 86
REMARK SMILES IDX 50 87 56 88 58 89 51 90 52 91 53 92 54 93 55 94
REMARK H PARENT 12 7 17 25 79 44 45 55
REMARK Flexibility Score: inf
ROOT
ATOM      1  C   UNL     1      -4.130   2.108  -5.667  1.00  0.00     0.023 C 
ENDROOT
BRANCH   1   2
ATOM      2  C   UNL     1      -3.489   2.022  -4.277  1.00  0.00     0.023 C 
BRANCH   2   3
ATOM      3  C   UNL     1      -3.623   3.296  -3.435  1.00  0.00     0.116 C 
BRANCH   3   4
ATOM      4  N   UNL     1      -4.989   3.484  -2.973  1.00  0.00    -0.352 N 
ATOM      5  C   UNL     1      -5.706   2.995  -1.911  1.00  0.00     0.252 C 
ATOM      6  O   UNL     1      -6.891   3.329  -1.835  1.00  0.00    -0.269 OA
ATOM      7  H   UNL     1      -5.511   4.092  -3.546  1.00  0.00     0.163 HD
BRANCH   5   8
ATOM      8  C   UNL     1      -5.153   2.129  -0.836  1.00  0.00     0.058 A 
ATOM      9  C   UNL     1      -3.458   0.770   0.272  1.00  0.00     0.001 A 
ATOM     10  C   UNL     1      -4.322   0.663   1.355  1.00  0.00     0.119 A 
ATOM     11  C   UNL     1      -3.919   1.487  -0.843  1.00  0.00     0.025 A 
ATOM     12  N   UNL     1      -5.554   1.219   1.395  1.00  0.00    -0.263 NA
ATOM     13  C   UNL     1      -5.929   1.945   0.307  1.00  0.00     0.124 A 
BRANCH   9  14
ATOM     14  C   UNL     1      -2.092   0.243   0.278  1.00  0.00    -0.016 A 
ATOM     15  C   UNL     1       1.458   1.648   0.045  1.00  0.00     0.047 C 
ATOM     16  C   UNL     1       0.315   0.685   0.141  1.00  0.00    -0.015 A 
ATOM     17  C   UNL     1      -1.007   1.140   0.215  1.00  0.00     0.015 A 
ATOM     18  C   UNL     1       0.542  -0.690   0.143  1.00  0.00     0.126 A 
ATOM     19  C   UNL     1      -0.512  -1.597   0.210  1.00  0.00     0.040 A 
ATOM     20  F   UNL     1       1.796  -1.160   0.076  1.00  0.00    -0.207 F 
ATOM     21  C   UNL     1      -1.829  -1.133   0.279  1.00  0.00     0.012 A 
ENDBRANCH   9  14
ENDBRANCH   5   8
ENDBRANCH   3   4
ENDBRANCH   2   3
ENDBRANCH   1   2
BRANCH   1  22
ATOM     22  C   UNL     1      -3.398   3.017  -6.640  1.00  0.00     0.116 C 
BRANCH  22  23
ATOM     23  N   UNL     1      -2.033   2.595  -6.911  1.00  0.00    -0.352 N 
ATOM     24  C   UNL     1      -1.446   3.063  -8.083  1.00  0.00     0.251 C 
ATOM     25  H   UNL     1      -1.546   2.003  -6.293  1.00  0.00     0.163 HD
ATOM     26  O   UNL     1      -1.556   2.472  -9.144  1.00  0.00    -0.269 OA
BRANCH  24  27
ATOM     27  C   UNL     1      -0.945   4.471  -7.999  1.00  0.00     0.039 A 
ATOM     28  C   UNL     1      -0.633   5.166  -9.173  1.00  0.00     0.014 A 
ATOM     29  C   UNL     1      -1.037   5.160  -6.787  1.00  0.00     0.014 A 
ATOM     30  C   UNL     1      -0.551   6.562  -9.152  1.00  0.00     0.010 A 
ATOM     31  C   UNL     1      -1.033   6.534  -6.778  1.00  0.00     0.010 A 
ATOM     32  C   UNL     1      -0.819   7.245  -7.961  1.00  0.00    -0.014 A 
BRANCH  32  33
ATOM     33  C   UNL     1      -0.963   8.695  -7.853  1.00  0.00     0.031 A 
ATOM     34  C   UNL     1      -1.951   9.446  -8.653  1.00  0.00     0.074 A 
ATOM     35  C   UNL     1      -0.200   9.339  -6.945  1.00  0.00     0.049 A 
ATOM     36  N   UNL     1      -1.833  10.694  -8.956  1.00  0.00    -0.248 NA
ATOM     37  C   UNL     1      -3.171   8.840  -9.177  1.00  0.00     0.031 C 
ATOM     38  C   UNL     1      -0.255  10.726  -6.510  1.00  0.00     0.029 A 
ATOM     39  N   UNL     1       0.977   8.851  -6.386  1.00  0.00    -0.354 N 
ATOM     40  C   UNL     1      -3.031  11.121  -9.487  1.00  0.00     0.074 A 
ATOM     41  C   UNL     1      -3.810   9.914  -9.660  1.00  0.00     0.031 C 
ATOM     42  C   UNL     1       0.950  11.059  -6.010  1.00  0.00     0.029 A 
ATOM     43  C   UNL     1       1.848   9.937  -6.248  1.00  0.00     0.049 A 
ATOM     44  H   UNL     1       1.161   7.917  -6.134  1.00  0.00     0.167 HD
ATOM     45  C   UNL     1      -3.272  12.460  -9.608  1.00  0.00     0.037 A 
ATOM     46  C   UNL     1       2.972   9.953  -7.030  1.00  0.00     0.037 A 
ATOM     47  C   UNL     1      -2.124  13.245  -9.154  1.00  0.00     0.049 A 
ATOM     48  C   UNL     1       2.982  11.065  -8.056  1.00  0.00     0.074 A 
ATOM     49  C   UNL     1      -1.796  13.860  -7.957  1.00  0.00     0.029 A 
ATOM     50  N   UNL     1      -0.959  13.214  -9.897  1.00  0.00    -0.354 N 
ATOM     51  N   UNL     1       1.998  11.900  -8.252  1.00  0.00    -0.248 NA
ATOM     52  C   UNL     1       4.091  11.291  -8.983  1.00  0.00     0.031 C 
ATOM     53  C   UNL     1      -0.402  14.150  -7.973  1.00  0.00     0.029 A 
ATOM     54  C   UNL     1       0.111  13.724  -9.185  1.00  0.00     0.049 A 
ATOM     55  H   UNL     1      -0.898  12.871 -10.818  1.00  0.00     0.167 HD
ATOM     56  C   UNL     1       2.296  12.722  -9.302  1.00  0.00     0.074 A 
ATOM     57  C   UNL     1       3.624  12.311  -9.723  1.00  0.00     0.031 C 
ATOM     58  C   UNL     1       1.435  13.665  -9.779  1.00  0.00     0.037 A 
BRANCH  45  59
ATOM     59  C   UNL     1      -4.624  13.070  -9.919  1.00  0.00     0.058 A 
ATOM     60  C   UNL     1      -4.983  14.330  -9.388  1.00  0.00     0.135 A 
ATOM     61  C   UNL     1      -5.616  12.463 -10.714  1.00  0.00     0.135 A 
ATOM     62  F   UNL     1      -4.116  15.066  -8.680  1.00  0.00    -0.206 F 
ATOM     63  C   UNL     1      -6.252  14.890  -9.544  1.00  0.00     0.059 A 
ATOM     64  C   UNL     1      -6.912  12.981 -10.845  1.00  0.00     0.059 A 
ATOM     65  F   UNL     1      -5.352  11.360 -11.429  1.00  0.00    -0.206 F 
ATOM     66  C   UNL     1      -7.225  14.193 -10.244  1.00  0.00     0.060 A 
BRANCH  66  67
ATOM     67  S   UNL     1      -8.884  14.893 -10.344  1.00  0.00     0.124 S 
ATOM     68  O   UNL     1      -9.211  15.109  -8.937  1.00  0.00    -0.237 OA
ATOM     69  O   UNL     1      -8.661  16.098 -11.134  1.00  0.00    -0.237 OA
ATOM     70  O   UNL     1      -9.657  13.844 -11.003  1.00  0.00    -0.744 OA
ENDBRANCH  66  67
ENDBRANCH  45  59
BRANCH  46  71
ATOM     71  C   UNL     1       3.523   8.569  -7.228  1.00  0.00     0.058 A 
ATOM     72  C   UNL     1       3.950   7.874  -6.076  1.00  0.00     0.135 A 
ATOM     73  C   UNL     1       3.162   7.798  -8.345  1.00  0.00     0.135 A 
ATOM     74  F   UNL     1       4.315   8.558  -4.978  1.00  0.00    -0.206 F 
ATOM     75  C   UNL     1       3.837   6.491  -5.969  1.00  0.00     0.059 A 
ATOM     76  C   UNL     1       3.054   6.405  -8.262  1.00  0.00     0.059 A 
ATOM     77  F   UNL     1       2.771   8.395  -9.481  1.00  0.00    -0.206 F 
ATOM     78  C   UNL     1       3.318   5.774  -7.045  1.00  0.00     0.060 A 
BRANCH  78  79
ATOM     79  S   UNL     1       2.862   4.044  -6.764  1.00  0.00     0.124 S 
ATOM     80  O   UNL     1       4.107   3.478  -6.254  1.00  0.00    -0.237 OA
ATOM     81  O   UNL     1       1.784   4.163  -5.782  1.00  0.00    -0.237 OA
ATOM     82  O   UNL     1       2.455   3.577  -8.083  1.00  0.00    -0.744 OA
ENDBRANCH  78  79
ENDBRANCH  46  71
BRANCH  58  83
ATOM     83  C   UNL     1       1.808  14.611 -10.878  1.00  0.00     0.058 A 
ATOM     84  C   UNL     1       3.010  15.336 -10.850  1.00  0.00     0.135 A 
ATOM     85  C   UNL     1       0.925  14.898 -11.938  1.00  0.00     0.135 A 
ATOM     86  F   UNL     1       3.881  15.179  -9.839  1.00  0.00    -0.206 F 
ATOM     87  C   UNL     1       3.351  16.240 -11.853  1.00  0.00     0.059 A 
ATOM     88  C   UNL     1       1.222  15.833 -12.924  1.00  0.00     0.059 A 
ATOM     89  F   UNL     1      -0.243  14.251 -12.068  1.00  0.00    -0.206 F 
ATOM     90  C   UNL     1       2.454  16.474 -12.892  1.00  0.00     0.060 A 
BRANCH  90  91
ATOM     91  S   UNL     1       2.899  17.621 -14.207  1.00  0.00     0.124 S 
ATOM     92  O   UNL     1       3.678  18.635 -13.500  1.00  0.00    -0.237 OA
ATOM     93  O   UNL     1       3.659  16.753 -15.100  1.00  0.00    -0.237 OA
ATOM     94  O   UNL     1       1.607  18.073 -14.712  1.00  0.00    -0.744 OA
ENDBRANCH  90  91
ENDBRANCH  58  83
ENDBRANCH  32  33
ENDBRANCH  24  27
ENDBRANCH  22  23
ENDBRANCH   1  22
TORSDOF 15
