REMARK SMILES CC(C)[C@@H](CCNC(=O)N1C[C@@H](C)[C@H](C)C1)CCC(=O)NCCCCNC(=O)c1ccc(-c2c3nc(c(-c4c(F)cc(S(=O)(=O)[O-])cc4F)c4ccc([nH]4)c(-c4c(F)cc(S(=O)(=O)[O-])cc4F)c4nc(c(-c5c(F)cc(S(=O)(=O)[O-])cc5F)c5ccc2[nH]5)C=C4)C=C3)cc1
REMARK SMILES IDX 22 1 21 2 19 3 20 4 18 6 17 7 4 8 2 9 1 10 3 11 5 12 6 13
REMARK SMILES IDX 7 14 8 15 9 17 10 18 11 19 16 20 12 21 14 22 13 23 15 24
REMARK SMILES IDX 23 25 24 26 25 27 26 28 27 29 28 31 29 32 30 33 94 34 31 35
REMARK SMILES IDX 93 36 32 37 33 38 34 39 87 40 35 41 92 42 86 43 88 44 36 45
REMARK SMILES IDX 91 46 85 47 84 48 37 50 71 51 50 52 70 53 51 54 54 55 69 56
REMARK SMILES IDX 89 57 52 58 53 59 68 61 90 62 55 63 38 64 39 65 48 66 40 67
REMARK SMILES IDX 41 68 47 69 49 70 42 71 43 72 44 73 45 74 46 75 72 76 73 77
REMARK SMILES IDX 82 78 74 79 75 80 81 81 83 82 76 83 77 84 78 85 79 86 80 87
REMARK SMILES IDX 56 88 57 89 66 90 58 91 59 92 65 93 67 94 60 95 61 96 62 97
REMARK SMILES IDX 63 98 64 99
REMARK H PARENT 21 5 7 16 26 30 88 49 54 60
REMARK Flexibility Score: inf
ROOT
ATOM      1  C   UNL     1      -1.168  -1.179   2.833  1.00  0.00     0.116 C 
ENDROOT
BRANCH   1   2
ATOM      2  N   UNL     1      -2.181  -2.219   2.798  1.00  0.00    -0.356 N 
ATOM      3  C   UNL     1      -2.302  -3.324   2.012  1.00  0.00     0.220 C 
ATOM      4  O   UNL     1      -3.343  -3.980   2.090  1.00  0.00    -0.275 OA
ATOM      5  H   UNL     1      -2.905  -2.105   3.456  1.00  0.00     0.163 HD
BRANCH   3   6
ATOM      6  C   UNL     1      -1.171  -3.776   1.101  1.00  0.00     0.100 C 
BRANCH   6   7
ATOM      7  C   UNL     1      -1.240  -3.258  -0.350  1.00  0.00     0.014 C 
BRANCH   7   8
ATOM      8  C   UNL     1      -0.556  -1.892  -0.579  1.00  0.00    -0.006 C 
BRANCH   8   9
ATOM      9  C   UNL     1       0.990  -1.900  -0.790  1.00  0.00    -0.014 C 
ATOM     10  C   UNL     1       1.558  -0.476  -0.641  1.00  0.00     0.007 C 
ATOM     11  C   UNL     1       1.772  -2.813   0.156  1.00  0.00     0.007 C 
ENDBRANCH   8   9
BRANCH   8  12
ATOM     12  C   UNL     1      -1.315  -1.028  -1.621  1.00  0.00     0.025 C 
BRANCH  12  13
ATOM     13  C   UNL     1      -0.947  -1.205  -3.094  1.00  0.00     0.118 C 
BRANCH  13  14
ATOM     14  N   UNL     1      -1.490  -2.424  -3.652  1.00  0.00    -0.338 N 
ATOM     15  C   UNL     1      -2.574  -2.585  -4.449  1.00  0.00     0.317 C 
ATOM     16  H   UNL     1      -1.005  -3.249  -3.422  1.00  0.00     0.165 HD
ATOM     17  O   UNL     1      -3.179  -3.655  -4.377  1.00  0.00    -0.249 OA
ATOM     18  N   UNL     1      -2.946  -1.582  -5.296  1.00  0.00    -0.324 N 
ATOM     19  C   UNL     1      -4.231  -1.604  -5.962  1.00  0.00     0.125 C 
ATOM     20  C   UNL     1      -2.068  -0.618  -5.939  1.00  0.00     0.125 C 
ATOM     21  C   UNL     1      -3.896  -1.288  -7.414  1.00  0.00     0.010 C 
ATOM     22  C   UNL     1      -2.678  -0.346  -7.321  1.00  0.00     0.010 C 
ATOM     23  C   UNL     1      -5.068  -0.664  -8.157  1.00  0.00     0.010 C 
ATOM     24  C   UNL     1      -1.675  -0.591  -8.442  1.00  0.00     0.010 C 
ENDBRANCH  13  14
ENDBRANCH  12  13
ENDBRANCH   8  12
ENDBRANCH   7   8
ENDBRANCH   6   7
ENDBRANCH   3   6
ENDBRANCH   1   2
BRANCH   1  25
ATOM     25  C   UNL     1      -1.649   0.060   2.061  1.00  0.00     0.023 C 
BRANCH  25  26
ATOM     26  C   UNL     1      -2.055   1.239   2.936  1.00  0.00     0.023 C 
BRANCH  26  27
ATOM     27  C   UNL     1      -0.886   1.895   3.657  1.00  0.00     0.116 C 
BRANCH  27  28
ATOM     28  N   UNL     1       0.121   2.465   2.769  1.00  0.00    -0.352 N 
ATOM     29  C   UNL     1       0.956   3.539   3.014  1.00  0.00     0.251 C 
ATOM     30  H   UNL     1       0.217   2.033   1.890  1.00  0.00     0.163 HD
ATOM     31  O   UNL     1       1.714   3.950   2.157  1.00  0.00    -0.269 OA
BRANCH  29  32
ATOM     32  C   UNL     1       0.851   4.212   4.329  1.00  0.00     0.039 A 
ATOM     33  C   UNL     1       0.608   5.585   4.363  1.00  0.00     0.014 A 
ATOM     34  C   UNL     1       0.867   3.461   5.507  1.00  0.00     0.014 A 
ATOM     35  C   UNL     1       0.287   6.191   5.579  1.00  0.00     0.010 A 
ATOM     36  C   UNL     1       0.453   4.047   6.696  1.00  0.00     0.010 A 
ATOM     37  C   UNL     1       0.155   5.416   6.745  1.00  0.00    -0.014 A 
BRANCH  37  38
ATOM     38  C   UNL     1      -0.305   6.024   8.020  1.00  0.00     0.031 A 
ATOM     39  C   UNL     1       0.593   6.016   9.227  1.00  0.00     0.074 A 
ATOM     40  C   UNL     1      -1.554   6.522   8.107  1.00  0.00     0.049 A 
ATOM     41  N   UNL     1       0.363   6.479  10.428  1.00  0.00    -0.248 NA
ATOM     42  C   UNL     1       1.907   5.370   9.076  1.00  0.00     0.031 C 
ATOM     43  C   UNL     1      -2.553   6.505   7.034  1.00  0.00     0.029 A 
ATOM     44  N   UNL     1      -2.201   7.141   9.146  1.00  0.00    -0.354 N 
ATOM     45  C   UNL     1       1.491   6.166  11.176  1.00  0.00     0.074 A 
ATOM     46  C   UNL     1       2.376   5.416  10.313  1.00  0.00     0.031 C 
ATOM     47  C   UNL     1      -3.667   7.123   7.458  1.00  0.00     0.029 A 
ATOM     48  C   UNL     1      -3.472   7.562   8.835  1.00  0.00     0.049 A 
ATOM     49  H   UNL     1      -1.792   7.272  10.033  1.00  0.00     0.167 HD
ATOM     50  C   UNL     1       1.782   6.502  12.456  1.00  0.00     0.037 A 
ATOM     51  C   UNL     1      -4.371   8.242   9.573  1.00  0.00     0.037 A 
ATOM     52  C   UNL     1       0.916   7.285  13.297  1.00  0.00     0.049 A 
ATOM     53  C   UNL     1      -3.998   8.668  10.966  1.00  0.00     0.074 A 
ATOM     54  C   UNL     1       1.141   7.734  14.586  1.00  0.00     0.029 A 
ATOM     55  N   UNL     1      -0.338   7.746  12.925  1.00  0.00    -0.354 N 
ATOM     56  N   UNL     1      -2.896   8.426  11.634  1.00  0.00    -0.248 NA
ATOM     57  C   UNL     1      -4.983   9.475  11.698  1.00  0.00     0.031 C 
ATOM     58  C   UNL     1       0.011   8.450  15.002  1.00  0.00     0.029 A 
ATOM     59  C   UNL     1      -0.901   8.474  13.959  1.00  0.00     0.049 A 
ATOM     60  H   UNL     1      -0.766   7.579  12.054  1.00  0.00     0.167 HD
ATOM     61  C   UNL     1      -3.043   9.073  12.856  1.00  0.00     0.074 A 
ATOM     62  C   UNL     1      -4.335   9.728  12.827  1.00  0.00     0.031 C 
ATOM     63  C   UNL     1      -2.187   9.123  13.907  1.00  0.00     0.037 A 
BRANCH  50  64
ATOM     64  C   UNL     1       3.102   6.038  13.005  1.00  0.00     0.058 A 
ATOM     65  C   UNL     1       4.315   6.586  12.555  1.00  0.00     0.135 A 
ATOM     66  C   UNL     1       3.160   5.038  13.988  1.00  0.00     0.135 A 
ATOM     67  F   UNL     1       4.318   7.531  11.602  1.00  0.00    -0.206 F 
ATOM     68  C   UNL     1       5.540   6.130  13.030  1.00  0.00     0.059 A 
ATOM     69  C   UNL     1       4.374   4.586  14.498  1.00  0.00     0.059 A 
ATOM     70  F   UNL     1       2.031   4.480  14.452  1.00  0.00    -0.206 F 
ATOM     71  C   UNL     1       5.559   5.125  13.998  1.00  0.00     0.060 A 
BRANCH  71  72
ATOM     72  S   UNL     1       7.156   4.533  14.596  1.00  0.00     0.124 S 
ATOM     73  O   UNL     1       7.585   3.688  13.486  1.00  0.00    -0.237 OA
ATOM     74  O   UNL     1       7.905   5.773  14.774  1.00  0.00    -0.237 OA
ATOM     75  O   UNL     1       6.815   3.829  15.828  1.00  0.00    -0.744 OA
ENDBRANCH  71  72
ENDBRANCH  50  64
BRANCH  51  76
ATOM     76  C   UNL     1      -5.682   8.621   8.984  1.00  0.00     0.058 A 
ATOM     77  C   UNL     1      -5.945   9.950   8.617  1.00  0.00     0.135 A 
ATOM     78  C   UNL     1      -6.688   7.670   8.762  1.00  0.00     0.135 A 
ATOM     79  F   UNL     1      -5.014  10.896   8.812  1.00  0.00    -0.206 F 
ATOM     80  C   UNL     1      -7.165  10.327   8.066  1.00  0.00     0.059 A 
ATOM     81  C   UNL     1      -7.910   8.018   8.193  1.00  0.00     0.059 A 
ATOM     82  F   UNL     1      -6.478   6.382   9.078  1.00  0.00    -0.206 F 
ATOM     83  C   UNL     1      -8.142   9.352   7.857  1.00  0.00     0.060 A 
BRANCH  83  84
ATOM     84  S   UNL     1      -9.704   9.840   7.091  1.00  0.00     0.124 S 
ATOM     85  O   UNL     1     -10.383  10.495   8.202  1.00  0.00    -0.237 OA
ATOM     86  O   UNL     1      -9.258  10.714   6.010  1.00  0.00    -0.237 OA
ATOM     87  O   UNL     1     -10.275   8.567   6.660  1.00  0.00    -0.744 OA
ENDBRANCH  83  84
ENDBRANCH  51  76
BRANCH  63  88
ATOM     88  C   UNL     1      -2.610   9.940  15.093  1.00  0.00     0.058 A 
ATOM     89  C   UNL     1      -3.608   9.496  15.974  1.00  0.00     0.135 A 
ATOM     90  C   UNL     1      -1.998  11.175  15.359  1.00  0.00     0.135 A 
ATOM     91  F   UNL     1      -4.226   8.324  15.760  1.00  0.00    -0.206 F 
ATOM     92  C   UNL     1      -4.011  10.267  17.060  1.00  0.00     0.059 A 
ATOM     93  C   UNL     1      -2.368  11.950  16.453  1.00  0.00     0.059 A 
ATOM     94  F   UNL     1      -1.029  11.637  14.553  1.00  0.00    -0.206 F 
ATOM     95  C   UNL     1      -3.389  11.496  17.286  1.00  0.00     0.060 A 
BRANCH  95  96
ATOM     96  S   UNL     1      -3.916  12.491  18.698  1.00  0.00     0.124 S 
ATOM     97  O   UNL     1      -5.145  13.090  18.190  1.00  0.00    -0.237 OA
ATOM     98  O   UNL     1      -4.085  11.489  19.746  1.00  0.00    -0.237 OA
ATOM     99  O   UNL     1      -2.801  13.412  18.896  1.00  0.00    -0.744 OA
ENDBRANCH  95  96
ENDBRANCH  63  88
ENDBRANCH  37  38
ENDBRANCH  29  32
ENDBRANCH  27  28
ENDBRANCH  26  27
ENDBRANCH  25  26
ENDBRANCH   1  25
TORSDOF 20
