REMARK SMILES Cc1cc(C)n(-c2ccccc2C[NH+]2CCC3(CC2)NC(=O)C[C@H]3C(=O)NCCCCNC(=O)c2ccc(-c3c4nc(c(-c5c(F)cc(S(=O)(=O)[O-])cc5F)c5ccc([nH]5)c(-c5c(F)cc(S(=O)(=O)[O-])cc5F)c5nc(c(-c6c(F)cc(S(=O)(=O)[O-])cc6F)c6ccc3[nH]6)C=C5)C=C4)cc2)n1
REMARK SMILES IDX 29 1 28 2 27 3 25 4 26 5 24 7 14 8 15 9 19 10 16 12 18 13
REMARK SMILES IDX 17 14 20 15 21 16 23 18 22 19 13 20 12 21 7 22 8 23 9 24
REMARK SMILES IDX 11 25 10 26 6 27 1 28 2 29 3 30 101 31 4 32 5 33 30 34 31 35
REMARK SMILES IDX 32 36 33 37 34 39 35 40 36 41 100 42 37 43 99 44 38 45 39 46
REMARK SMILES IDX 40 47 93 48 41 49 98 50 92 51 94 52 42 53 97 54 91 55 90 56
REMARK SMILES IDX 43 58 77 59 56 60 76 61 57 62 60 63 75 64 95 65 58 66 59 67
REMARK SMILES IDX 74 69 96 70 61 71 44 72 45 73 54 74 46 75 47 76 53 77 55 78
REMARK SMILES IDX 48 79 49 80 50 81 51 82 52 83 78 84 79 85 88 86 80 87 81 88
REMARK SMILES IDX 87 89 89 90 82 91 83 92 84 93 85 94 86 95 62 96 63 97 72 98
REMARK SMILES IDX 64 99 65 100 71 101 73 102 66 103 67 104 68 105 69 106
REMARK SMILES IDX 70 107
REMARK H PARENT 27 6 14 11 20 17 32 38 94 57 60 68
REMARK Flexibility Score: inf
ROOT
ATOM      1  C   UNL     1      -4.391  -7.009  -5.875  1.00  0.00     0.023 C 
ENDROOT
BRANCH   1   2
ATOM      2  C   UNL     1      -3.229  -7.935  -6.282  1.00  0.00     0.116 C 
BRANCH   2   3
ATOM      3  N   UNL     1      -2.230  -7.370  -7.181  1.00  0.00    -0.356 N 
ATOM      4  C   UNL     1      -0.939  -6.958  -7.030  1.00  0.00     0.226 C 
ATOM      5  O   UNL     1      -0.370  -6.566  -8.056  1.00  0.00    -0.275 OA
ATOM      6  H   UNL     1      -2.561  -7.262  -8.101  1.00  0.00     0.163 HD
BRANCH   4   7
ATOM      7  C   UNL     1      -0.181  -6.862  -5.697  1.00  0.00     0.114 C 
ATOM      8  N   UNL     1      -0.492  -2.981  -4.421  1.00  0.00    -0.331 N 
ATOM      9  C   UNL     1       0.606  -3.833  -3.994  1.00  0.00     0.264 C 
ATOM     10  C   UNL     1      -1.204  -3.565  -5.534  1.00  0.00     0.264 C 
ATOM     11  H   UNL     1      -0.019  -2.143  -4.759  1.00  0.00     0.348 HD
ATOM     12  C   UNL     1       0.222  -5.279  -3.679  1.00  0.00     0.091 C 
ATOM     13  C   UNL     1      -1.786  -4.923  -5.205  1.00  0.00     0.091 C 
ATOM     14  C   UNL     1      -0.810  -5.953  -4.624  1.00  0.00     0.063 C 
ATOM     15  N   UNL     1      -1.484  -6.943  -3.788  1.00  0.00    -0.349 N 
ATOM     16  C   UNL     1      -0.940  -8.203  -3.882  1.00  0.00     0.221 C 
ATOM     17  H   UNL     1      -2.255  -6.729  -3.214  1.00  0.00     0.164 HD
ATOM     18  C   UNL     1       0.019  -8.231  -5.036  1.00  0.00     0.116 C 
ATOM     19  O   UNL     1      -1.218  -9.138  -3.142  1.00  0.00    -0.275 OA
BRANCH   8  20
ATOM     20  C   UNL     1      -1.304  -2.272  -3.412  1.00  0.00     0.301 C 
BRANCH  20  21
ATOM     21  C   UNL     1      -2.147  -3.103  -2.446  1.00  0.00     0.032 A 
ATOM     22  C   UNL     1      -1.655  -3.610  -1.223  1.00  0.00     0.074 A 
ATOM     23  C   UNL     1      -2.350  -4.625  -0.545  1.00  0.00     0.029 A 
ATOM     24  C   UNL     1      -3.564  -5.101  -1.044  1.00  0.00     0.002 A 
ATOM     25  C   UNL     1      -3.440  -3.497  -2.842  1.00  0.00     0.012 A 
ATOM     26  C   UNL     1      -4.126  -4.513  -2.171  1.00  0.00     0.001 A 
BRANCH  22  27
ATOM     27  N   UNL     1      -0.513  -3.020  -0.623  1.00  0.00    -0.237 N 
ATOM     28  C   UNL     1       1.151   0.028   0.132  1.00  0.00     0.069 C 
ATOM     29  C   UNL     1       0.721  -1.383  -0.002  1.00  0.00     0.060 A 
ATOM     30  C   UNL     1       1.380  -2.552   0.416  1.00  0.00     0.048 A 
ATOM     31  N   UNL     1      -0.436  -1.665  -0.594  1.00  0.00    -0.173 NA
ATOM     32  C   UNL     1       0.562  -3.600   0.036  1.00  0.00     0.041 A 
ATOM     33  C   UNL     1       0.822  -5.057   0.148  1.00  0.00     0.067 C 
ENDBRANCH  22  27
ENDBRANCH  20  21
ENDBRANCH   8  20
ENDBRANCH   4   7
ENDBRANCH   2   3
ENDBRANCH   1   2
BRANCH   1  34
ATOM     34  C   UNL     1      -5.351  -6.565  -6.983  1.00  0.00     0.023 C 
BRANCH  34  35
ATOM     35  C   UNL     1      -6.107  -7.710  -7.637  1.00  0.00     0.116 C 
BRANCH  35  36
ATOM     36  N   UNL     1      -6.914  -8.469  -6.680  1.00  0.00    -0.352 N 
ATOM     37  C   UNL     1      -7.541  -9.684  -6.880  1.00  0.00     0.251 C 
ATOM     38  H   UNL     1      -7.023  -8.066  -5.788  1.00  0.00     0.163 HD
ATOM     39  O   UNL     1      -8.485 -10.029  -6.180  1.00  0.00    -0.269 OA
BRANCH  37  40
ATOM     40  C   UNL     1      -7.030 -10.558  -7.948  1.00  0.00     0.039 A 
ATOM     41  C   UNL     1      -7.881 -11.188  -8.854  1.00  0.00     0.014 A 
ATOM     42  C   UNL     1      -5.646 -10.674  -8.066  1.00  0.00     0.014 A 
ATOM     43  C   UNL     1      -7.316 -11.859  -9.935  1.00  0.00     0.010 A 
ATOM     44  C   UNL     1      -5.097 -11.191  -9.210  1.00  0.00     0.010 A 
ATOM     45  C   UNL     1      -5.921 -11.829 -10.126  1.00  0.00    -0.014 A 
BRANCH  45  46
ATOM     46  C   UNL     1      -5.326 -12.305 -11.372  1.00  0.00     0.031 A 
ATOM     47  C   UNL     1      -5.944 -11.692 -12.578  1.00  0.00     0.074 A 
ATOM     48  C   UNL     1      -4.200 -13.053 -11.432  1.00  0.00     0.049 A 
ATOM     49  N   UNL     1      -6.774 -12.251 -13.394  1.00  0.00    -0.248 NA
ATOM     50  C   UNL     1      -5.805 -10.239 -12.786  1.00  0.00     0.031 C 
ATOM     51  C   UNL     1      -3.322 -13.461 -10.329  1.00  0.00     0.029 A 
ATOM     52  N   UNL     1      -3.541 -13.543 -12.519  1.00  0.00    -0.354 N 
ATOM     53  C   UNL     1      -7.015 -11.306 -14.386  1.00  0.00     0.074 A 
ATOM     54  C   UNL     1      -6.613 -10.042 -13.832  1.00  0.00     0.031 C 
ATOM     55  C   UNL     1      -2.149 -13.920 -10.820  1.00  0.00     0.029 A 
ATOM     56  C   UNL     1      -2.248 -14.005 -12.265  1.00  0.00     0.049 A 
ATOM     57  H   UNL     1      -3.946 -13.570 -13.416  1.00  0.00     0.167 HD
ATOM     58  C   UNL     1      -7.222 -11.700 -15.674  1.00  0.00     0.037 A 
ATOM     59  C   UNL     1      -1.328 -14.422 -13.177  1.00  0.00     0.037 A 
ATOM     60  C   UNL     1      -7.518 -13.114 -15.731  1.00  0.00     0.049 A 
ATOM     61  C   UNL     1      -2.079 -14.777 -14.408  1.00  0.00     0.074 A 
ATOM     62  C   UNL     1      -8.469 -13.936 -15.156  1.00  0.00     0.029 A 
ATOM     63  N   UNL     1      -6.505 -13.945 -16.145  1.00  0.00    -0.354 N 
ATOM     64  N   UNL     1      -2.915 -15.777 -14.481  1.00  0.00    -0.248 NA
ATOM     65  C   UNL     1      -2.264 -13.735 -15.403  1.00  0.00     0.031 C 
ATOM     66  C   UNL     1      -7.770 -15.134 -14.824  1.00  0.00     0.029 A 
ATOM     67  C   UNL     1      -6.463 -15.022 -15.300  1.00  0.00     0.049 A 
ATOM     68  H   UNL     1      -5.913 -13.793 -16.916  1.00  0.00     0.167 HD
ATOM     69  C   UNL     1      -3.989 -15.281 -15.206  1.00  0.00     0.074 A 
ATOM     70  C   UNL     1      -3.493 -14.050 -15.820  1.00  0.00     0.031 C 
ATOM     71  C   UNL     1      -5.253 -15.757 -14.998  1.00  0.00     0.037 A 
BRANCH  58  72
ATOM     72  C   UNL     1      -6.733 -10.941 -16.890  1.00  0.00     0.058 A 
ATOM     73  C   UNL     1      -7.093 -11.407 -18.173  1.00  0.00     0.135 A 
ATOM     74  C   UNL     1      -5.706  -9.970 -16.868  1.00  0.00     0.135 A 
ATOM     75  F   UNL     1      -8.050 -12.337 -18.319  1.00  0.00    -0.206 F 
ATOM     76  C   UNL     1      -6.432 -10.999 -19.332  1.00  0.00     0.059 A 
ATOM     77  C   UNL     1      -5.071  -9.510 -18.015  1.00  0.00     0.059 A 
ATOM     78  F   UNL     1      -5.195  -9.483 -15.732  1.00  0.00    -0.206 F 
ATOM     79  C   UNL     1      -5.414 -10.056 -19.240  1.00  0.00     0.060 A 
BRANCH  79  80
ATOM     80  S   UNL     1      -4.517  -9.572 -20.723  1.00  0.00     0.124 S 
ATOM     81  O   UNL     1      -3.790 -10.796 -21.035  1.00  0.00    -0.237 OA
ATOM     82  O   UNL     1      -5.606  -9.223 -21.629  1.00  0.00    -0.237 OA
ATOM     83  O   UNL     1      -3.703  -8.448 -20.269  1.00  0.00    -0.744 OA
ENDBRANCH  79  80
ENDBRANCH  58  72
BRANCH  59  84
ATOM     84  C   UNL     1       0.151 -14.223 -13.188  1.00  0.00     0.058 A 
ATOM     85  C   UNL     1       0.970 -14.877 -14.131  1.00  0.00     0.135 A 
ATOM     86  C   UNL     1       0.751 -13.157 -12.489  1.00  0.00     0.135 A 
ATOM     87  F   UNL     1       0.482 -15.895 -14.856  1.00  0.00    -0.206 F 
ATOM     88  C   UNL     1       2.277 -14.458 -14.411  1.00  0.00     0.059 A 
ATOM     89  C   UNL     1       2.055 -12.726 -12.746  1.00  0.00     0.059 A 
ATOM     90  F   UNL     1       0.053 -12.437 -11.598  1.00  0.00    -0.206 F 
ATOM     91  C   UNL     1       2.804 -13.363 -13.730  1.00  0.00     0.060 A 
BRANCH  91  92
ATOM     92  S   UNL     1       4.415 -12.695 -14.219  1.00  0.00     0.124 S 
ATOM     93  O   UNL     1       5.327 -13.739 -13.761  1.00  0.00    -0.237 OA
ATOM     94  O   UNL     1       4.272 -12.565 -15.665  1.00  0.00    -0.237 OA
ATOM     95  O   UNL     1       4.495 -11.434 -13.488  1.00  0.00    -0.744 OA
ENDBRANCH  91  92
ENDBRANCH  59  84
BRANCH  71  96
ATOM     96  C   UNL     1      -5.416 -17.059 -14.254  1.00  0.00     0.058 A 
ATOM     97  C   UNL     1      -5.034 -17.295 -12.920  1.00  0.00     0.135 A 
ATOM     98  C   UNL     1      -6.117 -18.085 -14.906  1.00  0.00     0.135 A 
ATOM     99  F   UNL     1      -4.451 -16.335 -12.187  1.00  0.00    -0.206 F 
ATOM    100  C   UNL     1      -5.293 -18.515 -12.287  1.00  0.00     0.059 A 
ATOM    101  C   UNL     1      -6.417 -19.291 -14.285  1.00  0.00     0.059 A 
ATOM    102  F   UNL     1      -6.562 -17.902 -16.161  1.00  0.00    -0.206 F 
ATOM    103  C   UNL     1      -5.985 -19.509 -12.981  1.00  0.00     0.060 A 
BRANCH 103 104
ATOM    104  S   UNL     1      -6.355 -21.074 -12.160  1.00  0.00     0.124 S 
ATOM    105  O   UNL     1      -5.033 -21.681 -12.045  1.00  0.00    -0.237 OA
ATOM    106  O   UNL     1      -6.965 -20.639 -10.907  1.00  0.00    -0.237 OA
ATOM    107  O   UNL     1      -7.267 -21.740 -13.088  1.00  0.00    -0.744 OA
ENDBRANCH 103 104
ENDBRANCH  71  96
ENDBRANCH  45  46
ENDBRANCH  37  40
ENDBRANCH  35  36
ENDBRANCH  34  35
ENDBRANCH   1  34
TORSDOF 17
