REMARK SMILES COC(=O)[C@@H]([NH2+]CC(C)(C)C(=O)NCCCCNC(=O)c1ccc(-c2c3nc(c(-c4c(F)cc(S(=O)(=O)[O-])cc4F)c4ccc([nH]4)c(-c4c(F)cc(S(=O)(=O)[O-])cc4F)c4nc(c(-c5c(F)cc(S(=O)(=O)[O-])cc5F)c5ccc2[nH]5)C=C4)C=C3)cc1)c1ccccc1
REMARK SMILES IDX 14 1 13 2 11 3 12 4 8 6 9 7 10 8 7 9 6 10 5 13 3 14 4 15
REMARK SMILES IDX 2 16 1 17 87 18 88 19 92 20 89 21 91 22 90 23 15 24 16 25
REMARK SMILES IDX 17 26 18 27 19 28 20 30 21 31 22 32 86 33 23 34 85 35 24 36
REMARK SMILES IDX 25 37 26 38 79 39 27 40 84 41 78 42 80 43 28 44 83 45 77 46
REMARK SMILES IDX 76 47 29 49 63 50 42 51 62 52 43 53 46 54 61 55 81 56 44 57
REMARK SMILES IDX 45 58 60 60 82 61 47 62 30 63 31 64 40 65 32 66 33 67 39 68
REMARK SMILES IDX 41 69 34 70 35 71 36 72 37 73 38 74 64 75 65 76 74 77 66 78
REMARK SMILES IDX 67 79 73 80 75 81 68 82 69 83 70 84 71 85 72 86 48 87 49 88
REMARK SMILES IDX 58 89 50 90 51 91 57 92 59 93 52 94 53 95 54 96 55 97 56 98
REMARK H PARENT 13 5 6 11 6 12 18 29 80 48 46 59
REMARK Flexibility Score: inf
ROOT
ATOM      1  C   UNL     1       1.842   7.765   4.188  1.00  0.00     0.116 C 
ENDROOT
BRANCH   1   2
ATOM      2  N   UNL     1       1.250   6.500   3.809  1.00  0.00    -0.355 N 
ATOM      3  C   UNL     1       0.543   6.234   2.678  1.00  0.00     0.231 C 
ATOM      4  O   UNL     1      -0.553   5.711   2.868  1.00  0.00    -0.274 OA
ATOM      5  H   UNL     1       1.371   5.752   4.437  1.00  0.00     0.163 HD
BRANCH   3   6
ATOM      6  C   UNL     1       1.050   6.637   1.281  1.00  0.00     0.092 C 
ATOM      7  C   UNL     1       2.581   6.529   1.172  1.00  0.00     0.027 C 
ATOM      8  C   UNL     1       0.573   8.085   1.036  1.00  0.00     0.027 C 
BRANCH   6   9
ATOM      9  C   UNL     1       0.429   5.780   0.115  1.00  0.00     0.277 C 
BRANCH   9  10
ATOM     10  N   UNL     1       0.612   4.328  -0.002  1.00  0.00    -0.330 N 
ATOM     11  H   UNL     1       0.256   4.053  -0.918  1.00  0.00     0.347 HD
ATOM     12  H   UNL     1       1.610   4.191   0.155  1.00  0.00     0.347 HD
BRANCH  10  13
ATOM     13  C   UNL     1      -0.037   3.437   1.006  1.00  0.00     0.324 C 
BRANCH  13  14
ATOM     14  C   UNL     1       0.707   2.071   0.931  1.00  0.00     0.369 C 
ATOM     15  O   UNL     1       1.534   1.707   1.763  1.00  0.00    -0.245 OA
BRANCH  14  16
ATOM     16  O   UNL     1       0.400   1.357  -0.193  1.00  0.00    -0.464 OA
ATOM     17  C   UNL     1       0.995   0.059  -0.228  1.00  0.00     0.282 C 
ENDBRANCH  14  16
ENDBRANCH  13  14
BRANCH  13  18
ATOM     18  C   UNL     1      -1.578   3.311   0.984  1.00  0.00     0.021 A 
ATOM     19  C   UNL     1      -2.416   4.441   1.037  1.00  0.00     0.010 A 
ATOM     20  C   UNL     1      -2.230   2.070   1.118  1.00  0.00     0.010 A 
ATOM     21  C   UNL     1      -3.803   4.357   1.189  1.00  0.00     0.001 A 
ATOM     22  C   UNL     1      -3.622   1.976   1.270  1.00  0.00     0.001 A 
ATOM     23  C   UNL     1      -4.409   3.119   1.307  1.00  0.00     0.000 A 
ENDBRANCH  13  18
ENDBRANCH  10  13
ENDBRANCH   9  10
ENDBRANCH   6   9
ENDBRANCH   3   6
ENDBRANCH   1   2
BRANCH   1  24
ATOM     24  C   UNL     1       0.807   8.655   4.882  1.00  0.00     0.023 C 
BRANCH  24  25
ATOM     25  C   UNL     1       0.266   8.097   6.203  1.00  0.00     0.023 C 
BRANCH  25  26
ATOM     26  C   UNL     1       1.330   7.615   7.181  1.00  0.00     0.116 C 
BRANCH  26  27
ATOM     27  N   UNL     1       2.351   8.620   7.431  1.00  0.00    -0.352 N 
ATOM     28  C   UNL     1       2.933   8.992   8.613  1.00  0.00     0.251 C 
ATOM     29  H   UNL     1       2.669   9.104   6.635  1.00  0.00     0.163 HD
ATOM     30  O   UNL     1       3.680   9.970   8.639  1.00  0.00    -0.269 OA
BRANCH  28  31
ATOM     31  C   UNL     1       2.644   8.238   9.848  1.00  0.00     0.039 A 
ATOM     32  C   UNL     1       2.416   8.951  11.027  1.00  0.00     0.014 A 
ATOM     33  C   UNL     1       2.607   6.840   9.852  1.00  0.00     0.014 A 
ATOM     34  C   UNL     1       2.121   8.261  12.202  1.00  0.00     0.010 A 
ATOM     35  C   UNL     1       2.225   6.160  11.003  1.00  0.00     0.010 A 
ATOM     36  C   UNL     1       2.004   6.861  12.197  1.00  0.00    -0.014 A 
BRANCH  36  37
ATOM     37  C   UNL     1       1.690   6.125  13.447  1.00  0.00     0.031 A 
ATOM     38  C   UNL     1       2.691   5.160  14.027  1.00  0.00     0.074 A 
ATOM     39  C   UNL     1       0.499   6.312  14.048  1.00  0.00     0.049 A 
ATOM     40  N   UNL     1       2.609   4.442  15.117  1.00  0.00    -0.248 NA
ATOM     41  C   UNL     1       3.937   4.954  13.270  1.00  0.00     0.031 C 
ATOM     42  C   UNL     1      -0.575   7.175  13.548  1.00  0.00     0.029 A 
ATOM     43  N   UNL     1      -0.008   5.795  15.213  1.00  0.00    -0.354 N 
ATOM     44  C   UNL     1       3.782   3.699  15.171  1.00  0.00     0.074 A 
ATOM     45  C   UNL     1       4.529   3.999  13.970  1.00  0.00     0.031 C 
ATOM     46  C   UNL     1      -1.596   7.157  14.419  1.00  0.00     0.029 A 
ATOM     47  C   UNL     1      -1.266   6.259  15.521  1.00  0.00     0.049 A 
ATOM     48  H   UNL     1       0.482   5.153  15.775  1.00  0.00     0.167 HD
ATOM     49  C   UNL     1       4.215   2.866  16.148  1.00  0.00     0.037 A 
ATOM     50  C   UNL     1      -2.059   5.993  16.576  1.00  0.00     0.037 A 
ATOM     51  C   UNL     1       3.474   2.591  17.352  1.00  0.00     0.049 A 
ATOM     52  C   UNL     1      -1.552   5.073  17.654  1.00  0.00     0.074 A 
ATOM     53  C   UNL     1       3.844   1.807  18.430  1.00  0.00     0.029 A 
ATOM     54  N   UNL     1       2.210   3.088  17.635  1.00  0.00    -0.354 N 
ATOM     55  N   UNL     1      -0.407   4.436  17.726  1.00  0.00    -0.248 NA
ATOM     56  C   UNL     1      -2.439   4.847  18.802  1.00  0.00     0.031 C 
ATOM     57  C   UNL     1       2.783   1.788  19.342  1.00  0.00     0.029 A 
ATOM     58  C   UNL     1       1.776   2.610  18.861  1.00  0.00     0.049 A 
ATOM     59  H   UNL     1       1.697   3.692  17.051  1.00  0.00     0.167 HD
ATOM     60  C   UNL     1      -0.425   3.756  18.939  1.00  0.00     0.074 A 
ATOM     61  C   UNL     1      -1.686   4.079  19.576  1.00  0.00     0.031 C 
ATOM     62  C   UNL     1       0.515   2.940  19.479  1.00  0.00     0.037 A 
BRANCH  49  63
ATOM     63  C   UNL     1       5.552   2.200  15.957  1.00  0.00     0.058 A 
ATOM     64  C   UNL     1       6.753   2.929  15.982  1.00  0.00     0.135 A 
ATOM     65  C   UNL     1       5.638   0.810  15.774  1.00  0.00     0.135 A 
ATOM     66  F   UNL     1       6.731   4.263  16.135  1.00  0.00    -0.206 F 
ATOM     67  C   UNL     1       7.986   2.311  15.801  1.00  0.00     0.059 A 
ATOM     68  C   UNL     1       6.864   0.166  15.624  1.00  0.00     0.059 A 
ATOM     69  F   UNL     1       4.525   0.062  15.740  1.00  0.00    -0.206 F 
ATOM     70  C   UNL     1       8.031   0.928  15.624  1.00  0.00     0.060 A 
BRANCH  70  71
ATOM     71  S   UNL     1       9.641   0.142  15.401  1.00  0.00     0.124 S 
ATOM     72  O   UNL     1       9.999   0.588  14.058  1.00  0.00    -0.237 OA
ATOM     73  O   UNL     1      10.423   0.719  16.489  1.00  0.00    -0.237 OA
ATOM     74  O   UNL     1       9.346  -1.282  15.531  1.00  0.00    -0.744 OA
ENDBRANCH  70  71
ENDBRANCH  49  63
BRANCH  50  75
ATOM     75  C   UNL     1      -3.400   6.631  16.680  1.00  0.00     0.058 A 
ATOM     76  C   UNL     1      -3.667   7.601  17.659  1.00  0.00     0.135 A 
ATOM     77  C   UNL     1      -4.438   6.291  15.799  1.00  0.00     0.135 A 
ATOM     78  F   UNL     1      -2.709   7.958  18.528  1.00  0.00    -0.206 F 
ATOM     79  C   UNL     1      -4.920   8.193  17.777  1.00  0.00     0.059 A 
ATOM     80  C   UNL     1      -5.691   6.891  15.878  1.00  0.00     0.059 A 
ATOM     81  F   UNL     1      -4.230   5.384  14.833  1.00  0.00    -0.206 F 
ATOM     82  C   UNL     1      -5.926   7.833  16.878  1.00  0.00     0.060 A 
BRANCH  82  83
ATOM     83  S   UNL     1      -7.536   8.639  17.013  1.00  0.00     0.124 S 
ATOM     84  O   UNL     1      -8.067   8.035  18.230  1.00  0.00    -0.237 OA
ATOM     85  O   UNL     1      -7.166  10.047  17.108  1.00  0.00    -0.237 OA
ATOM     86  O   UNL     1      -8.207   8.257  15.774  1.00  0.00    -0.744 OA
ENDBRANCH  82  83
ENDBRANCH  50  75
BRANCH  62  87
ATOM     87  C   UNL     1       0.227   2.367  20.841  1.00  0.00     0.058 A 
ATOM     88  C   UNL     1      -0.770   1.400  21.043  1.00  0.00     0.135 A 
ATOM     89  C   UNL     1       0.973   2.780  21.957  1.00  0.00     0.135 A 
ATOM     90  F   UNL     1      -1.514   0.970  20.012  1.00  0.00    -0.206 F 
ATOM     91  C   UNL     1      -1.050   0.898  22.310  1.00  0.00     0.059 A 
ATOM     92  C   UNL     1       0.734   2.267  23.227  1.00  0.00     0.059 A 
ATOM     93  F   UNL     1       1.950   3.691  21.819  1.00  0.00    -0.206 F 
ATOM     94  C   UNL     1      -0.295   1.342  23.397  1.00  0.00     0.060 A 
BRANCH  94  95
ATOM     95  S   UNL     1      -0.671   0.688  25.037  1.00  0.00     0.124 S 
ATOM     96  O   UNL     1      -1.920   1.376  25.347  1.00  0.00    -0.237 OA
ATOM     97  O   UNL     1      -0.782  -0.745  24.784  1.00  0.00    -0.237 OA
ATOM     98  O   UNL     1       0.483   1.089  25.836  1.00  0.00    -0.744 OA
ENDBRANCH  94  95
ENDBRANCH  62  87
ENDBRANCH  36  37
ENDBRANCH  28  31
ENDBRANCH  26  27
ENDBRANCH  25  26
ENDBRANCH  24  25
ENDBRANCH   1  24
TORSDOF 20
