REMARK SMILES O=C(NCCCCNC(=O)C1CC[NH+]([C@H]2CC(=O)N(c3ccc4c(c3)OCCO4)C2=O)CC1)c1ccc(-c2c3nc(c(-c4c(F)cc(S(=O)(=O)[O-])cc4F)c4ccc([nH]4)c(-c4c(F)cc(S(=O)(=O)[O-])cc4F)c4nc(c(-c5c(F)cc(S(=O)(=O)[O-])cc5F)c5ccc2[nH]5)C=C4)C=C3)cc1
REMARK SMILES IDX 5 1 4 2 3 3 1 4 2 5 34 7 35 8 99 9 36 10 98 11 37 12 38 13
REMARK SMILES IDX 39 14 92 15 40 16 97 17 91 18 93 19 41 20 96 21 90 22 89 23
REMARK SMILES IDX 42 25 76 26 55 27 75 28 56 29 59 30 74 31 94 32 57 33 58 34
REMARK SMILES IDX 73 36 95 37 60 38 43 39 44 40 53 41 45 42 46 43 52 44 54 45
REMARK SMILES IDX 47 46 48 47 49 48 50 49 51 50 77 51 78 52 87 53 79 54 80 55
REMARK SMILES IDX 86 56 88 57 81 58 82 59 83 60 84 61 85 62 61 63 62 64 71 65
REMARK SMILES IDX 63 66 64 67 70 68 72 69 65 70 66 71 67 72 68 73 69 74 6 75
REMARK SMILES IDX 7 76 8 77 9 78 10 80 11 81 12 82 33 83 13 84 32 85 14 86
REMARK SMILES IDX 15 88 16 89 30 90 17 91 19 92 31 93 18 94 20 95 21 96 25 97
REMARK SMILES IDX 22 98 24 99 23 100 26 101 29 102 27 103 28 104
REMARK H PARENT 3 6 93 24 59 35 8 79 14 87
REMARK Flexibility Score: inf
ROOT
ATOM      1  C   UNL     1      17.434   6.727  -6.077  1.00  0.00     0.023 C 
ENDROOT
BRANCH   1   2
ATOM      2  C   UNL     1      18.046   7.914  -6.807  1.00  0.00     0.116 C 
BRANCH   2   3
ATOM      3  N   UNL     1      18.343   9.042  -5.937  1.00  0.00    -0.352 N 
ATOM      4  O   UNL     1      19.625  10.711  -5.105  1.00  0.00    -0.269 OA
ATOM      5  C   UNL     1      19.450   9.862  -5.971  1.00  0.00     0.251 C 
ATOM      6  H   UNL     1      17.674   9.243  -5.243  1.00  0.00     0.163 HD
BRANCH   5   7
ATOM      7  C   UNL     1      20.441   9.671  -7.053  1.00  0.00     0.039 A 
ATOM      8  C   UNL     1      20.013   9.562  -8.377  1.00  0.00     0.014 A 
ATOM      9  C   UNL     1      21.794   9.531  -6.732  1.00  0.00     0.014 A 
ATOM     10  C   UNL     1      20.911   9.154  -9.354  1.00  0.00     0.010 A 
ATOM     11  C   UNL     1      22.713   9.213  -7.738  1.00  0.00     0.010 A 
ATOM     12  C   UNL     1      22.274   8.988  -9.051  1.00  0.00    -0.014 A 
BRANCH  12  13
ATOM     13  C   UNL     1      23.209   8.642 -10.153  1.00  0.00     0.031 A 
ATOM     14  C   UNL     1      23.951   7.333 -10.178  1.00  0.00     0.074 A 
ATOM     15  C   UNL     1      23.326   9.509 -11.178  1.00  0.00     0.049 A 
ATOM     16  N   UNL     1      24.748   6.861 -11.104  1.00  0.00    -0.248 NA
ATOM     17  C   UNL     1      23.790   6.443  -9.018  1.00  0.00     0.031 C 
ATOM     18  C   UNL     1      22.673  10.820 -11.247  1.00  0.00     0.029 A 
ATOM     19  N   UNL     1      24.000   9.413 -12.367  1.00  0.00    -0.354 N 
ATOM     20  C   UNL     1      25.190   5.628 -10.639  1.00  0.00     0.074 A 
ATOM     21  C   UNL     1      24.596   5.436  -9.333  1.00  0.00     0.031 C 
ATOM     22  C   UNL     1      22.930  11.379 -12.437  1.00  0.00     0.029 A 
ATOM     23  C   UNL     1      23.812  10.497 -13.191  1.00  0.00     0.049 A 
ATOM     24  H   UNL     1      24.564   8.643 -12.608  1.00  0.00     0.167 HD
ATOM     25  C   UNL     1      26.007   4.736 -11.252  1.00  0.00     0.037 A 
ATOM     26  C   UNL     1      24.302  10.762 -14.416  1.00  0.00     0.037 A 
ATOM     27  C   UNL     1      26.587   4.933 -12.558  1.00  0.00     0.049 A 
ATOM     28  C   UNL     1      25.191   9.750 -15.076  1.00  0.00     0.074 A 
ATOM     29  C   UNL     1      27.428   4.089 -13.265  1.00  0.00     0.029 A 
ATOM     30  N   UNL     1      26.383   6.048 -13.358  1.00  0.00    -0.354 N 
ATOM     31  N   UNL     1      25.590   8.586 -14.620  1.00  0.00    -0.248 NA
ATOM     32  C   UNL     1      25.697  10.084 -16.413  1.00  0.00     0.031 C 
ATOM     33  C   UNL     1      27.754   4.707 -14.478  1.00  0.00     0.029 A 
ATOM     34  C   UNL     1      27.085   5.918 -14.546  1.00  0.00     0.049 A 
ATOM     35  H   UNL     1      25.821   6.820 -13.117  1.00  0.00     0.167 HD
ATOM     36  C   UNL     1      26.397   8.049 -15.615  1.00  0.00     0.074 A 
ATOM     37  C   UNL     1      26.398   8.999 -16.710  1.00  0.00     0.031 C 
ATOM     38  C   UNL     1      27.084   6.880 -15.618  1.00  0.00     0.037 A 
BRANCH  25  39
ATOM     39  C   UNL     1      26.328   3.460 -10.521  1.00  0.00     0.058 A 
ATOM     40  C   UNL     1      25.381   2.433 -10.385  1.00  0.00     0.135 A 
ATOM     41  C   UNL     1      27.614   3.234 -10.004  1.00  0.00     0.135 A 
ATOM     42  F   UNL     1      24.132   2.600 -10.848  1.00  0.00    -0.206 F 
ATOM     43  C   UNL     1      25.691   1.235  -9.749  1.00  0.00     0.059 A 
ATOM     44  C   UNL     1      27.954   2.034  -9.382  1.00  0.00     0.059 A 
ATOM     45  F   UNL     1      28.560   4.181 -10.106  1.00  0.00    -0.206 F 
ATOM     46  C   UNL     1      26.981   1.044  -9.250  1.00  0.00     0.060 A 
BRANCH  46  47
ATOM     47  S   UNL     1      27.372  -0.522  -8.440  1.00  0.00     0.124 S 
ATOM     48  O   UNL     1      26.672  -0.373  -7.168  1.00  0.00    -0.237 OA
ATOM     49  O   UNL     1      26.806  -1.502  -9.362  1.00  0.00    -0.237 OA
ATOM     50  O   UNL     1      28.829  -0.509  -8.360  1.00  0.00    -0.744 OA
ENDBRANCH  46  47
ENDBRANCH  25  39
BRANCH  26  51
ATOM     51  C   UNL     1      23.969  12.049 -15.079  1.00  0.00     0.058 A 
ATOM     52  C   UNL     1      23.128  12.096 -16.199  1.00  0.00     0.135 A 
ATOM     53  C   UNL     1      24.466  13.263 -14.580  1.00  0.00     0.135 A 
ATOM     54  F   UNL     1      22.628  10.961 -16.712  1.00  0.00    -0.206 F 
ATOM     55  C   UNL     1      22.804  13.301 -16.814  1.00  0.00     0.059 A 
ATOM     56  C   UNL     1      24.134  14.482 -15.159  1.00  0.00     0.059 A 
ATOM     57  F   UNL     1      25.257  13.271 -13.495  1.00  0.00    -0.206 F 
ATOM     58  C   UNL     1      23.312  14.489 -16.285  1.00  0.00     0.060 A 
BRANCH  58  59
ATOM     59  S   UNL     1      22.852  16.056 -17.054  1.00  0.00     0.124 S 
ATOM     60  O   UNL     1      23.730  16.078 -18.218  1.00  0.00    -0.237 OA
ATOM     61  O   UNL     1      21.431  15.862 -17.329  1.00  0.00    -0.237 OA
ATOM     62  O   UNL     1      23.151  17.037 -16.016  1.00  0.00    -0.744 OA
ENDBRANCH  58  59
ENDBRANCH  26  51
BRANCH  38  63
ATOM     63  C   UNL     1      27.886   6.573 -16.850  1.00  0.00     0.058 A 
ATOM     64  C   UNL     1      29.081   7.253 -17.133  1.00  0.00     0.135 A 
ATOM     65  C   UNL     1      27.458   5.589 -17.755  1.00  0.00     0.135 A 
ATOM     66  F   UNL     1      29.528   8.208 -16.302  1.00  0.00    -0.206 F 
ATOM     67  C   UNL     1      29.806   6.994 -18.291  1.00  0.00     0.059 A 
ATOM     68  C   UNL     1      28.180   5.297 -18.907  1.00  0.00     0.059 A 
ATOM     69  F   UNL     1      26.326   4.905 -17.524  1.00  0.00    -0.206 F 
ATOM     70  C   UNL     1      29.343   6.018 -19.176  1.00  0.00     0.060 A 
BRANCH  70  71
ATOM     71  S   UNL     1      30.289   5.690 -20.678  1.00  0.00     0.124 S 
ATOM     72  O   UNL     1      29.910   6.823 -21.515  1.00  0.00    -0.237 OA
ATOM     73  O   UNL     1      31.665   5.694 -20.191  1.00  0.00    -0.237 OA
ATOM     74  O   UNL     1      29.790   4.389 -21.114  1.00  0.00    -0.744 OA
ENDBRANCH  70  71
ENDBRANCH  38  63
ENDBRANCH  12  13
ENDBRANCH   5   7
ENDBRANCH   2   3
ENDBRANCH   1   2
BRANCH   1  75
ATOM     75  C   UNL     1      16.078   6.994  -5.428  1.00  0.00     0.023 C 
BRANCH  75  76
ATOM     76  C   UNL     1      15.040   7.621  -6.356  1.00  0.00     0.116 C 
BRANCH  76  77
ATOM     77  N   UNL     1      14.740   6.785  -7.510  1.00  0.00    -0.356 N 
ATOM     78  C   UNL     1      13.601   6.081  -7.794  1.00  0.00     0.223 C 
ATOM     79  H   UNL     1      15.457   6.717  -8.181  1.00  0.00     0.163 HD
ATOM     80  O   UNL     1      13.525   5.450  -8.846  1.00  0.00    -0.275 OA
BRANCH  78  81
ATOM     81  C   UNL     1      12.460   6.146  -6.792  1.00  0.00     0.089 C 
ATOM     82  C   UNL     1      11.518   4.931  -6.892  1.00  0.00     0.075 C 
ATOM     83  C   UNL     1      11.790   7.532  -6.881  1.00  0.00     0.075 C 
ATOM     84  C   UNL     1      10.204   5.190  -7.622  1.00  0.00     0.263 C 
ATOM     85  C   UNL     1      10.461   7.562  -7.622  1.00  0.00     0.263 C 
ATOM     86  N   UNL     1       9.566   6.465  -7.283  1.00  0.00    -0.324 N 
ATOM     87  H   UNL     1       8.747   6.602  -7.876  1.00  0.00     0.348 HD
BRANCH  86  88
ATOM     88  C   UNL     1       8.856   6.495  -5.986  1.00  0.00     0.284 C 
ATOM     89  C   UNL     1       9.645   6.539  -4.687  1.00  0.00     0.176 C 
ATOM     90  C   UNL     1       7.949   7.723  -5.849  1.00  0.00     0.292 C 
ATOM     91  C   UNL     1       9.555   7.964  -4.244  1.00  0.00     0.240 C 
ATOM     92  N   UNL     1       8.480   8.540  -4.871  1.00  0.00    -0.245 N 
ATOM     93  O   UNL     1       6.949   7.928  -6.527  1.00  0.00    -0.267 OA
ATOM     94  O   UNL     1      10.280   8.432  -3.375  1.00  0.00    -0.274 OA
BRANCH  92  95
ATOM     95  C   UNL     1       7.920   9.767  -4.447  1.00  0.00     0.056 A 
ATOM     96  C   UNL     1       6.537   9.870  -4.244  1.00  0.00     0.031 A 
ATOM     97  C   UNL     1       8.737  10.863  -4.135  1.00  0.00     0.077 A 
ATOM     98  C   UNL     1       5.987  11.026  -3.685  1.00  0.00     0.052 A 
ATOM     99  C   UNL     1       8.178  12.038  -3.629  1.00  0.00     0.163 A 
ATOM    100  C   UNL     1       6.804  12.114  -3.393  1.00  0.00     0.161 A 
ATOM    101  O   UNL     1       9.040  13.080  -3.400  1.00  0.00    -0.486 OA
ATOM    102  O   UNL     1       6.191  13.221  -2.867  1.00  0.00    -0.486 OA
ATOM    103  C   UNL     1       8.443  14.103  -2.596  1.00  0.00     0.271 C 
ATOM    104  C   UNL     1       7.011  14.383  -3.020  1.00  0.00     0.271 C 
ENDBRANCH  92  95
ENDBRANCH  86  88
ENDBRANCH  78  81
ENDBRANCH  76  77
ENDBRANCH  75  76
ENDBRANCH   1  75
TORSDOF 16
