REMARK SMILES CN1C(=O)C(=Cc2ccc(OCc3cccc(C(=O)NCCCCNC(=O)c4ccc(-c5c6nc(c(-c7c(F)cc(S(=O)(=O)[O-])cc7F)c7ccc([nH]7)c(-c7c(F)cc(S(=O)(=O)[O-])cc7F)c7nc(c(-c8c(F)cc(S(=O)(=O)[O-])cc8F)c8ccc5[nH]8)C=C7)C=C6)cc4)c3)c(Cl)c2)C(=O)N(C)C1=S
REMARK SMILES IDX 22 1 21 2 20 3 18 4 19 5 17 7 13 8 14 9 94 10 15 11 16 12
REMARK SMILES IDX 12 13 11 14 10 15 7 16 8 17 97 18 9 19 95 20 96 21 6 22 1 23
REMARK SMILES IDX 2 24 3 25 102 26 4 27 5 28 100 29 103 30 98 31 101 32 99 33
REMARK SMILES IDX 23 34 24 35 25 36 26 37 27 39 28 40 29 41 93 42 30 43 92 44
REMARK SMILES IDX 31 45 32 46 33 47 86 48 34 49 91 50 85 51 87 52 35 53 90 54
REMARK SMILES IDX 84 55 83 56 36 58 70 59 49 60 69 61 50 62 53 63 68 64 88 65
REMARK SMILES IDX 51 66 52 67 67 69 89 70 54 71 37 72 38 73 47 74 39 75 40 76
REMARK SMILES IDX 46 77 48 78 41 79 42 80 43 81 44 82 45 83 71 84 72 85 81 86
REMARK SMILES IDX 73 87 74 88 80 89 82 90 75 91 76 92 77 93 78 94 79 95 55 96
REMARK SMILES IDX 56 97 65 98 57 99 58 100 64 101 66 102 59 103 60 104 61 105
REMARK SMILES IDX 62 106 63 107
REMARK H PARENT 20 6 25 38 87 57 53 68
REMARK Flexibility Score: inf
ROOT
ATOM      1  C   UNL     1       8.248  -0.018  -7.764  1.00  0.00     0.023 C 
ENDROOT
BRANCH   1   2
ATOM      2  C   UNL     1       7.158  -0.501  -8.713  1.00  0.00     0.116 C 
BRANCH   2   3
ATOM      3  N   UNL     1       7.429  -1.783  -9.334  1.00  0.00    -0.352 N 
ATOM      4  C   UNL     1       6.609  -2.850  -9.606  1.00  0.00     0.251 C 
ATOM      5  O   UNL     1       7.102  -3.838 -10.150  1.00  0.00    -0.269 OA
ATOM      6  H   UNL     1       8.366  -1.910  -9.609  1.00  0.00     0.163 HD
BRANCH   4   7
ATOM      7  C   UNL     1       5.168  -2.882  -9.231  1.00  0.00     0.040 A 
ATOM      8  C   UNL     1       3.019  -1.838  -8.740  1.00  0.00    -0.010 A 
ATOM      9  C   UNL     1       2.486  -3.102  -8.453  1.00  0.00     0.007 A 
ATOM     10  C   UNL     1       4.346  -1.750  -9.190  1.00  0.00     0.021 A 
ATOM     11  C   UNL     1       3.274  -4.245  -8.556  1.00  0.00     0.001 A 
ATOM     12  C   UNL     1       4.613  -4.134  -8.930  1.00  0.00     0.014 A 
BRANCH   8  13
ATOM     13  C   UNL     1       2.199  -0.582  -8.530  1.00  0.00     0.265 C 
BRANCH  13  14
ATOM     14  O   UNL     1       2.289  -0.018  -7.209  1.00  0.00    -0.487 OA
BRANCH  14  15
ATOM     15  C   UNL     1       1.923  -0.825  -6.163  1.00  0.00     0.138 A 
ATOM     16  C   UNL     1       1.455  -2.490  -3.946  1.00  0.00    -0.023 A 
ATOM     17  C   UNL     1       2.666  -1.803  -4.064  1.00  0.00     0.012 A 
ATOM     18  C   UNL     1       0.461  -2.299  -4.908  1.00  0.00     0.032 A 
ATOM     19  C   UNL     1       2.896  -0.974  -5.167  1.00  0.00     0.048 A 
ATOM     20  C   UNL     1       0.677  -1.442  -5.995  1.00  0.00     0.083 A 
ATOM     21  Cl  UNL     1      -0.668  -1.161  -7.040  1.00  0.00    -0.080 Cl
BRANCH  16  22
ATOM     22  C   UNL     1       1.218  -3.381  -2.808  1.00  0.00     0.027 C 
ATOM     23  C   UNL     1       0.441   0.155   0.333  1.00  0.00     0.156 C 
ATOM     24  N   UNL     1       0.540  -1.285   0.068  1.00  0.00    -0.288 N 
ATOM     25  C   UNL     1       0.362  -1.635  -1.267  1.00  0.00     0.265 C 
ATOM     26  C   UNL     1       0.750  -2.197   1.127  1.00  0.00     0.185 C 
ATOM     27  O   UNL     1      -0.116  -0.884  -2.114  1.00  0.00    -0.268 OA
ATOM     28  C   UNL     1       0.756  -3.010  -1.597  1.00  0.00     0.106 C 
ATOM     29  N   UNL     1       0.783  -3.559   0.758  1.00  0.00    -0.288 N 
ATOM     30  S   UNL     1       0.918  -1.678   2.735  1.00  0.00    -0.040 S 
ATOM     31  C   UNL     1       0.707  -4.039  -0.549  1.00  0.00     0.265 C 
ATOM     32  C   UNL     1       0.899  -4.639   1.746  1.00  0.00     0.156 C 
ATOM     33  O   UNL     1       0.629  -5.234  -0.835  1.00  0.00    -0.268 OA
ENDBRANCH  16  22
ENDBRANCH  14  15
ENDBRANCH  13  14
ENDBRANCH   8  13
ENDBRANCH   4   7
ENDBRANCH   2   3
ENDBRANCH   1   2
BRANCH   1  34
ATOM     34  C   UNL     1       9.653   0.115  -8.340  1.00  0.00     0.023 C 
BRANCH  34  35
ATOM     35  C   UNL     1       9.775   0.858  -9.665  1.00  0.00     0.116 C 
BRANCH  35  36
ATOM     36  N   UNL     1       9.223   2.204  -9.640  1.00  0.00    -0.352 N 
ATOM     37  C   UNL     1       9.806   3.401  -9.987  1.00  0.00     0.251 C 
ATOM     38  H   UNL     1       8.291   2.268  -9.328  1.00  0.00     0.163 HD
ATOM     39  O   UNL     1       9.185   4.449  -9.831  1.00  0.00    -0.269 OA
BRANCH  37  40
ATOM     40  C   UNL     1      11.194   3.430 -10.497  1.00  0.00     0.039 A 
ATOM     41  C   UNL     1      12.100   4.328  -9.926  1.00  0.00     0.014 A 
ATOM     42  C   UNL     1      11.614   2.552 -11.499  1.00  0.00     0.014 A 
ATOM     43  C   UNL     1      13.448   4.276 -10.288  1.00  0.00     0.010 A 
ATOM     44  C   UNL     1      12.969   2.451 -11.804  1.00  0.00     0.010 A 
ATOM     45  C   UNL     1      13.902   3.301 -11.191  1.00  0.00    -0.014 A 
BRANCH  45  46
ATOM     46  C   UNL     1      15.348   3.136 -11.490  1.00  0.00     0.031 A 
ATOM     47  C   UNL     1      15.860   3.359 -12.887  1.00  0.00     0.074 A 
ATOM     48  C   UNL     1      16.184   2.705 -10.524  1.00  0.00     0.049 A 
ATOM     49  N   UNL     1      17.059   3.155 -13.369  1.00  0.00    -0.248 NA
ATOM     50  C   UNL     1      14.889   3.847 -13.879  1.00  0.00     0.031 C 
ATOM     51  C   UNL     1      15.801   2.399  -9.143  1.00  0.00     0.029 A 
ATOM     52  N   UNL     1      17.530   2.433 -10.558  1.00  0.00    -0.354 N 
ATOM     53  C   UNL     1      16.982   3.469 -14.720  1.00  0.00     0.074 A 
ATOM     54  C   UNL     1      15.609   3.836 -14.992  1.00  0.00     0.031 C 
ATOM     55  C   UNL     1      16.886   1.998  -8.461  1.00  0.00     0.029 A 
ATOM     56  C   UNL     1      18.035   1.985  -9.360  1.00  0.00     0.049 A 
ATOM     57  H   UNL     1      18.081   2.548 -11.365  1.00  0.00     0.167 HD
ATOM     58  C   UNL     1      17.970   3.472 -15.646  1.00  0.00     0.037 A 
ATOM     59  C   UNL     1      19.282   1.600  -9.025  1.00  0.00     0.037 A 
ATOM     60  C   UNL     1      19.343   3.144 -15.366  1.00  0.00     0.049 A 
ATOM     61  C   UNL     1      20.368   1.644 -10.065  1.00  0.00     0.074 A 
ATOM     62  C   UNL     1      20.427   3.166 -16.226  1.00  0.00     0.029 A 
ATOM     63  N   UNL     1      19.824   2.748 -14.127  1.00  0.00    -0.354 N 
ATOM     64  N   UNL     1      20.285   1.987 -11.328  1.00  0.00    -0.248 NA
ATOM     65  C   UNL     1      21.719   1.257  -9.634  1.00  0.00     0.031 C 
ATOM     66  C   UNL     1      21.561   2.763 -15.512  1.00  0.00     0.029 A 
ATOM     67  C   UNL     1      21.188   2.521 -14.200  1.00  0.00     0.049 A 
ATOM     68  H   UNL     1      19.277   2.643 -13.315  1.00  0.00     0.167 HD
ATOM     69  C   UNL     1      21.574   1.879 -11.836  1.00  0.00     0.074 A 
ATOM     70  C   UNL     1      22.421   1.451 -10.742  1.00  0.00     0.031 C 
ATOM     71  C   UNL     1      22.017   2.112 -13.095  1.00  0.00     0.037 A 
BRANCH  58  72
ATOM     72  C   UNL     1      17.605   3.863 -17.050  1.00  0.00     0.058 A 
ATOM     73  C   UNL     1      17.320   5.196 -17.385  1.00  0.00     0.135 A 
ATOM     74  C   UNL     1      17.577   2.907 -18.077  1.00  0.00     0.135 A 
ATOM     75  F   UNL     1      17.316   6.146 -16.436  1.00  0.00    -0.206 F 
ATOM     76  C   UNL     1      16.998   5.566 -18.686  1.00  0.00     0.059 A 
ATOM     77  C   UNL     1      17.281   3.258 -19.392  1.00  0.00     0.059 A 
ATOM     78  F   UNL     1      17.840   1.619 -17.810  1.00  0.00    -0.206 F 
ATOM     79  C   UNL     1      16.980   4.589 -19.683  1.00  0.00     0.060 A 
BRANCH  79  80
ATOM     80  S   UNL     1      16.575   5.085 -21.371  1.00  0.00     0.124 S 
ATOM     81  O   UNL     1      15.128   5.259 -21.282  1.00  0.00    -0.237 OA
ATOM     82  O   UNL     1      17.350   6.311 -21.533  1.00  0.00    -0.237 OA
ATOM     83  O   UNL     1      17.024   3.953 -22.174  1.00  0.00    -0.744 OA
ENDBRANCH  79  80
ENDBRANCH  58  72
BRANCH  59  84
ATOM     84  C   UNL     1      19.582   1.156  -7.638  1.00  0.00     0.058 A 
ATOM     85  C   UNL     1      20.330   1.965  -6.771  1.00  0.00     0.135 A 
ATOM     86  C   UNL     1      19.135  -0.084  -7.156  1.00  0.00     0.135 A 
ATOM     87  F   UNL     1      20.782   3.157  -7.190  1.00  0.00    -0.206 F 
ATOM     88  C   UNL     1      20.649   1.552  -5.482  1.00  0.00     0.059 A 
ATOM     89  C   UNL     1      19.423  -0.510  -5.863  1.00  0.00     0.059 A 
ATOM     90  F   UNL     1      18.400  -0.885  -7.942  1.00  0.00    -0.206 F 
ATOM     91  C   UNL     1      20.193   0.310  -5.038  1.00  0.00     0.060 A 
BRANCH  91  92
ATOM     92  S   UNL     1      20.582  -0.209  -3.352  1.00  0.00     0.124 S 
ATOM     93  O   UNL     1      21.966  -0.644  -3.492  1.00  0.00    -0.237 OA
ATOM     94  O   UNL     1      20.372   1.020  -2.592  1.00  0.00    -0.237 OA
ATOM     95  O   UNL     1      19.608  -1.267  -3.097  1.00  0.00    -0.744 OA
ENDBRANCH  91  92
ENDBRANCH  59  84
BRANCH  71  96
ATOM     96  C   UNL     1      23.487   1.947 -13.351  1.00  0.00     0.058 A 
ATOM     97  C   UNL     1      24.073   0.678 -13.471  1.00  0.00     0.135 A 
ATOM     98  C   UNL     1      24.307   3.072 -13.529  1.00  0.00     0.135 A 
ATOM     99  F   UNL     1      23.331  -0.427 -13.302  1.00  0.00    -0.206 F 
ATOM    100  C   UNL     1      25.429   0.530 -13.742  1.00  0.00     0.059 A 
ATOM    101  C   UNL     1      25.661   2.947 -13.822  1.00  0.00     0.059 A 
ATOM    102  F   UNL     1      23.790   4.308 -13.432  1.00  0.00    -0.206 F 
ATOM    103  C   UNL     1      26.215   1.671 -13.916  1.00  0.00     0.060 A 
BRANCH 103 104
ATOM    104  S   UNL     1      27.966   1.469 -14.307  1.00  0.00     0.124 S 
ATOM    105  O   UNL     1      28.522   1.142 -12.999  1.00  0.00    -0.237 OA
ATOM    106  O   UNL     1      27.949   0.380 -15.279  1.00  0.00    -0.237 OA
ATOM    107  O   UNL     1      28.345   2.773 -14.844  1.00  0.00    -0.744 OA
ENDBRANCH 103 104
ENDBRANCH  71  96
ENDBRANCH  45  46
ENDBRANCH  37  40
ENDBRANCH  35  36
ENDBRANCH  34  35
ENDBRANCH   1  34
TORSDOF 18
