REMARK SMILES COc1cccc([C@@H]2[NH2+][C@@](C)(C(=O)NCCCCNC(=O)c3ccc(-c4c5nc(c(-c6c(F)cc(S(=O)(=O)[O-])cc6F)c6ccc([nH]6)c(-c6c(F)cc(S(=O)(=O)[O-])cc6F)c6nc(c(-c7c(F)cc(S(=O)(=O)[O-])cc7F)c7ccc4[nH]7)C=C6)C=C5)cc3)[C@@H]3C(=O)N(C)C(=O)[C@@H]32)c1O
REMARK SMILES IDX 17 1 16 2 15 3 14 4 12 5 13 6 10 8 8 9 9 10 95 11 88 14
REMARK SMILES IDX 93 15 11 16 89 17 91 18 94 19 90 20 92 21 7 22 3 23 4 24
REMARK SMILES IDX 96 25 5 26 6 27 2 28 1 29 97 30 18 32 19 33 20 34 21 36
REMARK SMILES IDX 22 37 23 38 87 39 24 40 86 41 25 42 26 43 27 44 80 45 28 46
REMARK SMILES IDX 85 47 79 48 81 49 29 50 84 51 78 52 77 53 30 55 64 56 43 57
REMARK SMILES IDX 63 58 44 59 47 60 62 61 82 62 45 63 46 64 61 66 83 67 48 68
REMARK SMILES IDX 31 69 32 70 41 71 33 72 34 73 40 74 42 75 35 76 36 77 37 78
REMARK SMILES IDX 38 79 39 80 65 81 66 82 75 83 67 84 68 85 74 86 76 87 69 88
REMARK SMILES IDX 70 89 71 90 72 91 73 92 49 93 50 94 59 95 51 96 52 97 58 98
REMARK SMILES IDX 60 99 53 100 54 101 55 102 56 103 57 104
REMARK H PARENT 14 7 9 12 9 13 97 31 19 35 81 54 47 65
REMARK Flexibility Score: inf
ROOT
ATOM      1  C   UNL     1      -4.798  -8.295  -0.583  1.00  0.00     0.023 C 
ENDROOT
BRANCH   1   2
ATOM      2  C   UNL     1      -4.378  -6.833  -0.735  1.00  0.00     0.023 C 
BRANCH   2   3
ATOM      3  C   UNL     1      -3.422  -6.337   0.344  1.00  0.00     0.116 C 
BRANCH   3   4
ATOM      4  N   UNL     1      -2.153  -7.047   0.315  1.00  0.00    -0.351 N 
ATOM      5  C   UNL     1      -0.882  -6.571   0.159  1.00  0.00     0.281 C 
ATOM      6  O   UNL     1       0.030  -7.402   0.103  1.00  0.00    -0.268 OA
ATOM      7  H   UNL     1      -2.220  -8.023   0.426  1.00  0.00     0.163 HD
BRANCH   5   8
ATOM      8  C   UNL     1      -0.599  -5.035   0.108  1.00  0.00     0.185 C 
ATOM      9  C   UNL     1      -0.518  -4.181  -2.158  1.00  0.00     0.232 C 
ATOM     10  N   UNL     1      -1.402  -4.463  -1.007  1.00  0.00    -0.326 N 
ATOM     11  C   UNL     1       0.866  -4.737  -1.795  1.00  0.00     0.161 C 
ATOM     12  H   UNL     1      -2.120  -5.132  -1.286  1.00  0.00     0.347 HD
ATOM     13  H   UNL     1      -1.843  -3.598  -0.698  1.00  0.00     0.347 HD
ATOM     14  C   UNL     1       0.867  -4.804  -0.274  1.00  0.00     0.169 C 
ATOM     15  C   UNL     1       2.028  -3.829  -2.097  1.00  0.00     0.239 C 
ATOM     16  C   UNL     1      -0.960  -4.474   1.494  1.00  0.00     0.091 C 
ATOM     17  C   UNL     1       1.540  -3.504   0.097  1.00  0.00     0.240 C 
ATOM     18  N   UNL     1       2.307  -3.113  -0.964  1.00  0.00    -0.285 N 
ATOM     19  O   UNL     1       2.565  -3.709  -3.183  1.00  0.00    -0.274 OA
ATOM     20  O   UNL     1       1.430  -2.892   1.150  1.00  0.00    -0.274 OA
ATOM     21  C   UNL     1       3.203  -1.983  -0.952  1.00  0.00     0.156 C 
BRANCH   9  22
ATOM     22  C   UNL     1      -0.561  -2.717  -2.596  1.00  0.00     0.056 A 
ATOM     23  C   UNL     1      -0.467  -0.310  -2.132  1.00  0.00     0.161 A 
ATOM     24  C   UNL     1      -0.388  -0.049  -3.498  1.00  0.00     0.050 A 
ATOM     25  C   UNL     1      -0.606  -1.632  -1.699  1.00  0.00     0.166 A 
ATOM     26  C   UNL     1      -0.406  -1.101  -4.415  1.00  0.00     0.005 A 
ATOM     27  C   UNL     1      -0.474  -2.423  -3.968  1.00  0.00     0.014 A 
BRANCH  23  28
ATOM     28  O   UNL     1      -0.541   0.773  -1.297  1.00  0.00    -0.493 OA
ATOM     29  C   UNL     1       0.545   0.864  -0.378  1.00  0.00     0.278 C 
ENDBRANCH  23  28
BRANCH  25  30
ATOM     30  O   UNL     1      -0.893  -1.901  -0.391  1.00  0.00    -0.504 OA
ATOM     31  H   UNL     1      -0.931  -1.203   0.233  1.00  0.00     0.293 HD
ENDBRANCH  25  30
ENDBRANCH   9  22
ENDBRANCH   5   8
ENDBRANCH   3   4
ENDBRANCH   2   3
ENDBRANCH   1   2
BRANCH   1  32
ATOM     32  C   UNL     1      -5.349  -8.668   0.789  1.00  0.00     0.116 C 
BRANCH  32  33
ATOM     33  N   UNL     1      -6.531  -7.900   1.151  1.00  0.00    -0.352 N 
ATOM     34  C   UNL     1      -7.756  -8.351   1.581  1.00  0.00     0.251 C 
ATOM     35  H   UNL     1      -6.441  -6.922   1.078  1.00  0.00     0.163 HD
ATOM     36  O   UNL     1      -8.694  -7.568   1.699  1.00  0.00    -0.269 OA
BRANCH  34  37
ATOM     37  C   UNL     1      -7.943  -9.789   1.867  1.00  0.00     0.039 A 
ATOM     38  C   UNL     1      -9.060 -10.443   1.343  1.00  0.00     0.014 A 
ATOM     39  C   UNL     1      -7.001 -10.495   2.620  1.00  0.00     0.014 A 
ATOM     40  C   UNL     1      -9.194 -11.822   1.516  1.00  0.00     0.010 A 
ATOM     41  C   UNL     1      -7.093 -11.880   2.716  1.00  0.00     0.010 A 
ATOM     42  C   UNL     1      -8.191 -12.560   2.168  1.00  0.00    -0.014 A 
BRANCH  42  43
ATOM     43  C   UNL     1      -8.274 -14.039   2.283  1.00  0.00     0.031 A 
ATOM     44  C   UNL     1      -8.351 -14.691   3.637  1.00  0.00     0.074 A 
ATOM     45  C   UNL     1      -8.221 -14.799   1.170  1.00  0.00     0.049 A 
ATOM     46  N   UNL     1      -8.383 -15.963   3.941  1.00  0.00    -0.248 NA
ATOM     47  C   UNL     1      -8.366 -13.796   4.806  1.00  0.00     0.031 C 
ATOM     48  C   UNL     1      -8.091 -14.290  -0.198  1.00  0.00     0.029 A 
ATOM     49  N   UNL     1      -8.261 -16.162   1.011  1.00  0.00    -0.354 N 
ATOM     50  C   UNL     1      -8.409 -16.021   5.330  1.00  0.00     0.074 A 
ATOM     51  C   UNL     1      -8.328 -14.659   5.810  1.00  0.00     0.031 C 
ATOM     52  C   UNL     1      -8.094 -15.322  -1.055  1.00  0.00     0.029 A 
ATOM     53  C   UNL     1      -8.181 -16.569  -0.301  1.00  0.00     0.049 A 
ATOM     54  H   UNL     1      -8.339 -16.790   1.765  1.00  0.00     0.167 HD
ATOM     55  C   UNL     1      -8.518 -17.107   6.132  1.00  0.00     0.037 A 
ATOM     56  C   UNL     1      -8.175 -17.806  -0.836  1.00  0.00     0.037 A 
ATOM     57  C   UNL     1      -8.619 -18.459   5.645  1.00  0.00     0.049 A 
ATOM     58  C   UNL     1      -8.289 -18.999   0.074  1.00  0.00     0.074 A 
ATOM     59  C   UNL     1      -8.793 -19.623   6.372  1.00  0.00     0.029 A 
ATOM     60  N   UNL     1      -8.547 -18.829   4.310  1.00  0.00    -0.354 N 
ATOM     61  N   UNL     1      -8.387 -19.031   1.382  1.00  0.00    -0.248 NA
ATOM     62  C   UNL     1      -8.297 -20.323  -0.562  1.00  0.00     0.031 C 
ATOM     63  C   UNL     1      -8.773 -20.702   5.482  1.00  0.00     0.029 A 
ATOM     64  C   UNL     1      -8.647 -20.206   4.194  1.00  0.00     0.049 A 
ATOM     65  H   UNL     1      -8.441 -18.205   3.555  1.00  0.00     0.167 HD
ATOM     66  C   UNL     1      -8.499 -20.375   1.723  1.00  0.00     0.074 A 
ATOM     67  C   UNL     1      -8.468 -21.122   0.482  1.00  0.00     0.031 C 
ATOM     68  C   UNL     1      -8.620 -20.938   2.951  1.00  0.00     0.037 A 
BRANCH  55  69
ATOM     69  C   UNL     1      -8.532 -16.877   7.620  1.00  0.00     0.058 A 
ATOM     70  C   UNL     1      -9.609 -16.242   8.260  1.00  0.00     0.135 A 
ATOM     71  C   UNL     1      -7.468 -17.321   8.421  1.00  0.00     0.135 A 
ATOM     72  F   UNL     1     -10.648 -15.784   7.543  1.00  0.00    -0.206 F 
ATOM     73  C   UNL     1      -9.613 -16.022   9.633  1.00  0.00     0.059 A 
ATOM     74  C   UNL     1      -7.466 -17.141   9.802  1.00  0.00     0.059 A 
ATOM     75  F   UNL     1      -6.412 -17.936   7.864  1.00  0.00    -0.206 F 
ATOM     76  C   UNL     1      -8.536 -16.474  10.396  1.00  0.00     0.060 A 
BRANCH  76  77
ATOM     77  S   UNL     1      -8.556 -16.177  12.176  1.00  0.00     0.124 S 
ATOM     78  O   UNL     1      -8.320 -14.737  12.233  1.00  0.00    -0.237 OA
ATOM     79  O   UNL     1      -9.898 -16.614  12.550  1.00  0.00    -0.237 OA
ATOM     80  O   UNL     1      -7.467 -17.010  12.674  1.00  0.00    -0.744 OA
ENDBRANCH  76  77
ENDBRANCH  55  69
BRANCH  56  81
ATOM     81  C   UNL     1      -8.083 -17.976  -2.312  1.00  0.00     0.058 A 
ATOM     82  C   UNL     1      -9.178 -18.442  -3.055  1.00  0.00     0.135 A 
ATOM     83  C   UNL     1      -6.908 -17.659  -3.012  1.00  0.00     0.135 A 
ATOM     84  F   UNL     1     -10.322 -18.765  -2.431  1.00  0.00    -0.206 F 
ATOM     85  C   UNL     1      -9.109 -18.602  -4.435  1.00  0.00     0.059 A 
ATOM     86  C   UNL     1      -6.823 -17.785  -4.395  1.00  0.00     0.059 A 
ATOM     87  F   UNL     1      -5.836 -17.194  -2.352  1.00  0.00    -0.206 F 
ATOM     88  C   UNL     1      -7.928 -18.266  -5.097  1.00  0.00     0.060 A 
BRANCH  88  89
ATOM     89  S   UNL     1      -7.868 -18.427  -6.895  1.00  0.00     0.124 S 
ATOM     90  O   UNL     1      -7.842 -19.876  -7.060  1.00  0.00    -0.237 OA
ATOM     91  O   UNL     1      -9.101 -17.759  -7.302  1.00  0.00    -0.237 OA
ATOM     92  O   UNL     1      -6.638 -17.728  -7.254  1.00  0.00    -0.744 OA
ENDBRANCH  88  89
ENDBRANCH  56  81
BRANCH  68  93
ATOM     93  C   UNL     1      -8.764 -22.435   3.018  1.00  0.00     0.058 A 
ATOM     94  C   UNL     1      -7.692 -23.297   2.741  1.00  0.00     0.135 A 
ATOM     95  C   UNL     1      -9.981 -23.012   3.420  1.00  0.00     0.135 A 
ATOM     96  F   UNL     1      -6.509 -22.799   2.347  1.00  0.00    -0.206 F 
ATOM     97  C   UNL     1      -7.826 -24.678   2.837  1.00  0.00     0.059 A 
ATOM     98  C   UNL     1     -10.129 -24.389   3.552  1.00  0.00     0.059 A 
ATOM     99  F   UNL     1     -11.036 -22.233   3.707  1.00  0.00    -0.206 F 
ATOM    100  C   UNL     1      -9.049 -25.215   3.247  1.00  0.00     0.060 A 
BRANCH 100 101
ATOM    101  S   UNL     1      -9.198 -27.007   3.401  1.00  0.00     0.124 S 
ATOM    102  O   UNL     1      -9.221 -27.422   2.002  1.00  0.00    -0.237 OA
ATOM    103  O   UNL     1      -7.994 -27.357   4.147  1.00  0.00    -0.237 OA
ATOM    104  O   UNL     1     -10.452 -27.183   4.128  1.00  0.00    -0.744 OA
ENDBRANCH 100 101
ENDBRANCH  68  93
ENDBRANCH  42  43
ENDBRANCH  34  37
ENDBRANCH  32  33
ENDBRANCH   1  32
TORSDOF 17
