REMARK SMILES Cc1nc(-c2ccc(S(=O)(=O)N3CC[NH2+][C@H](C(=O)NCCCCNC(=O)c4ccc(-c5c6nc(c(-c7c(F)cc(S(=O)(=O)[O-])cc7F)c7ccc([nH]7)c(-c7c(F)cc(S(=O)(=O)[O-])cc7F)c7nc(c(-c8c(F)cc(S(=O)(=O)[O-])cc8F)c8ccc5[nH]8)C=C7)C=C6)cc4)C3)s2)cs1
REMARK SMILES IDX 21 1 20 2 19 3 17 4 18 5 16 7 12 8 13 9 93 10 14 11 15 12
REMARK SMILES IDX 9 15 10 16 11 17 8 18 5 19 6 20 94 21 7 22 4 23 1 24 2 25
REMARK SMILES IDX 3 26 96 27 95 28 22 29 23 30 24 31 25 32 26 34 27 35 28 36
REMARK SMILES IDX 92 37 29 38 91 39 30 40 31 41 32 42 85 43 33 44 90 45 84 46
REMARK SMILES IDX 86 47 34 48 89 49 83 50 82 51 35 53 69 54 48 55 68 56 49 57
REMARK SMILES IDX 52 58 67 59 87 60 50 61 51 62 66 64 88 65 53 66 36 67 37 68
REMARK SMILES IDX 46 69 38 70 39 71 45 72 47 73 40 74 41 75 42 76 43 77 44 78
REMARK SMILES IDX 70 79 71 80 80 81 72 82 73 83 79 84 81 85 74 86 75 87 76 88
REMARK SMILES IDX 77 89 78 90 54 91 55 92 64 93 56 94 57 95 63 96 65 97 58 98
REMARK SMILES IDX 59 99 60 100 61 101 62 102
REMARK H PARENT 19 6 15 13 15 14 24 33 86 52 52 63
REMARK Flexibility Score: inf
ROOT
ATOM      1  C   UNL     1       8.205  -6.166  -3.345  1.00  0.00     0.023 C 
ENDROOT
BRANCH   1   2
ATOM      2  C   UNL     1       7.427  -4.850  -3.238  1.00  0.00     0.116 C 
BRANCH   2   3
ATOM      3  N   UNL     1       6.210  -4.954  -4.012  1.00  0.00    -0.351 N 
ATOM      4  C   UNL     1       5.079  -5.668  -3.767  1.00  0.00     0.279 C 
ATOM      5  O   UNL     1       4.423  -5.990  -4.766  1.00  0.00    -0.268 OA
ATOM      6  H   UNL     1       6.198  -4.426  -4.843  1.00  0.00     0.163 HD
BRANCH   4   7
ATOM      7  C   UNL     1       4.535  -5.937  -2.334  1.00  0.00     0.287 C 
ATOM      8  N   UNL     1       4.755  -6.551   0.041  1.00  0.00    -0.185 NA
ATOM      9  C   UNL     1       3.712  -7.589  -0.001  1.00  0.00     0.164 C 
ATOM     10  C   UNL     1       5.478  -6.461  -1.255  1.00  0.00     0.178 C 
ATOM     11  C   UNL     1       2.802  -7.442  -1.233  1.00  0.00     0.278 C 
ATOM     12  N   UNL     1       3.328  -6.822  -2.458  1.00  0.00    -0.334 N 
ATOM     13  H   UNL     1       2.579  -6.258  -2.860  1.00  0.00     0.347 HD
ATOM     14  H   UNL     1       3.643  -7.607  -3.028  1.00  0.00     0.347 HD
BRANCH   8  15
ATOM     15  S   UNL     1       4.555  -5.159   0.990  1.00  0.00     0.253 S 
ATOM     16  O   UNL     1       5.790  -4.404   0.883  1.00  0.00    -0.206 OA
ATOM     17  O   UNL     1       4.043  -5.589   2.272  1.00  0.00    -0.206 OA
BRANCH  15  18
ATOM     18  C   UNL     1       3.292  -4.040   0.380  1.00  0.00     0.135 A 
ATOM     19  C   UNL     1       1.836  -2.032   0.278  1.00  0.00     0.055 A 
ATOM     20  C   UNL     1       1.452  -2.998  -0.618  1.00  0.00     0.023 A 
ATOM     21  S   UNL     1       3.243  -2.477   1.129  1.00  0.00    -0.121 S 
ATOM     22  C   UNL     1       2.296  -4.128  -0.572  1.00  0.00     0.034 A 
BRANCH  19  23
ATOM     23  C   UNL     1       1.014  -0.796   0.430  1.00  0.00     0.091 A 
ATOM     24  C   UNL     1      -2.345   0.550   0.028  1.00  0.00     0.079 C 
ATOM     25  C   UNL     1      -0.898   0.311   0.272  1.00  0.00     0.090 A 
ATOM     26  N   UNL     1      -0.302  -0.825  -0.003  1.00  0.00    -0.241 NA
ATOM     27  S   UNL     1       0.117   1.521   0.946  1.00  0.00    -0.127 S 
ATOM     28  C   UNL     1       1.427   0.403   0.968  1.00  0.00     0.096 A 
ENDBRANCH  19  23
ENDBRANCH  15  18
ENDBRANCH   8  15
ENDBRANCH   4   7
ENDBRANCH   2   3
ENDBRANCH   1   2
BRANCH   1  29
ATOM     29  C   UNL     1       8.883  -6.359  -4.709  1.00  0.00     0.023 C 
BRANCH  29  30
ATOM     30  C   UNL     1       9.993  -5.356  -5.000  1.00  0.00     0.116 C 
BRANCH  30  31
ATOM     31  N   UNL     1      11.050  -5.389  -4.002  1.00  0.00    -0.352 N 
ATOM     32  C   UNL     1      12.371  -5.051  -4.153  1.00  0.00     0.251 C 
ATOM     33  H   UNL     1      10.784  -5.692  -3.104  1.00  0.00     0.163 HD
ATOM     34  O   UNL     1      13.169  -5.259  -3.245  1.00  0.00    -0.269 OA
BRANCH  32  35
ATOM     35  C   UNL     1      12.822  -4.480  -5.436  1.00  0.00     0.039 A 
ATOM     36  C   UNL     1      13.933  -5.045  -6.064  1.00  0.00     0.014 A 
ATOM     37  C   UNL     1      12.132  -3.419  -6.030  1.00  0.00     0.014 A 
ATOM     38  C   UNL     1      14.322  -4.576  -7.318  1.00  0.00     0.010 A 
ATOM     39  C   UNL     1      12.479  -3.002  -7.310  1.00  0.00     0.010 A 
ATOM     40  C   UNL     1      13.581  -3.572  -7.964  1.00  0.00    -0.014 A 
BRANCH  40  41
ATOM     41  C   UNL     1      13.954  -3.115  -9.324  1.00  0.00     0.031 A 
ATOM     42  C   UNL     1      14.431  -1.706  -9.546  1.00  0.00     0.074 A 
ATOM     43  C   UNL     1      13.823  -3.962 -10.364  1.00  0.00     0.049 A 
ATOM     44  N   UNL     1      14.807  -1.130 -10.658  1.00  0.00    -0.248 NA
ATOM     45  C   UNL     1      14.463  -0.821  -8.371  1.00  0.00     0.031 C 
ATOM     46  C   UNL     1      13.302  -5.329 -10.280  1.00  0.00     0.029 A 
ATOM     47  N   UNL     1      14.116  -3.800 -11.693  1.00  0.00    -0.354 N 
ATOM     48  C   UNL     1      15.111   0.184 -10.319  1.00  0.00     0.074 A 
ATOM     49  C   UNL     1      14.819   0.335  -8.911  1.00  0.00     0.031 C 
ATOM     50  C   UNL     1      13.345  -5.891 -11.499  1.00  0.00     0.029 A 
ATOM     51  C   UNL     1      13.872  -4.920 -12.452  1.00  0.00     0.049 A 
ATOM     52  H   UNL     1      14.468  -2.961 -12.069  1.00  0.00     0.167 HD
ATOM     53  C   UNL     1      15.615   1.165 -11.105  1.00  0.00     0.037 A 
ATOM     54  C   UNL     1      14.065  -5.142 -13.767  1.00  0.00     0.037 A 
ATOM     55  C   UNL     1      15.928   0.997 -12.500  1.00  0.00     0.049 A 
ATOM     56  C   UNL     1      14.669  -4.052 -14.609  1.00  0.00     0.074 A 
ATOM     57  C   UNL     1      16.492   1.910 -13.374  1.00  0.00     0.029 A 
ATOM     58  N   UNL     1      15.710  -0.167 -13.224  1.00  0.00    -0.354 N 
ATOM     59  N   UNL     1      15.017  -2.837 -14.257  1.00  0.00    -0.248 NA
ATOM     60  C   UNL     1      14.924  -4.369 -16.020  1.00  0.00     0.031 C 
ATOM     61  C   UNL     1      16.585   1.308 -14.634  1.00  0.00     0.029 A 
ATOM     62  C   UNL     1      16.120   0.007 -14.535  1.00  0.00     0.049 A 
ATOM     63  H   UNL     1      15.319  -0.994 -12.860  1.00  0.00     0.167 HD
ATOM     64  C   UNL     1      15.562  -2.254 -15.396  1.00  0.00     0.074 A 
ATOM     65  C   UNL     1      15.506  -3.255 -16.443  1.00  0.00     0.031 C 
ATOM     66  C   UNL     1      16.065  -1.005 -15.560  1.00  0.00     0.037 A 
BRANCH  53  67
ATOM     67  C   UNL     1      15.868   2.503 -10.467  1.00  0.00     0.058 A 
ATOM     68  C   UNL     1      16.902   2.688  -9.533  1.00  0.00     0.135 A 
ATOM     69  C   UNL     1      15.087   3.619 -10.806  1.00  0.00     0.135 A 
ATOM     70  F   UNL     1      17.668   1.651  -9.159  1.00  0.00    -0.206 F 
ATOM     71  C   UNL     1      17.131   3.923  -8.935  1.00  0.00     0.059 A 
ATOM     72  C   UNL     1      15.317   4.871 -10.242  1.00  0.00     0.059 A 
ATOM     73  F   UNL     1      14.086   3.500 -11.692  1.00  0.00    -0.206 F 
ATOM     74  C   UNL     1      16.331   5.009  -9.294  1.00  0.00     0.060 A 
BRANCH  74  75
ATOM     75  S   UNL     1      16.641   6.605  -8.511  1.00  0.00     0.124 S 
ATOM     76  O   UNL     1      16.086   6.387  -7.178  1.00  0.00    -0.237 OA
ATOM     77  O   UNL     1      18.095   6.712  -8.582  1.00  0.00    -0.237 OA
ATOM     78  O   UNL     1      15.905   7.544  -9.351  1.00  0.00    -0.744 OA
ENDBRANCH  74  75
ENDBRANCH  53  67
BRANCH  54  79
ATOM     79  C   UNL     1      13.734  -6.468 -14.351  1.00  0.00     0.058 A 
ATOM     80  C   UNL     1      14.747  -7.356 -14.744  1.00  0.00     0.135 A 
ATOM     81  C   UNL     1      12.403  -6.883 -14.511  1.00  0.00     0.135 A 
ATOM     82  F   UNL     1      16.035  -7.004 -14.611  1.00  0.00    -0.206 F 
ATOM     83  C   UNL     1      14.454  -8.600 -15.293  1.00  0.00     0.059 A 
ATOM     84  C   UNL     1      12.085  -8.131 -15.036  1.00  0.00     0.059 A 
ATOM     85  F   UNL     1      11.398  -6.079 -14.131  1.00  0.00    -0.206 F 
ATOM     86  C   UNL     1      13.118  -8.979 -15.434  1.00  0.00     0.060 A 
BRANCH  86  87
ATOM     87  S   UNL     1      12.748 -10.615 -16.103  1.00  0.00     0.124 S 
ATOM     88  O   UNL     1      13.029 -10.424 -17.521  1.00  0.00    -0.237 OA
ATOM     89  O   UNL     1      13.685 -11.465 -15.375  1.00  0.00    -0.237 OA
ATOM     90  O   UNL     1      11.343 -10.807 -15.756  1.00  0.00    -0.744 OA
ENDBRANCH  86  87
ENDBRANCH  54  79
BRANCH  66  91
ATOM     91  C   UNL     1      16.636  -0.668 -16.909  1.00  0.00     0.058 A 
ATOM     92  C   UNL     1      15.815  -0.458 -18.028  1.00  0.00     0.135 A 
ATOM     93  C   UNL     1      18.023  -0.529 -17.076  1.00  0.00     0.135 A 
ATOM     94  F   UNL     1      14.483  -0.583 -17.922  1.00  0.00    -0.206 F 
ATOM     95  C   UNL     1      16.353  -0.157 -19.275  1.00  0.00     0.059 A 
ATOM     96  C   UNL     1      18.580  -0.202 -18.307  1.00  0.00     0.059 A 
ATOM     97  F   UNL     1      18.851  -0.707 -16.034  1.00  0.00    -0.206 F 
ATOM     98  C   UNL     1      17.738  -0.035 -19.405  1.00  0.00     0.060 A 
BRANCH  98  99
ATOM     99  S   UNL     1      18.426   0.364 -21.026  1.00  0.00     0.124 S 
ATOM    100  O   UNL     1      18.326  -0.921 -21.710  1.00  0.00    -0.237 OA
ATOM    101  O   UNL     1      17.525   1.408 -21.503  1.00  0.00    -0.237 OA
ATOM    102  O   UNL     1      19.782   0.808 -20.718  1.00  0.00    -0.744 OA
ENDBRANCH  98  99
ENDBRANCH  66  91
ENDBRANCH  40  41
ENDBRANCH  32  35
ENDBRANCH  30  31
ENDBRANCH  29  30
ENDBRANCH   1  29
TORSDOF 17
