REMARK SMILES Cc1ccc(-c2cc(C(=O)NCCCCNC(=O)c3ccc(-c4c5nc(c(-c6c(F)cc(S(=O)(=O)[O-])cc6F)c6ccc([nH]6)c(-c6c(F)cc(S(=O)(=O)[O-])cc6F)c6nc(c(-c7c(F)cc(S(=O)(=O)[O-])cc7F)c7ccc4[nH]7)C=C6)C=C5)cc3)c3cc(C)ccc3n2)c(C)c1
REMARK SMILES IDX 14 1 13 2 12 3 11 4 9 5 10 6 8 8 6 9 7 10 92 11 91 12 85 13
REMARK SMILES IDX 90 14 86 15 89 16 87 17 88 18 5 19 1 20 2 21 3 22 95 23 4 24
REMARK SMILES IDX 93 25 94 26 15 27 16 28 17 29 18 31 19 32 20 33 84 34 21 35
REMARK SMILES IDX 83 36 22 37 23 38 24 39 77 40 25 41 82 42 76 43 78 44 26 45
REMARK SMILES IDX 81 46 75 47 74 48 27 50 61 51 40 52 60 53 41 54 44 55 59 56
REMARK SMILES IDX 79 57 42 58 43 59 58 61 80 62 45 63 28 64 29 65 38 66 30 67
REMARK SMILES IDX 31 68 37 69 39 70 32 71 33 72 34 73 35 74 36 75 62 76 63 77
REMARK SMILES IDX 72 78 64 79 65 80 71 81 73 82 66 83 67 84 68 85 69 86 70 87
REMARK SMILES IDX 46 88 47 89 56 90 48 91 49 92 55 93 57 94 50 95 51 96 52 97
REMARK SMILES IDX 53 98 54 99
REMARK H PARENT 11 7 16 30 78 49 44 60
REMARK Flexibility Score: inf
ROOT
ATOM      1  C   UNL     1      -7.048  -7.840   1.555  1.00  0.00     0.023 C 
ENDROOT
BRANCH   1   2
ATOM      2  C   UNL     1      -6.193  -7.160   0.488  1.00  0.00     0.023 C 
BRANCH   2   3
ATOM      3  C   UNL     1      -5.977  -5.662   0.631  1.00  0.00     0.116 C 
BRANCH   3   4
ATOM      4  N   UNL     1      -5.301  -5.197   1.829  1.00  0.00    -0.352 N 
ATOM      5  C   UNL     1      -4.601  -4.024   2.059  1.00  0.00     0.252 C 
ATOM      6  O   UNL     1      -4.172  -3.812   3.194  1.00  0.00    -0.269 OA
ATOM      7  H   UNL     1      -5.346  -5.811   2.598  1.00  0.00     0.163 HD
BRANCH   5   8
ATOM      8  C   UNL     1      -4.245  -3.058   0.974  1.00  0.00     0.051 A 
ATOM      9  C   UNL     1      -2.490  -1.789  -0.051  1.00  0.00     0.072 A 
ATOM     10  C   UNL     1      -2.932  -2.570   1.004  1.00  0.00     0.043 A 
ATOM     11  N   UNL     1      -3.238  -1.598  -1.163  1.00  0.00    -0.248 NA
ATOM     12  C   UNL     1      -4.505  -2.037  -1.177  1.00  0.00     0.072 A 
ATOM     13  C   UNL     1      -5.105  -2.658  -0.071  1.00  0.00     0.013 A 
ATOM     14  C   UNL     1      -5.250  -1.885  -2.339  1.00  0.00     0.029 A 
ATOM     15  C   UNL     1      -6.502  -2.859  -0.095  1.00  0.00     0.014 A 
ATOM     16  C   UNL     1      -6.581  -2.304  -2.421  1.00  0.00     0.005 A 
ATOM     17  C   UNL     1      -7.229  -2.772  -1.284  1.00  0.00    -0.050 A 
ATOM     18  C   UNL     1      -8.620  -3.330  -1.351  1.00  0.00     0.044 C 
BRANCH   9  19
ATOM     19  C   UNL     1      -1.214  -1.057  -0.019  1.00  0.00     0.003 A 
ATOM     20  C   UNL     1       2.578   1.053   0.014  1.00  0.00     0.044 C 
ATOM     21  C   UNL     1       1.276   0.309   0.009  1.00  0.00    -0.051 A 
ATOM     22  C   UNL     1       1.234  -1.086  -0.013  1.00  0.00     0.004 A 
ATOM     23  C   UNL     1       0.072   1.020   0.022  1.00  0.00     0.007 A 
ATOM     24  C   UNL     1       0.006  -1.759  -0.027  1.00  0.00     0.011 A 
ATOM     25  C   UNL     1      -1.170   0.357   0.020  1.00  0.00    -0.041 A 
ATOM     26  C   UNL     1      -2.410   1.215   0.025  1.00  0.00     0.045 C 
ENDBRANCH   9  19
ENDBRANCH   5   8
ENDBRANCH   3   4
ENDBRANCH   2   3
ENDBRANCH   1   2
BRANCH   1  27
ATOM     27  C   UNL     1      -8.314  -7.123   2.015  1.00  0.00     0.116 C 
BRANCH  27  28
ATOM     28  N   UNL     1      -9.287  -6.865   0.962  1.00  0.00    -0.352 N 
ATOM     29  C   UNL     1     -10.611  -7.228   0.859  1.00  0.00     0.251 C 
ATOM     30  H   UNL     1      -8.941  -6.347   0.200  1.00  0.00     0.163 HD
ATOM     31  O   UNL     1     -11.238  -6.922  -0.154  1.00  0.00    -0.269 OA
BRANCH  29  32
ATOM     32  C   UNL     1     -11.273  -8.017   1.926  1.00  0.00     0.039 A 
ATOM     33  C   UNL     1     -12.100  -9.084   1.561  1.00  0.00     0.014 A 
ATOM     34  C   UNL     1     -11.085  -7.724   3.277  1.00  0.00     0.014 A 
ATOM     35  C   UNL     1     -12.664  -9.901   2.548  1.00  0.00     0.010 A 
ATOM     36  C   UNL     1     -11.559  -8.598   4.254  1.00  0.00     0.010 A 
ATOM     37  C   UNL     1     -12.365  -9.691   3.904  1.00  0.00    -0.014 A 
BRANCH  37  38
ATOM     38  C   UNL     1     -12.911 -10.583   4.964  1.00  0.00     0.031 A 
ATOM     39  C   UNL     1     -13.818 -10.024   6.031  1.00  0.00     0.074 A 
ATOM     40  C   UNL     1     -12.563 -11.886   4.997  1.00  0.00     0.049 A 
ATOM     41  N   UNL     1     -14.383 -10.634   7.043  1.00  0.00    -0.248 NA
ATOM     42  C   UNL     1     -14.103  -8.581   5.972  1.00  0.00     0.031 C 
ATOM     43  C   UNL     1     -11.649 -12.543   4.060  1.00  0.00     0.029 A 
ATOM     44  N   UNL     1     -12.940 -12.894   5.850  1.00  0.00    -0.354 N 
ATOM     45  C   UNL     1     -15.078  -9.651   7.739  1.00  0.00     0.074 A 
ATOM     46  C   UNL     1     -14.798  -8.394   7.082  1.00  0.00     0.031 C 
ATOM     47  C   UNL     1     -11.576 -13.850   4.359  1.00  0.00     0.029 A 
ATOM     48  C   UNL     1     -12.409 -14.121   5.526  1.00  0.00     0.049 A 
ATOM     49  H   UNL     1     -13.536 -12.752   6.621  1.00  0.00     0.167 HD
ATOM     50  C   UNL     1     -15.905  -9.782   8.805  1.00  0.00     0.037 A 
ATOM     51  C   UNL     1     -12.587 -15.330   6.095  1.00  0.00     0.037 A 
ATOM     52  C   UNL     1     -16.198 -11.037   9.446  1.00  0.00     0.049 A 
ATOM     53  C   UNL     1     -13.512 -15.456   7.276  1.00  0.00     0.074 A 
ATOM     54  C   UNL     1     -17.046 -11.287  10.511  1.00  0.00     0.029 A 
ATOM     55  N   UNL     1     -15.652 -12.259   9.077  1.00  0.00    -0.354 N 
ATOM     56  N   UNL     1     -14.204 -14.523   7.888  1.00  0.00    -0.248 NA
ATOM     57  C   UNL     1     -13.693 -16.803   7.834  1.00  0.00     0.031 C 
ATOM     58  C   UNL     1     -16.985 -12.653  10.809  1.00  0.00     0.029 A 
ATOM     59  C   UNL     1     -16.139 -13.264   9.897  1.00  0.00     0.049 A 
ATOM     60  H   UNL     1     -15.012 -12.392   8.341  1.00  0.00     0.167 HD
ATOM     61  C   UNL     1     -14.935 -15.178   8.874  1.00  0.00     0.074 A 
ATOM     62  C   UNL     1     -14.602 -16.584   8.774  1.00  0.00     0.031 C 
ATOM     63  C   UNL     1     -15.808 -14.662   9.776  1.00  0.00     0.037 A 
BRANCH  50  64
ATOM     64  C   UNL     1     -16.554  -8.528   9.329  1.00  0.00     0.058 A 
ATOM     65  C   UNL     1     -17.514  -7.827   8.577  1.00  0.00     0.135 A 
ATOM     66  C   UNL     1     -16.207  -8.009  10.586  1.00  0.00     0.135 A 
ATOM     67  F   UNL     1     -17.874  -8.269   7.361  1.00  0.00    -0.206 F 
ATOM     68  C   UNL     1     -18.063  -6.632   9.027  1.00  0.00     0.059 A 
ATOM     69  C   UNL     1     -16.770  -6.831  11.072  1.00  0.00     0.059 A 
ATOM     70  F   UNL     1     -15.301  -8.637  11.351  1.00  0.00    -0.206 F 
ATOM     71  C   UNL     1     -17.678  -6.137  10.273  1.00  0.00     0.060 A 
BRANCH  71  72
ATOM     72  S   UNL     1     -18.373  -4.566  10.829  1.00  0.00     0.124 S 
ATOM     73  O   UNL     1     -17.645  -3.616   9.993  1.00  0.00    -0.237 OA
ATOM     74  O   UNL     1     -19.791  -4.723  10.519  1.00  0.00    -0.237 OA
ATOM     75  O   UNL     1     -18.045  -4.533  12.250  1.00  0.00    -0.744 OA
ENDBRANCH  71  72
ENDBRANCH  50  64
BRANCH  51  76
ATOM     76  C   UNL     1     -11.931 -16.532   5.512  1.00  0.00     0.058 A 
ATOM     77  C   UNL     1     -12.686 -17.503   4.837  1.00  0.00     0.135 A 
ATOM     78  C   UNL     1     -10.545 -16.731   5.603  1.00  0.00     0.135 A 
ATOM     79  F   UNL     1     -14.016 -17.361   4.729  1.00  0.00    -0.206 F 
ATOM     80  C   UNL     1     -12.096 -18.636   4.288  1.00  0.00     0.059 A 
ATOM     81  C   UNL     1      -9.928 -17.844   5.040  1.00  0.00     0.059 A 
ATOM     82  F   UNL     1      -9.774 -15.824   6.224  1.00  0.00    -0.206 F 
ATOM     83  C   UNL     1     -10.714 -18.797   4.391  1.00  0.00     0.060 A 
BRANCH  83  84
ATOM     84  S   UNL     1      -9.952 -20.245   3.627  1.00  0.00     0.124 S 
ATOM     85  O   UNL     1     -10.376 -21.311   4.529  1.00  0.00    -0.237 OA
ATOM     86  O   UNL     1     -10.563 -20.249   2.302  1.00  0.00    -0.237 OA
ATOM     87  O   UNL     1      -8.528 -19.927   3.651  1.00  0.00    -0.744 OA
ENDBRANCH  83  84
ENDBRANCH  51  76
BRANCH  63  88
ATOM     88  C   UNL     1     -16.513 -15.632  10.685  1.00  0.00     0.058 A 
ATOM     89  C   UNL     1     -15.846 -16.302  11.722  1.00  0.00     0.135 A 
ATOM     90  C   UNL     1     -17.887 -15.877  10.525  1.00  0.00     0.135 A 
ATOM     91  F   UNL     1     -14.532 -16.107  11.918  1.00  0.00    -0.206 F 
ATOM     92  C   UNL     1     -16.506 -17.212  12.543  1.00  0.00     0.059 A 
ATOM     93  C   UNL     1     -18.574 -16.758  11.353  1.00  0.00     0.059 A 
ATOM     94  F   UNL     1     -18.578 -15.252   9.558  1.00  0.00    -0.206 F 
ATOM     95  C   UNL     1     -17.870 -17.436  12.347  1.00  0.00     0.060 A 
BRANCH  95  96
ATOM     96  S   UNL     1     -18.718 -18.616  13.418  1.00  0.00     0.124 S 
ATOM     97  O   UNL     1     -18.249 -19.889  12.881  1.00  0.00    -0.237 OA
ATOM     98  O   UNL     1     -18.212 -18.260  14.740  1.00  0.00    -0.237 OA
ATOM     99  O   UNL     1     -20.131 -18.323  13.195  1.00  0.00    -0.744 OA
ENDBRANCH  95  96
ENDBRANCH  63  88
ENDBRANCH  37  38
ENDBRANCH  29  32
ENDBRANCH  27  28
ENDBRANCH   1  27
TORSDOF 15
