REMARK SMILES CCOCCS(=O)(=O)NCC(=O)NCCCCNC(=O)c1ccc(-c2c3nc(c(-c4c(F)cc(S(=O)(=O)[O-])cc4F)c4ccc([nH]4)c(-c4c(F)cc(S(=O)(=O)[O-])cc4F)c4nc(c(-c5c(F)cc(S(=O)(=O)[O-])cc5F)c5ccc2[nH]5)C=C4)C=C3)cc1
REMARK SMILES IDX 14 1 13 2 11 3 12 4 10 6 9 7 6 9 7 10 8 11 5 12 4 13 3 14
REMARK SMILES IDX 2 15 1 16 15 17 16 18 17 19 18 20 19 21 20 23 21 24 22 25
REMARK SMILES IDX 86 26 23 27 85 28 24 29 25 30 26 31 79 32 27 33 84 34 78 35
REMARK SMILES IDX 80 36 28 37 83 38 77 39 76 40 29 42 63 43 42 44 62 45 43 46
REMARK SMILES IDX 46 47 61 48 81 49 44 50 45 51 60 53 82 54 47 55 30 56 31 57
REMARK SMILES IDX 40 58 32 59 33 60 39 61 41 62 34 63 35 64 36 65 37 66 38 67
REMARK SMILES IDX 64 68 65 69 74 70 66 71 67 72 73 73 75 74 68 75 69 76 70 77
REMARK SMILES IDX 71 78 72 79 48 80 49 81 58 82 50 83 51 84 57 85 59 86 52 87
REMARK SMILES IDX 53 88 54 89 55 90 56 91
REMARK H PARENT 13 5 9 8 18 22 80 41 46 52
REMARK Flexibility Score: inf
ROOT
ATOM      1  C   UNL     1       2.843   0.926   0.365  1.00  0.00     0.116 C 
ENDROOT
BRANCH   1   2
ATOM      2  N   UNL     1       1.733   1.332   1.169  1.00  0.00    -0.355 N 
ATOM      3  C   UNL     1       0.477   1.673   0.806  1.00  0.00     0.235 C 
ATOM      4  O   UNL     1      -0.283   1.929   1.754  1.00  0.00    -0.274 OA
ATOM      5  H   UNL     1       1.911   1.368   2.136  1.00  0.00     0.163 HD
BRANCH   3   6
ATOM      6  C   UNL     1      -0.123   1.608  -0.576  1.00  0.00     0.198 C 
BRANCH   6   7
ATOM      7  N   UNL     1       0.229   1.663  -2.001  1.00  0.00    -0.206 NA
ATOM      8  H   UNL     1       0.189   0.690  -2.303  1.00  0.00     0.141 HD
BRANCH   7   9
ATOM      9  S   UNL     1       1.571   2.257  -2.745  1.00  0.00     0.214 S 
ATOM     10  O   UNL     1       2.463   2.828  -1.767  1.00  0.00    -0.212 OA
ATOM     11  O   UNL     1       1.034   3.103  -3.788  1.00  0.00    -0.212 OA
BRANCH   9  12
ATOM     12  C   UNL     1       2.341   0.869  -3.593  1.00  0.00     0.182 C 
BRANCH  12  13
ATOM     13  C   UNL     1       2.482  -0.489  -2.922  1.00  0.00     0.177 C 
BRANCH  13  14
ATOM     14  O   UNL     1       1.469  -1.435  -3.264  1.00  0.00    -0.381 OA
BRANCH  14  15
ATOM     15  C   UNL     1       0.368  -1.578  -2.374  1.00  0.00     0.156 C 
ATOM     16  C   UNL     1       0.738  -2.003  -0.961  1.00  0.00     0.035 C 
ENDBRANCH  14  15
ENDBRANCH  13  14
ENDBRANCH  12  13
ENDBRANCH   9  12
ENDBRANCH   7   9
ENDBRANCH   6   7
ENDBRANCH   3   6
ENDBRANCH   1   2
BRANCH   1  17
ATOM     17  C   UNL     1       4.003   1.914   0.405  1.00  0.00     0.023 C 
BRANCH  17  18
ATOM     18  C   UNL     1       5.018   1.605   1.489  1.00  0.00     0.023 C 
BRANCH  18  19
ATOM     19  C   UNL     1       5.752   0.290   1.267  1.00  0.00     0.116 C 
BRANCH  19  20
ATOM     20  N   UNL     1       6.616   0.300   0.091  1.00  0.00    -0.352 N 
ATOM     21  C   UNL     1       7.977   0.100   0.026  1.00  0.00     0.251 C 
ATOM     22  H   UNL     1       6.168   0.473  -0.768  1.00  0.00     0.163 HD
ATOM     23  O   UNL     1       8.586   0.259  -1.026  1.00  0.00    -0.269 OA
BRANCH  21  24
ATOM     24  C   UNL     1       8.688  -0.268   1.266  1.00  0.00     0.039 A 
ATOM     25  C   UNL     1       9.772   0.502   1.684  1.00  0.00     0.014 A 
ATOM     26  C   UNL     1       8.184  -1.291   2.072  1.00  0.00     0.014 A 
ATOM     27  C   UNL     1      10.295   0.301   2.962  1.00  0.00     0.010 A 
ATOM     28  C   UNL     1       8.620  -1.397   3.384  1.00  0.00     0.010 A 
ATOM     29  C   UNL     1       9.689  -0.612   3.842  1.00  0.00    -0.014 A 
BRANCH  29  30
ATOM     30  C   UNL     1      10.170  -0.780   5.238  1.00  0.00     0.031 A 
ATOM     31  C   UNL     1      10.652  -2.131   5.700  1.00  0.00     0.074 A 
ATOM     32  C   UNL     1      10.124   0.257   6.099  1.00  0.00     0.049 A 
ATOM     33  N   UNL     1      11.061  -2.500   6.886  1.00  0.00    -0.248 NA
ATOM     34  C   UNL     1      10.637  -3.220   4.709  1.00  0.00     0.031 C 
ATOM     35  C   UNL     1       9.615   1.597   5.790  1.00  0.00     0.029 A 
ATOM     36  N   UNL     1      10.509   0.349   7.413  1.00  0.00    -0.354 N 
ATOM     37  C   UNL     1      11.343  -3.857   6.781  1.00  0.00     0.074 A 
ATOM     38  C   UNL     1      10.976  -4.266   5.445  1.00  0.00     0.031 C 
ATOM     39  C   UNL     1       9.757   2.384   6.869  1.00  0.00     0.029 A 
ATOM     40  C   UNL     1      10.326   1.599   7.960  1.00  0.00     0.049 A 
ATOM     41  H   UNL     1      10.882  -0.409   7.918  1.00  0.00     0.167 HD
ATOM     42  C   UNL     1      11.899  -4.682   7.699  1.00  0.00     0.037 A 
ATOM     43  C   UNL     1      10.586   2.058   9.200  1.00  0.00     0.037 A 
ATOM     44  C   UNL     1      12.288  -4.262   9.018  1.00  0.00     0.049 A 
ATOM     45  C   UNL     1      11.197   1.119  10.208  1.00  0.00     0.074 A 
ATOM     46  C   UNL     1      12.900  -5.004  10.012  1.00  0.00     0.029 A 
ATOM     47  N   UNL     1      12.106  -2.984   9.526  1.00  0.00    -0.354 N 
ATOM     48  N   UNL     1      11.521  -0.146  10.068  1.00  0.00    -0.248 NA
ATOM     49  C   UNL     1      11.488   1.670  11.538  1.00  0.00     0.031 C 
ATOM     50  C   UNL     1      13.044  -4.188  11.138  1.00  0.00     0.029 A 
ATOM     51  C   UNL     1      12.577  -2.921  10.827  1.00  0.00     0.049 A 
ATOM     52  H   UNL     1      11.702  -2.232   9.035  1.00  0.00     0.167 HD
ATOM     53  C   UNL     1      12.083  -0.531  11.281  1.00  0.00     0.074 A 
ATOM     54  C   UNL     1      12.069   0.639  12.135  1.00  0.00     0.031 C 
ATOM     55  C   UNL     1      12.566  -1.742  11.656  1.00  0.00     0.037 A 
BRANCH  42  56
ATOM     56  C   UNL     1      12.136  -6.112   7.296  1.00  0.00     0.058 A 
ATOM     57  C   UNL     1      13.090  -6.454   6.322  1.00  0.00     0.135 A 
ATOM     58  C   UNL     1      11.421  -7.157   7.903  1.00  0.00     0.135 A 
ATOM     59  F   UNL     1      13.789  -5.495   5.693  1.00  0.00    -0.206 F 
ATOM     60  C   UNL     1      13.304  -7.774   5.942  1.00  0.00     0.059 A 
ATOM     61  C   UNL     1      11.643  -8.489   7.563  1.00  0.00     0.059 A 
ATOM     62  F   UNL     1      10.494  -6.890   8.836  1.00  0.00    -0.206 F 
ATOM     63  C   UNL     1      12.576  -8.786   6.571  1.00  0.00     0.060 A 
BRANCH  63  64
ATOM     64  S   UNL     1      12.876 -10.494   6.072  1.00  0.00     0.124 S 
ATOM     65  O   UNL     1      12.275 -10.518   4.742  1.00  0.00    -0.237 OA
ATOM     66  O   UNL     1      14.332 -10.578   6.112  1.00  0.00    -0.237 OA
ATOM     67  O   UNL     1      12.177 -11.273   7.089  1.00  0.00    -0.744 OA
ENDBRANCH  63  64
ENDBRANCH  42  56
BRANCH  43  68
ATOM     68  C   UNL     1      10.296   3.475   9.556  1.00  0.00     0.058 A 
ATOM     69  C   UNL     1      11.333   4.381   9.828  1.00  0.00     0.135 A 
ATOM     70  C   UNL     1       8.978   3.950   9.644  1.00  0.00     0.135 A 
ATOM     71  F   UNL     1      12.611   3.977   9.763  1.00  0.00    -0.206 F 
ATOM     72  C   UNL     1      11.075   5.696  10.204  1.00  0.00     0.059 A 
ATOM     73  C   UNL     1       8.695   5.269   9.988  1.00  0.00     0.059 A 
ATOM     74  F   UNL     1       7.949   3.132   9.376  1.00  0.00    -0.206 F 
ATOM     75  C   UNL     1       9.751   6.130  10.282  1.00  0.00     0.060 A 
BRANCH  75  76
ATOM     76  S   UNL     1       9.428   7.845  10.748  1.00  0.00     0.124 S 
ATOM     77  O   UNL     1       9.768   7.833  12.166  1.00  0.00    -0.237 OA
ATOM     78  O   UNL     1      10.343   8.576   9.878  1.00  0.00    -0.237 OA
ATOM     79  O   UNL     1       8.011   8.015  10.441  1.00  0.00    -0.744 OA
ENDBRANCH  75  76
ENDBRANCH  43  68
BRANCH  55  80
ATOM     80  C   UNL     1      13.160  -1.854  13.034  1.00  0.00     0.058 A 
ATOM     81  C   UNL     1      12.366  -1.813  14.190  1.00  0.00     0.135 A 
ATOM     82  C   UNL     1      14.542  -2.054  13.193  1.00  0.00     0.135 A 
ATOM     83  F   UNL     1      11.041  -1.620  14.093  1.00  0.00    -0.206 F 
ATOM     84  C   UNL     1      12.924  -1.935  15.458  1.00  0.00     0.059 A 
ATOM     85  C   UNL     1      15.116  -2.213  14.450  1.00  0.00     0.059 A 
ATOM     86  F   UNL     1      15.345  -2.116  12.120  1.00  0.00    -0.206 F 
ATOM     87  C   UNL     1      14.300  -2.137  15.577  1.00  0.00     0.060 A 
BRANCH  87  88
ATOM     88  S   UNL     1      15.006  -2.320  17.228  1.00  0.00     0.124 S 
ATOM     89  O   UNL     1      14.924  -0.955  17.737  1.00  0.00    -0.237 OA
ATOM     90  O   UNL     1      14.102  -3.284  17.848  1.00  0.00    -0.237 OA
ATOM     91  O   UNL     1      16.356  -2.813  16.968  1.00  0.00    -0.744 OA
ENDBRANCH  87  88
ENDBRANCH  55  80
ENDBRANCH  29  30
ENDBRANCH  21  24
ENDBRANCH  19  20
ENDBRANCH  18  19
ENDBRANCH  17  18
ENDBRANCH   1  17
TORSDOF 20
