REMARK SMILES CC(=O)Nc1ccc(/C(=C\c2ccc(S(C)(=O)=O)cc2)C(=O)NCCCCNC(=O)c2ccc(-c3c4nc(c(-c5c(F)cc(S(=O)(=O)[O-])cc5F)c5ccc([nH]5)c(-c5c(F)cc(S(=O)(=O)[O-])cc5F)c5nc(c(-c6c(F)cc(S(=O)(=O)[O-])cc6F)c6ccc3[nH]6)C=C5)C=C4)cc2)cc1
REMARK SMILES IDX 26 1 25 2 24 3 23 4 21 5 22 6 9 8 10 9 8 10 5 11 6 12 98 13
REMARK SMILES IDX 7 14 97 15 4 16 1 17 2 18 3 19 11 21 12 22 20 23 13 24 19 25
REMARK SMILES IDX 14 26 15 27 16 28 17 29 18 30 27 31 28 32 29 33 30 35 31 36
REMARK SMILES IDX 32 37 96 38 33 39 95 40 34 41 35 42 36 43 89 44 37 45 94 46
REMARK SMILES IDX 88 47 90 48 38 49 93 50 87 51 86 52 39 54 73 55 52 56 72 57
REMARK SMILES IDX 53 58 56 59 71 60 91 61 54 62 55 63 70 65 92 66 57 67 40 68
REMARK SMILES IDX 41 69 50 70 42 71 43 72 49 73 51 74 44 75 45 76 46 77 47 78
REMARK SMILES IDX 48 79 74 80 75 81 84 82 76 83 77 84 83 85 85 86 78 87 79 88
REMARK SMILES IDX 80 89 81 90 82 91 58 92 59 93 68 94 60 95 61 96 67 97 69 98
REMARK SMILES IDX 62 99 63 100 64 101 65 102 66 103
REMARK H PARENT 23 7 4 20 28 34 90 53 56 64
REMARK Flexibility Score: inf
ROOT
ATOM      1  C   UNL     1       6.601   4.985  -6.894  1.00  0.00     0.023 C 
ENDROOT
BRANCH   1   2
ATOM      2  C   UNL     1       5.660   3.833  -7.268  1.00  0.00     0.023 C 
BRANCH   2   3
ATOM      3  C   UNL     1       6.232   2.437  -7.005  1.00  0.00     0.116 C 
BRANCH   3   4
ATOM      4  N   UNL     1       6.235   2.141  -5.588  1.00  0.00    -0.352 N 
ATOM      5  C   UNL     1       5.426   1.463  -4.734  1.00  0.00     0.251 C 
ATOM      6  O   UNL     1       5.871   1.409  -3.583  1.00  0.00    -0.269 OA
ATOM      7  H   UNL     1       7.016   2.527  -5.130  1.00  0.00     0.163 HD
BRANCH   5   8
ATOM      8  C   UNL     1       4.117   0.762  -5.110  1.00  0.00     0.047 C 
ATOM      9  C   UNL     1       3.479   1.113  -6.253  1.00  0.00     0.022 C 
BRANCH   8  10
ATOM     10  C   UNL     1       3.460  -0.162  -4.106  1.00  0.00    -0.013 A 
ATOM     11  C   UNL     1       1.822  -1.491  -2.181  1.00  0.00     0.041 A 
ATOM     12  C   UNL     1       1.846  -1.913  -3.511  1.00  0.00     0.027 A 
ATOM     13  C   UNL     1       2.747  -0.539  -1.788  1.00  0.00     0.027 A 
ATOM     14  C   UNL     1       2.682  -1.279  -4.449  1.00  0.00     0.011 A 
ATOM     15  C   UNL     1       3.516   0.140  -2.737  1.00  0.00     0.011 A 
BRANCH  11  16
ATOM     16  N   UNL     1       0.863  -2.051  -1.321  1.00  0.00    -0.326 N 
ATOM     17  C   UNL     1       0.672  -0.237   0.397  1.00  0.00     0.114 C 
ATOM     18  C   UNL     1       0.348  -1.610  -0.133  1.00  0.00     0.221 C 
ATOM     19  O   UNL     1      -0.435  -2.341   0.480  1.00  0.00    -0.275 OA
ATOM     20  H   UNL     1       0.497  -2.913  -1.627  1.00  0.00     0.169 HD
ENDBRANCH  11  16
ENDBRANCH   8  10
BRANCH   9  21
ATOM     21  C   UNL     1       2.310   0.497  -6.897  1.00  0.00    -0.025 A 
ATOM     22  C   UNL     1       2.542  -0.389  -7.963  1.00  0.00     0.009 A 
ATOM     23  C   UNL     1       1.008   0.702  -6.434  1.00  0.00     0.009 A 
ATOM     24  C   UNL     1       1.492  -1.125  -8.512  1.00  0.00     0.021 A 
ATOM     25  C   UNL     1      -0.049  -0.033  -6.981  1.00  0.00     0.021 A 
ATOM     26  C   UNL     1       0.202  -0.953  -8.005  1.00  0.00     0.067 A 
BRANCH  26  27
ATOM     27  S   UNL     1      -1.096  -2.022  -8.581  1.00  0.00     0.175 S 
ATOM     28  C   UNL     1      -1.534  -1.354 -10.162  1.00  0.00     0.163 C 
ATOM     29  O   UNL     1      -0.509  -3.332  -8.790  1.00  0.00    -0.224 OA
ATOM     30  O   UNL     1      -2.233  -1.853  -7.695  1.00  0.00    -0.224 OA
ENDBRANCH  26  27
ENDBRANCH   9  21
ENDBRANCH   5   8
ENDBRANCH   3   4
ENDBRANCH   2   3
ENDBRANCH   1   2
BRANCH   1  31
ATOM     31  C   UNL     1       7.960   4.963  -7.584  1.00  0.00     0.116 C 
BRANCH  31  32
ATOM     32  N   UNL     1       7.865   4.876  -9.033  1.00  0.00    -0.352 N 
ATOM     33  C   UNL     1       8.720   5.392  -9.977  1.00  0.00     0.251 C 
ATOM     34  H   UNL     1       7.087   4.385  -9.383  1.00  0.00     0.163 HD
ATOM     35  O   UNL     1       8.434   5.327 -11.168  1.00  0.00    -0.269 OA
BRANCH  33  36
ATOM     36  C   UNL     1       9.961   6.058  -9.535  1.00  0.00     0.039 A 
ATOM     37  C   UNL     1      10.264   7.324 -10.041  1.00  0.00     0.014 A 
ATOM     38  C   UNL     1      10.800   5.450  -8.598  1.00  0.00     0.014 A 
ATOM     39  C   UNL     1      11.383   8.006  -9.560  1.00  0.00     0.010 A 
ATOM     40  C   UNL     1      11.871   6.160  -8.068  1.00  0.00     0.010 A 
ATOM     41  C   UNL     1      12.176   7.443  -8.546  1.00  0.00    -0.014 A 
BRANCH  41  42
ATOM     42  C   UNL     1      13.341   8.173  -7.986  1.00  0.00     0.031 A 
ATOM     43  C   UNL     1      14.728   7.617  -8.163  1.00  0.00     0.074 A 
ATOM     44  C   UNL     1      13.145   9.301  -7.275  1.00  0.00     0.049 A 
ATOM     45  N   UNL     1      15.863   8.063  -7.692  1.00  0.00    -0.248 NA
ATOM     46  C   UNL     1      14.851   6.380  -8.952  1.00  0.00     0.031 C 
ATOM     47  C   UNL     1      11.843   9.914  -6.999  1.00  0.00     0.029 A 
ATOM     48  N   UNL     1      14.039  10.131  -6.647  1.00  0.00    -0.354 N 
ATOM     49  C   UNL     1      16.831   7.162  -8.120  1.00  0.00     0.074 A 
ATOM     50  C   UNL     1      16.142   6.109  -8.833  1.00  0.00     0.031 C 
ATOM     51  C   UNL     1      12.027  11.036  -6.283  1.00  0.00     0.029 A 
ATOM     52  C   UNL     1      13.451  11.202  -6.016  1.00  0.00     0.049 A 
ATOM     53  H   UNL     1      15.011   9.974  -6.649  1.00  0.00     0.167 HD
ATOM     54  C   UNL     1      18.174   7.223  -7.962  1.00  0.00     0.037 A 
ATOM     55  C   UNL     1      14.001  12.203  -5.300  1.00  0.00     0.037 A 
ATOM     56  C   UNL     1      18.855   8.286  -7.270  1.00  0.00     0.049 A 
ATOM     57  C   UNL     1      15.497  12.239  -5.126  1.00  0.00     0.074 A 
ATOM     58  C   UNL     1      20.214   8.458  -7.080  1.00  0.00     0.029 A 
ATOM     59  N   UNL     1      18.226   9.362  -6.661  1.00  0.00    -0.354 N 
ATOM     60  N   UNL     1      16.401  11.402  -5.578  1.00  0.00    -0.248 NA
ATOM     61  C   UNL     1      16.048  13.360  -4.351  1.00  0.00     0.031 C 
ATOM     62  C   UNL     1      20.406   9.620  -6.325  1.00  0.00     0.029 A 
ATOM     63  C   UNL     1      19.169  10.197  -6.086  1.00  0.00     0.049 A 
ATOM     64  H   UNL     1      17.253   9.510  -6.639  1.00  0.00     0.167 HD
ATOM     65  C   UNL     1      17.629  11.916  -5.175  1.00  0.00     0.074 A 
ATOM     66  C   UNL     1      17.352  13.139  -4.450  1.00  0.00     0.031 C 
ATOM     67  C   UNL     1      18.874  11.423  -5.387  1.00  0.00     0.037 A 
BRANCH  54  68
ATOM     68  C   UNL     1      18.996   6.117  -8.565  1.00  0.00     0.058 A 
ATOM     69  C   UNL     1      19.135   5.982  -9.956  1.00  0.00     0.135 A 
ATOM     70  C   UNL     1      19.677   5.200  -7.749  1.00  0.00     0.135 A 
ATOM     71  F   UNL     1      18.491   6.820 -10.784  1.00  0.00    -0.206 F 
ATOM     72  C   UNL     1      19.895   4.962 -10.517  1.00  0.00     0.059 A 
ATOM     73  C   UNL     1      20.468   4.188  -8.288  1.00  0.00     0.059 A 
ATOM     74  F   UNL     1      19.578   5.280  -6.412  1.00  0.00    -0.206 F 
ATOM     75  C   UNL     1      20.558   4.069  -9.674  1.00  0.00     0.060 A 
BRANCH  75  76
ATOM     76  S   UNL     1      21.545   2.755 -10.420  1.00  0.00     0.124 S 
ATOM     77  O   UNL     1      20.507   1.868 -10.935  1.00  0.00    -0.237 OA
ATOM     78  O   UNL     1      22.317   3.477 -11.426  1.00  0.00    -0.237 OA
ATOM     79  O   UNL     1      22.318   2.231  -9.298  1.00  0.00    -0.744 OA
ENDBRANCH  75  76
ENDBRANCH  54  68
BRANCH  55  80
ATOM     80  C   UNL     1      13.143  13.270  -4.718  1.00  0.00     0.058 A 
ATOM     81  C   UNL     1      13.193  14.582  -5.213  1.00  0.00     0.135 A 
ATOM     82  C   UNL     1      12.269  13.008  -3.653  1.00  0.00     0.135 A 
ATOM     83  F   UNL     1      14.015  14.884  -6.229  1.00  0.00    -0.206 F 
ATOM     84  C   UNL     1      12.431  15.603  -4.655  1.00  0.00     0.059 A 
ATOM     85  C   UNL     1      11.476  14.006  -3.095  1.00  0.00     0.059 A 
ATOM     86  F   UNL     1      12.169  11.765  -3.155  1.00  0.00    -0.206 F 
ATOM     87  C   UNL     1      11.576  15.304  -3.593  1.00  0.00     0.060 A 
BRANCH  87  88
ATOM     88  S   UNL     1      10.573  16.631  -2.889  1.00  0.00     0.124 S 
ATOM     89  O   UNL     1      11.572  17.392  -2.148  1.00  0.00    -0.237 OA
ATOM     90  O   UNL     1      10.035  17.275  -4.083  1.00  0.00    -0.237 OA
ATOM     91  O   UNL     1       9.593  15.915  -2.077  1.00  0.00    -0.744 OA
ENDBRANCH  87  88
ENDBRANCH  55  80
BRANCH  67  92
ATOM     92  C   UNL     1      20.035  12.231  -4.877  1.00  0.00     0.058 A 
ATOM     93  C   UNL     1      20.336  12.315  -3.510  1.00  0.00     0.135 A 
ATOM     94  C   UNL     1      20.889  12.887  -5.779  1.00  0.00     0.135 A 
ATOM     95  F   UNL     1      19.549  11.711  -2.606  1.00  0.00    -0.206 F 
ATOM     96  C   UNL     1      21.429  13.044  -3.051  1.00  0.00     0.059 A 
ATOM     97  C   UNL     1      22.003  13.598  -5.346  1.00  0.00     0.059 A 
ATOM     98  F   UNL     1      20.652  12.828  -7.100  1.00  0.00    -0.206 F 
ATOM     99  C   UNL     1      22.258  13.681  -3.978  1.00  0.00     0.060 A 
BRANCH  99 100
ATOM    100  S   UNL     1      23.691  14.595  -3.372  1.00  0.00     0.124 S 
ATOM    101  O   UNL     1      23.064  15.789  -2.815  1.00  0.00    -0.237 OA
ATOM    102  O   UNL     1      24.265  13.668  -2.401  1.00  0.00    -0.237 OA
ATOM    103  O   UNL     1      24.491  14.807  -4.574  1.00  0.00    -0.744 OA
ENDBRANCH  99 100
ENDBRANCH  67  92
ENDBRANCH  41  42
ENDBRANCH  33  36
ENDBRANCH  31  32
ENDBRANCH   1  31
TORSDOF 18
