REMARK SMILES CC(C)NC(=O)c1cccc(NC(=O)[C@@H]2[C@H](C(=O)NCCCCNC(=O)c3ccc(-c4c5nc(c(-c6c(F)cc(S(=O)(=O)[O-])cc6F)c6ccc([nH]6)c(-c6c(F)cc(S(=O)(=O)[O-])cc6F)c6nc(c(-c7c(F)cc(S(=O)(=O)[O-])cc7F)c7ccc4[nH]7)C=C6)C=C5)cc3)C2(C)C)c1
REMARK SMILES IDX 21 1 20 2 19 3 17 4 18 5 16 7 15 8 93 9 94 10 95 11 13 12
REMARK SMILES IDX 12 13 14 15 11 16 7 17 8 18 96 19 9 20 10 21 5 22 4 23 6 25
REMARK SMILES IDX 2 26 1 27 3 28 22 29 23 30 24 31 25 32 26 34 27 35 28 36
REMARK SMILES IDX 92 37 29 38 91 39 30 40 31 41 32 42 85 43 33 44 90 45 84 46
REMARK SMILES IDX 86 47 34 48 89 49 83 50 82 51 35 53 69 54 48 55 68 56 49 57
REMARK SMILES IDX 52 58 67 59 87 60 50 61 51 62 66 64 88 65 53 66 36 67 37 68
REMARK SMILES IDX 46 69 38 70 39 71 45 72 47 73 40 74 41 75 42 76 43 77 44 78
REMARK SMILES IDX 70 79 71 80 80 81 72 82 73 83 79 84 81 85 74 86 75 87 76 88
REMARK SMILES IDX 77 89 78 90 54 91 55 92 64 93 56 94 57 95 63 96 65 97 58 98
REMARK SMILES IDX 59 99 60 100 61 101 62 102
REMARK H PARENT 19 6 12 14 4 24 24 33 86 52 52 63
REMARK Flexibility Score: inf
ROOT
ATOM      1  C   UNL     1      -1.410   4.312  -2.695  1.00  0.00     0.023 C 
ENDROOT
BRANCH   1   2
ATOM      2  C   UNL     1      -0.428   5.369  -3.194  1.00  0.00     0.116 C 
BRANCH   2   3
ATOM      3  N   UNL     1      -0.056   6.299  -2.143  1.00  0.00    -0.356 N 
ATOM      4  C   UNL     1       1.202   6.697  -1.771  1.00  0.00     0.224 C 
ATOM      5  O   UNL     1       1.385   7.279  -0.710  1.00  0.00    -0.275 OA
ATOM      6  H   UNL     1      -0.801   6.693  -1.634  1.00  0.00     0.163 HD
BRANCH   4   7
ATOM      7  C   UNL     1       2.345   6.310  -2.611  1.00  0.00     0.098 C 
ATOM      8  C   UNL     1       2.531   6.566  -4.061  1.00  0.00     0.098 C 
ATOM      9  C   UNL     1       3.559   7.157  -3.106  1.00  0.00    -0.011 C 
ATOM     10  C   UNL     1       4.882   6.436  -2.880  1.00  0.00     0.013 C 
ATOM     11  C   UNL     1       3.831   8.622  -3.366  1.00  0.00     0.013 C 
BRANCH   8  12
ATOM     12  C   UNL     1       1.547   7.216  -4.983  1.00  0.00     0.228 C 
ATOM     13  N   UNL     1       0.869   8.414  -4.960  1.00  0.00    -0.326 N 
ATOM     14  H   UNL     1       0.465   8.570  -5.844  1.00  0.00     0.169 HD
ATOM     15  O   UNL     1       1.304   6.551  -6.000  1.00  0.00    -0.274 OA
BRANCH  13  16
ATOM     16  C   UNL     1       0.551   9.491  -4.113  1.00  0.00     0.041 A 
ATOM     17  C   UNL     1      -0.616  11.616  -3.846  1.00  0.00     0.041 A 
ATOM     18  C   UNL     1      -0.252  11.694  -2.505  1.00  0.00     0.014 A 
ATOM     19  C   UNL     1      -0.203  10.541  -4.656  1.00  0.00     0.040 A 
ATOM     20  C   UNL     1       0.491  10.667  -1.964  1.00  0.00     0.003 A 
ATOM     21  C   UNL     1       0.865   9.589  -2.771  1.00  0.00     0.026 A 
BRANCH  17  22
ATOM     22  C   UNL     1      -1.469  12.701  -4.353  1.00  0.00     0.251 C 
ATOM     23  N   UNL     1      -2.745  12.416  -4.758  1.00  0.00    -0.350 N 
ATOM     24  H   UNL     1      -3.287  13.196  -5.016  1.00  0.00     0.164 HD
ATOM     25  O   UNL     1      -1.050  13.854  -4.332  1.00  0.00    -0.269 OA
BRANCH  23  26
ATOM     26  C   UNL     1      -3.421  11.127  -4.864  1.00  0.00     0.076 C 
ATOM     27  C   UNL     1      -4.678  11.100  -4.003  1.00  0.00     0.030 C 
ATOM     28  C   UNL     1      -3.736  10.860  -6.331  1.00  0.00     0.030 C 
ENDBRANCH  23  26
ENDBRANCH  17  22
ENDBRANCH  13  16
ENDBRANCH   8  12
ENDBRANCH   4   7
ENDBRANCH   2   3
ENDBRANCH   1   2
BRANCH   1  29
ATOM     29  C   UNL     1      -2.827   4.825  -2.428  1.00  0.00     0.023 C 
BRANCH  29  30
ATOM     30  C   UNL     1      -3.533   5.454  -3.628  1.00  0.00     0.116 C 
BRANCH  30  31
ATOM     31  N   UNL     1      -3.624   4.550  -4.764  1.00  0.00    -0.352 N 
ATOM     32  C   UNL     1      -4.729   4.069  -5.424  1.00  0.00     0.251 C 
ATOM     33  H   UNL     1      -2.760   4.234  -5.115  1.00  0.00     0.163 HD
ATOM     34  O   UNL     1      -4.599   3.164  -6.244  1.00  0.00    -0.269 OA
BRANCH  32  35
ATOM     35  C   UNL     1      -6.071   4.621  -5.138  1.00  0.00     0.039 A 
ATOM     36  C   UNL     1      -7.149   3.741  -5.007  1.00  0.00     0.014 A 
ATOM     37  C   UNL     1      -6.276   5.998  -5.017  1.00  0.00     0.014 A 
ATOM     38  C   UNL     1      -8.415   4.238  -4.689  1.00  0.00     0.010 A 
ATOM     39  C   UNL     1      -7.521   6.484  -4.623  1.00  0.00     0.010 A 
ATOM     40  C   UNL     1      -8.606   5.610  -4.456  1.00  0.00    -0.014 A 
BRANCH  40  41
ATOM     41  C   UNL     1      -9.929   6.139  -4.029  1.00  0.00     0.031 A 
ATOM     42  C   UNL     1     -10.674   7.119  -4.897  1.00  0.00     0.074 A 
ATOM     43  C   UNL     1     -10.431   5.782  -2.828  1.00  0.00     0.049 A 
ATOM     44  N   UNL     1     -11.810   7.724  -4.666  1.00  0.00    -0.248 NA
ATOM     45  C   UNL     1     -10.051   7.488  -6.180  1.00  0.00     0.031 C 
ATOM     46  C   UNL     1      -9.775   4.889  -1.869  1.00  0.00     0.029 A 
ATOM     47  N   UNL     1     -11.600   6.135  -2.200  1.00  0.00    -0.354 N 
ATOM     48  C   UNL     1     -12.028   8.557  -5.758  1.00  0.00     0.074 A 
ATOM     49  C   UNL     1     -10.887   8.412  -6.634  1.00  0.00     0.031 C 
ATOM     50  C   UNL     1     -10.556   4.754  -0.785  1.00  0.00     0.029 A 
ATOM     51  C   UNL     1     -11.748   5.579  -0.950  1.00  0.00     0.049 A 
ATOM     52  H   UNL     1     -12.270   6.731  -2.607  1.00  0.00     0.167 HD
ATOM     53  C   UNL     1     -13.091   9.356  -6.013  1.00  0.00     0.037 A 
ATOM     54  C   UNL     1     -12.725   5.728  -0.033  1.00  0.00     0.037 A 
ATOM     55  C   UNL     1     -14.244   9.461  -5.157  1.00  0.00     0.049 A 
ATOM     56  C   UNL     1     -13.906   6.604  -0.356  1.00  0.00     0.074 A 
ATOM     57  C   UNL     1     -15.413  10.171  -5.378  1.00  0.00     0.029 A 
ATOM     58  N   UNL     1     -14.376   8.851  -3.920  1.00  0.00    -0.354 N 
ATOM     59  N   UNL     1     -14.137   7.308  -1.440  1.00  0.00    -0.248 NA
ATOM     60  C   UNL     1     -14.964   6.702   0.659  1.00  0.00     0.031 C 
ATOM     61  C   UNL     1     -16.224  10.039  -4.249  1.00  0.00     0.029 A 
ATOM     62  C   UNL     1     -15.591   9.195  -3.351  1.00  0.00     0.049 A 
ATOM     63  H   UNL     1     -13.705   8.261  -3.506  1.00  0.00     0.167 HD
ATOM     64  C   UNL     1     -15.380   7.904  -1.247  1.00  0.00     0.074 A 
ATOM     65  C   UNL     1     -15.857   7.467   0.047  1.00  0.00     0.031 C 
ATOM     66  C   UNL     1     -16.063   8.739  -2.068  1.00  0.00     0.037 A 
BRANCH  53  67
ATOM     67  C   UNL     1     -13.078  10.184  -7.269  1.00  0.00     0.058 A 
ATOM     68  C   UNL     1     -13.242   9.609  -8.538  1.00  0.00     0.135 A 
ATOM     69  C   UNL     1     -13.000  11.585  -7.189  1.00  0.00     0.135 A 
ATOM     70  F   UNL     1     -13.305   8.275  -8.674  1.00  0.00    -0.206 F 
ATOM     71  C   UNL     1     -13.326  10.392  -9.685  1.00  0.00     0.059 A 
ATOM     72  C   UNL     1     -13.109  12.389  -8.320  1.00  0.00     0.059 A 
ATOM     73  F   UNL     1     -12.838  12.186  -6.000  1.00  0.00    -0.206 F 
ATOM     74  C   UNL     1     -13.269  11.782  -9.564  1.00  0.00     0.060 A 
BRANCH  74  75
ATOM     75  S   UNL     1     -13.434  12.784 -11.057  1.00  0.00     0.124 S 
ATOM     76  O   UNL     1     -12.164  12.520 -11.726  1.00  0.00    -0.237 OA
ATOM     77  O   UNL     1     -14.615  12.205 -11.689  1.00  0.00    -0.237 OA
ATOM     78  O   UNL     1     -13.602  14.139 -10.542  1.00  0.00    -0.744 OA
ENDBRANCH  74  75
ENDBRANCH  53  67
BRANCH  54  79
ATOM     79  C   UNL     1     -12.630   5.041   1.285  1.00  0.00     0.058 A 
ATOM     80  C   UNL     1     -13.524   4.020   1.643  1.00  0.00     0.135 A 
ATOM     81  C   UNL     1     -11.657   5.413   2.227  1.00  0.00     0.135 A 
ATOM     82  F   UNL     1     -14.475   3.629   0.781  1.00  0.00    -0.206 F 
ATOM     83  C   UNL     1     -13.484   3.422   2.899  1.00  0.00     0.059 A 
ATOM     84  C   UNL     1     -11.576   4.807   3.476  1.00  0.00     0.059 A 
ATOM     85  F   UNL     1     -10.762   6.369   1.929  1.00  0.00    -0.206 F 
ATOM     86  C   UNL     1     -12.508   3.826   3.811  1.00  0.00     0.060 A 
BRANCH  86  87
ATOM     87  S   UNL     1     -12.459   3.040   5.436  1.00  0.00     0.124 S 
ATOM     88  O   UNL     1     -13.624   3.633   6.082  1.00  0.00    -0.237 OA
ATOM     89  O   UNL     1     -12.566   1.625   5.096  1.00  0.00    -0.237 OA
ATOM     90  O   UNL     1     -11.163   3.453   5.968  1.00  0.00    -0.744 OA
ENDBRANCH  86  87
ENDBRANCH  54  79
BRANCH  66  91
ATOM     91  C   UNL     1     -17.422   9.203  -1.618  1.00  0.00     0.058 A 
ATOM     92  C   UNL     1     -17.583  10.122  -0.570  1.00  0.00     0.135 A 
ATOM     93  C   UNL     1     -18.576   8.762  -2.287  1.00  0.00     0.135 A 
ATOM     94  F   UNL     1     -16.513  10.571   0.105  1.00  0.00    -0.206 F 
ATOM     95  C   UNL     1     -18.842  10.569  -0.184  1.00  0.00     0.059 A 
ATOM     96  C   UNL     1     -19.842   9.220  -1.939  1.00  0.00     0.059 A 
ATOM     97  F   UNL     1     -18.478   7.892  -3.305  1.00  0.00    -0.206 F 
ATOM     98  C   UNL     1     -19.966  10.114  -0.877  1.00  0.00     0.060 A 
BRANCH  98  99
ATOM     99  S   UNL     1     -21.591  10.729  -0.387  1.00  0.00     0.124 S 
ATOM    100  O   UNL     1     -21.802  10.027   0.875  1.00  0.00    -0.237 OA
ATOM    101  O   UNL     1     -21.363  12.167  -0.283  1.00  0.00    -0.237 OA
ATOM    102  O   UNL     1     -22.457  10.315  -1.487  1.00  0.00    -0.744 OA
ENDBRANCH  98  99
ENDBRANCH  66  91
ENDBRANCH  40  41
ENDBRANCH  32  35
ENDBRANCH  30  31
ENDBRANCH  29  30
ENDBRANCH   1  29
TORSDOF 18
