REMARK SMILES COc1ccc([C@H](C)NC(=O)[C@@H](C)n2cc(C(=O)NCCCCNC(=O)c3ccc(-c4c5nc(c(-c6c(F)cc(S(=O)(=O)[O-])cc6F)c6ccc([nH]6)c(-c6c(F)cc(S(=O)(=O)[O-])cc6F)c6nc(c(-c7c(F)cc(S(=O)(=O)[O-])cc7F)c7ccc4[nH]7)C=C6)C=C5)cc3)cn2)cc1
REMARK SMILES IDX 20 1 19 2 17 3 18 4 16 6 14 7 15 8 94 9 93 10 12 11 13 12
REMARK SMILES IDX 10 13 9 14 11 16 7 17 8 18 6 19 3 20 4 21 96 22 5 23 95 24
REMARK SMILES IDX 2 25 1 26 21 27 22 28 23 29 24 30 25 31 26 33 27 34 28 35
REMARK SMILES IDX 92 36 29 37 91 38 30 39 31 40 32 41 85 42 33 43 90 44 84 45
REMARK SMILES IDX 86 46 34 47 89 48 83 49 82 50 35 52 69 53 48 54 68 55 49 56
REMARK SMILES IDX 52 57 67 58 87 59 50 60 51 61 66 63 88 64 53 65 36 66 37 67
REMARK SMILES IDX 46 68 38 69 39 70 45 71 47 72 40 73 41 74 42 75 43 76 44 77
REMARK SMILES IDX 70 78 71 79 80 80 72 81 73 82 79 83 81 84 74 85 75 86 76 87
REMARK SMILES IDX 77 88 78 89 54 90 55 91 64 92 56 93 57 94 63 95 65 96 58 97
REMARK SMILES IDX 59 98 60 99 61 100 62 101
REMARK H PARENT 19 5 9 15 24 32 86 51 52 62
REMARK Flexibility Score: inf
ROOT
ATOM      1  C   UNL     1       2.176   9.535   6.753  1.00  0.00     0.116 C 
ENDROOT
BRANCH   1   2
ATOM      2  N   UNL     1       3.418   9.976   6.146  1.00  0.00    -0.352 N 
ATOM      3  C   UNL     1       4.515   9.286   5.700  1.00  0.00     0.254 C 
ATOM      4  O   UNL     1       5.425   9.944   5.181  1.00  0.00    -0.269 OA
ATOM      5  H   UNL     1       3.485  10.952   6.033  1.00  0.00     0.163 HD
BRANCH   3   6
ATOM      6  C   UNL     1       4.609   7.840   5.778  1.00  0.00     0.077 A 
ATOM      7  N   UNL     1       4.241   5.678   6.019  1.00  0.00    -0.260 N 
ATOM      8  C   UNL     1       3.910   6.912   6.522  1.00  0.00     0.123 A 
ATOM      9  N   UNL     1       5.309   5.721   5.202  1.00  0.00    -0.180 NA
ATOM     10  C   UNL     1       5.521   7.033   5.047  1.00  0.00     0.149 A 
BRANCH   7  11
ATOM     11  C   UNL     1       3.526   4.439   6.289  1.00  0.00     0.193 C 
ATOM     12  C   UNL     1       4.033   3.180   5.585  1.00  0.00     0.044 C 
BRANCH  11  13
ATOM     13  C   UNL     1       2.024   4.631   6.090  1.00  0.00     0.245 C 
ATOM     14  N   UNL     1       1.465   4.885   4.876  1.00  0.00    -0.348 N 
ATOM     15  H   UNL     1       0.481   4.931   4.881  1.00  0.00     0.164 HD
ATOM     16  O   UNL     1       1.260   4.554   7.060  1.00  0.00    -0.273 OA
BRANCH  14  17
ATOM     17  C   UNL     1       2.074   5.099   3.564  1.00  0.00     0.109 C 
ATOM     18  C   UNL     1       1.534   4.090   2.552  1.00  0.00     0.036 C 
BRANCH  17  19
ATOM     19  C   UNL     1       1.884   6.523   3.094  1.00  0.00    -0.026 A 
ATOM     20  C   UNL     1       1.678   9.199   2.288  1.00  0.00     0.118 A 
ATOM     21  C   UNL     1       2.911   8.569   2.277  1.00  0.00     0.047 A 
ATOM     22  C   UNL     1       0.528   8.479   2.630  1.00  0.00     0.047 A 
ATOM     23  C   UNL     1       3.013   7.242   2.669  1.00  0.00     0.009 A 
ATOM     24  C   UNL     1       0.631   7.145   3.034  1.00  0.00     0.009 A 
BRANCH  20  25
ATOM     25  O   UNL     1       1.742  10.518   1.945  1.00  0.00    -0.497 OA
ATOM     26  C   UNL     1       0.618  11.270   2.348  1.00  0.00     0.278 C 
ENDBRANCH  20  25
ENDBRANCH  17  19
ENDBRANCH  14  17
ENDBRANCH  11  13
ENDBRANCH   7  11
ENDBRANCH   3   6
ENDBRANCH   1   2
BRANCH   1  27
ATOM     27  C   UNL     1       2.224   9.640   8.282  1.00  0.00     0.023 C 
BRANCH  27  28
ATOM     28  C   UNL     1       2.158  11.072   8.842  1.00  0.00     0.023 C 
BRANCH  28  29
ATOM     29  C   UNL     1       0.856  11.817   8.561  1.00  0.00     0.116 C 
BRANCH  29  30
ATOM     30  N   UNL     1      -0.317  11.193   9.178  1.00  0.00    -0.352 N 
ATOM     31  C   UNL     1      -1.646  11.520   8.974  1.00  0.00     0.251 C 
ATOM     32  H   UNL     1      -0.139  10.458   9.809  1.00  0.00     0.163 HD
ATOM     33  O   UNL     1      -2.498  11.258   9.821  1.00  0.00    -0.269 OA
BRANCH  31  34
ATOM     34  C   UNL     1      -2.022  12.165   7.705  1.00  0.00     0.039 A 
ATOM     35  C   UNL     1      -2.906  13.246   7.641  1.00  0.00     0.014 A 
ATOM     36  C   UNL     1      -1.410  11.682   6.553  1.00  0.00     0.014 A 
ATOM     37  C   UNL     1      -3.097  13.889   6.416  1.00  0.00     0.010 A 
ATOM     38  C   UNL     1      -1.477  12.415   5.397  1.00  0.00     0.010 A 
ATOM     39  C   UNL     1      -2.357  13.480   5.295  1.00  0.00    -0.014 A 
BRANCH  39  40
ATOM     40  C   UNL     1      -2.349  14.239   4.044  1.00  0.00     0.031 A 
ATOM     41  C   UNL     1      -2.051  15.685   4.218  1.00  0.00     0.074 A 
ATOM     42  C   UNL     1      -2.417  13.671   2.816  1.00  0.00     0.049 A 
ATOM     43  N   UNL     1      -2.883  16.659   4.058  1.00  0.00    -0.248 NA
ATOM     44  C   UNL     1      -0.758  16.099   4.788  1.00  0.00     0.031 C 
ATOM     45  C   UNL     1      -2.514  12.252   2.457  1.00  0.00     0.029 A 
ATOM     46  N   UNL     1      -2.347  14.270   1.592  1.00  0.00    -0.354 N 
ATOM     47  C   UNL     1      -2.161  17.825   4.274  1.00  0.00     0.074 A 
ATOM     48  C   UNL     1      -0.928  17.419   4.900  1.00  0.00     0.031 C 
ATOM     49  C   UNL     1      -2.297  12.095   1.127  1.00  0.00     0.029 A 
ATOM     50  C   UNL     1      -2.176  13.401   0.512  1.00  0.00     0.049 A 
ATOM     51  H   UNL     1      -2.412  15.245   1.478  1.00  0.00     0.167 HD
ATOM     52  C   UNL     1      -2.549  19.001   3.705  1.00  0.00     0.037 A 
ATOM     53  C   UNL     1      -2.003  13.727  -0.800  1.00  0.00     0.037 A 
ATOM     54  C   UNL     1      -3.913  18.921   3.238  1.00  0.00     0.049 A 
ATOM     55  C   UNL     1      -2.625  15.065  -0.964  1.00  0.00     0.074 A 
ATOM     56  C   UNL     1      -5.125  18.663   3.853  1.00  0.00     0.029 A 
ATOM     57  N   UNL     1      -4.123  18.687   1.899  1.00  0.00    -0.354 N 
ATOM     58  N   UNL     1      -3.907  15.269  -0.823  1.00  0.00    -0.248 NA
ATOM     59  C   UNL     1      -1.777  16.230  -0.769  1.00  0.00     0.031 C 
ATOM     60  C   UNL     1      -5.820  17.805   2.950  1.00  0.00     0.029 A 
ATOM     61  C   UNL     1      -5.044  17.671   1.798  1.00  0.00     0.049 A 
ATOM     62  H   UNL     1      -3.694  19.160   1.150  1.00  0.00     0.167 HD
ATOM     63  C   UNL     1      -3.997  16.445  -0.095  1.00  0.00     0.074 A 
ATOM     64  C   UNL     1      -2.654  17.030  -0.154  1.00  0.00     0.031 C 
ATOM     65  C   UNL     1      -5.058  16.695   0.728  1.00  0.00     0.037 A 
BRANCH  52  66
ATOM     66  C   UNL     1      -1.599  20.088   3.267  1.00  0.00     0.058 A 
ATOM     67  C   UNL     1      -2.109  21.338   2.861  1.00  0.00     0.135 A 
ATOM     68  C   UNL     1      -0.232  19.869   2.987  1.00  0.00     0.135 A 
ATOM     69  F   UNL     1      -3.401  21.646   3.058  1.00  0.00    -0.206 F 
ATOM     70  C   UNL     1      -1.330  22.279   2.185  1.00  0.00     0.059 A 
ATOM     71  C   UNL     1       0.575  20.812   2.362  1.00  0.00     0.059 A 
ATOM     72  F   UNL     1       0.365  18.693   3.218  1.00  0.00    -0.206 F 
ATOM     73  C   UNL     1       0.011  22.001   1.934  1.00  0.00     0.060 A 
BRANCH  73  74
ATOM     74  S   UNL     1       1.000  23.182   1.001  1.00  0.00     0.124 S 
ATOM     75  O   UNL     1       0.395  23.088  -0.322  1.00  0.00    -0.237 OA
ATOM     76  O   UNL     1       0.756  24.422   1.732  1.00  0.00    -0.237 OA
ATOM     77  O   UNL     1       2.355  22.650   1.117  1.00  0.00    -0.744 OA
ENDBRANCH  73  74
ENDBRANCH  52  66
BRANCH  53  78
ATOM     78  C   UNL     1      -1.030  13.172  -1.794  1.00  0.00     0.058 A 
ATOM     79  C   UNL     1      -1.089  13.489  -3.163  1.00  0.00     0.135 A 
ATOM     80  C   UNL     1       0.166  12.564  -1.373  1.00  0.00     0.135 A 
ATOM     81  F   UNL     1      -2.177  14.091  -3.665  1.00  0.00    -0.206 F 
ATOM     82  C   UNL     1      -0.012  13.263  -4.039  1.00  0.00     0.059 A 
ATOM     83  C   UNL     1       1.252  12.323  -2.218  1.00  0.00     0.059 A 
ATOM     84  F   UNL     1       0.350  12.274  -0.084  1.00  0.00    -0.206 F 
ATOM     85  C   UNL     1       1.167  12.699  -3.551  1.00  0.00     0.060 A 
BRANCH  85  86
ATOM     86  S   UNL     1       2.623  12.575  -4.623  1.00  0.00     0.124 S 
ATOM     87  O   UNL     1       2.230  11.516  -5.547  1.00  0.00    -0.237 OA
ATOM     88  O   UNL     1       2.705  13.917  -5.191  1.00  0.00    -0.237 OA
ATOM     89  O   UNL     1       3.699  12.228  -3.698  1.00  0.00    -0.744 OA
ENDBRANCH  85  86
ENDBRANCH  53  78
BRANCH  65  90
ATOM     90  C   UNL     1      -6.256  15.771   0.662  1.00  0.00     0.058 A 
ATOM     91  C   UNL     1      -6.241  14.405   1.002  1.00  0.00     0.135 A 
ATOM     92  C   UNL     1      -7.511  16.337   0.394  1.00  0.00     0.135 A 
ATOM     93  F   UNL     1      -5.107  13.798   1.371  1.00  0.00    -0.206 F 
ATOM     94  C   UNL     1      -7.406  13.633   1.035  1.00  0.00     0.059 A 
ATOM     95  C   UNL     1      -8.690  15.596   0.451  1.00  0.00     0.059 A 
ATOM     96  F   UNL     1      -7.610  17.649   0.122  1.00  0.00    -0.206 F 
ATOM     97  C   UNL     1      -8.629  14.239   0.758  1.00  0.00     0.060 A 
BRANCH  97  98
ATOM     98  S   UNL     1     -10.144  13.260   0.859  1.00  0.00     0.124 S 
ATOM     99  O   UNL     1     -10.016  12.376  -0.295  1.00  0.00    -0.237 OA
ATOM    100  O   UNL     1     -10.022  12.618   2.165  1.00  0.00    -0.237 OA
ATOM    101  O   UNL     1     -11.204  14.261   0.763  1.00  0.00    -0.744 OA
ENDBRANCH  97  98
ENDBRANCH  65  90
ENDBRANCH  39  40
ENDBRANCH  31  34
ENDBRANCH  29  30
ENDBRANCH  28  29
ENDBRANCH  27  28
ENDBRANCH   1  27
TORSDOF 19
