REMARK SMILES N#Cc1c2ccccc2cn1CCCCC(=O)NCCCCNC(=O)c1ccc(-c2c3nc(c(-c4c(F)cc(S(=O)(=O)[O-])cc4F)c4ccc([nH]4)c(-c4c(F)cc(S(=O)(=O)[O-])cc4F)c4nc(c(-c5c(F)cc(S(=O)(=O)[O-])cc5F)c5ccc2[nH]5)C=C4)C=C3)cc1
REMARK SMILES IDX 19 1 18 2 16 3 17 4 15 6 14 7 13 8 12 9 11 10 3 11 4 12 5 13
REMARK SMILES IDX 9 14 10 15 6 16 8 17 7 18 2 19 1 20 20 21 21 22 22 23 23 24
REMARK SMILES IDX 24 25 25 27 26 28 27 29 91 30 28 31 90 32 29 33 30 34 31 35
REMARK SMILES IDX 84 36 32 37 89 38 83 39 85 40 33 41 88 42 82 43 81 44 34 46
REMARK SMILES IDX 68 47 47 48 67 49 48 50 51 51 66 52 86 53 49 54 50 55 65 57
REMARK SMILES IDX 87 58 52 59 35 60 36 61 45 62 37 63 38 64 44 65 46 66 39 67
REMARK SMILES IDX 40 68 41 69 42 70 43 71 69 72 70 73 79 74 71 75 72 76 78 77
REMARK SMILES IDX 80 78 73 79 74 80 75 81 76 82 77 83 53 84 54 85 63 86 55 87
REMARK SMILES IDX 56 88 62 89 64 90 57 91 58 92 59 93 60 94 61 95
REMARK H PARENT 18 5 23 26 85 45 51 56
REMARK Flexibility Score: inf
ROOT
ATOM      1  C   UNL     1       3.771   5.294  -0.125  1.00  0.00     0.116 C 
ENDROOT
BRANCH   1   2
ATOM      2  N   UNL     1       4.981   6.018   0.191  1.00  0.00    -0.356 N 
ATOM      3  C   UNL     1       6.268   5.587   0.277  1.00  0.00     0.219 C 
ATOM      4  O   UNL     1       7.151   6.431   0.444  1.00  0.00    -0.275 OA
ATOM      5  H   UNL     1       4.853   6.977   0.374  1.00  0.00     0.163 HD
BRANCH   3   6
ATOM      6  C   UNL     1       6.626   4.119   0.130  1.00  0.00     0.100 C 
BRANCH   6   7
ATOM      7  C   UNL     1       6.400   3.260   1.377  1.00  0.00     0.012 C 
BRANCH   7   8
ATOM      8  C   UNL     1       5.027   2.597   1.559  1.00  0.00     0.022 C 
BRANCH   8   9
ATOM      9  C   UNL     1       4.386   1.936   0.331  1.00  0.00     0.123 C 
BRANCH   9  10
ATOM     10  N   UNL     1       4.787   0.558   0.131  1.00  0.00    -0.338 N 
ATOM     11  C   UNL     1       3.944  -0.537   0.094  1.00  0.00     0.128 A 
ATOM     12  C   UNL     1       4.759  -1.643   0.048  1.00  0.00     0.018 A 
ATOM     13  C   UNL     1       4.373  -2.978   0.089  1.00  0.00     0.012 A 
ATOM     14  C   UNL     1       6.106  -1.188  -0.038  1.00  0.00     0.001 A 
ATOM     15  C   UNL     1       6.095   0.176  -0.080  1.00  0.00     0.095 A 
ATOM     16  C   UNL     1       5.513  -3.814   0.071  1.00  0.00     0.001 A 
ATOM     17  C   UNL     1       7.240  -1.979  -0.076  1.00  0.00     0.010 A 
ATOM     18  C   UNL     1       6.874  -3.339  -0.001  1.00  0.00     0.001 A 
BRANCH  11  19
ATOM     19  C   UNL     1       2.517  -0.479   0.120  1.00  0.00     0.118 C 
ATOM     20  N   UNL     1       1.367  -0.395   0.113  1.00  0.00    -0.191 NA
ENDBRANCH  11  19
ENDBRANCH   9  10
ENDBRANCH   8   9
ENDBRANCH   7   8
ENDBRANCH   6   7
ENDBRANCH   3   6
ENDBRANCH   1   2
BRANCH   1  21
ATOM     21  C   UNL     1       2.808   5.216   1.060  1.00  0.00     0.023 C 
BRANCH  21  22
ATOM     22  C   UNL     1       1.812   6.373   1.148  1.00  0.00     0.023 C 
BRANCH  22  23
ATOM     23  C   UNL     1       0.889   6.493  -0.064  1.00  0.00     0.116 C 
BRANCH  23  24
ATOM     24  N   UNL     1       0.067   5.324  -0.278  1.00  0.00    -0.352 N 
ATOM     25  C   UNL     1      -1.244   5.036  -0.015  1.00  0.00     0.251 C 
ATOM     26  H   UNL     1       0.552   4.579  -0.701  1.00  0.00     0.163 HD
ATOM     27  O   UNL     1      -1.708   4.066  -0.619  1.00  0.00    -0.269 OA
BRANCH  25  28
ATOM     28  C   UNL     1      -2.091   5.734   0.991  1.00  0.00     0.039 A 
ATOM     29  C   UNL     1      -1.696   6.801   1.795  1.00  0.00     0.014 A 
ATOM     30  C   UNL     1      -3.362   5.165   1.208  1.00  0.00     0.014 A 
ATOM     31  C   UNL     1      -2.477   7.171   2.888  1.00  0.00     0.010 A 
ATOM     32  C   UNL     1      -4.162   5.560   2.272  1.00  0.00     0.010 A 
ATOM     33  C   UNL     1      -3.680   6.502   3.167  1.00  0.00    -0.014 A 
BRANCH  33  34
ATOM     34  C   UNL     1      -4.527   6.989   4.259  1.00  0.00     0.031 A 
ATOM     35  C   UNL     1      -4.854   8.427   4.052  1.00  0.00     0.074 A 
ATOM     36  C   UNL     1      -5.016   6.239   5.278  1.00  0.00     0.049 A 
ATOM     37  N   UNL     1      -4.324   9.426   4.678  1.00  0.00    -0.248 NA
ATOM     38  C   UNL     1      -5.612   8.824   2.851  1.00  0.00     0.031 C 
ATOM     39  C   UNL     1      -4.888   4.794   5.486  1.00  0.00     0.029 A 
ATOM     40  N   UNL     1      -5.787   6.614   6.353  1.00  0.00    -0.354 N 
ATOM     41  C   UNL     1      -4.936  10.559   4.154  1.00  0.00     0.074 A 
ATOM     42  C   UNL     1      -5.517  10.156   2.902  1.00  0.00     0.031 C 
ATOM     43  C   UNL     1      -5.738   4.385   6.461  1.00  0.00     0.029 A 
ATOM     44  C   UNL     1      -6.373   5.545   7.060  1.00  0.00     0.049 A 
ATOM     45  H   UNL     1      -5.920   7.555   6.608  1.00  0.00     0.167 HD
ATOM     46  C   UNL     1      -5.189  11.619   4.968  1.00  0.00     0.037 A 
ATOM     47  C   UNL     1      -7.275   5.615   8.088  1.00  0.00     0.037 A 
ATOM     48  C   UNL     1      -4.365  11.550   6.152  1.00  0.00     0.049 A 
ATOM     49  C   UNL     1      -7.117   6.964   8.686  1.00  0.00     0.074 A 
ATOM     50  C   UNL     1      -3.010  11.551   6.415  1.00  0.00     0.029 A 
ATOM     51  N   UNL     1      -4.971  11.030   7.267  1.00  0.00    -0.354 N 
ATOM     52  N   UNL     1      -6.038   7.347   9.311  1.00  0.00    -0.248 NA
ATOM     53  C   UNL     1      -7.938   8.022   8.126  1.00  0.00     0.031 C 
ATOM     54  C   UNL     1      -2.838  10.639   7.499  1.00  0.00     0.029 A 
ATOM     55  C   UNL     1      -4.097  10.203   7.915  1.00  0.00     0.049 A 
ATOM     56  H   UNL     1      -5.893  11.222   7.555  1.00  0.00     0.167 HD
ATOM     57  C   UNL     1      -5.795   8.621   8.823  1.00  0.00     0.074 A 
ATOM     58  C   UNL     1      -7.028   8.999   8.126  1.00  0.00     0.031 C 
ATOM     59  C   UNL     1      -4.523   9.117   8.769  1.00  0.00     0.037 A 
BRANCH  46  60
ATOM     60  C   UNL     1      -6.499  12.383   4.951  1.00  0.00     0.058 A 
ATOM     61  C   UNL     1      -6.649  13.494   5.808  1.00  0.00     0.135 A 
ATOM     62  C   UNL     1      -7.697  11.899   4.376  1.00  0.00     0.135 A 
ATOM     63  F   UNL     1      -5.585  14.022   6.434  1.00  0.00    -0.206 F 
ATOM     64  C   UNL     1      -7.896  14.043   6.111  1.00  0.00     0.059 A 
ATOM     65  C   UNL     1      -8.943  12.462   4.627  1.00  0.00     0.059 A 
ATOM     66  F   UNL     1      -7.742  10.802   3.614  1.00  0.00    -0.206 F 
ATOM     67  C   UNL     1      -9.038  13.518   5.515  1.00  0.00     0.060 A 
BRANCH  67  68
ATOM     68  S   UNL     1     -10.648  14.212   5.922  1.00  0.00     0.124 S 
ATOM     69  O   UNL     1     -10.766  13.875   7.335  1.00  0.00    -0.237 OA
ATOM     70  O   UNL     1     -10.445  15.624   5.614  1.00  0.00    -0.237 OA
ATOM     71  O   UNL     1     -11.556  13.505   5.023  1.00  0.00    -0.744 OA
ENDBRANCH  67  68
ENDBRANCH  46  60
BRANCH  47  72
ATOM     72  C   UNL     1      -8.541   4.830   8.304  1.00  0.00     0.058 A 
ATOM     73  C   UNL     1      -9.351   5.016   9.451  1.00  0.00     0.135 A 
ATOM     74  C   UNL     1      -9.148   4.125   7.250  1.00  0.00     0.135 A 
ATOM     75  F   UNL     1      -8.875   5.688  10.511  1.00  0.00    -0.206 F 
ATOM     76  C   UNL     1     -10.690   4.590   9.518  1.00  0.00     0.059 A 
ATOM     77  C   UNL     1     -10.478   3.690   7.293  1.00  0.00     0.059 A 
ATOM     78  F   UNL     1      -8.490   3.913   6.101  1.00  0.00    -0.206 F 
ATOM     79  C   UNL     1     -11.255   3.949   8.417  1.00  0.00     0.060 A 
BRANCH  79  80
ATOM     80  S   UNL     1     -13.026   3.550   8.409  1.00  0.00     0.124 S 
ATOM     81  O   UNL     1     -13.116   2.533   9.452  1.00  0.00    -0.237 OA
ATOM     82  O   UNL     1     -13.638   4.836   8.721  1.00  0.00    -0.237 OA
ATOM     83  O   UNL     1     -13.258   3.067   7.050  1.00  0.00    -0.744 OA
ENDBRANCH  79  80
ENDBRANCH  47  72
BRANCH  59  84
ATOM     84  C   UNL     1      -3.440   8.412   9.547  1.00  0.00     0.058 A 
ATOM     85  C   UNL     1      -2.934   7.129   9.268  1.00  0.00     0.135 A 
ATOM     86  C   UNL     1      -2.773   9.163  10.526  1.00  0.00     0.135 A 
ATOM     87  F   UNL     1      -3.462   6.377   8.290  1.00  0.00    -0.206 F 
ATOM     88  C   UNL     1      -1.824   6.614   9.950  1.00  0.00     0.059 A 
ATOM     89  C   UNL     1      -1.651   8.685  11.193  1.00  0.00     0.059 A 
ATOM     90  F   UNL     1      -3.177  10.414  10.802  1.00  0.00    -0.206 F 
ATOM     91  C   UNL     1      -1.186   7.405  10.907  1.00  0.00     0.060 A 
BRANCH  91  92
ATOM     92  S   UNL     1       0.287   6.779  11.747  1.00  0.00     0.124 S 
ATOM     93  O   UNL     1      -0.249   5.667  12.523  1.00  0.00    -0.237 OA
ATOM     94  O   UNL     1       1.155   6.415  10.631  1.00  0.00    -0.237 OA
ATOM     95  O   UNL     1       0.746   7.923  12.533  1.00  0.00    -0.744 OA
ENDBRANCH  91  92
ENDBRANCH  59  84
ENDBRANCH  33  34
ENDBRANCH  25  28
ENDBRANCH  23  24
ENDBRANCH  22  23
ENDBRANCH  21  22
ENDBRANCH   1  21
TORSDOF 19
