REMARK SMILES CC[C@](C)([NH2+]CC(=O)Nc1c(Cl)ccc(C)c1Cl)C(=O)NCCCCNC(=O)c1ccc(-c2c3nc(c(-c4c(F)cc(S(=O)(=O)[O-])cc4F)c4ccc([nH]4)c(-c4c(F)cc(S(=O)(=O)[O-])cc4F)c4nc(c(-c5c(F)cc(S(=O)(=O)[O-])cc5F)c5ccc2[nH]5)C=C4)C=C3)cc1
REMARK SMILES IDX 23 1 22 2 21 3 19 4 20 5 3 7 4 8 2 9 1 10 5 11 6 14 7 15
REMARK SMILES IDX 8 16 9 17 10 19 11 20 17 21 12 22 13 23 15 24 18 25 14 26
REMARK SMILES IDX 16 27 24 28 25 29 26 30 27 31 28 33 29 34 30 35 94 36 31 37
REMARK SMILES IDX 93 38 32 39 33 40 34 41 87 42 35 43 92 44 86 45 88 46 36 47
REMARK SMILES IDX 91 48 85 49 84 50 37 52 71 53 50 54 70 55 51 56 54 57 69 58
REMARK SMILES IDX 89 59 52 60 53 61 68 63 90 64 55 65 38 66 39 67 48 68 40 69
REMARK SMILES IDX 41 70 47 71 49 72 42 73 43 74 44 75 45 76 46 77 72 78 73 79
REMARK SMILES IDX 82 80 74 81 75 82 81 83 83 84 76 85 77 86 78 87 79 88 80 89
REMARK SMILES IDX 56 90 57 91 66 92 58 93 59 94 65 95 67 96 60 97 61 98 62 99
REMARK SMILES IDX 63 100 64 101
REMARK H PARENT 21 6 5 12 5 13 9 18 26 32 88 51 54 62
REMARK Flexibility Score: inf
ROOT
ATOM      1  C   UNL     1       3.307  -5.510   2.054  1.00  0.00     0.023 C 
ENDROOT
BRANCH   1   2
ATOM      2  C   UNL     1       3.143  -3.985   1.950  1.00  0.00     0.116 C 
BRANCH   2   3
ATOM      3  N   UNL     1       2.624  -3.462   0.669  1.00  0.00    -0.351 N 
ATOM      4  C   UNL     1       1.558  -2.671   0.275  1.00  0.00     0.281 C 
ATOM      5  O   UNL     1       1.853  -1.854  -0.615  1.00  0.00    -0.268 OA
ATOM      6  H   UNL     1       3.174  -3.747  -0.096  1.00  0.00     0.163 HD
BRANCH   4   7
ATOM      7  C   UNL     1       0.020  -2.945   0.596  1.00  0.00     0.172 C 
ATOM      8  C   UNL     1      -0.375  -3.490  -0.843  1.00  0.00     0.090 C 
BRANCH   7   9
ATOM      9  C   UNL     1      -1.134  -1.872   0.761  1.00  0.00     0.075 C 
ATOM     10  C   UNL     1      -1.634  -1.302   2.092  1.00  0.00     0.011 C 
ENDBRANCH   7   9
BRANCH   7  11
ATOM     11  N   UNL     1      -0.122  -4.032   1.537  1.00  0.00    -0.326 N 
ATOM     12  H   UNL     1       0.486  -4.781   1.205  1.00  0.00     0.347 HD
ATOM     13  H   UNL     1      -1.130  -4.185   1.543  1.00  0.00     0.347 HD
BRANCH  11  14
ATOM     14  C   UNL     1       0.177  -3.858   2.959  1.00  0.00     0.363 C 
BRANCH  14  15
ATOM     15  C   UNL     1       0.392  -2.537   3.734  1.00  0.00     0.279 C 
ATOM     16  O   UNL     1      -0.220  -2.494   4.827  1.00  0.00    -0.268 OA
ATOM     17  N   UNL     1       1.152  -1.416   3.573  1.00  0.00    -0.319 N 
ATOM     18  H   UNL     1       0.826  -0.706   4.172  1.00  0.00     0.170 HD
BRANCH  17  19
ATOM     19  C   UNL     1       2.263  -0.939   2.821  1.00  0.00     0.079 A 
ATOM     20  C   UNL     1       2.158  -0.121   1.677  1.00  0.00     0.066 A 
ATOM     21  C   UNL     1       3.526  -0.882   3.461  1.00  0.00     0.069 A 
ATOM     22  Cl  UNL     1       0.711   0.660   1.157  1.00  0.00    -0.082 Cl
ATOM     23  C   UNL     1       3.288   0.345   0.989  1.00  0.00     0.023 A 
ATOM     24  C   UNL     1       4.644  -0.240   2.869  1.00  0.00    -0.030 A 
ATOM     25  Cl  UNL     1       3.691  -1.537   5.065  1.00  0.00    -0.082 Cl
ATOM     26  C   UNL     1       4.534   0.274   1.577  1.00  0.00     0.006 A 
ATOM     27  C   UNL     1       5.913   0.043   3.626  1.00  0.00     0.046 C 
ENDBRANCH  17  19
ENDBRANCH  14  15
ENDBRANCH  11  14
ENDBRANCH   7  11
ENDBRANCH   4   7
ENDBRANCH   2   3
ENDBRANCH   1   2
BRANCH   1  28
ATOM     28  C   UNL     1       4.652  -5.973   2.651  1.00  0.00     0.023 C 
BRANCH  28  29
ATOM     29  C   UNL     1       5.043  -5.460   4.042  1.00  0.00     0.116 C 
BRANCH  29  30
ATOM     30  N   UNL     1       4.303  -6.059   5.145  1.00  0.00    -0.352 N 
ATOM     31  C   UNL     1       4.786  -6.574   6.333  1.00  0.00     0.251 C 
ATOM     32  H   UNL     1       3.326  -6.102   5.029  1.00  0.00     0.163 HD
ATOM     33  O   UNL     1       4.015  -7.094   7.140  1.00  0.00    -0.269 OA
BRANCH  31  34
ATOM     34  C   UNL     1       6.241  -6.550   6.617  1.00  0.00     0.039 A 
ATOM     35  C   UNL     1       6.886  -7.740   6.967  1.00  0.00     0.014 A 
ATOM     36  C   UNL     1       6.976  -5.370   6.486  1.00  0.00     0.014 A 
ATOM     37  C   UNL     1       8.282  -7.770   7.072  1.00  0.00     0.010 A 
ATOM     38  C   UNL     1       8.370  -5.417   6.525  1.00  0.00     0.010 A 
ATOM     39  C   UNL     1       9.041  -6.621   6.796  1.00  0.00    -0.014 A 
BRANCH  39  40
ATOM     40  C   UNL     1      10.530  -6.664   6.752  1.00  0.00     0.031 A 
ATOM     41  C   UNL     1      11.344  -5.833   7.708  1.00  0.00     0.074 A 
ATOM     42  C   UNL     1      11.151  -7.385   5.795  1.00  0.00     0.049 A 
ATOM     43  N   UNL     1      12.641  -5.665   7.759  1.00  0.00    -0.248 NA
ATOM     44  C   UNL     1      10.599  -5.066   8.717  1.00  0.00     0.031 C 
ATOM     45  C   UNL     1      10.481  -8.184   4.766  1.00  0.00     0.029 A 
ATOM     46  N   UNL     1      12.487  -7.551   5.520  1.00  0.00    -0.354 N 
ATOM     47  C   UNL     1      12.865  -4.760   8.791  1.00  0.00     0.074 A 
ATOM     48  C   UNL     1      11.567  -4.374   9.301  1.00  0.00     0.031 C 
ATOM     49  C   UNL     1      11.406  -8.768   3.988  1.00  0.00     0.029 A 
ATOM     50  C   UNL     1      12.734  -8.364   4.437  1.00  0.00     0.049 A 
ATOM     51  H   UNL     1      13.202  -7.128   6.049  1.00  0.00     0.167 HD
ATOM     52  C   UNL     1      14.044  -4.311   9.287  1.00  0.00     0.037 A 
ATOM     53  C   UNL     1      13.897  -8.738   3.866  1.00  0.00     0.037 A 
ATOM     54  C   UNL     1      15.335  -4.721   8.801  1.00  0.00     0.049 A 
ATOM     55  C   UNL     1      15.194  -8.251   4.452  1.00  0.00     0.074 A 
ATOM     56  C   UNL     1      16.586  -4.367   9.274  1.00  0.00     0.029 A 
ATOM     57  N   UNL     1      15.542  -5.584   7.734  1.00  0.00    -0.354 N 
ATOM     58  N   UNL     1      15.387  -7.441   5.466  1.00  0.00    -0.248 NA
ATOM     59  C   UNL     1      16.433  -8.733   3.824  1.00  0.00     0.031 C 
ATOM     60  C   UNL     1      17.550  -4.992   8.475  1.00  0.00     0.029 A 
ATOM     61  C   UNL     1      16.899  -5.766   7.528  1.00  0.00     0.049 A 
ATOM     62  H   UNL     1      14.828  -6.004   7.201  1.00  0.00     0.167 HD
ATOM     63  C   UNL     1      16.766  -7.336   5.612  1.00  0.00     0.074 A 
ATOM     64  C   UNL     1      17.359  -8.174   4.590  1.00  0.00     0.031 C 
ATOM     65  C   UNL     1      17.475  -6.611   6.512  1.00  0.00     0.037 A 
BRANCH  52  66
ATOM     66  C   UNL     1      13.985  -3.330  10.426  1.00  0.00     0.058 A 
ATOM     67  C   UNL     1      13.567  -3.721  11.709  1.00  0.00     0.135 A 
ATOM     68  C   UNL     1      14.362  -1.991  10.242  1.00  0.00     0.135 A 
ATOM     69  F   UNL     1      13.182  -4.987  11.938  1.00  0.00    -0.206 F 
ATOM     70  C   UNL     1      13.486  -2.812  12.757  1.00  0.00     0.059 A 
ATOM     71  C   UNL     1      14.317  -1.069  11.284  1.00  0.00     0.059 A 
ATOM     72  F   UNL     1      14.772  -1.563   9.037  1.00  0.00    -0.206 F 
ATOM     73  C   UNL     1      13.858  -1.485  12.534  1.00  0.00     0.060 A 
BRANCH  73  74
ATOM     74  S   UNL     1      13.735  -0.312  13.900  1.00  0.00     0.124 S 
ATOM     75  O   UNL     1      12.294  -0.092  13.963  1.00  0.00    -0.237 OA
ATOM     76  O   UNL     1      14.309  -1.064  15.012  1.00  0.00    -0.237 OA
ATOM     77  O   UNL     1      14.525   0.826  13.443  1.00  0.00    -0.744 OA
ENDBRANCH  73  74
ENDBRANCH  52  66
BRANCH  53  78
ATOM     78  C   UNL     1      13.888  -9.648   2.688  1.00  0.00     0.058 A 
ATOM     79  C   UNL     1      14.298 -10.984   2.807  1.00  0.00     0.135 A 
ATOM     80  C   UNL     1      13.455  -9.207   1.428  1.00  0.00     0.135 A 
ATOM     81  F   UNL     1      14.728 -11.450   3.990  1.00  0.00    -0.206 F 
ATOM     82  C   UNL     1      14.294 -11.849   1.717  1.00  0.00     0.059 A 
ATOM     83  C   UNL     1      13.420 -10.059   0.328  1.00  0.00     0.059 A 
ATOM     84  F   UNL     1      13.037  -7.942   1.265  1.00  0.00    -0.206 F 
ATOM     85  C   UNL     1      13.850 -11.377   0.481  1.00  0.00     0.060 A 
BRANCH  85  86
ATOM     86  S   UNL     1      13.795 -12.522  -0.915  1.00  0.00     0.124 S 
ATOM     87  O   UNL     1      15.207 -12.630  -1.263  1.00  0.00    -0.237 OA
ATOM     88  O   UNL     1      13.191 -13.708  -0.317  1.00  0.00    -0.237 OA
ATOM     89  O   UNL     1      12.956 -11.824  -1.886  1.00  0.00    -0.744 OA
ENDBRANCH  85  86
ENDBRANCH  53  78
BRANCH  65  90
ATOM     90  C   UNL     1      18.974  -6.712   6.455  1.00  0.00     0.058 A 
ATOM     91  C   UNL     1      19.717  -6.080   5.447  1.00  0.00     0.135 A 
ATOM     92  C   UNL     1      19.677  -7.402   7.456  1.00  0.00     0.135 A 
ATOM     93  F   UNL     1      19.091  -5.414   4.464  1.00  0.00    -0.206 F 
ATOM     94  C   UNL     1      21.106  -6.143   5.422  1.00  0.00     0.059 A 
ATOM     95  C   UNL     1      21.067  -7.458   7.464  1.00  0.00     0.059 A 
ATOM     96  F   UNL     1      19.013  -8.016   8.449  1.00  0.00    -0.206 F 
ATOM     97  C   UNL     1      21.773  -6.833   6.437  1.00  0.00     0.060 A 
BRANCH  97  98
ATOM     98  S   UNL     1      23.578  -6.874   6.416  1.00  0.00     0.124 S 
ATOM     99  O   UNL     1      23.838  -7.845   5.359  1.00  0.00    -0.237 OA
ATOM    100  O   UNL     1      23.919  -5.489   6.104  1.00  0.00    -0.237 OA
ATOM    101  O   UNL     1      23.922  -7.308   7.767  1.00  0.00    -0.744 OA
ENDBRANCH  97  98
ENDBRANCH  65  90
ENDBRANCH  39  40
ENDBRANCH  31  34
ENDBRANCH  29  30
ENDBRANCH  28  29
ENDBRANCH   1  28
TORSDOF 19
