REMARK SMILES Cc1cc(C)c(C(=O)NC[C@H]2CC[C@@H](C(=O)NCCCCNC(=O)c3ccc(-c4c5nc(c(-c6c(F)cc(S(=O)(=O)[O-])cc6F)c6ccc([nH]6)c(-c6c(F)cc(S(=O)(=O)[O-])cc6F)c6nc(c(-c7c(F)cc(S(=O)(=O)[O-])cc7F)c7ccc4[nH]7)C=C6)C=C5)cc3)O2)c(C)c1
REMARK SMILES IDX 19 1 18 2 17 3 15 4 16 5 14 7 11 8 12 9 91 10 13 11 10 12
REMARK SMILES IDX 9 13 7 14 8 15 6 17 1 18 2 19 3 20 94 21 4 22 92 23 5 24
REMARK SMILES IDX 93 25 20 26 21 27 22 28 23 29 24 31 25 32 26 33 90 34 27 35
REMARK SMILES IDX 89 36 28 37 29 38 30 39 83 40 31 41 88 42 82 43 84 44 32 45
REMARK SMILES IDX 87 46 81 47 80 48 33 50 67 51 46 52 66 53 47 54 50 55 65 56
REMARK SMILES IDX 85 57 48 58 49 59 64 61 86 62 51 63 34 64 35 65 44 66 36 67
REMARK SMILES IDX 37 68 43 69 45 70 38 71 39 72 40 73 41 74 42 75 68 76 69 77
REMARK SMILES IDX 78 78 70 79 71 80 77 81 79 82 72 83 73 84 74 85 75 86 76 87
REMARK SMILES IDX 52 88 53 89 62 90 54 91 55 92 61 93 63 94 56 95 57 96 58 97
REMARK SMILES IDX 59 98 60 99
REMARK H PARENT 17 6 9 16 22 30 84 49 50 60
REMARK Flexibility Score: inf
ROOT
ATOM      1  C   UNL     1      -4.127  -8.303   0.634  1.00  0.00     0.023 C 
ENDROOT
BRANCH   1   2
ATOM      2  C   UNL     1      -3.256  -7.261   1.331  1.00  0.00     0.116 C 
BRANCH   2   3
ATOM      3  N   UNL     1      -2.442  -7.838   2.386  1.00  0.00    -0.354 N 
ATOM      4  C   UNL     1      -1.084  -7.774   2.545  1.00  0.00     0.249 C 
ATOM      5  O   UNL     1      -0.581  -8.311   3.533  1.00  0.00    -0.272 OA
ATOM      6  H   UNL     1      -2.930  -8.341   3.077  1.00  0.00     0.163 HD
BRANCH   4   7
ATOM      7  C   UNL     1      -0.245  -7.072   1.465  1.00  0.00     0.207 C 
ATOM      8  C   UNL     1       0.405  -4.818   1.448  1.00  0.00     0.138 C 
ATOM      9  C   UNL     1       1.647  -5.661   1.230  1.00  0.00     0.037 C 
ATOM     10  O   UNL     1      -0.696  -5.718   1.276  1.00  0.00    -0.363 OA
ATOM     11  C   UNL     1       1.239  -6.996   1.803  1.00  0.00     0.045 C 
BRANCH   8  12
ATOM     12  C   UNL     1       0.313  -4.156   2.842  1.00  0.00     0.148 C 
BRANCH  12  13
ATOM     13  N   UNL     1       1.027  -2.894   2.868  1.00  0.00    -0.349 N 
ATOM     14  C   UNL     1       0.827  -1.630   2.380  1.00  0.00     0.251 C 
ATOM     15  O   UNL     1       1.898  -1.097   2.058  1.00  0.00    -0.269 OA
ATOM     16  H   UNL     1       1.873  -2.964   3.365  1.00  0.00     0.163 HD
BRANCH  14  17
ATOM     17  C   UNL     1      -0.450  -0.816   2.242  1.00  0.00     0.045 A 
ATOM     18  C   UNL     1      -3.687   1.993   1.323  1.00  0.00     0.044 C 
ATOM     19  C   UNL     1      -2.592   1.038   1.688  1.00  0.00    -0.051 A 
ATOM     20  C   UNL     1      -1.335   1.500   2.037  1.00  0.00     0.007 A 
ATOM     21  C   UNL     1      -2.794  -0.334   1.667  1.00  0.00     0.007 A 
ATOM     22  C   UNL     1      -0.282   0.610   2.351  1.00  0.00    -0.038 A 
ATOM     23  C   UNL     1      -1.756  -1.270   1.921  1.00  0.00    -0.038 A 
ATOM     24  C   UNL     1       1.005   1.304   2.750  1.00  0.00     0.045 C 
ATOM     25  C   UNL     1      -2.224  -2.686   1.807  1.00  0.00     0.045 C 
ENDBRANCH  14  17
ENDBRANCH  12  13
ENDBRANCH   8  12
ENDBRANCH   4   7
ENDBRANCH   2   3
ENDBRANCH   1   2
BRANCH   1  26
ATOM     26  C   UNL     1      -5.135  -9.016   1.534  1.00  0.00     0.023 C 
BRANCH  26  27
ATOM     27  C   UNL     1      -6.089  -8.104   2.299  1.00  0.00     0.116 C 
BRANCH  27  28
ATOM     28  N   UNL     1      -6.929  -7.301   1.424  1.00  0.00    -0.352 N 
ATOM     29  C   UNL     1      -8.302  -7.193   1.384  1.00  0.00     0.251 C 
ATOM     30  H   UNL     1      -6.446  -6.755   0.763  1.00  0.00     0.163 HD
ATOM     31  O   UNL     1      -8.836  -6.574   0.473  1.00  0.00    -0.269 OA
BRANCH  29  32
ATOM     32  C   UNL     1      -9.127  -7.853   2.422  1.00  0.00     0.039 A 
ATOM     33  C   UNL     1     -10.250  -8.585   2.027  1.00  0.00     0.014 A 
ATOM     34  C   UNL     1      -8.791  -7.763   3.775  1.00  0.00     0.014 A 
ATOM     35  C   UNL     1     -10.986  -9.294   2.981  1.00  0.00     0.010 A 
ATOM     36  C   UNL     1      -9.479  -8.531   4.712  1.00  0.00     0.010 A 
ATOM     37  C   UNL     1     -10.579  -9.312   4.325  1.00  0.00    -0.014 A 
BRANCH  37  38
ATOM     38  C   UNL     1     -11.274 -10.152   5.336  1.00  0.00     0.031 A 
ATOM     39  C   UNL     1     -11.960  -9.512   6.513  1.00  0.00     0.074 A 
ATOM     40  C   UNL     1     -11.229 -11.496   5.232  1.00  0.00     0.049 A 
ATOM     41  N   UNL     1     -12.533 -10.078   7.544  1.00  0.00    -0.248 NA
ATOM     42  C   UNL     1     -11.984  -8.040   6.547  1.00  0.00     0.031 C 
ATOM     43  C   UNL     1     -10.566 -12.241   4.158  1.00  0.00     0.029 A 
ATOM     44  N   UNL     1     -11.737 -12.478   6.046  1.00  0.00    -0.354 N 
ATOM     45  C   UNL     1     -12.980  -9.037   8.350  1.00  0.00     0.074 A 
ATOM     46  C   UNL     1     -12.562  -7.805   7.717  1.00  0.00     0.031 C 
ATOM     47  C   UNL     1     -10.727 -13.557   4.368  1.00  0.00     0.029 A 
ATOM     48  C   UNL     1     -11.459 -13.755   5.615  1.00  0.00     0.049 A 
ATOM     49  H   UNL     1     -12.252 -12.287   6.863  1.00  0.00     0.167 HD
ATOM     50  C   UNL     1     -13.696  -9.101   9.499  1.00  0.00     0.037 A 
ATOM     51  C   UNL     1     -11.746 -14.950   6.168  1.00  0.00     0.037 A 
ATOM     52  C   UNL     1     -14.121 -10.330  10.118  1.00  0.00     0.049 A 
ATOM     53  C   UNL     1     -12.505 -14.993   7.468  1.00  0.00     0.074 A 
ATOM     54  C   UNL     1     -14.882 -10.498  11.262  1.00  0.00     0.029 A 
ATOM     55  N   UNL     1     -13.820 -11.601   9.650  1.00  0.00    -0.354 N 
ATOM     56  N   UNL     1     -12.966 -13.998   8.188  1.00  0.00    -0.248 NA
ATOM     57  C   UNL     1     -12.785 -16.322   8.030  1.00  0.00     0.031 C 
ATOM     58  C   UNL     1     -14.999 -11.869  11.513  1.00  0.00     0.029 A 
ATOM     59  C   UNL     1     -14.360 -12.558  10.495  1.00  0.00     0.049 A 
ATOM     60  H   UNL     1     -13.300 -11.795   8.837  1.00  0.00     0.167 HD
ATOM     61  C   UNL     1     -13.615 -14.581   9.271  1.00  0.00     0.074 A 
ATOM     62  C   UNL     1     -13.502 -16.015   9.103  1.00  0.00     0.031 C 
ATOM     63  C   UNL     1     -14.248 -13.984  10.311  1.00  0.00     0.037 A 
BRANCH  50  64
ATOM     64  C   UNL     1     -14.073  -7.803  10.161  1.00  0.00     0.058 A 
ATOM     65  C   UNL     1     -15.019  -6.935   9.592  1.00  0.00     0.135 A 
ATOM     66  C   UNL     1     -13.524  -7.446  11.403  1.00  0.00     0.135 A 
ATOM     67  F   UNL     1     -15.566  -7.218   8.399  1.00  0.00    -0.206 F 
ATOM     68  C   UNL     1     -15.387  -5.748  10.217  1.00  0.00     0.059 A 
ATOM     69  C   UNL     1     -13.900  -6.277  12.061  1.00  0.00     0.059 A 
ATOM     70  F   UNL     1     -12.615  -8.237  11.994  1.00  0.00    -0.206 F 
ATOM     71  C   UNL     1     -14.824  -5.429  11.453  1.00  0.00     0.060 A 
BRANCH  71  72
ATOM     72  S   UNL     1     -15.326  -3.892  12.255  1.00  0.00     0.124 S 
ATOM     73  O   UNL     1     -14.688  -2.896  11.399  1.00  0.00    -0.237 OA
ATOM     74  O   UNL     1     -16.781  -3.959  12.172  1.00  0.00    -0.237 OA
ATOM     75  O   UNL     1     -14.770  -4.011  13.599  1.00  0.00    -0.744 OA
ENDBRANCH  71  72
ENDBRANCH  50  64
BRANCH  51  76
ATOM     76  C   UNL     1     -11.322 -16.210   5.496  1.00  0.00     0.058 A 
ATOM     77  C   UNL     1     -12.268 -17.091   4.951  1.00  0.00     0.135 A 
ATOM     78  C   UNL     1      -9.967 -16.566   5.397  1.00  0.00     0.135 A 
ATOM     79  F   UNL     1     -13.576 -16.800   5.027  1.00  0.00    -0.206 F 
ATOM     80  C   UNL     1     -11.892 -18.290   4.356  1.00  0.00     0.059 A 
ATOM     81  C   UNL     1      -9.564 -17.746   4.780  1.00  0.00     0.059 A 
ATOM     82  F   UNL     1      -9.019 -15.752   5.888  1.00  0.00    -0.206 F 
ATOM     83  C   UNL     1     -10.535 -18.609   4.275  1.00  0.00     0.060 A 
BRANCH  83  84
ATOM     84  S   UNL     1     -10.056 -20.155   3.475  1.00  0.00     0.124 S 
ATOM     85  O   UNL     1     -10.478 -21.140   4.464  1.00  0.00    -0.237 OA
ATOM     86  O   UNL     1     -10.834 -20.115   2.241  1.00  0.00    -0.237 OA
ATOM     87  O   UNL     1      -8.613 -20.011   3.303  1.00  0.00    -0.744 OA
ENDBRANCH  83  84
ENDBRANCH  51  76
BRANCH  63  88
ATOM     88  C   UNL     1     -14.900 -14.876  11.333  1.00  0.00     0.058 A 
ATOM     89  C   UNL     1     -14.146 -15.638  12.239  1.00  0.00     0.135 A 
ATOM     90  C   UNL     1     -16.299 -14.931  11.439  1.00  0.00     0.135 A 
ATOM     91  F   UNL     1     -12.804 -15.629  12.178  1.00  0.00    -0.206 F 
ATOM     92  C   UNL     1     -14.755 -16.441  13.198  1.00  0.00     0.059 A 
ATOM     93  C   UNL     1     -16.930 -15.702  12.410  1.00  0.00     0.059 A 
ATOM     94  F   UNL     1     -17.070 -14.215  10.604  1.00  0.00    -0.206 F 
ATOM     95  C   UNL     1     -16.149 -16.463  13.278  1.00  0.00     0.060 A 
BRANCH  95  96
ATOM     96  S   UNL     1     -16.925 -17.482  14.550  1.00  0.00     0.124 S 
ATOM     97  O   UNL     1     -16.694 -18.826  14.033  1.00  0.00    -0.237 OA
ATOM     98  O   UNL     1     -16.165 -17.122  15.743  1.00  0.00    -0.237 OA
ATOM     99  O   UNL     1     -18.316 -17.037  14.542  1.00  0.00    -0.744 OA
ENDBRANCH  95  96
ENDBRANCH  63  88
ENDBRANCH  37  38
ENDBRANCH  29  32
ENDBRANCH  27  28
ENDBRANCH  26  27
ENDBRANCH   1  26
TORSDOF 17
