REMARK SMILES [NH3+][C@@H](Cc1c[nH]c2ccccc12)C(=O)N[C@@H](CS)C(=O)N[C@@H](CO)C(=O)NCCCCNC(=O)c1ccc(-c2c3nc(c(-c4c(F)cc(S(=O)(=O)[O-])cc4F)c4ccc([nH]4)c(-c4c(F)cc(S(=O)(=O)[O-])cc4F)c4nc(c(-c5c(F)cc(S(=O)(=O)[O-])cc5F)c5ccc2[nH]5)C=C4)C=C3)cc1
REMARK SMILES IDX 28 1 27 2 25 3 26 4 22 6 21 7 19 8 20 9 16 11 15 12 13 13
REMARK SMILES IDX 14 14 2 16 1 17 3 21 4 22 5 23 12 24 6 25 7 26 11 27 8 29
REMARK SMILES IDX 10 30 9 31 17 32 18 33 23 35 24 36 29 38 30 39 31 40 32 41
REMARK SMILES IDX 33 42 34 44 35 45 36 46 100 47 37 48 99 49 38 50 39 51 40 52
REMARK SMILES IDX 93 53 41 54 98 55 92 56 94 57 42 58 97 59 91 60 90 61 43 63
REMARK SMILES IDX 77 64 56 65 76 66 57 67 60 68 75 69 95 70 58 71 59 72 74 74
REMARK SMILES IDX 96 75 61 76 44 77 45 78 54 79 46 80 47 81 53 82 55 83 48 84
REMARK SMILES IDX 49 85 50 86 51 87 52 88 78 89 79 90 88 91 80 92 81 93 87 94
REMARK SMILES IDX 89 95 82 96 83 97 84 98 85 99 86 100 62 101 63 102 72 103
REMARK SMILES IDX 64 104 65 105 71 106 73 107 66 108 67 109 68 110 69 111
REMARK SMILES IDX 70 112
REMARK H PARENT 27 5 21 10 15 15 1 18 1 19 1 20 6 28 18 34 24 37 32 43 94 62
REMARK H PARENT 60 73
REMARK Flexibility Score: inf
ROOT
ATOM      1  C   UNL     1      -5.363   6.099   0.498  1.00  0.00     0.116 C 
ENDROOT
BRANCH   1   2
ATOM      2  N   UNL     1      -5.482   5.354  -0.740  1.00  0.00    -0.354 N 
ATOM      3  C   UNL     1      -5.243   4.046  -1.022  1.00  0.00     0.244 C 
ATOM      4  O   UNL     1      -5.640   3.617  -2.111  1.00  0.00    -0.273 OA
ATOM      5  H   UNL     1      -5.789   5.887  -1.508  1.00  0.00     0.163 HD
BRANCH   3   6
ATOM      6  C   UNL     1      -4.585   3.077  -0.030  1.00  0.00     0.197 C 
BRANCH   6   7
ATOM      7  N   UNL     1      -3.339   3.570   0.542  1.00  0.00    -0.340 N 
ATOM      8  C   UNL     1      -2.186   2.914   0.783  1.00  0.00     0.244 C 
ATOM      9  O   UNL     1      -1.598   3.259   1.814  1.00  0.00    -0.273 OA
ATOM     10  H   UNL     1      -3.340   4.523   0.788  1.00  0.00     0.164 HD
BRANCH   8  11
ATOM     11  C   UNL     1      -1.670   1.730  -0.057  1.00  0.00     0.181 C 
BRANCH  11  12
ATOM     12  N   UNL     1      -1.766   0.518   0.736  1.00  0.00    -0.338 N 
ATOM     13  C   UNL     1      -0.799  -0.055   1.514  1.00  0.00     0.279 C 
ATOM     14  O   UNL     1      -1.191  -0.821   2.403  1.00  0.00    -0.268 OA
ATOM     15  H   UNL     1      -2.633   0.052   0.711  1.00  0.00     0.164 HD
BRANCH  13  16
ATOM     16  C   UNL     1       0.725   0.159   1.266  1.00  0.00     0.275 C 
BRANCH  16  17
ATOM     17  N   UNL     1       1.102  -0.304  -0.087  1.00  0.00    -0.347 N 
ATOM     18  H   UNL     1       2.101  -0.156  -0.230  1.00  0.00     0.345 HD
ATOM     19  H   UNL     1       0.577   0.222  -0.785  1.00  0.00     0.345 HD
ATOM     20  H   UNL     1       0.889  -1.297  -0.178  1.00  0.00     0.345 HD
ENDBRANCH  16  17
BRANCH  16  21
ATOM     21  C   UNL     1       1.367   1.467   1.786  1.00  0.00     0.113 C 
BRANCH  21  22
ATOM     22  C   UNL     1       1.468   2.705   0.921  1.00  0.00    -0.016 A 
ATOM     23  C   UNL     1       1.589   2.833  -0.454  1.00  0.00     0.087 A 
ATOM     24  C   UNL     1       1.496   4.052   1.437  1.00  0.00     0.003 A 
ATOM     25  N   UNL     1       1.478   4.160  -0.782  1.00  0.00    -0.361 N 
ATOM     26  C   UNL     1       1.434   4.928   0.354  1.00  0.00     0.046 A 
ATOM     27  C   UNL     1       1.537   4.604   2.735  1.00  0.00     0.010 A 
ATOM     28  H   UNL     1       1.436   4.512  -1.701  1.00  0.00     0.166 HD
ATOM     29  C   UNL     1       1.349   6.318   0.500  1.00  0.00     0.026 A 
ATOM     30  C   UNL     1       1.501   5.994   2.901  1.00  0.00     0.001 A 
ATOM     31  C   UNL     1       1.391   6.836   1.798  1.00  0.00     0.002 A 
ENDBRANCH  21  22
ENDBRANCH  16  21
ENDBRANCH  13  16
ENDBRANCH  11  12
BRANCH  11  32
ATOM     32  C   UNL     1      -2.019   1.645  -1.552  1.00  0.00     0.101 C 
BRANCH  32  33
ATOM     33  S   UNL     1      -2.868   0.129  -2.114  1.00  0.00    -0.177 SA
ATOM     34  H   UNL     1      -2.048  -0.942  -1.936  1.00  0.00     0.102 HD
ENDBRANCH  32  33
ENDBRANCH  11  32
ENDBRANCH   8  11
ENDBRANCH   6   7
BRANCH   6  35
ATOM     35  C   UNL     1      -5.559   2.586   1.052  1.00  0.00     0.191 C 
BRANCH  35  36
ATOM     36  O   UNL     1      -5.623   3.459   2.177  1.00  0.00    -0.394 OA
ATOM     37  H   UNL     1      -4.750   3.510   2.597  1.00  0.00     0.210 HD
ENDBRANCH  35  36
ENDBRANCH   6  35
ENDBRANCH   3   6
ENDBRANCH   1   2
BRANCH   1  38
ATOM     38  C   UNL     1      -4.542   7.375   0.332  1.00  0.00     0.023 C 
BRANCH  38  39
ATOM     39  C   UNL     1      -5.150   8.414  -0.610  1.00  0.00     0.023 C 
BRANCH  39  40
ATOM     40  C   UNL     1      -6.627   8.717  -0.381  1.00  0.00     0.116 C 
BRANCH  40  41
ATOM     41  N   UNL     1      -6.929   9.122   0.985  1.00  0.00    -0.352 N 
ATOM     42  C   UNL     1      -7.741  10.147   1.410  1.00  0.00     0.251 C 
ATOM     43  H   UNL     1      -6.497   8.594   1.695  1.00  0.00     0.163 HD
ATOM     44  O   UNL     1      -7.837  10.420   2.602  1.00  0.00    -0.269 OA
BRANCH  42  45
ATOM     45  C   UNL     1      -8.455  10.944   0.396  1.00  0.00     0.039 A 
ATOM     46  C   UNL     1      -8.227  12.320   0.339  1.00  0.00     0.014 A 
ATOM     47  C   UNL     1      -9.249  10.308  -0.562  1.00  0.00     0.014 A 
ATOM     48  C   UNL     1      -8.718  13.049  -0.744  1.00  0.00     0.010 A 
ATOM     49  C   UNL     1      -9.680  11.024  -1.673  1.00  0.00     0.010 A 
ATOM     50  C   UNL     1      -9.399  12.395  -1.784  1.00  0.00    -0.014 A 
BRANCH  50  51
ATOM     51  C   UNL     1      -9.784  13.110  -3.026  1.00  0.00     0.031 A 
ATOM     52  C   UNL     1     -11.234  13.254  -3.388  1.00  0.00     0.074 A 
ATOM     53  C   UNL     1      -8.824  13.535  -3.872  1.00  0.00     0.049 A 
ATOM     54  N   UNL     1     -11.766  13.725  -4.485  1.00  0.00    -0.248 NA
ATOM     55  C   UNL     1     -12.214  12.780  -2.398  1.00  0.00     0.031 C 
ATOM     56  C   UNL     1      -7.381  13.406  -3.650  1.00  0.00     0.029 A 
ATOM     57  N   UNL     1      -8.915  14.140  -5.100  1.00  0.00    -0.354 N 
ATOM     58  C   UNL     1     -13.139  13.589  -4.327  1.00  0.00     0.074 A 
ATOM     59  C   UNL     1     -13.357  12.951  -3.046  1.00  0.00     0.031 C 
ATOM     60  C   UNL     1      -6.725  13.926  -4.700  1.00  0.00     0.029 A 
ATOM     61  C   UNL     1      -7.696  14.385  -5.688  1.00  0.00     0.049 A 
ATOM     62  H   UNL     1      -9.773  14.377  -5.521  1.00  0.00     0.167 HD
ATOM     63  C   UNL     1     -14.127  13.978  -5.166  1.00  0.00     0.037 A 
ATOM     64  C   UNL     1      -7.394  14.903  -6.895  1.00  0.00     0.037 A 
ATOM     65  C   UNL     1     -13.902  14.637  -6.425  1.00  0.00     0.049 A 
ATOM     66  C   UNL     1      -8.509  15.315  -7.815  1.00  0.00     0.074 A 
ATOM     67  C   UNL     1     -14.838  15.139  -7.312  1.00  0.00     0.029 A 
ATOM     68  N   UNL     1     -12.654  14.881  -6.978  1.00  0.00    -0.354 N 
ATOM     69  N   UNL     1      -9.805  15.241  -7.620  1.00  0.00    -0.248 NA
ATOM     70  C   UNL     1      -8.127  15.876  -9.118  1.00  0.00     0.031 C 
ATOM     71  C   UNL     1     -14.157  15.652  -8.421  1.00  0.00     0.029 A 
ATOM     72  C   UNL     1     -12.795  15.503  -8.207  1.00  0.00     0.049 A 
ATOM     73  H   UNL     1     -11.794  14.647  -6.559  1.00  0.00     0.167 HD
ATOM     74  C   UNL     1     -10.391  15.758  -8.769  1.00  0.00     0.074 A 
ATOM     75  C   UNL     1      -9.310  16.154  -9.649  1.00  0.00     0.031 C 
ATOM     76  C   UNL     1     -11.706  15.890  -9.069  1.00  0.00     0.037 A 
BRANCH  63  77
ATOM     77  C   UNL     1     -15.543  13.704  -4.744  1.00  0.00     0.058 A 
ATOM     78  C   UNL     1     -16.151  14.426  -3.705  1.00  0.00     0.135 A 
ATOM     79  C   UNL     1     -16.310  12.732  -5.405  1.00  0.00     0.135 A 
ATOM     80  F   UNL     1     -15.456  15.355  -3.030  1.00  0.00    -0.206 F 
ATOM     81  C   UNL     1     -17.462  14.173  -3.315  1.00  0.00     0.059 A 
ATOM     82  C   UNL     1     -17.632  12.479  -5.048  1.00  0.00     0.059 A 
ATOM     83  F   UNL     1     -15.776  12.013  -6.404  1.00  0.00    -0.206 F 
ATOM     84  C   UNL     1     -18.193  13.195  -3.992  1.00  0.00     0.060 A 
BRANCH  84  85
ATOM     85  S   UNL     1     -19.894  12.879  -3.474  1.00  0.00     0.124 S 
ATOM     86  O   UNL     1     -19.686  12.140  -2.233  1.00  0.00    -0.237 OA
ATOM     87  O   UNL     1     -20.432  14.227  -3.327  1.00  0.00    -0.237 OA
ATOM     88  O   UNL     1     -20.447  12.104  -4.581  1.00  0.00    -0.744 OA
ENDBRANCH  84  85
ENDBRANCH  63  77
BRANCH  64  89
ATOM     89  C   UNL     1      -5.972  15.061  -7.299  1.00  0.00     0.058 A 
ATOM     90  C   UNL     1      -5.380  16.331  -7.365  1.00  0.00     0.135 A 
ATOM     91  C   UNL     1      -5.172  13.949  -7.605  1.00  0.00     0.135 A 
ATOM     92  F   UNL     1      -6.107  17.424  -7.088  1.00  0.00    -0.206 F 
ATOM     93  C   UNL     1      -4.047  16.495  -7.727  1.00  0.00     0.059 A 
ATOM     94  C   UNL     1      -3.831  14.086  -7.950  1.00  0.00     0.059 A 
ATOM     95  F   UNL     1      -5.687  12.712  -7.541  1.00  0.00    -0.206 F 
ATOM     96  C   UNL     1      -3.280  15.366  -8.015  1.00  0.00     0.060 A 
BRANCH  96  97
ATOM     97  S   UNL     1      -1.534  15.583  -8.424  1.00  0.00     0.124 S 
ATOM     98  O   UNL     1      -1.613  16.083  -9.791  1.00  0.00    -0.237 OA
ATOM     99  O   UNL     1      -1.098  16.544  -7.416  1.00  0.00    -0.237 OA
ATOM    100  O   UNL     1      -0.986  14.238  -8.273  1.00  0.00    -0.744 OA
ENDBRANCH  96  97
ENDBRANCH  64  89
BRANCH  76 101
ATOM    101  C   UNL     1     -12.057  16.498 -10.397  1.00  0.00     0.058 A 
ATOM    102  C   UNL     1     -11.946  15.763 -11.587  1.00  0.00     0.135 A 
ATOM    103  C   UNL     1     -12.584  17.797 -10.470  1.00  0.00     0.135 A 
ATOM    104  F   UNL     1     -11.439  14.521 -11.570  1.00  0.00    -0.206 F 
ATOM    105  C   UNL     1     -12.343  16.299 -12.808  1.00  0.00     0.059 A 
ATOM    106  C   UNL     1     -13.007  18.344 -11.677  1.00  0.00     0.059 A 
ATOM    107  F   UNL     1     -12.716  18.537  -9.358  1.00  0.00    -0.206 F 
ATOM    108  C   UNL     1     -12.878  17.588 -12.842  1.00  0.00     0.060 A 
BRANCH 108 109
ATOM    109  S   UNL     1     -13.448  18.247 -14.423  1.00  0.00     0.124 S 
ATOM    110  O   UNL     1     -12.185  18.558 -15.084  1.00  0.00    -0.237 OA
ATOM    111  O   UNL     1     -14.195  17.122 -14.980  1.00  0.00    -0.237 OA
ATOM    112  O   UNL     1     -14.258  19.399 -14.039  1.00  0.00    -0.744 OA
ENDBRANCH 108 109
ENDBRANCH  76 101
ENDBRANCH  50  51
ENDBRANCH  42  45
ENDBRANCH  40  41
ENDBRANCH  39  40
ENDBRANCH  38  39
ENDBRANCH   1  38
TORSDOF 25
