REMARK SMILES CS(=O)(=O)c1ccc(/C=C(/C(=O)NCCCCNC(=O)c2ccc(-c3c4nc(c(-c5c(F)cc(S(=O)(=O)[O-])cc5F)c5ccc([nH]5)c(-c5c(F)cc(S(=O)(=O)[O-])cc5F)c5nc(c(-c6c(F)cc(S(=O)(=O)[O-])cc6F)c6ccc3[nH]6)C=C5)C=C4)cc2)c2ccc(O)cc2)cc1
REMARK SMILES IDX 16 1 15 2 14 3 13 4 11 5 12 6 10 8 9 9 8 10 5 11 6 12 95 13
REMARK SMILES IDX 7 14 94 15 2 16 1 17 3 18 4 19 87 20 88 21 93 22 89 23 92 24
REMARK SMILES IDX 90 25 91 26 17 28 18 29 19 30 20 32 21 33 22 34 86 35 23 36
REMARK SMILES IDX 85 37 24 38 25 39 26 40 79 41 27 42 84 43 78 44 80 45 28 46
REMARK SMILES IDX 83 47 77 48 76 49 29 51 63 52 42 53 62 54 43 55 46 56 61 57
REMARK SMILES IDX 81 58 44 59 45 60 60 62 82 63 47 64 30 65 31 66 40 67 32 68
REMARK SMILES IDX 33 69 39 70 41 71 34 72 35 73 36 74 37 75 38 76 64 77 65 78
REMARK SMILES IDX 74 79 66 80 67 81 73 82 75 83 68 84 69 85 70 86 71 87 72 88
REMARK SMILES IDX 48 89 49 90 58 91 50 92 51 93 57 94 59 95 52 96 53 97 54 98
REMARK SMILES IDX 55 99 56 100
REMARK H PARENT 13 7 91 27 18 31 80 50 46 61
REMARK Flexibility Score: inf
ROOT
ATOM      1  C   UNL     1       4.964   1.839  -9.738  1.00  0.00     0.023 C 
ENDROOT
BRANCH   1   2
ATOM      2  C   UNL     1       4.145   1.385  -8.522  1.00  0.00     0.023 C 
BRANCH   2   3
ATOM      3  C   UNL     1       2.960   0.477  -8.864  1.00  0.00     0.116 C 
BRANCH   3   4
ATOM      4  N   UNL     1       3.429  -0.837  -9.255  1.00  0.00    -0.352 N 
ATOM      5  C   UNL     1       3.557  -2.027  -8.610  1.00  0.00     0.251 C 
ATOM      6  O   UNL     1       4.047  -2.946  -9.272  1.00  0.00    -0.269 OA
ATOM      7  H   UNL     1       3.719  -0.877 -10.195  1.00  0.00     0.163 HD
BRANCH   5   8
ATOM      8  C   UNL     1       3.063  -2.284  -7.200  1.00  0.00     0.047 C 
ATOM      9  C   UNL     1       3.047  -1.319  -6.252  1.00  0.00     0.022 C 
BRANCH   9  10
ATOM     10  C   UNL     1       2.484  -1.341  -4.884  1.00  0.00    -0.025 A 
ATOM     11  C   UNL     1       1.207  -1.285  -2.384  1.00  0.00     0.067 A 
ATOM     12  C   UNL     1       2.008  -2.373  -2.731  1.00  0.00     0.021 A 
ATOM     13  C   UNL     1       1.060  -0.206  -3.256  1.00  0.00     0.021 A 
ATOM     14  C   UNL     1       2.665  -2.383  -3.967  1.00  0.00     0.009 A 
ATOM     15  C   UNL     1       1.702  -0.237  -4.497  1.00  0.00     0.009 A 
BRANCH  11  16
ATOM     16  S   UNL     1       0.326  -1.279  -0.842  1.00  0.00     0.175 S 
ATOM     17  C   UNL     1       1.042   0.072   0.055  1.00  0.00     0.163 C 
ATOM     18  O   UNL     1       0.665  -2.501  -0.132  1.00  0.00    -0.224 OA
ATOM     19  O   UNL     1      -1.053  -0.951  -1.139  1.00  0.00    -0.224 OA
ENDBRANCH  11  16
ENDBRANCH   9  10
BRANCH   8  20
ATOM     20  C   UNL     1       2.766  -3.696  -6.843  1.00  0.00    -0.013 A 
ATOM     21  C   UNL     1       3.832  -4.613  -6.807  1.00  0.00     0.013 A 
ATOM     22  C   UNL     1       1.492  -4.125  -6.448  1.00  0.00     0.013 A 
ATOM     23  C   UNL     1       3.643  -5.913  -6.342  1.00  0.00     0.047 A 
ATOM     24  C   UNL     1       1.305  -5.425  -5.963  1.00  0.00     0.047 A 
ATOM     25  C   UNL     1       2.387  -6.300  -5.899  1.00  0.00     0.115 A 
BRANCH  25  26
ATOM     26  O   UNL     1       2.260  -7.556  -5.385  1.00  0.00    -0.508 OA
ATOM     27  H   UNL     1       3.002  -8.127  -5.353  1.00  0.00     0.293 HD
ENDBRANCH  25  26
ENDBRANCH   8  20
ENDBRANCH   5   8
ENDBRANCH   3   4
ENDBRANCH   2   3
ENDBRANCH   1   2
BRANCH   1  28
ATOM     28  C   UNL     1       4.193   2.650 -10.774  1.00  0.00     0.116 C 
BRANCH  28  29
ATOM     29  N   UNL     1       3.566   3.838 -10.215  1.00  0.00    -0.352 N 
ATOM     30  C   UNL     1       3.379   5.066 -10.802  1.00  0.00     0.251 C 
ATOM     31  H   UNL     1       3.232   3.751  -9.293  1.00  0.00     0.163 HD
ATOM     32  O   UNL     1       2.934   6.000 -10.142  1.00  0.00    -0.269 OA
BRANCH  30  33
ATOM     33  C   UNL     1       3.753   5.259 -12.219  1.00  0.00     0.039 A 
ATOM     34  C   UNL     1       4.545   6.357 -12.562  1.00  0.00     0.014 A 
ATOM     35  C   UNL     1       3.348   4.345 -13.195  1.00  0.00     0.014 A 
ATOM     36  C   UNL     1       4.989   6.501 -13.878  1.00  0.00     0.010 A 
ATOM     37  C   UNL     1       3.843   4.456 -14.491  1.00  0.00     0.010 A 
ATOM     38  C   UNL     1       4.671   5.532 -14.845  1.00  0.00    -0.014 A 
BRANCH  38  39
ATOM     39  C   UNL     1       5.206   5.620 -16.227  1.00  0.00     0.031 A 
ATOM     40  C   UNL     1       4.269   5.808 -17.388  1.00  0.00     0.074 A 
ATOM     41  C   UNL     1       6.527   5.458 -16.440  1.00  0.00     0.049 A 
ATOM     42  N   UNL     1       4.537   5.832 -18.668  1.00  0.00    -0.248 NA
ATOM     43  C   UNL     1       2.841   5.962 -17.070  1.00  0.00     0.031 C 
ATOM     44  C   UNL     1       7.529   5.217 -15.398  1.00  0.00     0.029 A 
ATOM     45  N   UNL     1       7.254   5.458 -17.604  1.00  0.00    -0.354 N 
ATOM     46  C   UNL     1       3.313   5.989 -19.308  1.00  0.00     0.074 A 
ATOM     47  C   UNL     1       2.297   6.003 -18.277  1.00  0.00     0.031 C 
ATOM     48  C   UNL     1       8.740   5.111 -15.968  1.00  0.00     0.029 A 
ATOM     49  C   UNL     1       8.599   5.241 -17.415  1.00  0.00     0.049 A 
ATOM     50  H   UNL     1       6.851   5.601 -18.490  1.00  0.00     0.167 HD
ATOM     51  C   UNL     1       3.061   6.130 -20.631  1.00  0.00     0.037 A 
ATOM     52  C   UNL     1       9.604   5.149 -18.308  1.00  0.00     0.037 A 
ATOM     53  C   UNL     1       4.080   6.142 -21.648  1.00  0.00     0.049 A 
ATOM     54  C   UNL     1       9.300   5.318 -19.772  1.00  0.00     0.074 A 
ATOM     55  C   UNL     1       3.934   6.339 -23.010  1.00  0.00     0.029 A 
ATOM     56  N   UNL     1       5.434   5.948 -21.416  1.00  0.00    -0.354 N 
ATOM     57  N   UNL     1       8.144   5.530 -20.354  1.00  0.00    -0.248 NA
ATOM     58  C   UNL     1      10.437   5.242 -20.700  1.00  0.00     0.031 C 
ATOM     59  C   UNL     1       5.195   6.226 -23.606  1.00  0.00     0.029 A 
ATOM     60  C   UNL     1       6.133   6.004 -22.610  1.00  0.00     0.049 A 
ATOM     61  H   UNL     1       5.838   5.793 -20.531  1.00  0.00     0.167 HD
ATOM     62  C   UNL     1       8.418   5.639 -21.713  1.00  0.00     0.074 A 
ATOM     63  C   UNL     1       9.849   5.480 -21.865  1.00  0.00     0.031 C 
ATOM     64  C   UNL     1       7.560   5.853 -22.742  1.00  0.00     0.037 A 
BRANCH  51  65
ATOM     65  C   UNL     1       1.627   6.293 -21.053  1.00  0.00     0.058 A 
ATOM     66  C   UNL     1       0.907   7.466 -20.777  1.00  0.00     0.135 A 
ATOM     67  C   UNL     1       0.972   5.277 -21.769  1.00  0.00     0.135 A 
ATOM     68  F   UNL     1       1.479   8.463 -20.082  1.00  0.00    -0.206 F 
ATOM     69  C   UNL     1      -0.420   7.615 -21.167  1.00  0.00     0.059 A 
ATOM     70  C   UNL     1      -0.347   5.416 -22.194  1.00  0.00     0.059 A 
ATOM     71  F   UNL     1       1.613   4.134 -22.061  1.00  0.00    -0.206 F 
ATOM     72  C   UNL     1      -1.039   6.583 -21.873  1.00  0.00     0.060 A 
BRANCH  72  73
ATOM     73  S   UNL     1      -2.761   6.793 -22.373  1.00  0.00     0.124 S 
ATOM     74  O   UNL     1      -3.454   6.623 -21.099  1.00  0.00    -0.237 OA
ATOM     75  O   UNL     1      -2.765   8.146 -22.920  1.00  0.00    -0.237 OA
ATOM     76  O   UNL     1      -2.965   5.725 -23.346  1.00  0.00    -0.744 OA
ENDBRANCH  72  73
ENDBRANCH  51  65
BRANCH  52  77
ATOM     77  C   UNL     1      10.995   4.911 -17.839  1.00  0.00     0.058 A 
ATOM     78  C   UNL     1      11.960   5.927 -17.902  1.00  0.00     0.135 A 
ATOM     79  C   UNL     1      11.384   3.672 -17.307  1.00  0.00     0.135 A 
ATOM     80  F   UNL     1      11.637   7.127 -18.407  1.00  0.00    -0.206 F 
ATOM     81  C   UNL     1      13.265   5.720 -17.469  1.00  0.00     0.059 A 
ATOM     82  C   UNL     1      12.677   3.448 -16.846  1.00  0.00     0.059 A 
ATOM     83  F   UNL     1      10.493   2.672 -17.209  1.00  0.00    -0.206 F 
ATOM     84  C   UNL     1      13.614   4.476 -16.941  1.00  0.00     0.060 A 
BRANCH  84  85
ATOM     85  S   UNL     1      15.299   4.234 -16.336  1.00  0.00     0.124 S 
ATOM     86  O   UNL     1      16.047   4.132 -17.583  1.00  0.00    -0.237 OA
ATOM     87  O   UNL     1      15.522   5.447 -15.555  1.00  0.00    -0.237 OA
ATOM     88  O   UNL     1      15.200   3.005 -15.554  1.00  0.00    -0.744 OA
ENDBRANCH  84  85
ENDBRANCH  52  77
BRANCH  64  89
ATOM     89  C   UNL     1       8.148   5.962 -24.121  1.00  0.00     0.058 A 
ATOM     90  C   UNL     1       8.625   4.837 -24.811  1.00  0.00     0.135 A 
ATOM     91  C   UNL     1       8.184   7.201 -24.781  1.00  0.00     0.135 A 
ATOM     92  F   UNL     1       8.620   3.631 -24.222  1.00  0.00    -0.206 F 
ATOM     93  C   UNL     1       9.135   4.939 -26.101  1.00  0.00     0.059 A 
ATOM     94  C   UNL     1       8.665   7.323 -26.080  1.00  0.00     0.059 A 
ATOM     95  F   UNL     1       7.731   8.307 -24.168  1.00  0.00    -0.206 F 
ATOM     96  C   UNL     1       9.149   6.187 -26.729  1.00  0.00     0.060 A 
BRANCH  96  97
ATOM     97  S   UNL     1       9.777   6.301 -28.417  1.00  0.00     0.124 S 
ATOM     98  O   UNL     1      11.216   6.190 -28.203  1.00  0.00    -0.237 OA
ATOM     99  O   UNL     1       9.142   5.157 -29.066  1.00  0.00    -0.237 OA
ATOM    100  O   UNL     1       9.307   7.608 -28.867  1.00  0.00    -0.744 OA
ENDBRANCH  96  97
ENDBRANCH  64  89
ENDBRANCH  38  39
ENDBRANCH  30  33
ENDBRANCH  28  29
ENDBRANCH   1  28
TORSDOF 18
