REMARK SMILES Cc1ccoc1C(=O)N1CCO[C@H](CC(=O)NCCCCNC(=O)c2ccc(-c3c4nc(c(-c5c(F)cc(S(=O)(=O)[O-])cc5F)c5ccc([nH]5)c(-c5c(F)cc(S(=O)(=O)[O-])cc5F)c5nc(c(-c6c(F)cc(S(=O)(=O)[O-])cc6F)c6ccc3[nH]6)C=C5)C=C4)cc2)C1
REMARK SMILES IDX 19 1 18 2 17 3 15 4 16 5 14 7 13 8 9 9 10 10 91 11 11 12
REMARK SMILES IDX 12 13 7 14 8 15 6 16 1 17 2 18 3 19 4 20 5 21 20 22 21 23
REMARK SMILES IDX 22 24 23 25 24 27 25 28 26 29 90 30 27 31 89 32 28 33 29 34
REMARK SMILES IDX 30 35 83 36 31 37 88 38 82 39 84 40 32 41 87 42 81 43 80 44
REMARK SMILES IDX 33 46 67 47 46 48 66 49 47 50 50 51 65 52 85 53 48 54 49 55
REMARK SMILES IDX 64 57 86 58 51 59 34 60 35 61 44 62 36 63 37 64 43 65 45 66
REMARK SMILES IDX 38 67 39 68 40 69 41 70 42 71 68 72 69 73 78 74 70 75 71 76
REMARK SMILES IDX 77 77 79 78 72 79 73 80 74 81 75 82 76 83 52 84 53 85 62 86
REMARK SMILES IDX 54 87 55 88 61 89 63 90 56 91 57 92 58 93 59 94 60 95
REMARK H PARENT 17 6 22 26 84 45 50 56
REMARK Flexibility Score: inf
ROOT
ATOM      1  C   UNL     1      -7.008  -1.893   2.388  1.00  0.00     0.023 C 
ENDROOT
BRANCH   1   2
ATOM      2  C   UNL     1      -5.900  -0.848   2.453  1.00  0.00     0.116 C 
BRANCH   2   3
ATOM      3  N   UNL     1      -5.057  -1.075   3.609  1.00  0.00    -0.356 N 
ATOM      4  C   UNL     1      -3.839  -1.679   3.650  1.00  0.00     0.222 C 
ATOM      5  O   UNL     1      -3.354  -1.995   4.735  1.00  0.00    -0.275 OA
ATOM      6  H   UNL     1      -5.408  -0.752   4.470  1.00  0.00     0.163 HD
BRANCH   4   7
ATOM      7  C   UNL     1      -3.079  -1.878   2.366  1.00  0.00     0.133 C 
BRANCH   7   8
ATOM      8  C   UNL     1      -3.363  -3.214   1.662  1.00  0.00     0.147 C 
ATOM      9  N   UNL     1      -1.669  -2.740   0.007  1.00  0.00    -0.331 N 
ATOM     10  C   UNL     1      -2.632  -2.584  -1.071  1.00  0.00     0.148 C 
ATOM     11  C   UNL     1      -2.075  -3.726   1.006  1.00  0.00     0.152 C 
ATOM     12  C   UNL     1      -4.065  -2.396  -0.536  1.00  0.00     0.182 C 
ATOM     13  O   UNL     1      -4.394  -3.146   0.647  1.00  0.00    -0.374 OA
BRANCH   9  14
ATOM     14  C   UNL     1      -0.328  -2.391  -0.066  1.00  0.00     0.289 C 
ATOM     15  O   UNL     1       0.515  -3.264   0.161  1.00  0.00    -0.265 OA
BRANCH  14  16
ATOM     16  C   UNL     1       0.049  -0.986  -0.244  1.00  0.00     0.194 A 
ATOM     17  C   UNL     1      -2.002   0.659  -0.269  1.00  0.00     0.049 C 
ATOM     18  C   UNL     1      -0.577   0.264  -0.290  1.00  0.00     0.000 A 
ATOM     19  C   UNL     1       0.469   1.240  -0.302  1.00  0.00     0.046 A 
ATOM     20  C   UNL     1       1.650   0.554  -0.279  1.00  0.00     0.196 A 
ATOM     21  O   UNL     1       1.414  -0.773  -0.267  1.00  0.00    -0.459 OA
ENDBRANCH  14  16
ENDBRANCH   9  14
ENDBRANCH   7   8
ENDBRANCH   4   7
ENDBRANCH   2   3
ENDBRANCH   1   2
BRANCH   1  22
ATOM     22  C   UNL     1      -8.055  -1.736   3.493  1.00  0.00     0.023 C 
BRANCH  22  23
ATOM     23  C   UNL     1      -8.756  -0.383   3.512  1.00  0.00     0.116 C 
BRANCH  23  24
ATOM     24  N   UNL     1      -9.459  -0.098   2.270  1.00  0.00    -0.352 N 
ATOM     25  C   UNL     1     -10.709   0.445   2.103  1.00  0.00     0.251 C 
ATOM     26  H   UNL     1      -8.976  -0.325   1.443  1.00  0.00     0.163 HD
ATOM     27  O   UNL     1     -11.223   0.478   0.989  1.00  0.00    -0.269 OA
BRANCH  25  28
ATOM     28  C   UNL     1     -11.437   0.956   3.283  1.00  0.00     0.039 A 
ATOM     29  C   UNL     1     -12.763   0.567   3.478  1.00  0.00     0.014 A 
ATOM     30  C   UNL     1     -10.797   1.782   4.212  1.00  0.00     0.014 A 
ATOM     31  C   UNL     1     -13.430   0.959   4.640  1.00  0.00     0.010 A 
ATOM     32  C   UNL     1     -11.438   2.107   5.403  1.00  0.00     0.010 A 
ATOM     33  C   UNL     1     -12.761   1.702   5.629  1.00  0.00    -0.014 A 
BRANCH  33  34
ATOM     34  C   UNL     1     -13.433   2.055   6.906  1.00  0.00     0.031 A 
ATOM     35  C   UNL     1     -13.672   3.498   7.262  1.00  0.00     0.074 A 
ATOM     36  C   UNL     1     -13.781   1.079   7.768  1.00  0.00     0.049 A 
ATOM     37  N   UNL     1     -14.205   4.003   8.345  1.00  0.00    -0.248 NA
ATOM     38  C   UNL     1     -13.230   4.507   6.286  1.00  0.00     0.031 C 
ATOM     39  C   UNL     1     -13.556  -0.354   7.559  1.00  0.00     0.029 A 
ATOM     40  N   UNL     1     -14.395   1.141   8.994  1.00  0.00    -0.354 N 
ATOM     41  C   UNL     1     -14.158   5.383   8.183  1.00  0.00     0.074 A 
ATOM     42  C   UNL     1     -13.488   5.637   6.927  1.00  0.00     0.031 C 
ATOM     43  C   UNL     1     -14.051  -1.035   8.605  1.00  0.00     0.029 A 
ATOM     44  C   UNL     1     -14.592  -0.090   9.576  1.00  0.00     0.049 A 
ATOM     45  H   UNL     1     -14.668   1.986   9.417  1.00  0.00     0.167 HD
ATOM     46  C   UNL     1     -14.652   6.349   8.993  1.00  0.00     0.037 A 
ATOM     47  C   UNL     1     -15.143  -0.419  10.761  1.00  0.00     0.037 A 
ATOM     48  C   UNL     1     -15.334   6.087  10.235  1.00  0.00     0.049 A 
ATOM     49  C   UNL     1     -15.675   0.673  11.649  1.00  0.00     0.074 A 
ATOM     50  C   UNL     1     -15.915   6.993  11.104  1.00  0.00     0.029 A 
ATOM     51  N   UNL     1     -15.523   4.828  10.787  1.00  0.00    -0.354 N 
ATOM     52  N   UNL     1     -15.680   1.970  11.450  1.00  0.00    -0.248 NA
ATOM     53  C   UNL     1     -16.284   0.257  12.921  1.00  0.00     0.031 C 
ATOM     54  C   UNL     1     -16.412   6.287  12.205  1.00  0.00     0.029 A 
ATOM     55  C   UNL     1     -16.192   4.936  11.995  1.00  0.00     0.049 A 
ATOM     56  H   UNL     1     -15.225   3.983  10.379  1.00  0.00     0.167 HD
ATOM     57  C   UNL     1     -16.318   2.522  12.556  1.00  0.00     0.074 A 
ATOM     58  C   UNL     1     -16.696   1.417  13.413  1.00  0.00     0.031 C 
ATOM     59  C   UNL     1     -16.568   3.825  12.836  1.00  0.00     0.037 A 
BRANCH  46  60
ATOM     60  C   UNL     1     -14.480   7.780   8.559  1.00  0.00     0.058 A 
ATOM     61  C   UNL     1     -15.172   8.304   7.455  1.00  0.00     0.135 A 
ATOM     62  C   UNL     1     -13.642   8.650   9.276  1.00  0.00     0.135 A 
ATOM     63  F   UNL     1     -15.974   7.515   6.723  1.00  0.00    -0.206 F 
ATOM     64  C   UNL     1     -15.016   9.628   7.059  1.00  0.00     0.059 A 
ATOM     65  C   UNL     1     -13.495   9.986   8.917  1.00  0.00     0.059 A 
ATOM     66  F   UNL     1     -12.955   8.203  10.340  1.00  0.00    -0.206 F 
ATOM     67  C   UNL     1     -14.175  10.462   7.797  1.00  0.00     0.060 A 
BRANCH  67  68
ATOM     68  S   UNL     1     -13.990  12.179   7.271  1.00  0.00     0.124 S 
ATOM     69  O   UNL     1     -13.197  12.027   6.055  1.00  0.00    -0.237 OA
ATOM     70  O   UNL     1     -15.375  12.596   7.075  1.00  0.00    -0.237 OA
ATOM     71  O   UNL     1     -13.301  12.807   8.394  1.00  0.00    -0.744 OA
ENDBRANCH  67  68
ENDBRANCH  46  60
BRANCH  47  72
ATOM     72  C   UNL     1     -15.244  -1.848  11.164  1.00  0.00     0.058 A 
ATOM     73  C   UNL     1     -16.488  -2.493  11.231  1.00  0.00     0.135 A 
ATOM     74  C   UNL     1     -14.102  -2.600  11.481  1.00  0.00     0.135 A 
ATOM     75  F   UNL     1     -17.611  -1.817  10.944  1.00  0.00    -0.206 F 
ATOM     76  C   UNL     1     -16.600  -3.825  11.617  1.00  0.00     0.059 A 
ATOM     77  C   UNL     1     -14.185  -3.941  11.842  1.00  0.00     0.059 A 
ATOM     78  F   UNL     1     -12.886  -2.035  11.415  1.00  0.00    -0.206 F 
ATOM     79  C   UNL     1     -15.441  -4.542  11.918  1.00  0.00     0.060 A 
BRANCH  79  80
ATOM     80  S   UNL     1     -15.594  -6.282  12.374  1.00  0.00     0.124 S 
ATOM     81  O   UNL     1     -16.169  -6.187  13.711  1.00  0.00    -0.237 OA
ATOM     82  O   UNL     1     -16.479  -6.794  11.333  1.00  0.00    -0.237 OA
ATOM     83  O   UNL     1     -14.218  -6.768  12.311  1.00  0.00    -0.744 OA
ENDBRANCH  79  80
ENDBRANCH  47  72
BRANCH  59  84
ATOM     84  C   UNL     1     -17.319   4.129  14.104  1.00  0.00     0.058 A 
ATOM     85  C   UNL     1     -16.730   3.975  15.369  1.00  0.00     0.135 A 
ATOM     86  C   UNL     1     -18.633   4.622  14.050  1.00  0.00     0.135 A 
ATOM     87  F   UNL     1     -15.478   3.502  15.479  1.00  0.00    -0.206 F 
ATOM     88  C   UNL     1     -17.427   4.271  16.536  1.00  0.00     0.059 A 
ATOM     89  C   UNL     1     -19.338   4.954  15.202  1.00  0.00     0.059 A 
ATOM     90  F   UNL     1     -19.240   4.801  12.866  1.00  0.00    -0.206 F 
ATOM     91  C   UNL     1     -18.731   4.761  16.442  1.00  0.00     0.060 A 
BRANCH  91  92
ATOM     92  S   UNL     1     -19.616   5.164  17.963  1.00  0.00     0.124 S 
ATOM     93  O   UNL     1     -19.916   3.836  18.489  1.00  0.00    -0.237 OA
ATOM     94  O   UNL     1     -18.623   5.931  18.708  1.00  0.00    -0.237 OA
ATOM     95  O   UNL     1     -20.768   5.928  17.495  1.00  0.00    -0.744 OA
ENDBRANCH  91  92
ENDBRANCH  59  84
ENDBRANCH  33  34
ENDBRANCH  25  28
ENDBRANCH  23  24
ENDBRANCH  22  23
ENDBRANCH   1  22
TORSDOF 17
