REMARK SMILES C[C@@H](C(=O)NCCCCNC(=O)c1ccc(-c2c3nc(c(-c4c(F)cc(S(=O)(=O)[O-])cc4F)c4ccc([nH]4)c(-c4c(F)cc(S(=O)(=O)[O-])cc4F)c4nc(c(-c5c(F)cc(S(=O)(=O)[O-])cc5F)c5ccc2[nH]5)C=C4)C=C3)cc1)n1ccc(C(=O)N2CC[NH+](Cc3cccc(F)c3)CC2)n1
REMARK SMILES IDX 7 1 6 2 5 3 3 4 4 5 2 7 1 8 79 9 80 10 99 11 81 12 82 13
REMARK SMILES IDX 83 14 84 15 85 16 86 17 98 18 87 19 97 20 88 21 89 23 90 24
REMARK SMILES IDX 91 25 96 26 92 27 94 28 93 29 95 30 8 31 9 32 10 33 11 34
REMARK SMILES IDX 12 36 13 37 14 38 78 39 15 40 77 41 16 42 17 43 18 44 71 45
REMARK SMILES IDX 19 46 76 47 70 48 72 49 20 50 75 51 69 52 68 53 21 55 55 56
REMARK SMILES IDX 34 57 54 58 35 59 38 60 53 61 73 62 36 63 37 64 52 66 74 67
REMARK SMILES IDX 39 68 22 69 23 70 32 71 24 72 25 73 31 74 33 75 26 76 27 77
REMARK SMILES IDX 28 78 29 79 30 80 56 81 57 82 66 83 58 84 59 85 65 86 67 87
REMARK SMILES IDX 60 88 61 89 62 90 63 91 64 92 40 93 41 94 50 95 42 96 43 97
REMARK SMILES IDX 49 98 51 99 44 100 45 101 46 102 47 103 48 104
REMARK H PARENT 5 6 88 22 10 35 72 54 38 65
REMARK Flexibility Score: inf
ROOT
ATOM      1  C   UNL     1       4.268   0.943   0.680  1.00  0.00     0.023 C 
ENDROOT
BRANCH   1   2
ATOM      2  C   UNL     1       3.574   0.120   1.764  1.00  0.00     0.116 C 
BRANCH   2   3
ATOM      3  N   UNL     1       2.510   0.857   2.405  1.00  0.00    -0.354 N 
ATOM      4  C   UNL     1       1.153   0.733   2.298  1.00  0.00     0.244 C 
ATOM      5  O   UNL     1       0.504   1.415   3.094  1.00  0.00    -0.273 OA
ATOM      6  H   UNL     1       2.812   1.565   3.019  1.00  0.00     0.163 HD
BRANCH   4   7
ATOM      7  C   UNL     1       0.533  -0.260   1.298  1.00  0.00     0.193 C 
ATOM      8  C   UNL     1       0.865   0.036  -0.163  1.00  0.00     0.044 C 
BRANCH   7   9
ATOM      9  N   UNL     1      -0.924  -0.306   1.445  1.00  0.00    -0.260 N 
ATOM     10  C   UNL     1      -1.707  -1.401   1.670  1.00  0.00     0.110 A 
ATOM     11  N   UNL     1      -1.641   0.810   1.250  1.00  0.00    -0.167 NA
ATOM     12  C   UNL     1      -2.978  -0.907   1.855  1.00  0.00     0.056 A 
ATOM     13  C   UNL     1      -2.874   0.504   1.683  1.00  0.00     0.150 A 
BRANCH  13  14
ATOM     14  C   UNL     1      -3.905   1.502   2.027  1.00  0.00     0.274 C 
ATOM     15  O   UNL     1      -4.946   1.133   2.583  1.00  0.00    -0.267 OA
ATOM     16  N   UNL     1      -3.658   2.870   1.806  1.00  0.00    -0.326 N 
ATOM     17  C   UNL     1      -4.546   3.795   2.499  1.00  0.00     0.181 C 
ATOM     18  C   UNL     1      -2.974   3.369   0.609  1.00  0.00     0.181 C 
ATOM     19  C   UNL     1      -4.101   5.267   2.478  1.00  0.00     0.284 C 
ATOM     20  C   UNL     1      -2.584   4.858   0.658  1.00  0.00     0.284 C 
ATOM     21  N   UNL     1      -3.588   5.774   1.203  1.00  0.00    -0.328 N 
ATOM     22  H   UNL     1      -3.105   6.648   1.416  1.00  0.00     0.348 HD
BRANCH  21  23
ATOM     23  C   UNL     1      -4.570   6.308   0.258  1.00  0.00     0.299 C 
BRANCH  23  24
ATOM     24  C   UNL     1      -5.548   5.339  -0.364  1.00  0.00     0.009 A 
ATOM     25  C   UNL     1      -5.262   4.714  -1.589  1.00  0.00     0.010 A 
ATOM     26  C   UNL     1      -6.749   5.023   0.284  1.00  0.00     0.048 A 
ATOM     27  C   UNL     1      -6.114   3.735  -2.108  1.00  0.00     0.004 A 
ATOM     28  C   UNL     1      -7.585   4.039  -0.234  1.00  0.00     0.123 A 
ATOM     29  C   UNL     1      -7.271   3.384  -1.417  1.00  0.00     0.039 A 
ATOM     30  F   UNL     1      -8.698   3.704   0.432  1.00  0.00    -0.207 F 
ENDBRANCH  23  24
ENDBRANCH  21  23
ENDBRANCH  13  14
ENDBRANCH   7   9
ENDBRANCH   4   7
ENDBRANCH   2   3
ENDBRANCH   1   2
BRANCH   1  31
ATOM     31  C   UNL     1       4.990   2.201   1.174  1.00  0.00     0.023 C 
BRANCH  31  32
ATOM     32  C   UNL     1       6.002   1.987   2.294  1.00  0.00     0.116 C 
BRANCH  32  33
ATOM     33  N   UNL     1       7.006   0.991   1.968  1.00  0.00    -0.352 N 
ATOM     34  C   UNL     1       8.343   0.967   2.275  1.00  0.00     0.251 C 
ATOM     35  H   UNL     1       6.680   0.218   1.451  1.00  0.00     0.163 HD
ATOM     36  O   UNL     1       9.048   0.077   1.801  1.00  0.00    -0.269 OA
BRANCH  34  37
ATOM     37  C   UNL     1       8.942   2.010   3.138  1.00  0.00     0.039 A 
ATOM     38  C   UNL     1      10.200   2.515   2.795  1.00  0.00     0.014 A 
ATOM     39  C   UNL     1       8.302   2.464   4.295  1.00  0.00     0.014 A 
ATOM     40  C   UNL     1      10.799   3.495   3.590  1.00  0.00     0.010 A 
ATOM     41  C   UNL     1       8.869   3.489   5.050  1.00  0.00     0.010 A 
ATOM     42  C   UNL     1      10.132   4.000   4.717  1.00  0.00    -0.014 A 
BRANCH  42  43
ATOM     43  C   UNL     1      10.766   5.027   5.581  1.00  0.00     0.031 A 
ATOM     44  C   UNL     1      11.162   4.681   6.992  1.00  0.00     0.074 A 
ATOM     45  C   UNL     1      10.950   6.277   5.114  1.00  0.00     0.049 A 
ATOM     46  N   UNL     1      11.705   5.441   7.908  1.00  0.00    -0.248 NA
ATOM     47  C   UNL     1      10.886   3.307   7.441  1.00  0.00     0.031 C 
ATOM     48  C   UNL     1      10.561   6.750   3.783  1.00  0.00     0.029 A 
ATOM     49  N   UNL     1      11.510   7.380   5.707  1.00  0.00    -0.354 N 
ATOM     50  C   UNL     1      11.811   4.648   9.045  1.00  0.00     0.074 A 
ATOM     51  C   UNL     1      11.237   3.361   8.717  1.00  0.00     0.031 C 
ATOM     52  C   UNL     1      10.919   8.038   3.653  1.00  0.00     0.029 A 
ATOM     53  C   UNL     1      11.543   8.488   4.894  1.00  0.00     0.049 A 
ATOM     54  H   UNL     1      11.855   7.378   6.629  1.00  0.00     0.167 HD
ATOM     55  C   UNL     1      12.358   4.954  10.246  1.00  0.00     0.037 A 
ATOM     56  C   UNL     1      12.032   9.722   5.121  1.00  0.00     0.037 A 
ATOM     57  C   UNL     1      12.970   6.220  10.554  1.00  0.00     0.049 A 
ATOM     58  C   UNL     1      12.686  10.021   6.442  1.00  0.00     0.074 A 
ATOM     59  C   UNL     1      13.607   6.610  11.719  1.00  0.00     0.029 A 
ATOM     60  N   UNL     1      13.030   7.299   9.685  1.00  0.00    -0.354 N 
ATOM     61  N   UNL     1      12.832   9.240   7.486  1.00  0.00    -0.248 NA
ATOM     62  C   UNL     1      13.258  11.364   6.610  1.00  0.00     0.031 C 
ATOM     63  C   UNL     1      14.033   7.934  11.562  1.00  0.00     0.029 A 
ATOM     64  C   UNL     1      13.691   8.356  10.287  1.00  0.00     0.049 A 
ATOM     65  H   UNL     1      12.657   7.312   8.774  1.00  0.00     0.167 HD
ATOM     66  C   UNL     1      13.546   9.983   8.419  1.00  0.00     0.074 A 
ATOM     67  C   UNL     1      13.802  11.275   7.816  1.00  0.00     0.031 C 
ATOM     68  C   UNL     1      13.956   9.627   9.662  1.00  0.00     0.037 A 
BRANCH  55  69
ATOM     69  C   UNL     1      12.322   3.895  11.312  1.00  0.00     0.058 A 
ATOM     70  C   UNL     1      13.129   2.748  11.239  1.00  0.00     0.135 A 
ATOM     71  C   UNL     1      11.477   4.031  12.425  1.00  0.00     0.135 A 
ATOM     72  F   UNL     1      13.942   2.561  10.187  1.00  0.00    -0.206 F 
ATOM     73  C   UNL     1      13.072   1.755  12.211  1.00  0.00     0.059 A 
ATOM     74  C   UNL     1      11.422   3.062  13.423  1.00  0.00     0.059 A 
ATOM     75  F   UNL     1      10.684   5.108  12.546  1.00  0.00    -0.206 F 
ATOM     76  C   UNL     1      12.210   1.918  13.297  1.00  0.00     0.060 A 
BRANCH  76  77
ATOM     77  S   UNL     1      12.133   0.616  14.545  1.00  0.00     0.124 S 
ATOM     78  O   UNL     1      11.316  -0.386  13.868  1.00  0.00    -0.237 OA
ATOM     79  O   UNL     1      13.539   0.268  14.725  1.00  0.00    -0.237 OA
ATOM     80  O   UNL     1      11.504   1.276  15.684  1.00  0.00    -0.744 OA
ENDBRANCH  76  77
ENDBRANCH  55  69
BRANCH  56  81
ATOM     81  C   UNL     1      11.977  10.750   4.050  1.00  0.00     0.058 A 
ATOM     82  C   UNL     1      13.137  11.121   3.354  1.00  0.00     0.135 A 
ATOM     83  C   UNL     1      10.771  11.370   3.692  1.00  0.00     0.135 A 
ATOM     84  F   UNL     1      14.314  10.557   3.666  1.00  0.00    -0.206 F 
ATOM     85  C   UNL     1      13.109  12.084   2.352  1.00  0.00     0.059 A 
ATOM     86  C   UNL     1      10.713  12.321   2.678  1.00  0.00     0.059 A 
ATOM     87  F   UNL     1       9.631  11.034   4.316  1.00  0.00    -0.206 F 
ATOM     88  C   UNL     1      11.890  12.679   2.020  1.00  0.00     0.060 A 
BRANCH  88  89
ATOM     89  S   UNL     1      11.853  13.892   0.683  1.00  0.00     0.124 S 
ATOM     90  O   UNL     1      12.416  15.068   1.337  1.00  0.00    -0.237 OA
ATOM     91  O   UNL     1      12.694  13.261  -0.330  1.00  0.00    -0.237 OA
ATOM     92  O   UNL     1      10.435  13.973   0.345  1.00  0.00    -0.744 OA
ENDBRANCH  88  89
ENDBRANCH  56  81
BRANCH  68  93
ATOM     93  C   UNL     1      14.772  10.627  10.429  1.00  0.00     0.058 A 
ATOM     94  C   UNL     1      14.192  11.763  11.013  1.00  0.00     0.135 A 
ATOM     95  C   UNL     1      16.151  10.427  10.605  1.00  0.00     0.135 A 
ATOM     96  F   UNL     1      12.879  12.001  10.869  1.00  0.00    -0.206 F 
ATOM     97  C   UNL     1      14.957  12.684  11.723  1.00  0.00     0.059 A 
ATOM     98  C   UNL     1      16.930  11.322  11.329  1.00  0.00     0.059 A 
ATOM     99  F   UNL     1      16.751   9.350  10.075  1.00  0.00    -0.206 F 
ATOM    100  C   UNL     1      16.326  12.457  11.871  1.00  0.00     0.060 A 
BRANCH 100 101
ATOM    101  S   UNL     1      17.311  13.647  12.806  1.00  0.00     0.124 S 
ATOM    102  O   UNL     1      17.494  14.710  11.824  1.00  0.00    -0.237 OA
ATOM    103  O   UNL     1      16.437  13.966  13.931  1.00  0.00    -0.237 OA
ATOM    104  O   UNL     1      18.513  12.893  13.151  1.00  0.00    -0.744 OA
ENDBRANCH 100 101
ENDBRANCH  68  93
ENDBRANCH  42  43
ENDBRANCH  34  37
ENDBRANCH  32  33
ENDBRANCH  31  32
ENDBRANCH   1  31
TORSDOF 18
