REMARK SMILES COCC[NH2+][C@]1(C(=O)NCCCCNC(=O)c2ccc(-c3c4nc(c(-c5c(F)cc(S(=O)(=O)[O-])cc5F)c5ccc([nH]5)c(-c5c(F)cc(S(=O)(=O)[O-])cc5F)c5nc(c(-c6c(F)cc(S(=O)(=O)[O-])cc6F)c6ccc3[nH]6)C=C5)C=C4)cc2)CCCS[C@H]1C
REMARK SMILES IDX 11 1 10 2 9 3 7 4 8 5 6 7 83 8 87 9 84 10 86 11 88 12 85 13
REMARK SMILES IDX 5 14 4 17 3 18 2 19 1 20 12 21 13 22 14 23 15 24 16 26 17 27
REMARK SMILES IDX 18 28 82 29 19 30 81 31 20 32 21 33 22 34 75 35 23 36 80 37
REMARK SMILES IDX 74 38 76 39 24 40 79 41 73 42 72 43 25 45 59 46 38 47 58 48
REMARK SMILES IDX 39 49 42 50 57 51 77 52 40 53 41 54 56 56 78 57 43 58 26 59
REMARK SMILES IDX 27 60 36 61 28 62 29 63 35 64 37 65 30 66 31 67 32 68 33 69
REMARK SMILES IDX 34 70 60 71 61 72 70 73 62 74 63 75 69 76 71 77 64 78 65 79
REMARK SMILES IDX 66 80 67 81 68 82 44 83 45 84 54 85 46 86 47 87 53 88 55 89
REMARK SMILES IDX 48 90 49 91 50 92 51 93 52 94
REMARK H PARENT 9 6 5 15 5 16 14 25 76 44 42 55
REMARK Flexibility Score: inf
ROOT
ATOM      1  C   UNL     1      -0.041   0.789  -3.693  1.00  0.00     0.023 C 
ENDROOT
BRANCH   1   2
ATOM      2  C   UNL     1      -0.114   0.754  -2.166  1.00  0.00     0.116 C 
BRANCH   2   3
ATOM      3  N   UNL     1       1.075   1.316  -1.558  1.00  0.00    -0.351 N 
ATOM      4  C   UNL     1       1.411   2.482  -0.970  1.00  0.00     0.282 C 
ATOM      5  O   UNL     1       2.644   2.599  -0.842  1.00  0.00    -0.268 OA
ATOM      6  H   UNL     1       1.830   0.685  -1.581  1.00  0.00     0.163 HD
BRANCH   4   7
ATOM      7  C   UNL     1       0.470   3.632  -0.419  1.00  0.00     0.187 C 
ATOM      8  C   UNL     1       1.025   4.974  -0.993  1.00  0.00     0.081 C 
ATOM      9  C   UNL     1      -1.070   3.630  -0.691  1.00  0.00     0.115 C 
ATOM     10  C   UNL     1       0.884   5.091  -2.511  1.00  0.00     0.018 C 
ATOM     11  S   UNL     1      -1.583   3.775  -2.454  1.00  0.00    -0.152 SA
ATOM     12  C   UNL     1      -1.861   2.525   0.040  1.00  0.00     0.027 C 
ATOM     13  C   UNL     1      -0.557   5.170  -2.984  1.00  0.00     0.070 C 
BRANCH   7  14
ATOM     14  N   UNL     1       0.599   3.711   1.084  1.00  0.00    -0.331 N 
ATOM     15  H   UNL     1       0.164   4.586   1.380  1.00  0.00     0.347 HD
ATOM     16  H   UNL     1       0.154   2.858   1.422  1.00  0.00     0.347 HD
BRANCH  14  17
ATOM     17  C   UNL     1       1.947   3.676   1.667  1.00  0.00     0.290 C 
BRANCH  17  18
ATOM     18  C   UNL     1       2.004   4.338   3.057  1.00  0.00     0.221 C 
BRANCH  18  19
ATOM     19  O   UNL     1       1.053   3.824   3.995  1.00  0.00    -0.379 OA
ATOM     20  C   UNL     1      -0.193   4.510   3.965  1.00  0.00     0.195 C 
ENDBRANCH  18  19
ENDBRANCH  17  18
ENDBRANCH  14  17
ENDBRANCH   7  14
ENDBRANCH   4   7
ENDBRANCH   2   3
ENDBRANCH   1   2
BRANCH   1  21
ATOM     21  C   UNL     1       0.881  -0.263  -4.308  1.00  0.00     0.023 C 
BRANCH  21  22
ATOM     22  C   UNL     1       0.557  -1.703  -3.930  1.00  0.00     0.116 C 
BRANCH  22  23
ATOM     23  N   UNL     1      -0.804  -2.095  -4.262  1.00  0.00    -0.352 N 
ATOM     24  C   UNL     1      -1.250  -3.296  -4.768  1.00  0.00     0.251 C 
ATOM     25  H   UNL     1      -1.496  -1.413  -4.104  1.00  0.00     0.163 HD
ATOM     26  O   UNL     1      -2.416  -3.430  -5.104  1.00  0.00    -0.269 OA
BRANCH  24  27
ATOM     27  C   UNL     1      -0.285  -4.406  -4.929  1.00  0.00     0.039 A 
ATOM     28  C   UNL     1      -0.241  -5.088  -6.146  1.00  0.00     0.014 A 
ATOM     29  C   UNL     1       0.594  -4.742  -3.897  1.00  0.00     0.014 A 
ATOM     30  C   UNL     1       0.727  -6.074  -6.345  1.00  0.00     0.010 A 
ATOM     31  C   UNL     1       1.609  -5.664  -4.127  1.00  0.00     0.010 A 
ATOM     32  C   UNL     1       1.678  -6.351  -5.348  1.00  0.00    -0.014 A 
BRANCH  32  33
ATOM     33  C   UNL     1       2.731  -7.376  -5.560  1.00  0.00     0.031 A 
ATOM     34  C   UNL     1       2.769  -8.605  -4.690  1.00  0.00     0.074 A 
ATOM     35  C   UNL     1       3.677  -7.180  -6.500  1.00  0.00     0.049 A 
ATOM     36  N   UNL     1       3.616  -9.602  -4.705  1.00  0.00    -0.248 NA
ATOM     37  C   UNL     1       1.741  -8.712  -3.641  1.00  0.00     0.031 C 
ATOM     38  C   UNL     1       3.791  -5.995  -7.354  1.00  0.00     0.029 A 
ATOM     39  N   UNL     1       4.725  -7.973  -6.894  1.00  0.00    -0.354 N 
ATOM     40  C   UNL     1       3.235 -10.440  -3.664  1.00  0.00     0.074 A 
ATOM     41  C   UNL     1       2.119  -9.806  -2.998  1.00  0.00     0.031 C 
ATOM     42  C   UNL     1       4.832  -6.152  -8.189  1.00  0.00     0.029 A 
ATOM     43  C   UNL     1       5.472  -7.435  -7.917  1.00  0.00     0.049 A 
ATOM     44  H   UNL     1       4.925  -8.845  -6.483  1.00  0.00     0.167 HD
ATOM     45  C   UNL     1       3.746 -11.643  -3.313  1.00  0.00     0.037 A 
ATOM     46  C   UNL     1       6.545  -7.926  -8.566  1.00  0.00     0.037 A 
ATOM     47  C   UNL     1       4.829 -12.289  -4.008  1.00  0.00     0.049 A 
ATOM     48  C   UNL     1       7.058  -9.293  -8.196  1.00  0.00     0.074 A 
ATOM     49  C   UNL     1       5.376 -13.539  -3.779  1.00  0.00     0.029 A 
ATOM     50  N   UNL     1       5.523 -11.738  -5.075  1.00  0.00    -0.354 N 
ATOM     51  N   UNL     1       6.635 -10.107  -7.257  1.00  0.00    -0.248 NA
ATOM     52  C   UNL     1       8.179  -9.816  -8.987  1.00  0.00     0.031 C 
ATOM     53  C   UNL     1       6.425 -13.730  -4.686  1.00  0.00     0.029 A 
ATOM     54  C   UNL     1       6.500 -12.618  -5.509  1.00  0.00     0.049 A 
ATOM     55  H   UNL     1       5.348 -10.851  -5.465  1.00  0.00     0.167 HD
ATOM     56  C   UNL     1       7.420 -11.249  -7.364  1.00  0.00     0.074 A 
ATOM     57  C   UNL     1       8.330 -11.027  -8.469  1.00  0.00     0.031 C 
ATOM     58  C   UNL     1       7.392 -12.381  -6.616  1.00  0.00     0.037 A 
BRANCH  45  59
ATOM     59  C   UNL     1       3.129 -12.347  -2.136  1.00  0.00     0.058 A 
ATOM     60  C   UNL     1       1.836 -12.893  -2.198  1.00  0.00     0.135 A 
ATOM     61  C   UNL     1       3.849 -12.509  -0.941  1.00  0.00     0.135 A 
ATOM     62  F   UNL     1       1.095 -12.752  -3.309  1.00  0.00    -0.206 F 
ATOM     63  C   UNL     1       1.269 -13.548  -1.111  1.00  0.00     0.059 A 
ATOM     64  C   UNL     1       3.312 -13.186   0.150  1.00  0.00     0.059 A 
ATOM     65  F   UNL     1       5.088 -12.005  -0.825  1.00  0.00    -0.206 F 
ATOM     66  C   UNL     1       2.015 -13.691   0.060  1.00  0.00     0.060 A 
BRANCH  66  67
ATOM     67  S   UNL     1       1.271 -14.558   1.457  1.00  0.00     0.124 S 
ATOM     68  O   UNL     1       0.314 -13.567   1.938  1.00  0.00    -0.237 OA
ATOM     69  O   UNL     1       0.694 -15.739   0.820  1.00  0.00    -0.237 OA
ATOM     70  O   UNL     1       2.404 -14.817   2.339  1.00  0.00    -0.744 OA
ENDBRANCH  66  67
ENDBRANCH  45  59
BRANCH  46  71
ATOM     71  C   UNL     1       7.181  -7.144  -9.659  1.00  0.00     0.058 A 
ATOM     72  C   UNL     1       7.066  -7.546 -10.998  1.00  0.00     0.135 A 
ATOM     73  C   UNL     1       7.916  -5.979  -9.388  1.00  0.00     0.135 A 
ATOM     74  F   UNL     1       6.376  -8.654 -11.308  1.00  0.00    -0.206 F 
ATOM     75  C   UNL     1       7.679  -6.840 -12.028  1.00  0.00     0.059 A 
ATOM     76  C   UNL     1       8.517  -5.241 -10.403  1.00  0.00     0.059 A 
ATOM     77  F   UNL     1       8.038  -5.540  -8.126  1.00  0.00    -0.206 F 
ATOM     78  C   UNL     1       8.405  -5.688 -11.720  1.00  0.00     0.060 A 
BRANCH  78  79
ATOM     79  S   UNL     1       9.168  -4.756 -13.066  1.00  0.00     0.124 S 
ATOM     80  O   UNL     1      10.306  -5.604 -13.401  1.00  0.00    -0.237 OA
ATOM     81  O   UNL     1       8.094  -4.708 -14.054  1.00  0.00    -0.237 OA
ATOM     82  O   UNL     1       9.493  -3.476 -12.444  1.00  0.00    -0.744 OA
ENDBRANCH  78  79
ENDBRANCH  46  71
BRANCH  58  83
ATOM     83  C   UNL     1       8.347 -13.478  -6.997  1.00  0.00     0.058 A 
ATOM     84  C   UNL     1       9.727 -13.369  -6.771  1.00  0.00     0.135 A 
ATOM     85  C   UNL     1       7.869 -14.661  -7.584  1.00  0.00     0.135 A 
ATOM     86  F   UNL     1      10.236 -12.258  -6.214  1.00  0.00    -0.206 F 
ATOM     87  C   UNL     1      10.607 -14.376  -7.154  1.00  0.00     0.059 A 
ATOM     88  C   UNL     1       8.727 -15.693  -7.948  1.00  0.00     0.059 A 
ATOM     89  F   UNL     1       6.555 -14.823  -7.808  1.00  0.00    -0.206 F 
ATOM     90  C   UNL     1      10.097 -15.532  -7.748  1.00  0.00     0.060 A 
BRANCH  90  91
ATOM     91  S   UNL     1      11.247 -16.830  -8.249  1.00  0.00     0.124 S 
ATOM     92  O   UNL     1      11.808 -16.268  -9.473  1.00  0.00    -0.237 OA
ATOM     93  O   UNL     1      12.156 -16.903  -7.109  1.00  0.00    -0.237 OA
ATOM     94  O   UNL     1      10.385 -17.995  -8.428  1.00  0.00    -0.744 OA
ENDBRANCH  90  91
ENDBRANCH  58  83
ENDBRANCH  32  33
ENDBRANCH  24  27
ENDBRANCH  22  23
ENDBRANCH  21  22
ENDBRANCH   1  21
TORSDOF 18
