REMARK SMILES Cc1c(Cl)cccc1NC(=O)NCc1cn([C@@H]2C[NH2+][C@H](C(=O)NCCCCNC(=O)c3ccc(-c4c5nc(c(-c6c(F)cc(S(=O)(=O)[O-])cc6F)c6ccc([nH]6)c(-c6c(F)cc(S(=O)(=O)[O-])cc6F)c6nc(c(-c7c(F)cc(S(=O)(=O)[O-])cc7F)c7ccc4[nH]7)C=C6)C=C5)cc3)C2)nn1
REMARK SMILES IDX 25 1 24 2 23 3 21 4 22 5 20 7 17 8 18 9 97 10 19 11 16 14
REMARK SMILES IDX 14 15 15 16 99 17 98 18 13 19 12 20 9 21 10 22 11 24 8 26
REMARK SMILES IDX 1 27 2 28 3 29 4 30 5 31 7 32 6 33 26 34 27 35 28 36 29 37
REMARK SMILES IDX 30 39 31 40 32 41 96 42 33 43 95 44 34 45 35 46 36 47 89 48
REMARK SMILES IDX 37 49 94 50 88 51 90 52 38 53 93 54 87 55 86 56 39 58 73 59
REMARK SMILES IDX 52 60 72 61 53 62 56 63 71 64 91 65 54 66 55 67 70 69 92 70
REMARK SMILES IDX 57 71 40 72 41 73 50 74 42 75 43 76 49 77 51 78 44 79 45 80
REMARK SMILES IDX 46 81 47 82 48 83 74 84 75 85 84 86 76 87 77 88 83 89 85 90
REMARK SMILES IDX 78 91 79 92 80 93 81 94 82 95 58 96 59 97 68 98 60 99 61 100
REMARK SMILES IDX 67 101 69 102 62 103 63 104 64 105 65 106 66 107
REMARK H PARENT 23 6 19 12 19 13 9 23 12 25 28 38 90 57 56 68
REMARK Flexibility Score: inf
ROOT
ATOM      1  C   UNL     1      -0.765  -7.276   2.077  1.00  0.00     0.023 C 
ENDROOT
BRANCH   1   2
ATOM      2  C   UNL     1      -1.798  -6.261   1.576  1.00  0.00     0.116 C 
BRANCH   2   3
ATOM      3  N   UNL     1      -3.078  -6.873   1.274  1.00  0.00    -0.351 N 
ATOM      4  C   UNL     1      -4.277  -6.884   1.911  1.00  0.00     0.278 C 
ATOM      5  O   UNL     1      -5.139  -7.620   1.410  1.00  0.00    -0.268 OA
ATOM      6  H   UNL     1      -3.077  -7.385   0.433  1.00  0.00     0.163 HD
BRANCH   4   7
ATOM      7  C   UNL     1      -4.677  -6.013   3.121  1.00  0.00     0.274 C 
ATOM      8  C   UNL     1      -5.079  -3.649   3.500  1.00  0.00     0.170 C 
ATOM      9  C   UNL     1      -3.615  -3.992   3.739  1.00  0.00     0.288 C 
ATOM     10  C   UNL     1      -5.563  -4.845   2.684  1.00  0.00     0.109 C 
ATOM     11  N   UNL     1      -3.568  -5.455   3.931  1.00  0.00    -0.334 N 
ATOM     12  H   UNL     1      -3.698  -5.688   4.916  1.00  0.00     0.347 HD
ATOM     13  H   UNL     1      -2.668  -5.840   3.644  1.00  0.00     0.347 HD
BRANCH   8  14
ATOM     14  N   UNL     1      -5.251  -2.366   2.862  1.00  0.00    -0.243 N 
ATOM     15  C   UNL     1      -5.097  -0.697   1.495  1.00  0.00     0.102 A 
ATOM     16  C   UNL     1      -5.061  -2.074   1.553  1.00  0.00     0.137 A 
ATOM     17  N   UNL     1      -5.352  -0.205   2.744  1.00  0.00    -0.134 NA
ATOM     18  N   UNL     1      -5.454  -1.242   3.578  1.00  0.00    -0.067 NA
BRANCH  15  19
ATOM     19  C   UNL     1      -4.621   0.044   0.314  1.00  0.00     0.178 C 
BRANCH  19  20
ATOM     20  N   UNL     1      -4.531   1.466   0.365  1.00  0.00    -0.332 N 
ATOM     21  N   UNL     1      -2.305   2.036  -0.382  1.00  0.00    -0.308 N 
ATOM     22  C   UNL     1      -3.591   2.314  -0.075  1.00  0.00     0.319 C 
ATOM     23  H   UNL     1      -1.831   2.858  -0.646  1.00  0.00     0.171 HD
ATOM     24  O   UNL     1      -3.910   3.510  -0.111  1.00  0.00    -0.248 OA
ATOM     25  H   UNL     1      -5.297   1.903   0.802  1.00  0.00     0.165 HD
BRANCH  21  26
ATOM     26  C   UNL     1      -1.431   0.925  -0.439  1.00  0.00     0.047 A 
ATOM     27  C   UNL     1       0.581   2.410   0.148  1.00  0.00     0.048 C 
ATOM     28  C   UNL     1      -0.075   1.067  -0.056  1.00  0.00    -0.009 A 
ATOM     29  C   UNL     1       0.718  -0.099   0.085  1.00  0.00     0.046 A 
ATOM     30  Cl  UNL     1       2.377  -0.029   0.582  1.00  0.00    -0.084 Cl
ATOM     31  C   UNL     1       0.197  -1.367  -0.163  1.00  0.00     0.021 A 
ATOM     32  C   UNL     1      -1.837  -0.326  -0.901  1.00  0.00     0.026 A 
ATOM     33  C   UNL     1      -1.081  -1.478  -0.678  1.00  0.00     0.004 A 
ENDBRANCH  21  26
ENDBRANCH  19  20
ENDBRANCH  15  19
ENDBRANCH   8  14
ENDBRANCH   4   7
ENDBRANCH   2   3
ENDBRANCH   1   2
BRANCH   1  34
ATOM     34  C   UNL     1      -0.177  -8.226   1.022  1.00  0.00     0.023 C 
BRANCH  34  35
ATOM     35  C   UNL     1       0.556  -7.548  -0.130  1.00  0.00     0.116 C 
BRANCH  35  36
ATOM     36  N   UNL     1       1.692  -6.725   0.298  1.00  0.00    -0.352 N 
ATOM     37  C   UNL     1       2.473  -5.873  -0.475  1.00  0.00     0.251 C 
ATOM     38  H   UNL     1       1.932  -6.783   1.251  1.00  0.00     0.163 HD
ATOM     39  O   UNL     1       3.595  -5.555  -0.128  1.00  0.00    -0.269 OA
BRANCH  37  40
ATOM     40  C   UNL     1       1.886  -5.337  -1.718  1.00  0.00     0.039 A 
ATOM     41  C   UNL     1       2.606  -5.208  -2.909  1.00  0.00     0.014 A 
ATOM     42  C   UNL     1       0.540  -5.003  -1.661  1.00  0.00     0.014 A 
ATOM     43  C   UNL     1       1.925  -4.812  -4.061  1.00  0.00     0.010 A 
ATOM     44  C   UNL     1      -0.161  -4.834  -2.817  1.00  0.00     0.010 A 
ATOM     45  C   UNL     1       0.535  -4.642  -4.003  1.00  0.00    -0.014 A 
BRANCH  45  46
ATOM     46  C   UNL     1      -0.274  -4.339  -5.173  1.00  0.00     0.031 A 
ATOM     47  C   UNL     1      -0.243  -5.370  -6.236  1.00  0.00     0.074 A 
ATOM     48  C   UNL     1      -1.202  -3.357  -5.140  1.00  0.00     0.049 A 
ATOM     49  N   UNL     1       0.291  -5.259  -7.405  1.00  0.00    -0.248 NA
ATOM     50  C   UNL     1      -0.700  -6.733  -5.921  1.00  0.00     0.031 C 
ATOM     51  C   UNL     1      -1.534  -2.469  -4.024  1.00  0.00     0.029 A 
ATOM     52  N   UNL     1      -2.155  -3.042  -6.053  1.00  0.00    -0.354 N 
ATOM     53  C   UNL     1      -0.005  -6.444  -8.068  1.00  0.00     0.074 A 
ATOM     54  C   UNL     1      -0.383  -7.383  -7.044  1.00  0.00     0.031 C 
ATOM     55  C   UNL     1      -2.751  -1.920  -4.220  1.00  0.00     0.029 A 
ATOM     56  C   UNL     1      -3.206  -2.278  -5.545  1.00  0.00     0.049 A 
ATOM     57  H   UNL     1      -2.108  -3.328  -6.993  1.00  0.00     0.167 HD
ATOM     58  C   UNL     1      -0.179  -6.468  -9.420  1.00  0.00     0.037 A 
ATOM     59  C   UNL     1      -4.381  -2.013  -6.172  1.00  0.00     0.037 A 
ATOM     60  C   UNL     1       0.257  -5.224 -10.014  1.00  0.00     0.049 A 
ATOM     61  C   UNL     1      -4.121  -2.211  -7.629  1.00  0.00     0.074 A 
ATOM     62  C   UNL     1       1.442  -4.511 -10.000  1.00  0.00     0.029 A 
ATOM     63  N   UNL     1      -0.713  -4.324 -10.395  1.00  0.00    -0.354 N 
ATOM     64  N   UNL     1      -3.299  -1.458  -8.316  1.00  0.00    -0.248 NA
ATOM     65  C   UNL     1      -4.346  -3.541  -8.178  1.00  0.00     0.031 C 
ATOM     66  C   UNL     1       1.046  -3.150  -9.855  1.00  0.00     0.029 A 
ATOM     67  C   UNL     1      -0.348  -3.098  -9.898  1.00  0.00     0.049 A 
ATOM     68  H   UNL     1      -1.519  -4.524 -10.924  1.00  0.00     0.167 HD
ATOM     69  C   UNL     1      -2.580  -2.344  -9.109  1.00  0.00     0.074 A 
ATOM     70  C   UNL     1      -3.317  -3.606  -9.029  1.00  0.00     0.031 C 
ATOM     71  C   UNL     1      -1.295  -2.078  -9.498  1.00  0.00     0.037 A 
BRANCH  58  72
ATOM     72  C   UNL     1      -1.075  -7.427 -10.168  1.00  0.00     0.058 A 
ATOM     73  C   UNL     1      -1.028  -7.441 -11.578  1.00  0.00     0.135 A 
ATOM     74  C   UNL     1      -2.157  -8.126  -9.590  1.00  0.00     0.135 A 
ATOM     75  F   UNL     1      -0.042  -6.810 -12.236  1.00  0.00    -0.206 F 
ATOM     76  C   UNL     1      -2.027  -8.027 -12.354  1.00  0.00     0.059 A 
ATOM     77  C   UNL     1      -3.132  -8.768 -10.344  1.00  0.00     0.059 A 
ATOM     78  F   UNL     1      -2.382  -8.141  -8.271  1.00  0.00    -0.206 F 
ATOM     79  C   UNL     1      -3.084  -8.675 -11.725  1.00  0.00     0.060 A 
BRANCH  79  80
ATOM     80  S   UNL     1      -4.428  -9.341 -12.719  1.00  0.00     0.124 S 
ATOM     81  O   UNL     1      -5.052  -8.121 -13.217  1.00  0.00    -0.237 OA
ATOM     82  O   UNL     1      -3.705 -10.139 -13.704  1.00  0.00    -0.237 OA
ATOM     83  O   UNL     1      -5.212 -10.106 -11.754  1.00  0.00    -0.744 OA
ENDBRANCH  79  80
ENDBRANCH  58  72
BRANCH  59  84
ATOM     84  C   UNL     1      -5.744  -2.013  -5.560  1.00  0.00     0.058 A 
ATOM     85  C   UNL     1      -6.878  -1.642  -6.308  1.00  0.00     0.135 A 
ATOM     86  C   UNL     1      -6.008  -2.631  -4.318  1.00  0.00     0.135 A 
ATOM     87  F   UNL     1      -6.732  -1.049  -7.502  1.00  0.00    -0.206 F 
ATOM     88  C   UNL     1      -8.184  -1.932  -5.886  1.00  0.00     0.059 A 
ATOM     89  C   UNL     1      -7.298  -2.920  -3.874  1.00  0.00     0.059 A 
ATOM     90  F   UNL     1      -5.017  -3.059  -3.522  1.00  0.00    -0.206 F 
ATOM     91  C   UNL     1      -8.382  -2.598  -4.678  1.00  0.00     0.060 A 
BRANCH  91  92
ATOM     92  S   UNL     1     -10.037  -3.169  -4.218  1.00  0.00     0.124 S 
ATOM     93  O   UNL     1     -10.711  -1.915  -3.903  1.00  0.00    -0.237 OA
ATOM     94  O   UNL     1     -10.477  -3.846  -5.433  1.00  0.00    -0.237 OA
ATOM     95  O   UNL     1      -9.784  -4.045  -3.077  1.00  0.00    -0.744 OA
ENDBRANCH  91  92
ENDBRANCH  59  84
BRANCH  71  96
ATOM     96  C   UNL     1      -0.732  -0.691  -9.299  1.00  0.00     0.058 A 
ATOM     97  C   UNL     1      -0.568  -0.058  -8.052  1.00  0.00     0.135 A 
ATOM     98  C   UNL     1      -0.163  -0.053 -10.412  1.00  0.00     0.135 A 
ATOM     99  F   UNL     1      -0.977  -0.646  -6.920  1.00  0.00    -0.206 F 
ATOM    100  C   UNL     1       0.089   1.169  -7.927  1.00  0.00     0.059 A 
ATOM    101  C   UNL     1       0.526   1.151 -10.307  1.00  0.00     0.059 A 
ATOM    102  F   UNL     1      -0.222  -0.634 -11.622  1.00  0.00    -0.206 F 
ATOM    103  C   UNL     1       0.634   1.766  -9.063  1.00  0.00     0.060 A 
BRANCH 103 104
ATOM    104  S   UNL     1       1.530   3.325  -8.897  1.00  0.00     0.124 S 
ATOM    105  O   UNL     1       0.455   4.263  -8.590  1.00  0.00    -0.237 OA
ATOM    106  O   UNL     1       2.458   3.044  -7.806  1.00  0.00    -0.237 OA
ATOM    107  O   UNL     1       2.155   3.501 -10.206  1.00  0.00    -0.744 OA
ENDBRANCH 103 104
ENDBRANCH  71  96
ENDBRANCH  45  46
ENDBRANCH  37  40
ENDBRANCH  35  36
ENDBRANCH  34  35
ENDBRANCH   1  34
TORSDOF 18
