REMARK SMILES CCCC[C@@H](C(=O)NCCCCNC(=O)c1ccc(-c2c3nc(c(-c4c(F)cc(S(=O)(=O)[O-])cc4F)c4ccc([nH]4)c(-c4c(F)cc(S(=O)(=O)[O-])cc4F)c4nc(c(-c5c(F)cc(S(=O)(=O)[O-])cc5F)c5ccc2[nH]5)C=C4)C=C3)cc1)[C@]1(O)CCC[C@H](C(C)(C)C)CC1
REMARK SMILES IDX 9 1 8 2 6 3 7 4 5 6 4 7 3 8 2 9 1 10 82 11 83 12 84 14 85 15
REMARK SMILES IDX 86 16 87 17 92 18 88 20 89 21 90 22 91 23 93 24 10 26 11 27
REMARK SMILES IDX 12 28 13 29 14 30 15 32 16 33 17 34 81 35 18 36 80 37 19 38
REMARK SMILES IDX 20 39 21 40 74 41 22 42 79 43 73 44 75 45 23 46 78 47 72 48
REMARK SMILES IDX 71 49 24 51 58 52 37 53 57 54 38 55 41 56 56 57 76 58 39 59
REMARK SMILES IDX 40 60 55 62 77 63 42 64 25 65 26 66 35 67 27 68 28 69 34 70
REMARK SMILES IDX 36 71 29 72 30 73 31 74 32 75 33 76 59 77 60 78 69 79 61 80
REMARK SMILES IDX 62 81 68 82 70 83 63 84 64 85 65 86 66 87 67 88 43 89 44 90
REMARK SMILES IDX 53 91 45 92 46 93 52 94 54 95 47 96 48 97 49 98 50 99 51 100
REMARK H PARENT 8 5 83 13 13 31 75 50 41 61
REMARK Flexibility Score: 90.00
ROOT
ATOM      1  C   UNL     1       0.455   0.768  -3.667  1.00  0.00     0.116 C 
ENDROOT
BRANCH   1   2
ATOM      2  N   UNL     1       0.215  -0.525  -4.275  1.00  0.00    -0.356 N 
ATOM      3  C   UNL     1      -0.027  -1.750  -3.728  1.00  0.00     0.226 C 
ATOM      4  O   UNL     1       0.117  -2.714  -4.482  1.00  0.00    -0.275 OA
ATOM      5  H   UNL     1       0.229  -0.518  -5.259  1.00  0.00     0.163 HD
BRANCH   3   6
ATOM      6  C   UNL     1      -0.409  -1.906  -2.250  1.00  0.00     0.110 C 
BRANCH   6   7
ATOM      7  C   UNL     1       0.875  -2.314  -1.461  1.00  0.00     0.016 C 
BRANCH   7   8
ATOM      8  C   UNL     1       1.941  -1.225  -1.256  1.00  0.00     0.001 C 
BRANCH   8   9
ATOM      9  C   UNL     1       1.539  -0.115  -0.275  1.00  0.00    -0.003 C 
ATOM     10  C   UNL     1       1.606  -0.545   1.181  1.00  0.00     0.004 C 
ENDBRANCH   8   9
ENDBRANCH   7   8
ENDBRANCH   6   7
BRANCH   6  11
ATOM     11  C   UNL     1      -1.632  -2.914  -1.996  1.00  0.00     0.076 C 
BRANCH  11  12
ATOM     12  O   UNL     1      -1.158  -3.955  -1.093  1.00  0.00    -0.389 OA
ATOM     13  H   UNL     1      -0.420  -4.429  -1.506  1.00  0.00     0.211 HD
ENDBRANCH  11  12
BRANCH  11  14
ATOM     14  C   UNL     1      -2.211  -3.713  -3.183  1.00  0.00     0.036 C 
BRANCH  14  15
ATOM     15  C   UNL     1      -3.003  -2.979  -4.257  1.00  0.00     0.003 C 
BRANCH  15  16
ATOM     16  C   UNL     1      -4.297  -2.321  -3.786  1.00  0.00     0.004 C 
BRANCH  16  17
ATOM     17  C   UNL     1      -4.205  -0.960  -3.063  1.00  0.00    -0.006 C 
BRANCH  17  18
ATOM     18  C   UNL     1      -3.384  -0.954  -1.750  1.00  0.00     0.007 CG0
ATOM     19  G   UNL     1      -2.795  -2.254  -1.209  1.00  0.00     0.000 G0
ENDBRANCH  17  18
BRANCH  17  20
ATOM     20  C   UNL     1      -4.048   0.332  -3.998  1.00  0.00    -0.035 C 
ATOM     21  C   UNL     1      -3.338   0.066  -5.339  1.00  0.00     0.011 C 
ATOM     22  C   UNL     1      -5.458   0.869  -4.347  1.00  0.00     0.011 C 
ATOM     23  C   UNL     1      -3.312   1.501  -3.314  1.00  0.00     0.011 C 
ENDBRANCH  17  20
ENDBRANCH  16  17
ENDBRANCH  15  16
ENDBRANCH  14  15
ENDBRANCH  11  14
BRANCH  11  24
ATOM     24  C   UNL     1      -2.795  -2.254  -1.209  1.00  0.00     0.036 CG0
ATOM     25  G   UNL     1      -3.384  -0.954  -1.750  1.00  0.00     0.000 G0
ENDBRANCH  11  24
ENDBRANCH   6  11
ENDBRANCH   3   6
ENDBRANCH   1   2
BRANCH   1  26
ATOM     26  C   UNL     1       1.717   1.410  -4.240  1.00  0.00     0.023 C 
BRANCH  26  27
ATOM     27  C   UNL     1       1.480   2.119  -5.576  1.00  0.00     0.023 C 
BRANCH  27  28
ATOM     28  C   UNL     1       0.489   3.281  -5.519  1.00  0.00     0.116 C 
BRANCH  28  29
ATOM     29  N   UNL     1       0.867   4.300  -4.548  1.00  0.00    -0.352 N 
ATOM     30  C   UNL     1       0.903   5.662  -4.723  1.00  0.00     0.251 C 
ATOM     31  H   UNL     1       1.127   3.972  -3.657  1.00  0.00     0.163 HD
ATOM     32  O   UNL     1       1.356   6.402  -3.857  1.00  0.00    -0.269 OA
BRANCH  30  33
ATOM     33  C   UNL     1       0.406   6.206  -5.998  1.00  0.00     0.039 A 
ATOM     34  C   UNL     1       1.286   6.896  -6.832  1.00  0.00     0.014 A 
ATOM     35  C   UNL     1      -0.899   5.914  -6.404  1.00  0.00     0.014 A 
ATOM     36  C   UNL     1       0.875   7.234  -8.121  1.00  0.00     0.010 A 
ATOM     37  C   UNL     1      -1.285   6.201  -7.707  1.00  0.00     0.010 A 
ATOM     38  C   UNL     1      -0.398   6.852  -8.580  1.00  0.00    -0.014 A 
BRANCH  38  39
ATOM     39  C   UNL     1      -0.819   7.106  -9.978  1.00  0.00     0.031 A 
ATOM     40  C   UNL     1      -1.948   8.057 -10.253  1.00  0.00     0.074 A 
ATOM     41  C   UNL     1      -0.240   6.422 -10.983  1.00  0.00     0.049 A 
ATOM     42  N   UNL     1      -2.525   8.346 -11.390  1.00  0.00    -0.248 NA
ATOM     43  C   UNL     1      -2.522   8.754  -9.090  1.00  0.00     0.031 C 
ATOM     44  C   UNL     1       0.834   5.437 -10.831  1.00  0.00     0.029 A 
ATOM     45  N   UNL     1      -0.481   6.442 -12.334  1.00  0.00    -0.354 N 
ATOM     46  C   UNL     1      -3.537   9.245 -11.080  1.00  0.00     0.074 A 
ATOM     47  C   UNL     1      -3.528   9.415  -9.643  1.00  0.00     0.031 C 
ATOM     48  C   UNL     1       1.173   4.965 -12.042  1.00  0.00     0.029 A 
ATOM     49  C   UNL     1       0.321   5.586 -13.051  1.00  0.00     0.049 A 
ATOM     50  H   UNL     1      -1.164   7.016 -12.750  1.00  0.00     0.167 HD
ATOM     51  C   UNL     1      -4.382   9.889 -11.919  1.00  0.00     0.037 A 
ATOM     52  C   UNL     1       0.360   5.330 -14.373  1.00  0.00     0.037 A 
ATOM     53  C   UNL     1      -4.367   9.733 -13.349  1.00  0.00     0.049 A 
ATOM     54  C   UNL     1      -0.588   6.058 -15.287  1.00  0.00     0.074 A 
ATOM     55  C   UNL     1      -5.146  10.377 -14.294  1.00  0.00     0.029 A 
ATOM     56  N   UNL     1      -3.527   8.873 -14.041  1.00  0.00    -0.354 N 
ATOM     57  N   UNL     1      -1.505   6.945 -14.983  1.00  0.00    -0.248 NA
ATOM     58  C   UNL     1      -0.495   5.753 -16.721  1.00  0.00     0.031 C 
ATOM     59  C   UNL     1      -4.795   9.885 -15.556  1.00  0.00     0.029 A 
ATOM     60  C   UNL     1      -3.775   8.959 -15.400  1.00  0.00     0.049 A 
ATOM     61  H   UNL     1      -2.853   8.287 -13.626  1.00  0.00     0.167 HD
ATOM     62  C   UNL     1      -2.084   7.321 -16.190  1.00  0.00     0.074 A 
ATOM     63  C   UNL     1      -1.407   6.571 -17.229  1.00  0.00     0.031 C 
ATOM     64  C   UNL     1      -3.083   8.208 -16.417  1.00  0.00     0.037 A 
BRANCH  51  65
ATOM     65  C   UNL     1      -5.383  10.823 -11.302  1.00  0.00     0.058 A 
ATOM     66  C   UNL     1      -4.991  12.049 -10.742  1.00  0.00     0.135 A 
ATOM     67  C   UNL     1      -6.746  10.490 -11.264  1.00  0.00     0.135 A 
ATOM     68  F   UNL     1      -3.697  12.407 -10.736  1.00  0.00    -0.206 F 
ATOM     69  C   UNL     1      -5.909  12.896 -10.130  1.00  0.00     0.059 A 
ATOM     70  C   UNL     1      -7.686  11.334 -10.679  1.00  0.00     0.059 A 
ATOM     71  F   UNL     1      -7.174   9.329 -11.784  1.00  0.00    -0.206 F 
ATOM     72  C   UNL     1      -7.254  12.525 -10.097  1.00  0.00     0.060 A 
BRANCH  72  73
ATOM     73  S   UNL     1      -8.433  13.621  -9.280  1.00  0.00     0.124 S 
ATOM     74  O   UNL     1      -8.163  13.339  -7.874  1.00  0.00    -0.237 OA
ATOM     75  O   UNL     1      -8.017  14.939  -9.752  1.00  0.00    -0.237 OA
ATOM     76  O   UNL     1      -9.725  13.160  -9.778  1.00  0.00    -0.744 OA
ENDBRANCH  72  73
ENDBRANCH  51  65
BRANCH  52  77
ATOM     77  C   UNL     1       1.353   4.366 -14.914  1.00  0.00     0.058 A 
ATOM     78  C   UNL     1       2.467   4.818 -15.636  1.00  0.00     0.135 A 
ATOM     79  C   UNL     1       1.223   2.985 -14.706  1.00  0.00     0.135 A 
ATOM     80  F   UNL     1       2.631   6.130 -15.864  1.00  0.00    -0.206 F 
ATOM     81  C   UNL     1       3.414   3.934 -16.143  1.00  0.00     0.059 A 
ATOM     82  C   UNL     1       2.167   2.082 -15.186  1.00  0.00     0.059 A 
ATOM     83  F   UNL     1       0.182   2.505 -14.007  1.00  0.00    -0.206 F 
ATOM     84  C   UNL     1       3.256   2.567 -15.911  1.00  0.00     0.060 A 
BRANCH  84  85
ATOM     85  S   UNL     1       4.520   1.432 -16.525  1.00  0.00     0.124 S 
ATOM     86  O   UNL     1       4.210   1.391 -17.949  1.00  0.00    -0.237 OA
ATOM     87  O   UNL     1       5.755   2.119 -16.159  1.00  0.00    -0.237 OA
ATOM     88  O   UNL     1       4.253   0.203 -15.783  1.00  0.00    -0.744 OA
ENDBRANCH  84  85
ENDBRANCH  52  77
BRANCH  64  89
ATOM     89  C   UNL     1      -3.490   8.436 -17.844  1.00  0.00     0.058 A 
ATOM     90  C   UNL     1      -4.275   7.506 -18.540  1.00  0.00     0.135 A 
ATOM     91  C   UNL     1      -3.144   9.629 -18.499  1.00  0.00     0.135 A 
ATOM     92  F   UNL     1      -4.624   6.347 -17.959  1.00  0.00    -0.206 F 
ATOM     93  C   UNL     1      -4.697   7.745 -19.844  1.00  0.00     0.059 A 
ATOM     94  C   UNL     1      -3.572   9.898 -19.795  1.00  0.00     0.059 A 
ATOM     95  F   UNL     1      -2.401  10.554 -17.871  1.00  0.00    -0.206 F 
ATOM     96  C   UNL     1      -4.342   8.946 -20.462  1.00  0.00     0.060 A 
BRANCH  96  97
ATOM     97  S   UNL     1      -4.938   9.269 -22.135  1.00  0.00     0.124 S 
ATOM     98  O   UNL     1      -4.045   8.434 -22.931  1.00  0.00    -0.237 OA
ATOM     99  O   UNL     1      -6.327   8.826 -22.066  1.00  0.00    -0.237 OA
ATOM    100  O   UNL     1      -4.754  10.710 -22.287  1.00  0.00    -0.744 OA
ENDBRANCH  96  97
ENDBRANCH  64  89
ENDBRANCH  38  39
ENDBRANCH  30  33
ENDBRANCH  28  29
ENDBRANCH  27  28
ENDBRANCH  26  27
ENDBRANCH   1  26
TORSDOF 20
