REMARK SMILES Cc1ccc(-c2cc(C(=O)NCCCCNC(=O)c3ccc(-c4c5nc(c(-c6c(F)cc(S(=O)(=O)[O-])cc6F)c6ccc([nH]6)c(-c6c(F)cc(S(=O)(=O)[O-])cc6F)c6nc(c(-c7c(F)cc(S(=O)(=O)[O-])cc7F)c7ccc4[nH]7)C=C6)C=C5)cc3)c3c(-c4cccc([N+](=O)[O-])c4)[nH]nc3n2)cc1
REMARK SMILES IDX 14 1 13 2 12 3 11 4 9 5 10 6 8 8 6 9 7 10 99 11 98 12 85 13
REMARK SMILES IDX 97 14 86 15 96 16 5 18 1 19 2 20 3 21 101 22 4 23 100 24
REMARK SMILES IDX 87 25 88 26 95 27 89 28 91 29 90 30 92 31 93 32 94 33 15 34
REMARK SMILES IDX 16 35 17 36 18 38 19 39 20 40 84 41 21 42 83 43 22 44 23 45
REMARK SMILES IDX 24 46 77 47 25 48 82 49 76 50 78 51 26 52 81 53 75 54 74 55
REMARK SMILES IDX 27 57 61 58 40 59 60 60 41 61 44 62 59 63 79 64 42 65 43 66
REMARK SMILES IDX 58 68 80 69 45 70 28 71 29 72 38 73 30 74 31 75 37 76 39 77
REMARK SMILES IDX 32 78 33 79 34 80 35 81 36 82 62 83 63 84 72 85 64 86 65 87
REMARK SMILES IDX 71 88 73 89 66 90 67 91 68 92 69 93 70 94 46 95 47 96 56 97
REMARK SMILES IDX 48 98 49 99 55 100 57 101 50 102 51 103 52 104 53 105 54 106
REMARK H PARENT 11 7 96 17 16 37 78 56 44 67
REMARK Flexibility Score: inf
ROOT
ATOM      1  C   UNL     1      -3.349   1.042  -5.810  1.00  0.00     0.023 C 
ENDROOT
BRANCH   1   2
ATOM      2  C   UNL     1      -2.798   1.167  -4.384  1.00  0.00     0.023 C 
BRANCH   2   3
ATOM      3  C   UNL     1      -3.440   2.284  -3.545  1.00  0.00     0.116 C 
BRANCH   3   4
ATOM      4  N   UNL     1      -4.868   2.084  -3.328  1.00  0.00    -0.352 N 
ATOM      5  C   UNL     1      -5.662   1.465  -2.396  1.00  0.00     0.252 C 
ATOM      6  O   UNL     1      -6.865   1.652  -2.564  1.00  0.00    -0.269 OA
ATOM      7  H   UNL     1      -5.405   2.504  -4.038  1.00  0.00     0.163 HD
BRANCH   5   8
ATOM      8  C   UNL     1      -5.176   0.657  -1.248  1.00  0.00     0.055 A 
ATOM      9  C   UNL     1      -3.312  -0.216   0.162  1.00  0.00     0.074 A 
ATOM     10  C   UNL     1      -3.821   0.414  -1.002  1.00  0.00     0.043 A 
ATOM     11  N   UNL     1      -4.054  -0.765   1.153  1.00  0.00    -0.226 NA
ATOM     12  C   UNL     1      -5.386  -0.620   0.941  1.00  0.00     0.182 A 
ATOM     13  C   UNL     1      -5.940   0.062  -0.214  1.00  0.00     0.059 A 
ATOM     14  N   UNL     1      -6.334  -1.072   1.761  1.00  0.00    -0.154 NA
ATOM     15  C   UNL     1      -7.313  -0.044  -0.036  1.00  0.00     0.076 A 
ATOM     16  N   UNL     1      -7.469  -0.695   1.165  1.00  0.00    -0.275 N 
ATOM     17  H   UNL     1      -8.354  -0.870   1.559  1.00  0.00     0.190 HD
BRANCH   9  18
ATOM     18  C   UNL     1      -1.851  -0.226   0.331  1.00  0.00     0.000 A 
ATOM     19  C   UNL     1       2.461  -0.143   0.074  1.00  0.00     0.044 C 
ATOM     20  C   UNL     1       0.969  -0.168   0.233  1.00  0.00    -0.051 A 
ATOM     21  C   UNL     1       0.281  -1.387   0.296  1.00  0.00     0.004 A 
ATOM     22  C   UNL     1       0.245   1.025   0.273  1.00  0.00     0.004 A 
ATOM     23  C   UNL     1      -1.117  -1.417   0.351  1.00  0.00     0.010 A 
ATOM     24  C   UNL     1      -1.147   0.994   0.330  1.00  0.00     0.010 A 
ENDBRANCH   9  18
BRANCH  15  25
ATOM     25  C   UNL     1      -8.490   0.321  -0.811  1.00  0.00     0.007 A 
ATOM     26  C   UNL     1      -9.328   1.360  -0.381  1.00  0.00     0.011 A 
ATOM     27  C   UNL     1      -8.768  -0.339  -2.014  1.00  0.00     0.096 A 
ATOM     28  C   UNL     1     -10.406   1.774  -1.169  1.00  0.00     0.008 A 
ATOM     29  C   UNL     1      -9.827   0.105  -2.816  1.00  0.00     0.270 A 
ATOM     30  C   UNL     1     -10.652   1.157  -2.396  1.00  0.00     0.085 A 
BRANCH  29  31
ATOM     31  N   UNL     1     -10.053  -0.520  -4.123  1.00  0.00     0.062 N 
ATOM     32  O   UNL     1     -10.958  -0.061  -4.836  1.00  0.00    -0.258 OA
ATOM     33  O   UNL     1      -9.351  -1.496  -4.429  1.00  0.00    -0.258 OA
ENDBRANCH  29  31
ENDBRANCH  15  25
ENDBRANCH   5   8
ENDBRANCH   3   4
ENDBRANCH   2   3
ENDBRANCH   1   2
BRANCH   1  34
ATOM     34  C   UNL     1      -3.091   2.268  -6.677  1.00  0.00     0.116 C 
BRANCH  34  35
ATOM     35  N   UNL     1      -1.945   2.171  -7.560  1.00  0.00    -0.352 N 
ATOM     36  C   UNL     1      -1.486   3.139  -8.448  1.00  0.00     0.251 C 
ATOM     37  H   UNL     1      -1.435   1.329  -7.527  1.00  0.00     0.163 HD
ATOM     38  O   UNL     1      -0.748   2.881  -9.367  1.00  0.00    -0.269 OA
BRANCH  36  39
ATOM     39  C   UNL     1      -1.838   4.545  -8.123  1.00  0.00     0.039 A 
ATOM     40  C   UNL     1      -0.791   5.359  -7.673  1.00  0.00     0.014 A 
ATOM     41  C   UNL     1      -3.166   4.935  -7.976  1.00  0.00     0.014 A 
ATOM     42  C   UNL     1      -1.079   6.479  -6.899  1.00  0.00     0.010 A 
ATOM     43  C   UNL     1      -3.448   6.008  -7.148  1.00  0.00     0.010 A 
ATOM     44  C   UNL     1      -2.404   6.742  -6.562  1.00  0.00    -0.014 A 
BRANCH  44  45
ATOM     45  C   UNL     1      -2.801   7.702  -5.536  1.00  0.00     0.031 A 
ATOM     46  C   UNL     1      -3.458   8.973  -5.923  1.00  0.00     0.074 A 
ATOM     47  C   UNL     1      -2.651   7.399  -4.227  1.00  0.00     0.049 A 
ATOM     48  N   UNL     1      -3.686   9.950  -5.112  1.00  0.00    -0.248 NA
ATOM     49  C   UNL     1      -3.829   9.283  -7.303  1.00  0.00     0.031 C 
ATOM     50  C   UNL     1      -3.337   8.017  -3.095  1.00  0.00     0.029 A 
ATOM     51  N   UNL     1      -1.661   6.611  -3.639  1.00  0.00    -0.354 N 
ATOM     52  C   UNL     1      -4.478  10.863  -5.765  1.00  0.00     0.074 A 
ATOM     53  C   UNL     1      -4.415  10.475  -7.150  1.00  0.00     0.031 C 
ATOM     54  C   UNL     1      -2.635   7.786  -1.976  1.00  0.00     0.029 A 
ATOM     55  C   UNL     1      -1.389   7.157  -2.371  1.00  0.00     0.049 A 
ATOM     56  H   UNL     1      -1.232   5.819  -4.038  1.00  0.00     0.167 HD
ATOM     57  C   UNL     1      -5.204  11.747  -5.025  1.00  0.00     0.037 A 
ATOM     58  C   UNL     1      -0.153   7.644  -2.053  1.00  0.00     0.037 A 
ATOM     59  C   UNL     1      -4.675  11.830  -3.661  1.00  0.00     0.049 A 
ATOM     60  C   UNL     1      -0.130   9.115  -1.704  1.00  0.00     0.074 A 
ATOM     61  C   UNL     1      -5.111  11.374  -2.430  1.00  0.00     0.029 A 
ATOM     62  N   UNL     1      -3.361  12.260  -3.476  1.00  0.00    -0.354 N 
ATOM     63  N   UNL     1      -1.103   9.945  -1.963  1.00  0.00    -0.248 NA
ATOM     64  C   UNL     1       0.995   9.771  -1.043  1.00  0.00     0.031 C 
ATOM     65  C   UNL     1      -4.011  11.433  -1.529  1.00  0.00     0.029 A 
ATOM     66  C   UNL     1      -2.924  11.971  -2.199  1.00  0.00     0.049 A 
ATOM     67  H   UNL     1      -2.818  12.709  -4.164  1.00  0.00     0.167 HD
ATOM     68  C   UNL     1      -0.751  11.211  -1.569  1.00  0.00     0.074 A 
ATOM     69  C   UNL     1       0.558  11.040  -0.963  1.00  0.00     0.031 C 
ATOM     70  C   UNL     1      -1.560  12.292  -1.789  1.00  0.00     0.037 A 
BRANCH  57  71
ATOM     71  C   UNL     1      -6.518  12.384  -5.465  1.00  0.00     0.058 A 
ATOM     72  C   UNL     1      -7.241  13.218  -4.579  1.00  0.00     0.135 A 
ATOM     73  C   UNL     1      -7.201  12.104  -6.672  1.00  0.00     0.135 A 
ATOM     74  F   UNL     1      -6.734  13.568  -3.387  1.00  0.00    -0.206 F 
ATOM     75  C   UNL     1      -8.530  13.698  -4.853  1.00  0.00     0.059 A 
ATOM     76  C   UNL     1      -8.466  12.607  -6.985  1.00  0.00     0.059 A 
ATOM     77  F   UNL     1      -6.720  11.273  -7.599  1.00  0.00    -0.206 F 
ATOM     78  C   UNL     1      -9.140  13.380  -6.059  1.00  0.00     0.060 A 
BRANCH  78  79
ATOM     79  S   UNL     1     -10.818  13.941  -6.402  1.00  0.00     0.124 S 
ATOM     80  O   UNL     1     -11.601  13.128  -5.476  1.00  0.00    -0.237 OA
ATOM     81  O   UNL     1     -10.743  15.365  -6.095  1.00  0.00    -0.237 OA
ATOM     82  O   UNL     1     -11.001  13.621  -7.816  1.00  0.00    -0.744 OA
ENDBRANCH  78  79
ENDBRANCH  57  71
BRANCH  58  83
ATOM     83  C   UNL     1       0.956   6.878  -2.683  1.00  0.00     0.058 A 
ATOM     84  C   UNL     1       1.161   5.560  -2.234  1.00  0.00     0.135 A 
ATOM     85  C   UNL     1       1.438   7.216  -3.956  1.00  0.00     0.135 A 
ATOM     86  F   UNL     1       0.735   5.191  -1.014  1.00  0.00    -0.206 F 
ATOM     87  C   UNL     1       1.647   4.571  -3.078  1.00  0.00     0.059 A 
ATOM     88  C   UNL     1       1.938   6.239  -4.819  1.00  0.00     0.059 A 
ATOM     89  F   UNL     1       1.276   8.459  -4.433  1.00  0.00    -0.206 F 
ATOM     90  C   UNL     1       1.958   4.909  -4.393  1.00  0.00     0.060 A 
BRANCH  90  91
ATOM     91  S   UNL     1       2.169   3.555  -5.574  1.00  0.00     0.124 S 
ATOM     92  O   UNL     1       3.247   2.784  -4.963  1.00  0.00    -0.237 OA
ATOM     93  O   UNL     1       0.846   2.933  -5.533  1.00  0.00    -0.237 OA
ATOM     94  O   UNL     1       2.507   4.243  -6.814  1.00  0.00    -0.744 OA
ENDBRANCH  90  91
ENDBRANCH  58  83
BRANCH  70  95
ATOM     95  C   UNL     1      -1.181  13.745  -1.577  1.00  0.00     0.058 A 
ATOM     96  C   UNL     1       0.130  14.248  -1.667  1.00  0.00     0.135 A 
ATOM     97  C   UNL     1      -2.188  14.726  -1.399  1.00  0.00     0.135 A 
ATOM     98  F   UNL     1       1.166  13.449  -1.959  1.00  0.00    -0.206 F 
ATOM     99  C   UNL     1       0.430  15.605  -1.513  1.00  0.00     0.059 A 
ATOM    100  C   UNL     1      -1.917  16.090  -1.301  1.00  0.00     0.059 A 
ATOM    101  F   UNL     1      -3.485  14.390  -1.326  1.00  0.00    -0.206 F 
ATOM    102  C   UNL     1      -0.600  16.520  -1.329  1.00  0.00     0.060 A 
BRANCH 102 103
ATOM    103  S   UNL     1      -0.233  18.281  -1.198  1.00  0.00     0.124 S 
ATOM    104  O   UNL     1      -0.132  18.451   0.248  1.00  0.00    -0.237 OA
ATOM    105  O   UNL     1       1.021  18.410  -1.935  1.00  0.00    -0.237 OA
ATOM    106  O   UNL     1      -1.389  18.907  -1.832  1.00  0.00    -0.744 OA
ENDBRANCH 102 103
ENDBRANCH  70  95
ENDBRANCH  44  45
ENDBRANCH  36  39
ENDBRANCH  34  35
ENDBRANCH   1  34
TORSDOF 17
