REMARK SMILES Cc1ccc(-c2nc(NC(=O)[C@H]3[C@@H](C(=O)NCCCCNC(=O)c4ccc(-c5c6nc(c(-c7c(F)cc(S(=O)(=O)[O-])cc7F)c7ccc([nH]7)c(-c7c(F)cc(S(=O)(=O)[O-])cc7F)c7nc(c(-c8c(F)cc(S(=O)(=O)[O-])cc8F)c8ccc5[nH]8)C=C7)C=C6)cc4)[C@@H]4CC[C@H]3O4)sc2C)cc1
REMARK SMILES IDX 18 1 17 2 16 3 14 4 15 5 13 7 12 8 93 9 90 10 92 11 94 12
REMARK SMILES IDX 91 13 10 14 9 15 11 17 8 18 6 19 7 20 96 21 95 22 97 23 5 24
REMARK SMILES IDX 1 25 2 26 3 27 99 28 4 29 98 30 19 31 20 32 21 33 22 34
REMARK SMILES IDX 23 36 24 37 25 38 89 39 26 40 88 41 27 42 28 43 29 44 82 45
REMARK SMILES IDX 30 46 87 47 81 48 83 49 31 50 86 51 80 52 79 53 32 55 66 56
REMARK SMILES IDX 45 57 65 58 46 59 49 60 64 61 84 62 47 63 48 64 63 66 85 67
REMARK SMILES IDX 50 68 33 69 34 70 43 71 35 72 36 73 42 74 44 75 37 76 38 77
REMARK SMILES IDX 39 78 40 79 41 80 67 81 68 82 77 83 69 84 70 85 76 86 78 87
REMARK SMILES IDX 71 88 72 89 73 90 74 91 75 92 51 93 52 94 61 95 53 96 54 97
REMARK SMILES IDX 60 98 62 99 55 100 56 101 57 102 58 103 59 104
REMARK H PARENT 16 6 9 16 21 35 83 54 49 65
REMARK Flexibility Score: inf
ROOT
ATOM      1  C   UNL     1      -5.591  -0.971   0.215  1.00  0.00     0.023 C 
ENDROOT
BRANCH   1   2
ATOM      2  C   UNL     1      -6.226  -0.623   1.558  1.00  0.00     0.116 C 
BRANCH   2   3
ATOM      3  N   UNL     1      -7.103   0.547   1.597  1.00  0.00    -0.356 N 
ATOM      4  C   UNL     1      -8.457   0.566   1.420  1.00  0.00     0.226 C 
ATOM      5  O   UNL     1      -9.137   1.139   2.273  1.00  0.00    -0.275 OA
ATOM      6  H   UNL     1      -6.671   1.415   1.769  1.00  0.00     0.163 HD
BRANCH   4   7
ATOM      7  C   UNL     1      -9.081  -0.218   0.293  1.00  0.00     0.122 C 
ATOM      8  C   UNL     1      -8.684  -0.040  -1.175  1.00  0.00     0.123 C 
ATOM      9  C   UNL     1     -10.010  -0.374  -1.868  1.00  0.00     0.132 C 
ATOM     10  C   UNL     1     -10.634  -0.111   0.195  1.00  0.00     0.132 C 
ATOM     11  C   UNL     1     -10.541  -1.772  -1.463  1.00  0.00     0.035 C 
ATOM     12  O   UNL     1     -10.875   0.491  -1.112  1.00  0.00    -0.373 OA
ATOM     13  C   UNL     1     -11.219  -1.483  -0.116  1.00  0.00     0.035 C 
BRANCH   8  14
ATOM     14  C   UNL     1      -8.012   1.121  -1.932  1.00  0.00     0.232 C 
ATOM     15  N   UNL     1      -7.904   2.447  -1.732  1.00  0.00    -0.302 N 
ATOM     16  H   UNL     1      -7.282   2.843  -2.383  1.00  0.00     0.172 HD
ATOM     17  O   UNL     1      -7.453   0.766  -2.996  1.00  0.00    -0.274 OA
BRANCH  15  18
ATOM     18  C   UNL     1      -8.398   3.408  -0.898  1.00  0.00     0.190 A 
ATOM     19  C   UNL     1      -8.549   5.382   0.127  1.00  0.00     0.086 A 
ATOM     20  N   UNL     1      -7.938   4.646  -0.895  1.00  0.00    -0.220 NA
ATOM     21  C   UNL     1      -9.519   4.671   0.822  1.00  0.00     0.031 A 
ATOM     22  S   UNL     1      -9.733   3.147   0.080  1.00  0.00    -0.101 S 
ATOM     23  C   UNL     1     -10.361   5.009   2.001  1.00  0.00     0.059 C 
BRANCH  19  24
ATOM     24  C   UNL     1      -8.231   6.789   0.406  1.00  0.00     0.001 A 
ATOM     25  C   UNL     1      -7.908  11.026   1.301  1.00  0.00     0.044 C 
ATOM     26  C   UNL     1      -7.982   9.559   0.985  1.00  0.00    -0.051 A 
ATOM     27  C   UNL     1      -8.014   9.103  -0.340  1.00  0.00     0.004 A 
ATOM     28  C   UNL     1      -8.004   8.616   2.014  1.00  0.00     0.004 A 
ATOM     29  C   UNL     1      -8.138   7.731  -0.628  1.00  0.00     0.010 A 
ATOM     30  C   UNL     1      -8.108   7.251   1.726  1.00  0.00     0.010 A 
ENDBRANCH  19  24
ENDBRANCH  15  18
ENDBRANCH   8  14
ENDBRANCH   4   7
ENDBRANCH   2   3
ENDBRANCH   1   2
BRANCH   1  31
ATOM     31  C   UNL     1      -4.977   0.201  -0.540  1.00  0.00     0.023 C 
BRANCH  31  32
ATOM     32  C   UNL     1      -3.741   0.784   0.117  1.00  0.00     0.116 C 
BRANCH  32  33
ATOM     33  N   UNL     1      -2.545  -0.025  -0.042  1.00  0.00    -0.352 N 
ATOM     34  C   UNL     1      -1.246   0.422   0.177  1.00  0.00     0.251 C 
ATOM     35  H   UNL     1      -2.663  -0.961  -0.326  1.00  0.00     0.163 HD
ATOM     36  O   UNL     1      -0.279   0.016  -0.427  1.00  0.00    -0.269 OA
BRANCH  34  37
ATOM     37  C   UNL     1      -1.093   1.317   1.347  1.00  0.00     0.039 A 
ATOM     38  C   UNL     1      -0.603   0.756   2.532  1.00  0.00     0.014 A 
ATOM     39  C   UNL     1      -1.720   2.558   1.339  1.00  0.00     0.014 A 
ATOM     40  C   UNL     1      -0.883   1.378   3.748  1.00  0.00     0.010 A 
ATOM     41  C   UNL     1      -2.090   3.109   2.548  1.00  0.00     0.010 A 
ATOM     42  C   UNL     1      -1.696   2.510   3.755  1.00  0.00    -0.014 A 
BRANCH  42  43
ATOM     43  C   UNL     1      -2.243   3.125   4.961  1.00  0.00     0.031 A 
ATOM     44  C   UNL     1      -1.764   4.460   5.394  1.00  0.00     0.074 A 
ATOM     45  C   UNL     1      -3.273   2.550   5.619  1.00  0.00     0.049 A 
ATOM     46  N   UNL     1      -1.923   4.939   6.583  1.00  0.00    -0.248 NA
ATOM     47  C   UNL     1      -1.038   5.364   4.505  1.00  0.00     0.031 C 
ATOM     48  C   UNL     1      -4.162   3.189   6.586  1.00  0.00     0.029 A 
ATOM     49  N   UNL     1      -3.623   1.203   5.673  1.00  0.00    -0.354 N 
ATOM     50  C   UNL     1      -1.571   6.267   6.550  1.00  0.00     0.074 A 
ATOM     51  C   UNL     1      -0.994   6.477   5.242  1.00  0.00     0.031 C 
ATOM     52  C   UNL     1      -4.782   2.242   7.304  1.00  0.00     0.029 A 
ATOM     53  C   UNL     1      -4.207   0.962   6.933  1.00  0.00     0.049 A 
ATOM     54  H   UNL     1      -3.487   0.539   4.960  1.00  0.00     0.167 HD
ATOM     55  C   UNL     1      -1.905   7.090   7.582  1.00  0.00     0.037 A 
ATOM     56  C   UNL     1      -3.621   0.091   7.811  1.00  0.00     0.037 A 
ATOM     57  C   UNL     1      -2.581   6.375   8.658  1.00  0.00     0.049 A 
ATOM     58  C   UNL     1      -3.054   0.739   9.059  1.00  0.00     0.074 A 
ATOM     59  C   UNL     1      -3.910   6.170   8.990  1.00  0.00     0.029 A 
ATOM     60  N   UNL     1      -1.856   5.471   9.414  1.00  0.00    -0.354 N 
ATOM     61  N   UNL     1      -3.130   2.011   9.336  1.00  0.00    -0.248 NA
ATOM     62  C   UNL     1      -2.279   0.000  10.060  1.00  0.00     0.031 C 
ATOM     63  C   UNL     1      -3.977   5.090   9.913  1.00  0.00     0.029 A 
ATOM     64  C   UNL     1      -2.689   4.644  10.146  1.00  0.00     0.049 A 
ATOM     65  H   UNL     1      -0.873   5.423   9.430  1.00  0.00     0.167 HD
ATOM     66  C   UNL     1      -2.361   2.279  10.437  1.00  0.00     0.074 A 
ATOM     67  C   UNL     1      -1.877   0.986  10.879  1.00  0.00     0.031 C 
ATOM     68  C   UNL     1      -2.114   3.540  10.890  1.00  0.00     0.037 A 
BRANCH  55  69
ATOM     69  C   UNL     1      -1.821   8.590   7.477  1.00  0.00     0.058 A 
ATOM     70  C   UNL     1      -2.826   9.409   8.028  1.00  0.00     0.135 A 
ATOM     71  C   UNL     1      -0.791   9.274   6.799  1.00  0.00     0.135 A 
ATOM     72  F   UNL     1      -3.830   8.895   8.752  1.00  0.00    -0.206 F 
ATOM     73  C   UNL     1      -2.865  10.789   7.835  1.00  0.00     0.059 A 
ATOM     74  C   UNL     1      -0.837  10.648   6.543  1.00  0.00     0.059 A 
ATOM     75  F   UNL     1       0.304   8.626   6.375  1.00  0.00    -0.206 F 
ATOM     76  C   UNL     1      -1.886  11.397   7.060  1.00  0.00     0.060 A 
BRANCH  76  77
ATOM     77  S   UNL     1      -2.030  13.162   6.720  1.00  0.00     0.124 S 
ATOM     78  O   UNL     1      -3.420  13.283   6.291  1.00  0.00    -0.237 OA
ATOM     79  O   UNL     1      -1.713  13.745   8.019  1.00  0.00    -0.237 OA
ATOM     80  O   UNL     1      -1.040  13.386   5.670  1.00  0.00    -0.744 OA
ENDBRANCH  76  77
ENDBRANCH  55  69
BRANCH  56  81
ATOM     81  C   UNL     1      -3.043  -1.093   7.117  1.00  0.00     0.058 A 
ATOM     82  C   UNL     1      -3.945  -1.974   6.488  1.00  0.00     0.135 A 
ATOM     83  C   UNL     1      -1.716  -1.083   6.666  1.00  0.00     0.135 A 
ATOM     84  F   UNL     1      -5.220  -2.042   6.905  1.00  0.00    -0.206 F 
ATOM     85  C   UNL     1      -3.602  -2.653   5.326  1.00  0.00     0.059 A 
ATOM     86  C   UNL     1      -1.348  -1.768   5.508  1.00  0.00     0.059 A 
ATOM     87  F   UNL     1      -0.811  -0.278   7.242  1.00  0.00    -0.206 F 
ATOM     88  C   UNL     1      -2.325  -2.470   4.800  1.00  0.00     0.060 A 
BRANCH  88  89
ATOM     89  S   UNL     1      -2.030  -2.998   3.096  1.00  0.00     0.124 S 
ATOM     90  O   UNL     1      -2.469  -4.388   3.123  1.00  0.00    -0.237 OA
ATOM     91  O   UNL     1      -2.891  -2.082   2.345  1.00  0.00    -0.237 OA
ATOM     92  O   UNL     1      -0.598  -2.789   2.925  1.00  0.00    -0.744 OA
ENDBRANCH  88  89
ENDBRANCH  56  81
BRANCH  68  93
ATOM     93  C   UNL     1      -1.297   3.803  12.113  1.00  0.00     0.058 A 
ATOM     94  C   UNL     1      -1.639   3.236  13.350  1.00  0.00     0.135 A 
ATOM     95  C   UNL     1      -0.236   4.728  12.106  1.00  0.00     0.135 A 
ATOM     96  F   UNL     1      -2.655   2.363  13.442  1.00  0.00    -0.206 F 
ATOM     97  C   UNL     1      -0.956   3.559  14.520  1.00  0.00     0.059 A 
ATOM     98  C   UNL     1       0.435   5.095  13.268  1.00  0.00     0.059 A 
ATOM     99  F   UNL     1       0.183   5.287  10.960  1.00  0.00    -0.206 F 
ATOM    100  C   UNL     1       0.077   4.493  14.470  1.00  0.00     0.060 A 
BRANCH 100 101
ATOM    101  S   UNL     1       0.933   4.952  15.990  1.00  0.00     0.124 S 
ATOM    102  O   UNL     1      -0.110   4.817  17.003  1.00  0.00    -0.237 OA
ATOM    103  O   UNL     1       1.992   3.949  16.039  1.00  0.00    -0.237 OA
ATOM    104  O   UNL     1       1.369   6.320  15.727  1.00  0.00    -0.744 OA
ENDBRANCH 100 101
ENDBRANCH  68  93
ENDBRANCH  42  43
ENDBRANCH  34  37
ENDBRANCH  32  33
ENDBRANCH  31  32
ENDBRANCH   1  31
TORSDOF 17
