REMARK SMILES Cc1cc(=O)c(Oc2ccc(C(=O)NCCCCNC(=O)c3ccc(-c4c5nc(c(-c6c(F)cc(S(=O)(=O)[O-])cc6F)c6ccc([nH]6)c(-c6c(F)cc(S(=O)(=O)[O-])cc6F)c6nc(c(-c7c(F)cc(S(=O)(=O)[O-])cc7F)c7ccc4[nH]7)C=C6)C=C5)cc3)cc2)c(-c2ccc(S(C)(=O)=O)cc2)o1
REMARK SMILES IDX 16 1 15 2 14 3 12 4 13 5 11 7 8 8 9 9 89 10 10 11 88 12 7 13
REMARK SMILES IDX 6 14 1 15 2 16 3 17 101 18 4 19 90 20 5 21 91 22 92 23
REMARK SMILES IDX 100 24 93 25 99 26 94 27 95 28 96 29 97 30 98 31 17 32 18 33
REMARK SMILES IDX 19 34 20 35 21 37 22 38 23 39 87 40 24 41 86 42 25 43 26 44
REMARK SMILES IDX 27 45 80 46 28 47 85 48 79 49 81 50 29 51 84 52 78 53 77 54
REMARK SMILES IDX 30 56 64 57 43 58 63 59 44 60 47 61 62 62 82 63 45 64 46 65
REMARK SMILES IDX 61 67 83 68 48 69 31 70 32 71 41 72 33 73 34 74 40 75 42 76
REMARK SMILES IDX 35 77 36 78 37 79 38 80 39 81 65 82 66 83 75 84 67 85 68 86
REMARK SMILES IDX 74 87 76 88 69 89 70 90 71 91 72 92 73 93 49 94 50 95 59 96
REMARK SMILES IDX 51 97 52 98 58 99 60 100 53 101 54 102 55 103 56 104 57 105
REMARK H PARENT 14 6 19 36 81 55 47 66
REMARK Flexibility Score: inf
ROOT
ATOM      1  C   UNL     1       3.434   7.079   7.570  1.00  0.00     0.023 C 
ENDROOT
BRANCH   1   2
ATOM      2  C   UNL     1       1.994   6.623   7.768  1.00  0.00     0.116 C 
BRANCH   2   3
ATOM      3  N   UNL     1       0.964   7.470   7.197  1.00  0.00    -0.352 N 
ATOM      4  C   UNL     1      -0.297   7.161   6.731  1.00  0.00     0.251 C 
ATOM      5  O   UNL     1      -1.067   8.069   6.427  1.00  0.00    -0.269 OA
ATOM      6  H   UNL     1       1.204   8.423   7.133  1.00  0.00     0.163 HD
BRANCH   4   7
ATOM      7  C   UNL     1      -0.705   5.755   6.465  1.00  0.00     0.040 A 
ATOM      8  C   UNL     1      -0.975   3.167   5.487  1.00  0.00     0.127 A 
ATOM      9  C   UNL     1      -1.639   4.206   4.846  1.00  0.00     0.048 A 
ATOM     10  C   UNL     1      -0.392   3.379   6.735  1.00  0.00     0.048 A 
ATOM     11  C   UNL     1      -1.468   5.511   5.314  1.00  0.00     0.017 A 
ATOM     12  C   UNL     1      -0.296   4.673   7.244  1.00  0.00     0.017 A 
BRANCH   8  13
ATOM     13  O   UNL     1      -0.936   1.898   4.992  1.00  0.00    -0.449 OA
BRANCH  13  14
ATOM     14  C   UNL     1      -0.340   1.553   3.784  1.00  0.00     0.217 A 
ATOM     15  C   UNL     1       1.076   0.019  -0.003  1.00  0.00     0.088 C 
ATOM     16  C   UNL     1       0.592   0.423   1.353  1.00  0.00     0.105 A 
ATOM     17  C   UNL     1      -0.017  -0.417   2.191  1.00  0.00     0.098 A 
ATOM     18  O   UNL     1       0.824   1.744   1.668  1.00  0.00    -0.457 OA
ATOM     19  C   UNL     1      -0.487   0.090   3.486  1.00  0.00     0.228 A 
ATOM     20  C   UNL     1       0.351   2.280   2.864  1.00  0.00     0.180 A 
ATOM     21  O   UNL     1      -0.995  -0.696   4.283  1.00  0.00    -0.285 OA
BRANCH  20  22
ATOM     22  C   UNL     1       0.688   3.716   2.912  1.00  0.00     0.021 A 
ATOM     23  C   UNL     1       0.021   4.607   2.052  1.00  0.00     0.013 A 
ATOM     24  C   UNL     1       1.674   4.212   3.776  1.00  0.00     0.013 A 
ATOM     25  C   UNL     1       0.267   5.981   2.118  1.00  0.00     0.021 A 
ATOM     26  C   UNL     1       1.934   5.587   3.837  1.00  0.00     0.021 A 
ATOM     27  C   UNL     1       1.217   6.465   3.020  1.00  0.00     0.067 A 
BRANCH  27  28
ATOM     28  S   UNL     1       1.408   8.226   3.211  1.00  0.00     0.175 S 
ATOM     29  C   UNL     1       2.394   8.698   1.817  1.00  0.00     0.163 C 
ATOM     30  O   UNL     1       0.092   8.811   3.042  1.00  0.00    -0.224 OA
ATOM     31  O   UNL     1       2.193   8.457   4.409  1.00  0.00    -0.224 OA
ENDBRANCH  27  28
ENDBRANCH  20  22
ENDBRANCH  13  14
ENDBRANCH   8  13
ENDBRANCH   4   7
ENDBRANCH   2   3
ENDBRANCH   1   2
BRANCH   1  32
ATOM     32  C   UNL     1       3.788   8.490   8.016  1.00  0.00     0.023 C 
BRANCH  32  33
ATOM     33  C   UNL     1       3.277   8.914   9.385  1.00  0.00     0.116 C 
BRANCH  33  34
ATOM     34  N   UNL     1       3.774   8.101  10.490  1.00  0.00    -0.352 N 
ATOM     35  C   UNL     1       4.477   8.470  11.617  1.00  0.00     0.251 C 
ATOM     36  H   UNL     1       3.576   7.139  10.420  1.00  0.00     0.163 HD
ATOM     37  O   UNL     1       4.851   7.612  12.412  1.00  0.00    -0.269 OA
BRANCH  35  38
ATOM     38  C   UNL     1       4.834   9.890  11.833  1.00  0.00     0.039 A 
ATOM     39  C   UNL     1       3.897  10.901  11.630  1.00  0.00     0.014 A 
ATOM     40  C   UNL     1       6.152  10.217  12.165  1.00  0.00     0.014 A 
ATOM     41  C   UNL     1       4.326  12.218  11.511  1.00  0.00     0.010 A 
ATOM     42  C   UNL     1       6.558  11.555  12.158  1.00  0.00     0.010 A 
ATOM     43  C   UNL     1       5.667  12.561  11.751  1.00  0.00    -0.014 A 
BRANCH  43  44
ATOM     44  C   UNL     1       6.121  13.961  11.526  1.00  0.00     0.031 A 
ATOM     45  C   UNL     1       7.168  14.273  10.483  1.00  0.00     0.074 A 
ATOM     46  C   UNL     1       5.543  14.965  12.214  1.00  0.00     0.049 A 
ATOM     47  N   UNL     1       7.689  15.429  10.156  1.00  0.00    -0.248 NA
ATOM     48  C   UNL     1       7.704  13.141   9.711  1.00  0.00     0.031 C 
ATOM     49  C   UNL     1       4.502  14.799  13.231  1.00  0.00     0.029 A 
ATOM     50  N   UNL     1       5.728  16.323  12.149  1.00  0.00    -0.354 N 
ATOM     51  C   UNL     1       8.625  15.163   9.162  1.00  0.00     0.074 A 
ATOM     52  C   UNL     1       8.627  13.730   8.962  1.00  0.00     0.031 C 
ATOM     53  C   UNL     1       4.104  16.006  13.654  1.00  0.00     0.029 A 
ATOM     54  C   UNL     1       4.910  17.030  12.998  1.00  0.00     0.049 A 
ATOM     55  H   UNL     1       6.383  16.750  11.552  1.00  0.00     0.167 HD
ATOM     56  C   UNL     1       9.401  16.032   8.470  1.00  0.00     0.037 A 
ATOM     57  C   UNL     1       4.829  18.352  13.243  1.00  0.00     0.037 A 
ATOM     58  C   UNL     1       9.375  17.461   8.653  1.00  0.00     0.049 A 
ATOM     59  C   UNL     1       5.737  19.291  12.502  1.00  0.00     0.074 A 
ATOM     60  C   UNL     1      10.104  18.428   7.982  1.00  0.00     0.029 A 
ATOM     61  N   UNL     1       8.578  18.131   9.571  1.00  0.00    -0.354 N 
ATOM     62  N   UNL     1       6.619  19.019  11.570  1.00  0.00    -0.248 NA
ATOM     63  C   UNL     1       5.649  20.714  12.854  1.00  0.00     0.031 C 
ATOM     64  C   UNL     1       9.786  19.675   8.528  1.00  0.00     0.029 A 
ATOM     65  C   UNL     1       8.819  19.494   9.504  1.00  0.00     0.049 A 
ATOM     66  H   UNL     1       7.935  17.700  10.180  1.00  0.00     0.167 HD
ATOM     67  C   UNL     1       7.189  20.237  11.220  1.00  0.00     0.074 A 
ATOM     68  C   UNL     1       6.532  21.250  12.023  1.00  0.00     0.031 C 
ATOM     69  C   UNL     1       8.170  20.492  10.319  1.00  0.00     0.037 A 
BRANCH  56  70
ATOM     70  C   UNL     1      10.360  15.465   7.454  1.00  0.00     0.058 A 
ATOM     71  C   UNL     1       9.915  14.912   6.243  1.00  0.00     0.135 A 
ATOM     72  C   UNL     1      11.746  15.519   7.676  1.00  0.00     0.135 A 
ATOM     73  F   UNL     1       8.601  14.822   5.982  1.00  0.00    -0.206 F 
ATOM     74  C   UNL     1      10.808  14.408   5.301  1.00  0.00     0.059 A 
ATOM     75  C   UNL     1      12.659  15.046   6.736  1.00  0.00     0.059 A 
ATOM     76  F   UNL     1      12.229  16.040   8.815  1.00  0.00    -0.206 F 
ATOM     77  C   UNL     1      12.178  14.479   5.556  1.00  0.00     0.060 A 
BRANCH  77  78
ATOM     78  S   UNL     1      13.319  13.818   4.323  1.00  0.00     0.124 S 
ATOM     79  O   UNL     1      13.066  12.384   4.432  1.00  0.00    -0.237 OA
ATOM     80  O   UNL     1      12.849  14.450   3.094  1.00  0.00    -0.237 OA
ATOM     81  O   UNL     1      14.627  14.260   4.793  1.00  0.00    -0.744 OA
ENDBRANCH  77  78
ENDBRANCH  56  70
BRANCH  57  82
ATOM     82  C   UNL     1       3.851  18.850  14.246  1.00  0.00     0.058 A 
ATOM     83  C   UNL     1       2.720  19.577  13.852  1.00  0.00     0.135 A 
ATOM     84  C   UNL     1       4.000  18.558  15.612  1.00  0.00     0.135 A 
ATOM     85  F   UNL     1       2.539  19.890  12.560  1.00  0.00    -0.206 F 
ATOM     86  C   UNL     1       1.766  19.993  14.775  1.00  0.00     0.059 A 
ATOM     87  C   UNL     1       3.046  18.938  16.549  1.00  0.00     0.059 A 
ATOM     88  F   UNL     1       5.060  17.853  16.038  1.00  0.00    -0.206 F 
ATOM     89  C   UNL     1       1.932  19.658  16.120  1.00  0.00     0.060 A 
BRANCH  89  90
ATOM     90  S   UNL     1       0.645  20.133  17.294  1.00  0.00     0.124 S 
ATOM     91  O   UNL     1       0.810  21.581  17.342  1.00  0.00    -0.237 OA
ATOM     92  O   UNL     1      -0.562  19.648  16.634  1.00  0.00    -0.237 OA
ATOM     93  O   UNL     1       1.017  19.416  18.510  1.00  0.00    -0.744 OA
ENDBRANCH  89  90
ENDBRANCH  57  82
BRANCH  69  94
ATOM     94  C   UNL     1       8.601  21.923  10.152  1.00  0.00     0.058 A 
ATOM     95  C   UNL     1       9.358  22.579  11.135  1.00  0.00     0.135 A 
ATOM     96  C   UNL     1       8.303  22.629   8.975  1.00  0.00     0.135 A 
ATOM     97  F   UNL     1       9.663  21.952  12.283  1.00  0.00    -0.206 F 
ATOM     98  C   UNL     1       9.789  23.890  10.966  1.00  0.00     0.059 A 
ATOM     99  C   UNL     1       8.747  23.932   8.773  1.00  0.00     0.059 A 
ATOM    100  F   UNL     1       7.589  22.045   7.999  1.00  0.00    -0.206 F 
ATOM    101  C   UNL     1       9.482  24.557   9.779  1.00  0.00     0.060 A 
BRANCH 101 102
ATOM    102  S   UNL     1      10.079  26.247   9.561  1.00  0.00     0.124 S 
ATOM    103  O   UNL     1       9.245  26.979  10.509  1.00  0.00    -0.237 OA
ATOM    104  O   UNL     1      11.489  26.127   9.918  1.00  0.00    -0.237 OA
ATOM    105  O   UNL     1       9.816  26.523   8.152  1.00  0.00    -0.744 OA
ENDBRANCH 101 102
ENDBRANCH  69  94
ENDBRANCH  43  44
ENDBRANCH  35  38
ENDBRANCH  33  34
ENDBRANCH  32  33
ENDBRANCH   1  32
TORSDOF 18
