REMARK SMILES Cn1ccc(NC(=O)[C@@H]2CCCC[C@@H]2C(=O)NCCCCNC(=O)c2ccc(-c3c4nc(c(-c5c(F)cc(S(=O)(=O)[O-])cc5F)c5ccc([nH]5)c(-c5c(F)cc(S(=O)(=O)[O-])cc5F)c5nc(c(-c6c(F)cc(S(=O)(=O)[O-])cc6F)c6ccc3[nH]6)C=C5)C=C4)cc2)n1
REMARK SMILES IDX 20 1 19 2 18 3 17 4 15 5 16 6 14 8 9 9 10 10 11 11 13 12
REMARK SMILES IDX 12 13 7 14 6 15 8 17 5 18 1 19 2 20 3 21 91 22 4 23 21 24
REMARK SMILES IDX 22 25 23 26 24 28 25 29 26 30 90 31 27 32 89 33 28 34 29 35
REMARK SMILES IDX 30 36 83 37 31 38 88 39 82 40 84 41 32 42 87 43 81 44 80 45
REMARK SMILES IDX 33 47 67 48 46 49 66 50 47 51 50 52 65 53 85 54 48 55 49 56
REMARK SMILES IDX 64 58 86 59 51 60 34 61 35 62 44 63 36 64 37 65 43 66 45 67
REMARK SMILES IDX 38 68 39 69 40 70 41 71 42 72 68 73 69 74 78 75 70 76 71 77
REMARK SMILES IDX 77 78 79 79 72 80 73 81 74 82 75 83 76 84 52 85 53 86 62 87
REMARK SMILES IDX 54 88 55 89 61 90 63 91 56 92 57 93 58 94 59 95 60 96
REMARK H PARENT 17 7 6 16 22 27 84 46 50 57
REMARK Flexibility Score: inf
ROOT
ATOM      1  C   UNL     1       5.163   2.269   2.379  1.00  0.00     0.023 C 
ENDROOT
BRANCH   1   2
ATOM      2  C   UNL     1       3.943   2.213   1.464  1.00  0.00     0.023 C 
BRANCH   2   3
ATOM      3  C   UNL     1       2.707   1.579   2.097  1.00  0.00     0.116 C 
BRANCH   3   4
ATOM      4  N   UNL     1       1.977   2.557   2.864  1.00  0.00    -0.356 N 
ATOM      5  C   UNL     1       0.837   3.238   2.583  1.00  0.00     0.223 C 
ATOM      6  O   UNL     1       0.460   4.027   3.452  1.00  0.00    -0.275 OA
ATOM      7  H   UNL     1       2.372   2.767   3.741  1.00  0.00     0.163 HD
BRANCH   5   8
ATOM      8  C   UNL     1       0.026   2.969   1.300  1.00  0.00     0.091 C 
ATOM      9  C   UNL     1       0.516   3.612  -0.021  1.00  0.00     0.091 C 
ATOM     10  C   UNL     1       0.627   5.133   0.179  1.00  0.00     0.014 C 
ATOM     11  C   UNL     1      -0.754   5.731   0.441  1.00  0.00     0.001 C 
ATOM     12  C   UNL     1      -1.427   3.479   1.501  1.00  0.00     0.014 C 
ATOM     13  C   UNL     1      -1.546   5.011   1.533  1.00  0.00     0.001 C 
BRANCH   9  14
ATOM     14  C   UNL     1       1.737   3.034  -0.739  1.00  0.00     0.229 C 
ATOM     15  N   UNL     1       1.807   1.735  -1.147  1.00  0.00    -0.309 N 
ATOM     16  H   UNL     1       2.664   1.472  -1.554  1.00  0.00     0.171 HD
ATOM     17  O   UNL     1       2.719   3.741  -0.997  1.00  0.00    -0.274 OA
BRANCH  15  18
ATOM     18  C   UNL     1       0.867   0.737  -1.078  1.00  0.00     0.154 A 
ATOM     19  C   UNL     1      -2.318  -0.460  -0.339  1.00  0.00     0.173 C 
ATOM     20  N   UNL     1      -0.934  -0.310  -0.716  1.00  0.00    -0.274 N 
ATOM     21  C   UNL     1      -0.001  -1.291  -0.853  1.00  0.00     0.110 A 
ATOM     22  N   UNL     1      -0.439   0.924  -0.899  1.00  0.00    -0.155 NA
ATOM     23  C   UNL     1       1.178  -0.643  -1.138  1.00  0.00     0.068 A 
ENDBRANCH  15  18
ENDBRANCH   9  14
ENDBRANCH   5   8
ENDBRANCH   3   4
ENDBRANCH   2   3
ENDBRANCH   1   2
BRANCH   1  24
ATOM     24  C   UNL     1       5.743   0.908   2.733  1.00  0.00     0.116 C 
BRANCH  24  25
ATOM     25  N   UNL     1       6.203   0.148   1.577  1.00  0.00    -0.352 N 
ATOM     26  C   UNL     1       7.213  -0.786   1.544  1.00  0.00     0.251 C 
ATOM     27  H   UNL     1       5.739   0.322   0.726  1.00  0.00     0.163 HD
ATOM     28  O   UNL     1       7.553  -1.311   0.489  1.00  0.00    -0.269 OA
BRANCH  26  29
ATOM     29  C   UNL     1       7.910  -1.094   2.807  1.00  0.00     0.039 A 
ATOM     30  C   UNL     1       9.286  -0.869   2.892  1.00  0.00     0.014 A 
ATOM     31  C   UNL     1       7.174  -1.468   3.934  1.00  0.00     0.014 A 
ATOM     32  C   UNL     1       9.914  -0.940   4.136  1.00  0.00     0.010 A 
ATOM     33  C   UNL     1       7.787  -1.464   5.180  1.00  0.00     0.010 A 
ATOM     34  C   UNL     1       9.160  -1.191   5.295  1.00  0.00    -0.014 A 
BRANCH  34  35
ATOM     35  C   UNL     1       9.776  -1.171   6.645  1.00  0.00     0.031 A 
ATOM     36  C   UNL     1       9.777  -2.422   7.479  1.00  0.00     0.074 A 
ATOM     37  C   UNL     1      10.241  -0.013   7.155  1.00  0.00     0.049 A 
ATOM     38  N   UNL     1      10.131  -2.583   8.726  1.00  0.00    -0.248 NA
ATOM     39  C   UNL     1       9.275  -3.645   6.832  1.00  0.00     0.031 C 
ATOM     40  C   UNL     1      10.245   1.280   6.465  1.00  0.00     0.029 A 
ATOM     41  N   UNL     1      10.784   0.268   8.384  1.00  0.00    -0.354 N 
ATOM     42  C   UNL     1       9.867  -3.915   9.023  1.00  0.00     0.074 A 
ATOM     43  C   UNL     1       9.282  -4.505   7.839  1.00  0.00     0.031 C 
ATOM     44  C   UNL     1      10.781   2.209   7.274  1.00  0.00     0.029 A 
ATOM     45  C   UNL     1      11.125   1.590   8.550  1.00  0.00     0.049 A 
ATOM     46  H   UNL     1      10.918  -0.414   9.082  1.00  0.00     0.167 HD
ATOM     47  C   UNL     1      10.110  -4.590  10.171  1.00  0.00     0.037 A 
ATOM     48  C   UNL     1      11.647   2.231   9.614  1.00  0.00     0.037 A 
ATOM     49  C   UNL     1      10.736  -4.009  11.328  1.00  0.00     0.049 A 
ATOM     50  C   UNL     1      11.948   1.450  10.864  1.00  0.00     0.074 A 
ATOM     51  C   UNL     1      11.082  -4.622  12.519  1.00  0.00     0.029 A 
ATOM     52  N   UNL     1      11.121  -2.680  11.434  1.00  0.00    -0.354 N 
ATOM     53  N   UNL     1      11.735   0.180  11.113  1.00  0.00    -0.248 NA
ATOM     54  C   UNL     1      12.565   2.186  11.977  1.00  0.00     0.031 C 
ATOM     55  C   UNL     1      11.657  -3.659  13.355  1.00  0.00     0.029 A 
ATOM     56  C   UNL     1      11.699  -2.454  12.672  1.00  0.00     0.049 A 
ATOM     57  H   UNL     1      11.002  -2.000  10.734  1.00  0.00     0.167 HD
ATOM     58  C   UNL     1      12.218  -0.042  12.397  1.00  0.00     0.074 A 
ATOM     59  C   UNL     1      12.738   1.224  12.873  1.00  0.00     0.031 C 
ATOM     60  C   UNL     1      12.230  -1.190  13.117  1.00  0.00     0.037 A 
BRANCH  47  61
ATOM     61  C   UNL     1       9.705  -6.035  10.221  1.00  0.00     0.058 A 
ATOM     62  C   UNL     1      10.396  -7.017   9.494  1.00  0.00     0.135 A 
ATOM     63  C   UNL     1       8.621  -6.447  11.012  1.00  0.00     0.135 A 
ATOM     64  F   UNL     1      11.429  -6.673   8.707  1.00  0.00    -0.206 F 
ATOM     65  C   UNL     1      10.006  -8.351   9.520  1.00  0.00     0.059 A 
ATOM     66  C   UNL     1       8.229  -7.781  11.074  1.00  0.00     0.059 A 
ATOM     67  F   UNL     1       7.924  -5.548  11.726  1.00  0.00    -0.206 F 
ATOM     68  C   UNL     1       8.917  -8.723  10.310  1.00  0.00     0.060 A 
BRANCH  68  69
ATOM     69  S   UNL     1       8.414 -10.456  10.328  1.00  0.00     0.124 S 
ATOM     70  O   UNL     1       7.719 -10.568   9.048  1.00  0.00    -0.237 OA
ATOM     71  O   UNL     1       9.692 -11.154  10.418  1.00  0.00    -0.237 OA
ATOM     72  O   UNL     1       7.566 -10.550  11.512  1.00  0.00    -0.744 OA
ENDBRANCH  68  69
ENDBRANCH  47  61
BRANCH  48  73
ATOM     73  C   UNL     1      11.950   3.683   9.532  1.00  0.00     0.058 A 
ATOM     74  C   UNL     1      13.276   4.134   9.441  1.00  0.00     0.135 A 
ATOM     75  C   UNL     1      10.930   4.646   9.528  1.00  0.00     0.135 A 
ATOM     76  F   UNL     1      14.286   3.251   9.447  1.00  0.00    -0.206 F 
ATOM     77  C   UNL     1      13.581   5.489   9.365  1.00  0.00     0.059 A 
ATOM     78  C   UNL     1      11.209   6.006   9.431  1.00  0.00     0.059 A 
ATOM     79  F   UNL     1       9.645   4.263   9.595  1.00  0.00    -0.206 F 
ATOM     80  C   UNL     1      12.540   6.418   9.360  1.00  0.00     0.060 A 
BRANCH  80  81
ATOM     81  S   UNL     1      12.943   8.172   9.211  1.00  0.00     0.124 S 
ATOM     82  O   UNL     1      13.417   8.479  10.556  1.00  0.00    -0.237 OA
ATOM     83  O   UNL     1      13.959   8.168   8.162  1.00  0.00    -0.237 OA
ATOM     84  O   UNL     1      11.669   8.777   8.836  1.00  0.00    -0.744 OA
ENDBRANCH  80  81
ENDBRANCH  48  73
BRANCH  60  85
ATOM     85  C   UNL     1      12.866  -1.148  14.477  1.00  0.00     0.058 A 
ATOM     86  C   UNL     1      12.212  -0.575  15.577  1.00  0.00     0.135 A 
ATOM     87  C   UNL     1      14.115  -1.752  14.693  1.00  0.00     0.135 A 
ATOM     88  F   UNL     1      11.018   0.019  15.420  1.00  0.00    -0.206 F 
ATOM     89  C   UNL     1      12.781  -0.590  16.846  1.00  0.00     0.059 A 
ATOM     90  C   UNL     1      14.693  -1.797  15.956  1.00  0.00     0.059 A 
ATOM     91  F   UNL     1      14.775  -2.322  13.672  1.00  0.00    -0.206 F 
ATOM     92  C   UNL     1      14.022  -1.206  17.026  1.00  0.00     0.060 A 
BRANCH  92  93
ATOM     93  S   UNL     1      14.729  -1.265  18.686  1.00  0.00     0.124 S 
ATOM     94  O   UNL     1      15.232   0.096  18.840  1.00  0.00    -0.237 OA
ATOM     95  O   UNL     1      13.574  -1.611  19.509  1.00  0.00    -0.237 OA
ATOM     96  O   UNL     1      15.749  -2.305  18.582  1.00  0.00    -0.744 OA
ENDBRANCH  92  93
ENDBRANCH  60  85
ENDBRANCH  34  35
ENDBRANCH  26  29
ENDBRANCH  24  25
ENDBRANCH   1  24
TORSDOF 16
