REMARK SMILES CCc1nn(C)c(C[C@@H](C(=O)NCCCCNC(=O)c2ccc(-c3c4nc(c(-c5c(F)cc(S(=O)(=O)[O-])cc5F)c5ccc([nH]5)c(-c5c(F)cc(S(=O)(=O)[O-])cc5F)c5nc(c(-c6c(F)cc(S(=O)(=O)[O-])cc6F)c6ccc3[nH]6)C=C5)C=C4)cc2)c2cccc(C)c2)c1Br
REMARK SMILES IDX 14 1 13 2 12 3 10 4 11 5 9 7 8 8 7 9 3 10 4 11 93 12 5 13
REMARK SMILES IDX 94 14 6 15 2 16 1 17 86 18 87 19 92 20 88 21 90 22 89 23
REMARK SMILES IDX 91 24 15 25 16 26 17 27 18 28 19 30 20 31 21 32 85 33 22 34
REMARK SMILES IDX 84 35 23 36 24 37 25 38 78 39 26 40 83 41 77 42 79 43 27 44
REMARK SMILES IDX 82 45 76 46 75 47 28 49 62 50 41 51 61 52 42 53 45 54 60 55
REMARK SMILES IDX 80 56 43 57 44 58 59 60 81 61 46 62 29 63 30 64 39 65 31 66
REMARK SMILES IDX 32 67 38 68 40 69 33 70 34 71 35 72 36 73 37 74 63 75 64 76
REMARK SMILES IDX 73 77 65 78 66 79 72 80 74 81 67 82 68 83 69 84 70 85 71 86
REMARK SMILES IDX 47 87 48 88 57 89 49 90 50 91 56 92 58 93 51 94 52 95 53 96
REMARK SMILES IDX 54 97 55 98
REMARK H PARENT 12 6 17 29 79 48 45 59
REMARK Flexibility Score: inf
ROOT
ATOM      1  C   UNL     1       2.529  -2.038   3.048  1.00  0.00     0.023 C 
ENDROOT
BRANCH   1   2
ATOM      2  C   UNL     1       3.452  -3.207   2.674  1.00  0.00     0.116 C 
BRANCH   2   3
ATOM      3  N   UNL     1       3.511  -4.219   3.708  1.00  0.00    -0.356 N 
ATOM      4  C   UNL     1       3.032  -5.484   3.850  1.00  0.00     0.227 C 
ATOM      5  O   UNL     1       3.185  -5.918   4.998  1.00  0.00    -0.274 OA
ATOM      6  H   UNL     1       4.019  -3.920   4.497  1.00  0.00     0.163 HD
BRANCH   4   7
ATOM      7  C   UNL     1       2.348  -6.309   2.718  1.00  0.00     0.114 C 
BRANCH   7   8
ATOM      8  C   UNL     1       0.821  -6.094   2.602  1.00  0.00     0.075 C 
BRANCH   8   9
ATOM      9  C   UNL     1       0.343  -4.769   2.122  1.00  0.00     0.054 A 
ATOM     10  C   UNL     1      -0.209  -2.893   1.040  1.00  0.00     0.077 A 
ATOM     11  N   UNL     1      -0.666  -2.733   2.295  1.00  0.00    -0.177 NA
ATOM     12  C   UNL     1       0.331  -4.187   0.874  1.00  0.00     0.062 A 
ATOM     13  N   UNL     1      -0.281  -3.861   2.942  1.00  0.00    -0.271 N 
ATOM     14  Br  UNL     1       0.959  -4.925  -0.729  1.00  0.00    -0.047 Br
ATOM     15  C   UNL     1      -0.316  -3.902   4.391  1.00  0.00     0.174 C 
BRANCH  10  16
ATOM     16  C   UNL     1      -0.315  -1.773   0.049  1.00  0.00     0.056 C 
ATOM     17  C   UNL     1       0.550  -0.561   0.383  1.00  0.00     0.011 C 
ENDBRANCH  10  16
ENDBRANCH   8   9
ENDBRANCH   7   8
BRANCH   7  18
ATOM     18  C   UNL     1       2.455  -7.854   2.906  1.00  0.00    -0.035 A 
ATOM     19  C   UNL     1       2.303  -8.467   4.164  1.00  0.00     0.004 A 
ATOM     20  C   UNL     1       2.459  -8.696   1.774  1.00  0.00     0.008 A 
ATOM     21  C   UNL     1       2.201  -9.851   4.301  1.00  0.00     0.001 A 
ATOM     22  C   UNL     1       2.299 -10.090   1.901  1.00  0.00    -0.051 A 
ATOM     23  C   UNL     1       2.192 -10.660   3.173  1.00  0.00     0.003 A 
ATOM     24  C   UNL     1       2.216 -10.984   0.699  1.00  0.00     0.044 C 
ENDBRANCH   7  18
ENDBRANCH   4   7
ENDBRANCH   2   3
ENDBRANCH   1   2
BRANCH   1  25
ATOM     25  C   UNL     1       2.684  -1.280   4.370  1.00  0.00     0.023 C 
BRANCH  25  26
ATOM     26  C   UNL     1       3.635  -0.103   4.288  1.00  0.00     0.116 C 
BRANCH  26  27
ATOM     27  N   UNL     1       3.222   0.911   3.296  1.00  0.00    -0.352 N 
ATOM     28  C   UNL     1       3.997   1.883   2.678  1.00  0.00     0.251 C 
ATOM     29  H   UNL     1       2.272   0.896   3.040  1.00  0.00     0.163 HD
ATOM     30  O   UNL     1       3.498   2.859   2.125  1.00  0.00    -0.269 OA
BRANCH  28  31
ATOM     31  C   UNL     1       5.449   1.668   2.668  1.00  0.00     0.039 A 
ATOM     32  C   UNL     1       6.381   2.618   3.096  1.00  0.00     0.014 A 
ATOM     33  C   UNL     1       5.811   0.354   2.419  1.00  0.00     0.014 A 
ATOM     34  C   UNL     1       7.675   2.182   3.378  1.00  0.00     0.010 A 
ATOM     35  C   UNL     1       6.938  -0.098   3.023  1.00  0.00     0.010 A 
ATOM     36  C   UNL     1       7.928   0.802   3.372  1.00  0.00    -0.014 A 
BRANCH  36  37
ATOM     37  C   UNL     1       9.162   0.193   3.836  1.00  0.00     0.031 A 
ATOM     38  C   UNL     1       9.527   0.574   5.221  1.00  0.00     0.074 A 
ATOM     39  C   UNL     1       9.732  -0.845   3.179  1.00  0.00     0.049 A 
ATOM     40  N   UNL     1      10.325   1.523   5.581  1.00  0.00    -0.248 NA
ATOM     41  C   UNL     1       8.733   0.024   6.334  1.00  0.00     0.031 C 
ATOM     42  C   UNL     1       9.252  -1.572   1.992  1.00  0.00     0.029 A 
ATOM     43  N   UNL     1      10.852  -1.537   3.502  1.00  0.00    -0.354 N 
ATOM     44  C   UNL     1      10.378   1.449   6.969  1.00  0.00     0.074 A 
ATOM     45  C   UNL     1       9.178   0.761   7.356  1.00  0.00     0.031 C 
ATOM     46  C   UNL     1       9.947  -2.720   1.839  1.00  0.00     0.029 A 
ATOM     47  C   UNL     1      11.045  -2.714   2.783  1.00  0.00     0.049 A 
ATOM     48  H   UNL     1      11.482  -1.230   4.194  1.00  0.00     0.167 HD
ATOM     49  C   UNL     1      11.557   1.647   7.627  1.00  0.00     0.037 A 
ATOM     50  C   UNL     1      12.052  -3.608   2.957  1.00  0.00     0.037 A 
ATOM     51  C   UNL     1      12.554   2.161   6.707  1.00  0.00     0.049 A 
ATOM     52  C   UNL     1      13.135  -2.877   3.674  1.00  0.00     0.074 A 
ATOM     53  C   UNL     1      12.645   3.268   5.886  1.00  0.00     0.029 A 
ATOM     54  N   UNL     1      13.474   1.256   6.225  1.00  0.00    -0.354 N 
ATOM     55  N   UNL     1      13.783  -1.864   3.157  1.00  0.00    -0.248 NA
ATOM     56  C   UNL     1      13.124  -2.927   5.129  1.00  0.00     0.031 C 
ATOM     57  C   UNL     1      13.257   2.789   4.689  1.00  0.00     0.029 A 
ATOM     58  C   UNL     1      13.603   1.449   4.874  1.00  0.00     0.049 A 
ATOM     59  H   UNL     1      13.957   0.586   6.759  1.00  0.00     0.167 HD
ATOM     60  C   UNL     1      13.892  -0.939   4.190  1.00  0.00     0.074 A 
ATOM     61  C   UNL     1      13.533  -1.683   5.398  1.00  0.00     0.031 C 
ATOM     62  C   UNL     1      13.958   0.403   3.934  1.00  0.00     0.037 A 
BRANCH  49  63
ATOM     63  C   UNL     1      11.971   0.985   8.931  1.00  0.00     0.058 A 
ATOM     64  C   UNL     1      13.234   1.317   9.472  1.00  0.00     0.135 A 
ATOM     65  C   UNL     1      11.347  -0.139   9.515  1.00  0.00     0.135 A 
ATOM     66  F   UNL     1      13.908   2.392   9.033  1.00  0.00    -0.206 F 
ATOM     67  C   UNL     1      13.884   0.516  10.410  1.00  0.00     0.059 A 
ATOM     68  C   UNL     1      11.959  -0.924  10.486  1.00  0.00     0.059 A 
ATOM     69  F   UNL     1      10.152  -0.593   9.132  1.00  0.00    -0.206 F 
ATOM     70  C   UNL     1      13.246  -0.620  10.890  1.00  0.00     0.060 A 
BRANCH  70  71
ATOM     71  S   UNL     1      14.125  -1.721  12.007  1.00  0.00     0.124 S 
ATOM     72  O   UNL     1      15.154  -2.262  11.127  1.00  0.00    -0.237 OA
ATOM     73  O   UNL     1      14.583  -0.797  13.039  1.00  0.00    -0.237 OA
ATOM     74  O   UNL     1      13.093  -2.664  12.429  1.00  0.00    -0.744 OA
ENDBRANCH  70  71
ENDBRANCH  49  63
BRANCH  50  75
ATOM     75  C   UNL     1      11.992  -5.091   2.853  1.00  0.00     0.058 A 
ATOM     76  C   UNL     1      13.155  -5.877   2.772  1.00  0.00     0.135 A 
ATOM     77  C   UNL     1      10.792  -5.789   3.106  1.00  0.00     0.135 A 
ATOM     78  F   UNL     1      14.345  -5.295   2.557  1.00  0.00    -0.206 F 
ATOM     79  C   UNL     1      13.137  -7.265   2.966  1.00  0.00     0.059 A 
ATOM     80  C   UNL     1      10.748  -7.171   3.301  1.00  0.00     0.059 A 
ATOM     81  F   UNL     1       9.633  -5.130   3.258  1.00  0.00    -0.206 F 
ATOM     82  C   UNL     1      11.929  -7.903   3.249  1.00  0.00     0.060 A 
BRANCH  82  83
ATOM     83  S   UNL     1      11.922  -9.670   3.645  1.00  0.00     0.124 S 
ATOM     84  O   UNL     1      12.274 -10.269   2.362  1.00  0.00    -0.237 OA
ATOM     85  O   UNL     1      12.937  -9.758   4.689  1.00  0.00    -0.237 OA
ATOM     86  O   UNL     1      10.552  -9.913   4.091  1.00  0.00    -0.744 OA
ENDBRANCH  82  83
ENDBRANCH  50  75
BRANCH  62  87
ATOM     87  C   UNL     1      14.233   0.860   2.522  1.00  0.00     0.058 A 
ATOM     88  C   UNL     1      13.338   0.730   1.444  1.00  0.00     0.135 A 
ATOM     89  C   UNL     1      15.370   1.654   2.313  1.00  0.00     0.135 A 
ATOM     90  F   UNL     1      12.185   0.061   1.582  1.00  0.00    -0.206 F 
ATOM     91  C   UNL     1      13.571   1.352   0.213  1.00  0.00     0.059 A 
ATOM     92  C   UNL     1      15.609   2.306   1.107  1.00  0.00     0.059 A 
ATOM     93  F   UNL     1      16.233   1.865   3.321  1.00  0.00    -0.206 F 
ATOM     94  C   UNL     1      14.707   2.147   0.058  1.00  0.00     0.060 A 
BRANCH  94  95
ATOM     95  S   UNL     1      14.959   3.040  -1.492  1.00  0.00     0.124 S 
ATOM     96  O   UNL     1      15.289   1.961  -2.417  1.00  0.00    -0.237 OA
ATOM     97  O   UNL     1      13.666   3.683  -1.703  1.00  0.00    -0.237 OA
ATOM     98  O   UNL     1      16.056   3.955  -1.185  1.00  0.00    -0.744 OA
ENDBRANCH  94  95
ENDBRANCH  62  87
ENDBRANCH  36  37
ENDBRANCH  28  31
ENDBRANCH  26  27
ENDBRANCH  25  26
ENDBRANCH   1  25
TORSDOF 18
