REMARK SMILES Cc1nn(C(C)C)c(C)c1S(=O)(=O)Nc1cccc(C(=O)NCCCCNC(=O)c2ccc(-c3c4nc(c(-c5c(F)cc(S(=O)(=O)[O-])cc5F)c5ccc([nH]5)c(-c5c(F)cc(S(=O)(=O)[O-])cc5F)c5nc(c(-c6c(F)cc(S(=O)(=O)[O-])cc6F)c6ccc3[nH]6)C=C5)C=C4)cc2)c1C
REMARK SMILES IDX 24 1 23 2 22 3 20 4 21 5 19 7 15 8 16 9 96 10 17 11 97 12
REMARK SMILES IDX 18 13 14 14 11 16 12 17 13 18 10 19 1 20 2 21 3 22 4 23 8 24
REMARK SMILES IDX 9 25 5 26 6 27 7 28 25 29 26 30 27 31 28 32 29 34 30 35
REMARK SMILES IDX 31 36 95 37 32 38 94 39 33 40 34 41 35 42 88 43 36 44 93 45
REMARK SMILES IDX 87 46 89 47 37 48 92 49 86 50 85 51 38 53 72 54 51 55 71 56
REMARK SMILES IDX 52 57 55 58 70 59 90 60 53 61 54 62 69 64 91 65 56 66 39 67
REMARK SMILES IDX 40 68 49 69 41 70 42 71 48 72 50 73 43 74 44 75 45 76 46 77
REMARK SMILES IDX 47 78 73 79 74 80 83 81 75 82 76 83 82 84 84 85 77 86 78 87
REMARK SMILES IDX 79 88 80 89 81 90 57 91 58 92 67 93 59 94 60 95 66 96 68 97
REMARK SMILES IDX 61 98 62 99 63 100 64 101 65 102
REMARK H PARENT 22 6 14 15 27 33 89 52 55 63
REMARK Flexibility Score: inf
ROOT
ATOM      1  C   UNL     1       3.822   3.031   4.007  1.00  0.00     0.023 C 
ENDROOT
BRANCH   1   2
ATOM      2  C   UNL     1       2.568   2.139   4.022  1.00  0.00     0.116 C 
BRANCH   2   3
ATOM      3  N   UNL     1       1.352   2.885   3.730  1.00  0.00    -0.352 N 
ATOM      4  C   UNL     1       0.595   3.135   2.614  1.00  0.00     0.251 C 
ATOM      5  O   UNL     1      -0.411   3.813   2.821  1.00  0.00    -0.269 OA
ATOM      6  H   UNL     1       0.981   3.318   4.533  1.00  0.00     0.163 HD
BRANCH   4   7
ATOM      7  C   UNL     1       0.897   2.615   1.230  1.00  0.00     0.044 A 
ATOM      8  C   UNL     1       0.165   1.726  -0.937  1.00  0.00     0.053 A 
ATOM      9  C   UNL     1       1.483   1.413  -1.266  1.00  0.00     0.027 A 
ATOM     10  C   UNL     1      -0.126   2.456   0.251  1.00  0.00    -0.014 A 
ATOM     11  C   UNL     1       2.503   1.696  -0.371  1.00  0.00     0.003 A 
ATOM     12  C   UNL     1      -1.532   2.979   0.448  1.00  0.00     0.047 C 
ATOM     13  C   UNL     1       2.204   2.262   0.868  1.00  0.00     0.014 A 
BRANCH   8  14
ATOM     14  N   UNL     1      -0.919   1.294  -1.755  1.00  0.00    -0.279 N 
ATOM     15  H   UNL     1      -1.734   1.846  -1.738  1.00  0.00     0.180 HD
BRANCH  14  16
ATOM     16  S   UNL     1      -0.945  -0.048  -2.736  1.00  0.00     0.265 S 
ATOM     17  O   UNL     1       0.077   0.086  -3.754  1.00  0.00    -0.201 OA
ATOM     18  O   UNL     1      -2.338  -0.188  -3.115  1.00  0.00    -0.201 OA
BRANCH  16  19
ATOM     19  C   UNL     1      -0.589  -1.564  -1.996  1.00  0.00     0.131 A 
ATOM     20  C   UNL     1      -0.005  -1.078   0.551  1.00  0.00     0.070 C 
ATOM     21  C   UNL     1      -0.172  -1.884  -0.680  1.00  0.00     0.080 A 
ATOM     22  N   UNL     1       0.109  -3.189  -0.572  1.00  0.00    -0.176 NA
ATOM     23  N   UNL     1      -0.214  -3.720  -1.758  1.00  0.00    -0.266 N 
ATOM     24  C   UNL     1      -0.689  -2.792  -2.647  1.00  0.00     0.056 A 
ATOM     25  C   UNL     1      -1.192  -3.142  -4.000  1.00  0.00     0.068 C 
BRANCH  23  26
ATOM     26  C   UNL     1      -0.024  -5.155  -1.962  1.00  0.00     0.101 C 
ATOM     27  C   UNL     1       1.453  -5.483  -2.181  1.00  0.00     0.033 C 
ATOM     28  C   UNL     1      -0.611  -5.978  -0.814  1.00  0.00     0.033 C 
ENDBRANCH  23  26
ENDBRANCH  16  19
ENDBRANCH  14  16
ENDBRANCH   8  14
ENDBRANCH   4   7
ENDBRANCH   2   3
ENDBRANCH   1   2
BRANCH   1  29
ATOM     29  C   UNL     1       3.801   4.218   4.976  1.00  0.00     0.023 C 
BRANCH  29  30
ATOM     30  C   UNL     1       3.833   3.822   6.441  1.00  0.00     0.116 C 
BRANCH  30  31
ATOM     31  N   UNL     1       5.155   3.514   6.960  1.00  0.00    -0.352 N 
ATOM     32  C   UNL     1       5.435   3.459   8.324  1.00  0.00     0.251 C 
ATOM     33  H   UNL     1       5.883   3.337   6.322  1.00  0.00     0.163 HD
ATOM     34  O   UNL     1       6.359   4.051   8.847  1.00  0.00    -0.269 OA
BRANCH  32  35
ATOM     35  C   UNL     1       4.588   2.517   9.094  1.00  0.00     0.039 A 
ATOM     36  C   UNL     1       5.134   1.313   9.551  1.00  0.00     0.014 A 
ATOM     37  C   UNL     1       3.216   2.741   9.145  1.00  0.00     0.014 A 
ATOM     38  C   UNL     1       4.280   0.269   9.924  1.00  0.00     0.010 A 
ATOM     39  C   UNL     1       2.380   1.679   9.407  1.00  0.00     0.010 A 
ATOM     40  C   UNL     1       2.903   0.432   9.780  1.00  0.00    -0.014 A 
BRANCH  40  41
ATOM     41  C   UNL     1       1.903  -0.626   9.908  1.00  0.00     0.031 A 
ATOM     42  C   UNL     1       0.873  -0.566  10.982  1.00  0.00     0.074 A 
ATOM     43  C   UNL     1       1.773  -1.550   8.930  1.00  0.00     0.049 A 
ATOM     44  N   UNL     1       0.094  -1.547  11.298  1.00  0.00    -0.248 NA
ATOM     45  C   UNL     1       0.650   0.616  11.811  1.00  0.00     0.031 C 
ATOM     46  C   UNL     1       0.574  -2.326   8.623  1.00  0.00     0.029 A 
ATOM     47  N   UNL     1       2.737  -2.091   8.093  1.00  0.00    -0.354 N 
ATOM     48  C   UNL     1      -0.886  -1.065  12.138  1.00  0.00     0.074 A 
ATOM     49  C   UNL     1      -0.470   0.281  12.459  1.00  0.00     0.031 C 
ATOM     50  C   UNL     1       0.908  -3.369   7.848  1.00  0.00     0.029 A 
ATOM     51  C   UNL     1       2.356  -3.400   7.764  1.00  0.00     0.049 A 
ATOM     52  H   UNL     1       3.551  -1.633   7.782  1.00  0.00     0.167 HD
ATOM     53  C   UNL     1      -2.003  -1.812  12.374  1.00  0.00     0.037 A 
ATOM     54  C   UNL     1       3.118  -4.484   8.105  1.00  0.00     0.037 A 
ATOM     55  C   UNL     1      -1.939  -3.094  11.681  1.00  0.00     0.049 A 
ATOM     56  C   UNL     1       2.435  -5.460   9.037  1.00  0.00     0.074 A 
ATOM     57  C   UNL     1      -2.450  -3.529  10.469  1.00  0.00     0.029 A 
ATOM     58  N   UNL     1      -1.032  -4.058  12.099  1.00  0.00    -0.354 N 
ATOM     59  N   UNL     1       1.356  -5.186   9.715  1.00  0.00    -0.248 NA
ATOM     60  C   UNL     1       2.915  -6.816   9.297  1.00  0.00     0.031 C 
ATOM     61  C   UNL     1      -1.817  -4.751  10.139  1.00  0.00     0.029 A 
ATOM     62  C   UNL     1      -0.930  -5.061  11.155  1.00  0.00     0.049 A 
ATOM     63  H   UNL     1      -0.533  -4.031  12.947  1.00  0.00     0.167 HD
ATOM     64  C   UNL     1       1.017  -6.253  10.508  1.00  0.00     0.074 A 
ATOM     65  C   UNL     1       2.007  -7.261  10.185  1.00  0.00     0.031 C 
ATOM     66  C   UNL     1      -0.044  -6.196  11.368  1.00  0.00     0.037 A 
BRANCH  53  67
ATOM     67  C   UNL     1      -3.267  -1.282  13.019  1.00  0.00     0.058 A 
ATOM     68  C   UNL     1      -4.536  -1.777  12.639  1.00  0.00     0.135 A 
ATOM     69  C   UNL     1      -3.300  -0.270  13.998  1.00  0.00     0.135 A 
ATOM     70  F   UNL     1      -4.667  -2.797  11.781  1.00  0.00    -0.206 F 
ATOM     71  C   UNL     1      -5.735  -1.241  13.109  1.00  0.00     0.059 A 
ATOM     72  C   UNL     1      -4.489   0.320  14.444  1.00  0.00     0.059 A 
ATOM     73  F   UNL     1      -2.177   0.157  14.592  1.00  0.00    -0.206 F 
ATOM     74  C   UNL     1      -5.705  -0.167  13.985  1.00  0.00     0.060 A 
BRANCH  74  75
ATOM     75  S   UNL     1      -7.265   0.573  14.501  1.00  0.00     0.124 S 
ATOM     76  O   UNL     1      -7.912   0.852  13.222  1.00  0.00    -0.237 OA
ATOM     77  O   UNL     1      -7.862  -0.497  15.293  1.00  0.00    -0.237 OA
ATOM     78  O   UNL     1      -6.849   1.753  15.253  1.00  0.00    -0.744 OA
ENDBRANCH  74  75
ENDBRANCH  53  67
BRANCH  54  79
ATOM     79  C   UNL     1       4.578  -4.206   8.054  1.00  0.00     0.058 A 
ATOM     80  C   UNL     1       5.139  -4.017   6.777  1.00  0.00     0.135 A 
ATOM     81  C   UNL     1       5.232  -3.622   9.149  1.00  0.00     0.135 A 
ATOM     82  F   UNL     1       4.568  -4.588   5.704  1.00  0.00    -0.206 F 
ATOM     83  C   UNL     1       6.164  -3.105   6.565  1.00  0.00     0.059 A 
ATOM     84  C   UNL     1       6.271  -2.710   8.959  1.00  0.00     0.059 A 
ATOM     85  F   UNL     1       4.752  -3.788  10.390  1.00  0.00    -0.206 F 
ATOM     86  C   UNL     1       6.655  -2.390   7.655  1.00  0.00     0.060 A 
BRANCH  86  87
ATOM     87  S   UNL     1       7.624  -0.899   7.317  1.00  0.00     0.124 S 
ATOM     88  O   UNL     1       8.646  -1.395   6.402  1.00  0.00    -0.237 OA
ATOM     89  O   UNL     1       6.614  -0.024   6.721  1.00  0.00    -0.237 OA
ATOM     90  O   UNL     1       8.097  -0.500   8.637  1.00  0.00    -0.744 OA
ENDBRANCH  86  87
ENDBRANCH  54  79
BRANCH  66  91
ATOM     91  C   UNL     1      -0.415  -7.208  12.431  1.00  0.00     0.058 A 
ATOM     92  C   UNL     1       0.502  -8.055  13.074  1.00  0.00     0.135 A 
ATOM     93  C   UNL     1      -1.737  -7.248  12.947  1.00  0.00     0.135 A 
ATOM     94  F   UNL     1       1.805  -8.040  12.760  1.00  0.00    -0.206 F 
ATOM     95  C   UNL     1       0.130  -8.919  14.108  1.00  0.00     0.059 A 
ATOM     96  C   UNL     1      -2.117  -8.059  14.014  1.00  0.00     0.059 A 
ATOM     97  F   UNL     1      -2.712  -6.480  12.438  1.00  0.00    -0.206 F 
ATOM     98  C   UNL     1      -1.181  -8.913  14.574  1.00  0.00     0.060 A 
BRANCH  98  99
ATOM     99  S   UNL     1      -1.656  -9.968  15.956  1.00  0.00     0.124 S 
ATOM    100  O   UNL     1      -2.152 -11.152  15.261  1.00  0.00    -0.237 OA
ATOM    101  O   UNL     1      -0.400 -10.144  16.679  1.00  0.00    -0.237 OA
ATOM    102  O   UNL     1      -2.662  -9.172  16.650  1.00  0.00    -0.744 OA
ENDBRANCH  98  99
ENDBRANCH  66  91
ENDBRANCH  40  41
ENDBRANCH  32  35
ENDBRANCH  30  31
ENDBRANCH  29  30
ENDBRANCH   1  29
TORSDOF 18
