REMARK SMILES C=C[C@@H]1[C@@H](O)C[C@H]2[C@]3(CC[C@]4(C)[C@@H]([C@H](C)CCC=C(C)C)CC[C@]24C)C[C@]13CCC(=O)NCCCCNC(=O)c1ccc(-c2c3nc(c(-c4c(F)cc(S(=O)(=O)[O-])cc4F)c4ccc([nH]4)c(-c4c(F)cc(S(=O)(=O)[O-])cc4F)c4nc(c(-c5c(F)cc(S(=O)(=O)[O-])cc5F)c5ccc2[nH]5)C=C4)C=C3)cc1
REMARK SMILES IDX 33 1 32 2 30 3 31 4 29 6 28 7 27 8 3 9 4 10 6 11 8 12 26 13
REMARK SMILES IDX 7 14 9 15 24 16 10 17 11 18 23 19 25 20 13 21 12 22 22 23
REMARK SMILES IDX 2 24 1 25 5 26 14 28 15 29 16 30 17 31 18 32 19 33 20 34
REMARK SMILES IDX 21 35 34 36 35 37 36 38 37 39 38 40 39 42 40 43 41 44 105 45
REMARK SMILES IDX 42 46 104 47 43 48 44 49 45 50 98 51 46 52 103 53 97 54
REMARK SMILES IDX 99 55 47 56 102 57 96 58 95 59 48 61 82 62 61 63 81 64 62 65
REMARK SMILES IDX 65 66 80 67 100 68 63 69 64 70 79 72 101 73 66 74 49 75
REMARK SMILES IDX 50 76 59 77 51 78 52 79 58 80 60 81 53 82 54 83 55 84 56 85
REMARK SMILES IDX 57 86 83 87 84 88 93 89 85 90 86 91 92 92 94 93 87 94 88 95
REMARK SMILES IDX 89 96 90 97 91 98 67 99 68 100 77 101 69 102 70 103 76 104
REMARK SMILES IDX 78 105 71 106 72 107 73 108 74 109 75 110
REMARK H PARENT 32 5 5 27 37 41 99 60 65 71
REMARK Flexibility Score: inf
ROOT
ATOM      1  C   UNL     1       1.006   1.452   3.724  1.00  0.00     0.116 C 
ENDROOT
BRANCH   1   2
ATOM      2  N   UNL     1      -0.147   1.958   4.453  1.00  0.00    -0.356 N 
ATOM      3  C   UNL     1      -1.465   1.627   4.393  1.00  0.00     0.220 C 
ATOM      4  O   UNL     1      -2.272   2.346   4.986  1.00  0.00    -0.275 OA
ATOM      5  H   UNL     1       0.064   2.665   5.105  1.00  0.00     0.163 HD
BRANCH   3   6
ATOM      6  C   UNL     1      -1.933   0.377   3.675  1.00  0.00     0.100 C 
BRANCH   6   7
ATOM      7  C   UNL     1      -2.744   0.660   2.406  1.00  0.00     0.018 C 
BRANCH   7   8
ATOM      8  C   UNL     1      -1.976   0.531   1.081  1.00  0.00    -0.014 C 
ATOM      9  C   UNL     1      -1.564  -0.928   0.728  1.00  0.00     0.047 C 
ATOM     10  C   UNL     1      -1.788  -1.283  -0.764  1.00  0.00     0.122 C 
ATOM     11  C   UNL     1      -1.347  -0.178  -1.721  1.00  0.00     0.037 C 
ATOM     12  C   UNL     1      -2.271   1.550  -0.075  1.00  0.00    -0.019 C 
ATOM     13  C   UNL     1      -1.015   1.633   0.715  1.00  0.00     0.016 C 
ATOM     14  C   UNL     1      -2.188   1.097  -1.539  1.00  0.00     0.005 C 
ATOM     15  C   UNL     1      -3.197   2.738   0.120  1.00  0.00     0.008 C 
ATOM     16  C   UNL     1      -1.791   2.299  -2.515  1.00  0.00    -0.023 C 
ATOM     17  C   UNL     1      -2.743   3.914  -0.740  1.00  0.00     0.008 C 
ATOM     18  C   UNL     1      -2.679   3.596  -2.241  1.00  0.00    -0.024 C 
ATOM     19  C   UNL     1      -2.207   1.950  -3.979  1.00  0.00     0.008 C 
ATOM     20  C   UNL     1      -0.273   2.587  -2.458  1.00  0.00     0.012 C 
ATOM     21  C   UNL     1      -4.037   3.119  -2.839  1.00  0.00    -0.002 C 
ATOM     22  C   UNL     1      -2.088   4.830  -2.977  1.00  0.00     0.012 C 
ATOM     23  C   UNL     1      -3.621   2.524  -4.194  1.00  0.00     0.005 C 
BRANCH   9  24
ATOM     24  C   UNL     1      -0.195  -1.350   1.256  1.00  0.00    -0.028 C 
ATOM     25  C   UNL     1       0.979  -1.412   0.614  1.00  0.00     0.004 C 
ENDBRANCH   9  24
BRANCH  10  26
ATOM     26  O   UNL     1      -3.168  -1.594  -1.009  1.00  0.00    -0.392 OA
ATOM     27  H   UNL     1      -3.712  -0.811  -0.832  1.00  0.00     0.210 HD
ENDBRANCH  10  26
BRANCH  21  28
ATOM     28  C   UNL     1      -5.375   3.917  -2.868  1.00  0.00    -0.010 C 
ATOM     29  C   UNL     1      -5.335   5.417  -2.579  1.00  0.00     0.008 C 
BRANCH  28  30
ATOM     30  C   UNL     1      -6.390   3.254  -1.878  1.00  0.00     0.008 C 
BRANCH  30  31
ATOM     31  C   UNL     1      -7.865   3.400  -2.265  1.00  0.00     0.027 C 
BRANCH  31  32
ATOM     32  C   UNL     1      -8.191   2.553  -3.468  1.00  0.00    -0.028 C 
ATOM     33  C   UNL     1      -8.721   1.315  -3.458  1.00  0.00    -0.080 C 
ATOM     34  C   UNL     1      -8.899   0.542  -4.735  1.00  0.00     0.039 C 
ATOM     35  C   UNL     1      -9.121   0.589  -2.203  1.00  0.00     0.039 C 
ENDBRANCH  31  32
ENDBRANCH  30  31
ENDBRANCH  28  30
ENDBRANCH  21  28
ENDBRANCH   7   8
ENDBRANCH   6   7
ENDBRANCH   3   6
ENDBRANCH   1   2
BRANCH   1  36
ATOM     36  C   UNL     1       1.337   2.387   2.562  1.00  0.00     0.023 C 
BRANCH  36  37
ATOM     37  C   UNL     1       2.752   2.916   2.487  1.00  0.00     0.023 C 
BRANCH  37  38
ATOM     38  C   UNL     1       3.772   1.856   2.117  1.00  0.00     0.116 C 
BRANCH  38  39
ATOM     39  N   UNL     1       3.623   1.284   0.775  1.00  0.00    -0.352 N 
ATOM     40  C   UNL     1       4.625   0.933  -0.110  1.00  0.00     0.251 C 
ATOM     41  H   UNL     1       2.700   1.133   0.468  1.00  0.00     0.163 HD
ATOM     42  O   UNL     1       4.365   0.465  -1.214  1.00  0.00    -0.269 OA
BRANCH  40  43
ATOM     43  C   UNL     1       6.021   1.203   0.293  1.00  0.00     0.039 A 
ATOM     44  C   UNL     1       6.799   2.062  -0.484  1.00  0.00     0.014 A 
ATOM     45  C   UNL     1       6.444   0.804   1.560  1.00  0.00     0.014 A 
ATOM     46  C   UNL     1       7.940   2.639   0.078  1.00  0.00     0.010 A 
ATOM     47  C   UNL     1       7.487   1.492   2.160  1.00  0.00     0.010 A 
ATOM     48  C   UNL     1       8.244   2.425   1.433  1.00  0.00    -0.014 A 
BRANCH  48  49
ATOM     49  C   UNL     1       9.330   3.170   2.125  1.00  0.00     0.031 A 
ATOM     50  C   UNL     1      10.408   2.408   2.850  1.00  0.00     0.074 A 
ATOM     51  C   UNL     1       9.282   4.516   2.213  1.00  0.00     0.049 A 
ATOM     52  N   UNL     1      11.361   2.857   3.625  1.00  0.00    -0.248 NA
ATOM     53  C   UNL     1      10.366   0.940   2.745  1.00  0.00     0.031 C 
ATOM     54  C   UNL     1       8.228   5.372   1.662  1.00  0.00     0.029 A 
ATOM     55  N   UNL     1      10.138   5.403   2.818  1.00  0.00    -0.354 N 
ATOM     56  C   UNL     1      11.988   1.729   4.139  1.00  0.00     0.074 A 
ATOM     57  C   UNL     1      11.262   0.579   3.648  1.00  0.00     0.031 C 
ATOM     58  C   UNL     1       8.519   6.658   1.921  1.00  0.00     0.029 A 
ATOM     59  C   UNL     1       9.763   6.720   2.681  1.00  0.00     0.049 A 
ATOM     60  H   UNL     1      10.947   5.123   3.304  1.00  0.00     0.167 HD
ATOM     61  C   UNL     1      13.095   1.650   4.915  1.00  0.00     0.037 A 
ATOM     62  C   UNL     1      10.358   7.849   3.112  1.00  0.00     0.037 A 
ATOM     63  C   UNL     1      13.864   2.792   5.324  1.00  0.00     0.049 A 
ATOM     64  C   UNL     1      11.660   7.747   3.857  1.00  0.00     0.074 A 
ATOM     65  C   UNL     1      15.064   2.824   6.010  1.00  0.00     0.029 A 
ATOM     66  N   UNL     1      13.513   4.109   5.064  1.00  0.00    -0.354 N 
ATOM     67  N   UNL     1      12.296   6.670   4.253  1.00  0.00    -0.248 NA
ATOM     68  C   UNL     1      12.336   9.006   4.198  1.00  0.00     0.031 C 
ATOM     69  C   UNL     1      15.432   4.164   6.178  1.00  0.00     0.029 A 
ATOM     70  C   UNL     1      14.473   4.963   5.574  1.00  0.00     0.049 A 
ATOM     71  H   UNL     1      12.700   4.393   4.586  1.00  0.00     0.167 HD
ATOM     72  C   UNL     1      13.454   7.120   4.877  1.00  0.00     0.074 A 
ATOM     73  C   UNL     1      13.438   8.567   4.791  1.00  0.00     0.031 C 
ATOM     74  C   UNL     1      14.440   6.401   5.469  1.00  0.00     0.037 A 
BRANCH  61  75
ATOM     75  C   UNL     1      13.534   0.276   5.337  1.00  0.00     0.058 A 
ATOM     76  C   UNL     1      14.043  -0.652   4.412  1.00  0.00     0.135 A 
ATOM     77  C   UNL     1      13.398  -0.139   6.671  1.00  0.00     0.135 A 
ATOM     78  F   UNL     1      14.176  -0.313   3.119  1.00  0.00    -0.206 F 
ATOM     79  C   UNL     1      14.336  -1.960   4.779  1.00  0.00     0.059 A 
ATOM     80  C   UNL     1      13.717  -1.435   7.067  1.00  0.00     0.059 A 
ATOM     81  F   UNL     1      12.921   0.707   7.598  1.00  0.00    -0.206 F 
ATOM     82  C   UNL     1      14.156  -2.346   6.107  1.00  0.00     0.060 A 
BRANCH  82  83
ATOM     83  S   UNL     1      14.485  -4.061   6.563  1.00  0.00     0.124 S 
ATOM     84  O   UNL     1      13.265  -4.719   6.105  1.00  0.00    -0.237 OA
ATOM     85  O   UNL     1      15.692  -4.366   5.801  1.00  0.00    -0.237 OA
ATOM     86  O   UNL     1      14.662  -3.997   8.010  1.00  0.00    -0.744 OA
ENDBRANCH  82  83
ENDBRANCH  61  75
BRANCH  62  87
ATOM     87  C   UNL     1       9.755   9.170   2.790  1.00  0.00     0.058 A 
ATOM     88  C   UNL     1      10.296   9.980   1.780  1.00  0.00     0.135 A 
ATOM     89  C   UNL     1       8.601   9.626   3.446  1.00  0.00     0.135 A 
ATOM     90  F   UNL     1      11.402   9.589   1.129  1.00  0.00    -0.206 F 
ATOM     91  C   UNL     1       9.717  11.196   1.431  1.00  0.00     0.059 A 
ATOM     92  C   UNL     1       7.994  10.831   3.102  1.00  0.00     0.059 A 
ATOM     93  F   UNL     1       8.036   8.880   4.407  1.00  0.00    -0.206 F 
ATOM     94  C   UNL     1       8.561  11.610   2.094  1.00  0.00     0.060 A 
BRANCH  94  95
ATOM     95  S   UNL     1       7.767  13.148   1.574  1.00  0.00     0.124 S 
ATOM     96  O   UNL     1       8.646  14.149   2.167  1.00  0.00    -0.237 OA
ATOM     97  O   UNL     1       7.812  13.041   0.119  1.00  0.00    -0.237 OA
ATOM     98  O   UNL     1       6.433  13.050   2.160  1.00  0.00    -0.744 OA
ENDBRANCH  94  95
ENDBRANCH  62  87
BRANCH  74  99
ATOM     99  C   UNL     1      15.592   7.163   6.053  1.00  0.00     0.058 A 
ATOM    100  C   UNL     1      15.474   7.845   7.273  1.00  0.00     0.135 A 
ATOM    101  C   UNL     1      16.845   7.152   5.420  1.00  0.00     0.135 A 
ATOM    102  F   UNL     1      14.295   7.886   7.913  1.00  0.00    -0.206 F 
ATOM    103  C   UNL     1      16.558   8.505   7.841  1.00  0.00     0.059 A 
ATOM    104  C   UNL     1      17.948   7.789   5.980  1.00  0.00     0.059 A 
ATOM    105  F   UNL     1      17.009   6.504   4.256  1.00  0.00    -0.206 F 
ATOM    106  C   UNL     1      17.792   8.470   7.187  1.00  0.00     0.060 A 
BRANCH 106 107
ATOM    107  S   UNL     1      19.204   9.292   7.953  1.00  0.00     0.124 S 
ATOM    108  O   UNL     1      18.940  10.690   7.631  1.00  0.00    -0.237 OA
ATOM    109  O   UNL     1      19.058   8.926   9.359  1.00  0.00    -0.237 OA
ATOM    110  O   UNL     1      20.351   8.695   7.274  1.00  0.00    -0.744 OA
ENDBRANCH 106 107
ENDBRANCH  74  99
ENDBRANCH  48  49
ENDBRANCH  40  43
ENDBRANCH  38  39
ENDBRANCH  37  38
ENDBRANCH  36  37
ENDBRANCH   1  36
TORSDOF 22
