REMARK SMILES O=C(C[C@@H]1C(=O)NCCN1C(=O)OCC1c2ccccc2-c2ccccc21)NCCCCNC(=O)c1ccc(-c2c3nc(c(-c4c(F)cc(S(=O)(=O)[O-])cc4F)c4ccc([nH]4)c(-c4c(F)cc(S(=O)(=O)[O-])cc4F)c4nc(c(-c5c(F)cc(S(=O)(=O)[O-])cc5F)c5ccc2[nH]5)C=C4)C=C3)cc1
REMARK SMILES IDX 29 1 28 2 1 3 2 4 3 6 4 7 5 8 10 9 6 10 7 11 9 12 8 13 11 15
REMARK SMILES IDX 12 16 13 17 14 18 15 19 16 20 27 21 17 22 21 23 22 24 26 25
REMARK SMILES IDX 18 26 20 27 23 28 25 29 19 30 24 31 30 32 31 33 32 34 33 35
REMARK SMILES IDX 34 36 35 38 36 39 37 40 101 41 38 42 100 43 39 44 40 45
REMARK SMILES IDX 41 46 94 47 42 48 99 49 93 50 95 51 43 52 98 53 92 54 91 55
REMARK SMILES IDX 44 57 78 58 57 59 77 60 58 61 61 62 76 63 96 64 59 65 60 66
REMARK SMILES IDX 75 68 97 69 62 70 45 71 46 72 55 73 47 74 48 75 54 76 56 77
REMARK SMILES IDX 49 78 50 79 51 80 52 81 53 82 79 83 80 84 89 85 81 86 82 87
REMARK SMILES IDX 88 88 90 89 83 90 84 91 85 92 86 93 87 94 63 95 64 96 73 97
REMARK SMILES IDX 65 98 66 99 72 100 74 101 67 102 68 103 69 104 70 105 71 106
REMARK H PARENT 28 5 7 14 33 37 95 56 61 67
REMARK Flexibility Score: inf
ROOT
ATOM      1  C   UNL     1       2.107  -2.268   1.253  1.00  0.00     0.116 C 
ENDROOT
BRANCH   1   2
ATOM      2  N   UNL     1       2.830  -1.190   0.613  1.00  0.00    -0.356 N 
ATOM      3  O   UNL     1       0.989   0.027   0.034  1.00  0.00    -0.275 OA
ATOM      4  C   UNL     1       2.209  -0.114   0.038  1.00  0.00     0.222 C 
ATOM      5  H   UNL     1       3.813  -1.233   0.591  1.00  0.00     0.163 HD
BRANCH   4   6
ATOM      6  C   UNL     1       3.124   0.842  -0.706  1.00  0.00     0.135 C 
BRANCH   6   7
ATOM      7  C   UNL     1       4.018   1.829   0.077  1.00  0.00     0.187 C 
ATOM      8  C   UNL     1       4.117   1.420   1.577  1.00  0.00     0.243 C 
ATOM      9  N   UNL     1       3.787   3.294  -0.142  1.00  0.00    -0.294 N 
ATOM     10  O   UNL     1       4.543   0.317   1.924  1.00  0.00    -0.273 OA
ATOM     11  N   UNL     1       3.672   2.299   2.527  1.00  0.00    -0.353 N 
ATOM     12  C   UNL     1       4.035   4.164   1.004  1.00  0.00     0.145 C 
ATOM     13  C   UNL     1       3.274   3.652   2.216  1.00  0.00     0.137 C 
ATOM     14  H   UNL     1       3.623   1.996   3.463  1.00  0.00     0.163 HD
BRANCH   9  15
ATOM     15  C   UNL     1       3.634   3.929  -1.366  1.00  0.00     0.410 C 
ATOM     16  O   UNL     1       3.754   5.139  -1.528  1.00  0.00    -0.224 OA
BRANCH  15  17
ATOM     17  O   UNL     1       3.268   3.090  -2.361  1.00  0.00    -0.448 OA
BRANCH  17  18
ATOM     18  C   UNL     1       2.688   3.685  -3.537  1.00  0.00     0.248 C 
BRANCH  18  19
ATOM     19  C   UNL     1       1.264   4.284  -3.369  1.00  0.00     0.088 C 
ATOM     20  C   UNL     1       0.574   4.082  -2.024  1.00  0.00    -0.029 A 
ATOM     21  C   UNL     1       1.248   5.808  -3.488  1.00  0.00    -0.029 A 
ATOM     22  C   UNL     1       0.204   2.901  -1.405  1.00  0.00     0.005 A 
ATOM     23  C   UNL     1       0.319   5.329  -1.411  1.00  0.00    -0.014 A 
ATOM     24  C   UNL     1       0.698   6.385  -2.323  1.00  0.00    -0.014 A 
ATOM     25  C   UNL     1       1.646   6.593  -4.560  1.00  0.00     0.005 A 
ATOM     26  C   UNL     1      -0.340   2.967  -0.120  1.00  0.00     0.000 A 
ATOM     27  C   UNL     1      -0.224   5.394  -0.137  1.00  0.00     0.009 A 
ATOM     28  C   UNL     1       0.553   7.758  -2.218  1.00  0.00     0.009 A 
ATOM     29  C   UNL     1       1.499   7.977  -4.454  1.00  0.00     0.000 A 
ATOM     30  C   UNL     1      -0.538   4.201   0.516  1.00  0.00     0.001 A 
ATOM     31  C   UNL     1       0.959   8.555  -3.293  1.00  0.00     0.001 A 
ENDBRANCH  18  19
ENDBRANCH  17  18
ENDBRANCH  15  17
ENDBRANCH   9  15
ENDBRANCH   6   7
ENDBRANCH   4   6
ENDBRANCH   1   2
BRANCH   1  32
ATOM     32  C   UNL     1       2.548  -3.634   0.732  1.00  0.00     0.023 C 
BRANCH  32  33
ATOM     33  C   UNL     1       4.044  -3.926   0.874  1.00  0.00     0.023 C 
BRANCH  33  34
ATOM     34  C   UNL     1       4.599  -3.796   2.288  1.00  0.00     0.116 C 
BRANCH  34  35
ATOM     35  N   UNL     1       4.004  -4.753   3.209  1.00  0.00    -0.352 N 
ATOM     36  C   UNL     1       4.609  -5.701   3.998  1.00  0.00     0.251 C 
ATOM     37  H   UNL     1       3.023  -4.715   3.276  1.00  0.00     0.163 HD
ATOM     38  O   UNL     1       3.921  -6.536   4.581  1.00  0.00    -0.269 OA
BRANCH  36  39
ATOM     39  C   UNL     1       6.083  -5.737   4.128  1.00  0.00     0.039 A 
ATOM     40  C   UNL     1       6.737  -6.970   4.065  1.00  0.00     0.014 A 
ATOM     41  C   UNL     1       6.822  -4.565   4.315  1.00  0.00     0.014 A 
ATOM     42  C   UNL     1       8.132  -7.021   4.121  1.00  0.00     0.010 A 
ATOM     43  C   UNL     1       8.214  -4.610   4.292  1.00  0.00     0.010 A 
ATOM     44  C   UNL     1       8.886  -5.838   4.195  1.00  0.00    -0.014 A 
BRANCH  44  45
ATOM     45  C   UNL     1      10.373  -5.867   4.160  1.00  0.00     0.031 A 
ATOM     46  C   UNL     1      11.173  -5.361   5.331  1.00  0.00     0.074 A 
ATOM     47  C   UNL     1      11.006  -6.295   3.049  1.00  0.00     0.049 A 
ATOM     48  N   UNL     1      12.470  -5.247   5.459  1.00  0.00    -0.248 NA
ATOM     49  C   UNL     1      10.413  -4.898   6.504  1.00  0.00     0.031 C 
ATOM     50  C   UNL     1      10.346  -6.766   1.829  1.00  0.00     0.029 A 
ATOM     51  N   UNL     1      12.344  -6.392   2.757  1.00  0.00    -0.354 N 
ATOM     52  C   UNL     1      12.682  -4.696   6.717  1.00  0.00     0.074 A 
ATOM     53  C   UNL     1      11.378  -4.442   7.290  1.00  0.00     0.031 C 
ATOM     54  C   UNL     1      11.279  -7.121   0.931  1.00  0.00     0.029 A 
ATOM     55  C   UNL     1      12.602  -6.861   1.490  1.00  0.00     0.049 A 
ATOM     56  H   UNL     1      13.053  -6.148   3.396  1.00  0.00     0.167 HD
ATOM     57  C   UNL     1      13.855  -4.447   7.348  1.00  0.00     0.037 A 
ATOM     58  C   UNL     1      13.770  -7.048   0.843  1.00  0.00     0.037 A 
ATOM     59  C   UNL     1      15.151  -4.712   6.776  1.00  0.00     0.049 A 
ATOM     60  C   UNL     1      15.060  -6.746   1.556  1.00  0.00     0.074 A 
ATOM     61  C   UNL     1      16.397  -4.537   7.353  1.00  0.00     0.029 A 
ATOM     62  N   UNL     1      15.370  -5.200   5.496  1.00  0.00    -0.354 N 
ATOM     63  N   UNL     1      15.242  -6.283   2.771  1.00  0.00    -0.248 NA
ATOM     64  C   UNL     1      16.304  -6.997   0.816  1.00  0.00     0.031 C 
ATOM     65  C   UNL     1      17.369  -4.867   6.403  1.00  0.00     0.029 A 
ATOM     66  C   UNL     1      16.730  -5.309   5.255  1.00  0.00     0.049 A 
ATOM     67  H   UNL     1      14.662  -5.435   4.853  1.00  0.00     0.167 HD
ATOM     68  C   UNL     1      16.620  -6.215   2.950  1.00  0.00     0.074 A 
ATOM     69  C   UNL     1      17.223  -6.697   1.724  1.00  0.00     0.031 C 
ATOM     70  C   UNL     1      17.321  -5.794   4.032  1.00  0.00     0.037 A 
BRANCH  57  71
ATOM     71  C   UNL     1      13.792  -3.857   8.733  1.00  0.00     0.058 A 
ATOM     72  C   UNL     1      13.307  -4.592   9.828  1.00  0.00     0.135 A 
ATOM     73  C   UNL     1      14.252  -2.553   8.977  1.00  0.00     0.135 A 
ATOM     74  F   UNL     1      12.842  -5.839   9.653  1.00  0.00    -0.206 F 
ATOM     75  C   UNL     1      13.249  -4.045  11.105  1.00  0.00     0.059 A 
ATOM     76  C   UNL     1      14.235  -1.996  10.254  1.00  0.00     0.059 A 
ATOM     77  F   UNL     1      14.728  -1.803   7.970  1.00  0.00    -0.206 F 
ATOM     78  C   UNL     1      13.715  -2.745  11.308  1.00  0.00     0.060 A 
BRANCH  78  79
ATOM     79  S   UNL     1      13.631  -2.051  12.973  1.00  0.00     0.124 S 
ATOM     80  O   UNL     1      12.194  -1.849  13.131  1.00  0.00    -0.237 OA
ATOM     81  O   UNL     1      14.215  -3.115  13.784  1.00  0.00    -0.237 OA
ATOM     82  O   UNL     1      14.428  -0.832  12.875  1.00  0.00    -0.744 OA
ENDBRANCH  78  79
ENDBRANCH  57  71
BRANCH  58  83
ATOM     83  C   UNL     1      13.769  -7.559  -0.555  1.00  0.00     0.058 A 
ATOM     84  C   UNL     1      14.239  -8.846  -0.858  1.00  0.00     0.135 A 
ATOM     85  C   UNL     1      13.283  -6.777  -1.615  1.00  0.00     0.135 A 
ATOM     86  F   UNL     1      14.721  -9.631   0.118  1.00  0.00    -0.206 F 
ATOM     87  C   UNL     1      14.242  -9.334  -2.160  1.00  0.00     0.059 A 
ATOM     88  C   UNL     1      13.249  -7.253  -2.921  1.00  0.00     0.059 A 
ATOM     89  F   UNL     1      12.808  -5.544  -1.378  1.00  0.00    -0.206 F 
ATOM     90  C   UNL     1      13.739  -8.531  -3.186  1.00  0.00     0.060 A 
BRANCH  90  91
ATOM     91  S   UNL     1      13.700  -9.195  -4.865  1.00  0.00     0.124 S 
ATOM     92  O   UNL     1      15.116  -9.196  -5.215  1.00  0.00    -0.237 OA
ATOM     93  O   UNL     1      13.091 -10.505  -4.661  1.00  0.00    -0.237 OA
ATOM     94  O   UNL     1      12.872  -8.233  -5.587  1.00  0.00    -0.744 OA
ENDBRANCH  90  91
ENDBRANCH  58  83
BRANCH  70  95
ATOM     95  C   UNL     1      18.823  -5.868   3.960  1.00  0.00     0.058 A 
ATOM     96  C   UNL     1      19.571  -5.003   3.147  1.00  0.00     0.135 A 
ATOM     97  C   UNL     1      19.526  -6.784   4.760  1.00  0.00     0.135 A 
ATOM     98  F   UNL     1      18.950  -4.112   2.357  1.00  0.00    -0.206 F 
ATOM     99  C   UNL     1      20.961  -5.059   3.109  1.00  0.00     0.059 A 
ATOM    100  C   UNL     1      20.917  -6.836   4.763  1.00  0.00     0.059 A 
ATOM    101  F   UNL     1      18.862  -7.628   5.565  1.00  0.00    -0.206 F 
ATOM    102  C   UNL     1      21.625  -5.978   3.925  1.00  0.00     0.060 A 
BRANCH 102 103
ATOM    103  S   UNL     1      23.430  -6.015   3.893  1.00  0.00     0.124 S 
ATOM    104  O   UNL     1      23.689  -6.615   2.588  1.00  0.00    -0.237 OA
ATOM    105  O   UNL     1      23.773  -4.602   4.021  1.00  0.00    -0.237 OA
ATOM    106  O   UNL     1      23.774  -6.845   5.044  1.00  0.00    -0.744 OA
ENDBRANCH 102 103
ENDBRANCH  70  95
ENDBRANCH  44  45
ENDBRANCH  36  39
ENDBRANCH  34  35
ENDBRANCH  33  34
ENDBRANCH  32  33
ENDBRANCH   1  32
TORSDOF 19
