REMARK SMILES Cc1ccc(C(C)C)c(OCC(=O)Nc2nc(CC(=O)NCCCCNC(=O)c3ccc(-c4c5nc(c(-c6c(F)cc(S(=O)(=O)[O-])cc6F)c6ccc([nH]6)c(-c6c(F)cc(S(=O)(=O)[O-])cc6F)c6nc(c(-c7c(F)cc(S(=O)(=O)[O-])cc7F)c7ccc4[nH]7)C=C6)C=C5)cc3)cs2)c1
REMARK SMILES IDX 22 1 21 2 19 3 20 4 18 6 17 7 15 8 16 9 96 10 95 11 14 12
REMARK SMILES IDX 12 13 13 14 11 16 10 17 9 18 1 19 2 20 3 21 97 22 4 23 5 24
REMARK SMILES IDX 6 25 7 26 8 27 23 28 24 29 25 30 26 31 27 32 28 34 29 35
REMARK SMILES IDX 30 36 94 37 31 38 93 39 32 40 33 41 34 42 87 43 35 44 92 45
REMARK SMILES IDX 86 46 88 47 36 48 91 49 85 50 84 51 37 53 71 54 50 55 70 56
REMARK SMILES IDX 51 57 54 58 69 59 89 60 52 61 53 62 68 64 90 65 55 66 38 67
REMARK SMILES IDX 39 68 48 69 40 70 41 71 47 72 49 73 42 74 43 75 44 76 45 77
REMARK SMILES IDX 46 78 72 79 73 80 82 81 74 82 75 83 81 84 83 85 76 86 77 87
REMARK SMILES IDX 78 88 79 89 80 90 56 91 57 92 66 93 58 94 59 95 65 96 67 97
REMARK SMILES IDX 60 98 61 99 62 100 63 101 64 102
REMARK H PARENT 21 5 14 15 26 33 88 52 54 63
REMARK Flexibility Score: inf
ROOT
ATOM      1  C   UNL     1      -3.854   0.331   3.749  1.00  0.00     0.116 C 
ENDROOT
BRANCH   1   2
ATOM      2  N   UNL     1      -5.287   0.562   3.888  1.00  0.00    -0.356 N 
ATOM      3  C   UNL     1      -6.110   1.401   3.190  1.00  0.00     0.226 C 
ATOM      4  O   UNL     1      -7.314   1.405   3.462  1.00  0.00    -0.275 OA
ATOM      5  H   UNL     1      -5.729   0.033   4.591  1.00  0.00     0.163 HD
BRANCH   3   6
ATOM      6  C   UNL     1      -5.561   2.299   2.097  1.00  0.00     0.157 C 
BRANCH   6   7
ATOM      7  C   UNL     1      -4.599   3.308   2.625  1.00  0.00     0.063 A 
ATOM      8  C   UNL     1      -2.585   4.188   2.670  1.00  0.00     0.189 A 
ATOM      9  N   UNL     1      -3.405   3.479   1.947  1.00  0.00    -0.224 NA
ATOM     10  S   UNL     1      -3.233   4.878   4.088  1.00  0.00    -0.105 S 
ATOM     11  C   UNL     1      -4.723   4.085   3.764  1.00  0.00     0.093 A 
BRANCH   8  12
ATOM     12  N   UNL     1      -1.268   4.448   2.455  1.00  0.00    -0.299 N 
ATOM     13  C   UNL     1      -0.563   4.151   1.328  1.00  0.00     0.264 C 
ATOM     14  O   UNL     1       0.645   4.424   1.319  1.00  0.00    -0.271 OA
ATOM     15  H   UNL     1      -0.777   4.893   3.183  1.00  0.00     0.172 HD
BRANCH  13  16
ATOM     16  C   UNL     1      -1.252   3.623   0.059  1.00  0.00     0.329 C 
BRANCH  16  17
ATOM     17  O   UNL     1      -1.767   2.306   0.085  1.00  0.00    -0.483 OA
BRANCH  17  18
ATOM     18  C   UNL     1      -0.948   1.268  -0.263  1.00  0.00     0.123 A 
ATOM     19  C   UNL     1       2.726   0.272  -0.385  1.00  0.00     0.044 C 
ATOM     20  C   UNL     1       1.238   0.237  -0.560  1.00  0.00    -0.047 A 
ATOM     21  C   UNL     1       0.611  -0.939  -0.967  1.00  0.00     0.004 A 
ATOM     22  C   UNL     1       0.450   1.340  -0.220  1.00  0.00     0.050 A 
ATOM     23  C   UNL     1      -0.778  -1.036  -0.981  1.00  0.00     0.008 A 
ATOM     24  C   UNL     1      -1.580   0.058  -0.621  1.00  0.00    -0.003 A 
BRANCH  24  25
ATOM     25  C   UNL     1      -3.095  -0.105  -0.572  1.00  0.00     0.017 C 
ATOM     26  C   UNL     1      -3.686  -0.507  -1.926  1.00  0.00     0.012 C 
ATOM     27  C   UNL     1      -3.495  -1.123   0.501  1.00  0.00     0.012 C 
ENDBRANCH  24  25
ENDBRANCH  17  18
ENDBRANCH  16  17
ENDBRANCH  13  16
ENDBRANCH   8  12
ENDBRANCH   6   7
ENDBRANCH   3   6
ENDBRANCH   1   2
BRANCH   1  28
ATOM     28  C   UNL     1      -3.015   0.877   4.915  1.00  0.00     0.023 C 
BRANCH  28  29
ATOM     29  C   UNL     1      -3.392   0.388   6.316  1.00  0.00     0.023 C 
BRANCH  29  30
ATOM     30  C   UNL     1      -3.257  -1.109   6.523  1.00  0.00     0.116 C 
BRANCH  30  31
ATOM     31  N   UNL     1      -1.953  -1.595   6.945  1.00  0.00    -0.352 N 
ATOM     32  C   UNL     1      -1.887  -2.795   7.660  1.00  0.00     0.251 C 
ATOM     33  H   UNL     1      -1.135  -1.091   6.731  1.00  0.00     0.163 HD
ATOM     34  O   UNL     1      -1.691  -2.883   8.857  1.00  0.00    -0.269 OA
BRANCH  32  35
ATOM     35  C   UNL     1      -2.231  -3.987   6.846  1.00  0.00     0.039 A 
ATOM     36  C   UNL     1      -1.245  -4.852   6.373  1.00  0.00     0.014 A 
ATOM     37  C   UNL     1      -3.546  -4.083   6.391  1.00  0.00     0.014 A 
ATOM     38  C   UNL     1      -1.555  -5.719   5.321  1.00  0.00     0.010 A 
ATOM     39  C   UNL     1      -3.815  -4.843   5.279  1.00  0.00     0.010 A 
ATOM     40  C   UNL     1      -2.813  -5.644   4.723  1.00  0.00    -0.014 A 
BRANCH  40  41
ATOM     41  C   UNL     1      -3.200  -6.311   3.486  1.00  0.00     0.031 A 
ATOM     42  C   UNL     1      -4.154  -7.444   3.522  1.00  0.00     0.074 A 
ATOM     43  C   UNL     1      -2.862  -5.746   2.306  1.00  0.00     0.049 A 
ATOM     44  N   UNL     1      -4.368  -8.251   2.538  1.00  0.00    -0.248 NA
ATOM     45  C   UNL     1      -4.942  -7.770   4.707  1.00  0.00     0.031 C 
ATOM     46  C   UNL     1      -3.482  -5.980   1.004  1.00  0.00     0.029 A 
ATOM     47  N   UNL     1      -1.732  -4.976   2.018  1.00  0.00    -0.354 N 
ATOM     48  C   UNL     1      -5.478  -9.008   2.844  1.00  0.00     0.074 A 
ATOM     49  C   UNL     1      -5.772  -8.699   4.224  1.00  0.00     0.031 C 
ATOM     50  C   UNL     1      -2.625  -5.608   0.042  1.00  0.00     0.029 A 
ATOM     51  C   UNL     1      -1.367  -5.284   0.694  1.00  0.00     0.049 A 
ATOM     52  H   UNL     1      -1.280  -4.344   2.622  1.00  0.00     0.167 HD
ATOM     53  C   UNL     1      -6.103  -9.714   1.858  1.00  0.00     0.037 A 
ATOM     54  C   UNL     1      -0.180  -5.903   0.417  1.00  0.00     0.037 A 
ATOM     55  C   UNL     1      -5.396  -9.575   0.587  1.00  0.00     0.049 A 
ATOM     56  C   UNL     1      -0.326  -7.228  -0.281  1.00  0.00     0.074 A 
ATOM     57  C   UNL     1      -5.595  -8.745  -0.505  1.00  0.00     0.029 A 
ATOM     58  N   UNL     1      -4.130 -10.129   0.435  1.00  0.00    -0.354 N 
ATOM     59  N   UNL     1      -1.401  -7.966  -0.228  1.00  0.00    -0.248 NA
ATOM     60  C   UNL     1       0.715  -7.814  -1.117  1.00  0.00     0.031 C 
ATOM     61  C   UNL     1      -4.422  -8.768  -1.296  1.00  0.00     0.029 A 
ATOM     62  C   UNL     1      -3.514  -9.623  -0.694  1.00  0.00     0.049 A 
ATOM     63  H   UNL     1      -3.729 -10.789   1.045  1.00  0.00     0.167 HD
ATOM     64  C   UNL     1      -1.217  -9.098  -0.983  1.00  0.00     0.074 A 
ATOM     65  C   UNL     1       0.116  -8.942  -1.535  1.00  0.00     0.031 C 
ATOM     66  C   UNL     1      -2.182 -10.061  -1.089  1.00  0.00     0.037 A 
BRANCH  53  67
ATOM     67  C   UNL     1      -7.504 -10.283   1.985  1.00  0.00     0.058 A 
ATOM     68  C   UNL     1      -8.367 -10.343   0.867  1.00  0.00     0.135 A 
ATOM     69  C   UNL     1      -8.075 -10.741   3.188  1.00  0.00     0.135 A 
ATOM     70  F   UNL     1      -7.943 -10.037  -0.366  1.00  0.00    -0.206 F 
ATOM     71  C   UNL     1      -9.711 -10.707   0.959  1.00  0.00     0.059 A 
ATOM     72  C   UNL     1      -9.433 -11.058   3.319  1.00  0.00     0.059 A 
ATOM     73  F   UNL     1      -7.323 -10.944   4.279  1.00  0.00    -0.206 F 
ATOM     74  C   UNL     1     -10.249 -11.026   2.197  1.00  0.00     0.060 A 
BRANCH  74  75
ATOM     75  S   UNL     1     -12.010 -11.395   2.309  1.00  0.00     0.124 S 
ATOM     76  O   UNL     1     -12.612 -10.227   1.673  1.00  0.00    -0.237 OA
ATOM     77  O   UNL     1     -12.107 -12.645   1.563  1.00  0.00    -0.237 OA
ATOM     78  O   UNL     1     -12.244 -11.503   3.747  1.00  0.00    -0.744 OA
ENDBRANCH  74  75
ENDBRANCH  53  67
BRANCH  54  79
ATOM     79  C   UNL     1       0.923  -5.502   1.336  1.00  0.00     0.058 A 
ATOM     80  C   UNL     1       1.414  -4.197   1.179  1.00  0.00     0.135 A 
ATOM     81  C   UNL     1       1.083  -6.102   2.591  1.00  0.00     0.135 A 
ATOM     82  F   UNL     1       1.374  -3.630  -0.033  1.00  0.00    -0.206 F 
ATOM     83  C   UNL     1       1.802  -3.420   2.266  1.00  0.00     0.059 A 
ATOM     84  C   UNL     1       1.510  -5.355   3.693  1.00  0.00     0.059 A 
ATOM     85  F   UNL     1       0.667  -7.360   2.798  1.00  0.00    -0.206 F 
ATOM     86  C   UNL     1       1.753  -3.989   3.535  1.00  0.00     0.060 A 
BRANCH  86  87
ATOM     87  S   UNL     1       1.858  -2.899   4.978  1.00  0.00     0.124 S 
ATOM     88  O   UNL     1       2.969  -2.022   4.627  1.00  0.00    -0.237 OA
ATOM     89  O   UNL     1       0.533  -2.273   4.987  1.00  0.00    -0.237 OA
ATOM     90  O   UNL     1       2.114  -3.826   6.074  1.00  0.00    -0.744 OA
ENDBRANCH  86  87
ENDBRANCH  54  79
BRANCH  66  91
ATOM     91  C   UNL     1      -2.014 -11.455  -1.661  1.00  0.00     0.058 A 
ATOM     92  C   UNL     1      -0.785 -12.131  -1.756  1.00  0.00     0.135 A 
ATOM     93  C   UNL     1      -3.151 -12.232  -2.008  1.00  0.00     0.135 A 
ATOM     94  F   UNL     1       0.360 -11.568  -1.348  1.00  0.00    -0.206 F 
ATOM     95  C   UNL     1      -0.680 -13.444  -2.221  1.00  0.00     0.059 A 
ATOM     96  C   UNL     1      -3.075 -13.562  -2.415  1.00  0.00     0.059 A 
ATOM     97  F   UNL     1      -4.394 -11.731  -1.940  1.00  0.00    -0.206 F 
ATOM     98  C   UNL     1      -1.830 -14.155  -2.544  1.00  0.00     0.060 A 
BRANCH  98  99
ATOM     99  S   UNL     1      -1.703 -15.879  -3.052  1.00  0.00     0.124 S 
ATOM    100  O   UNL     1      -1.550 -15.746  -4.497  1.00  0.00    -0.237 OA
ATOM    101  O   UNL     1      -0.518 -16.340  -2.333  1.00  0.00    -0.237 OA
ATOM    102  O   UNL     1      -2.964 -16.454  -2.597  1.00  0.00    -0.744 OA
ENDBRANCH  98  99
ENDBRANCH  66  91
ENDBRANCH  40  41
ENDBRANCH  32  35
ENDBRANCH  30  31
ENDBRANCH  29  30
ENDBRANCH  28  29
ENDBRANCH   1  28
TORSDOF 20
