REMARK SMILES CCC[C@]1(C(=O)NCCCCNC(=O)c2ccc(-c3c4nc(c(-c5c(F)cc(S(=O)(=O)[O-])cc5F)c5ccc([nH]5)c(-c5c(F)cc(S(=O)(=O)[O-])cc5F)c5nc(c(-c6c(F)cc(S(=O)(=O)[O-])cc6F)c6ccc3[nH]6)C=C5)C=C4)cc2)CCN(C(=O)c2cccnc2C)C1
REMARK SMILES IDX 10 1 9 2 8 3 7 4 5 5 6 6 4 8 81 9 93 10 82 11 83 12 3 13
REMARK SMILES IDX 2 14 1 15 84 16 85 17 86 18 87 19 91 20 88 21 90 22 92 23
REMARK SMILES IDX 89 24 11 25 12 26 13 27 14 29 15 30 16 31 80 32 17 33 79 34
REMARK SMILES IDX 18 35 19 36 20 37 73 38 21 39 78 40 72 41 74 42 22 43 77 44
REMARK SMILES IDX 71 45 70 46 23 48 57 49 36 50 56 51 37 52 40 53 55 54 75 55
REMARK SMILES IDX 38 56 39 57 54 59 76 60 41 61 24 62 25 63 34 64 26 65 27 66
REMARK SMILES IDX 33 67 35 68 28 69 29 70 30 71 31 72 32 73 58 74 59 75 68 76
REMARK SMILES IDX 60 77 61 78 67 79 69 80 62 81 63 82 64 83 65 84 66 85 42 86
REMARK SMILES IDX 43 87 52 88 44 89 45 90 51 91 53 92 46 93 47 94 48 95 49 96
REMARK SMILES IDX 50 97
REMARK H PARENT 7 7 12 28 74 47 40 58
REMARK Flexibility Score: inf
ROOT
ATOM      1  C   UNL     1      -1.271   2.299   7.230  1.00  0.00     0.023 C 
ENDROOT
BRANCH   1   2
ATOM      2  C   UNL     1      -1.718   1.987   5.804  1.00  0.00     0.023 C 
BRANCH   2   3
ATOM      3  C   UNL     1      -0.605   1.979   4.764  1.00  0.00     0.116 C 
BRANCH   3   4
ATOM      4  N   UNL     1       0.319   0.872   4.932  1.00  0.00    -0.356 N 
ATOM      5  C   UNL     1       0.852  -0.009   4.039  1.00  0.00     0.228 C 
ATOM      6  O   UNL     1       1.708  -0.777   4.492  1.00  0.00    -0.274 OA
ATOM      7  H   UNL     1       0.615   0.732   5.861  1.00  0.00     0.163 HD
BRANCH   5   8
ATOM      8  C   UNL     1       0.413  -0.085   2.555  1.00  0.00     0.068 C 
ATOM      9  C   UNL     1      -1.086  -0.442   2.445  1.00  0.00     0.040 C 
ATOM     10  C   UNL     1       0.543   1.297   1.896  1.00  0.00     0.136 C 
ATOM     11  C   UNL     1      -1.605   0.408   1.296  1.00  0.00     0.121 C 
ATOM     12  N   UNL     1      -0.768   1.593   1.327  1.00  0.00    -0.337 N 
BRANCH   8  13
ATOM     13  C   UNL     1       1.294  -1.163   1.843  1.00  0.00     0.018 C 
BRANCH  13  14
ATOM     14  C   UNL     1       0.954  -1.621   0.415  1.00  0.00    -0.002 C 
ATOM     15  C   UNL     1       1.324  -0.649  -0.693  1.00  0.00     0.004 C 
ENDBRANCH  13  14
ENDBRANCH   8  13
BRANCH  12  16
ATOM     16  C   UNL     1      -1.049   2.856   0.844  1.00  0.00     0.255 C 
ATOM     17  O   UNL     1      -0.255   3.791   0.913  1.00  0.00    -0.269 OA
BRANCH  16  18
ATOM     18  C   UNL     1      -2.323   3.086   0.140  1.00  0.00     0.061 A 
ATOM     19  C   UNL     1      -2.243   3.363  -1.228  1.00  0.00     0.017 A 
ATOM     20  C   UNL     1      -3.573   3.111   0.761  1.00  0.00     0.050 A 
ATOM     21  C   UNL     1      -3.406   3.592  -1.952  1.00  0.00     0.021 A 
ATOM     22  N   UNL     1      -4.720   3.296   0.050  1.00  0.00    -0.261 NA
ATOM     23  C   UNL     1      -3.771   2.944   2.238  1.00  0.00     0.067 C 
ATOM     24  C   UNL     1      -4.612   3.533  -1.276  1.00  0.00     0.111 A 
ENDBRANCH  16  18
ENDBRANCH  12  16
ENDBRANCH   5   8
ENDBRANCH   3   4
ENDBRANCH   2   3
ENDBRANCH   1   2
BRANCH   1  25
ATOM     25  C   UNL     1      -0.497   3.602   7.405  1.00  0.00     0.116 C 
BRANCH  25  26
ATOM     26  N   UNL     1      -1.228   4.772   6.939  1.00  0.00    -0.352 N 
ATOM     27  C   UNL     1      -1.487   5.954   7.593  1.00  0.00     0.251 C 
ATOM     28  H   UNL     1      -1.589   4.707   6.026  1.00  0.00     0.163 HD
ATOM     29  O   UNL     1      -2.240   6.782   7.088  1.00  0.00    -0.269 OA
BRANCH  27  30
ATOM     30  C   UNL     1      -0.885   6.207   8.919  1.00  0.00     0.039 A 
ATOM     31  C   UNL     1      -1.699   6.675   9.954  1.00  0.00     0.014 A 
ATOM     32  C   UNL     1       0.471   5.957   9.149  1.00  0.00     0.014 A 
ATOM     33  C   UNL     1      -1.170   6.813  11.240  1.00  0.00     0.010 A 
ATOM     34  C   UNL     1       0.976   6.024  10.444  1.00  0.00     0.010 A 
ATOM     35  C   UNL     1       0.160   6.447  11.504  1.00  0.00    -0.014 A 
BRANCH  35  36
ATOM     36  C   UNL     1       0.713   6.484  12.883  1.00  0.00     0.031 A 
ATOM     37  C   UNL     1       1.860   7.400  13.213  1.00  0.00     0.074 A 
ATOM     38  C   UNL     1       0.235   5.634  13.815  1.00  0.00     0.049 A 
ATOM     39  N   UNL     1       2.531   7.512  14.331  1.00  0.00    -0.248 NA
ATOM     40  C   UNL     1       2.335   8.285  12.137  1.00  0.00     0.031 C 
ATOM     41  C   UNL     1      -0.832   4.654  13.600  1.00  0.00     0.029 A 
ATOM     42  N   UNL     1       0.598   5.445  15.126  1.00  0.00    -0.354 N 
ATOM     43  C   UNL     1       3.518   8.459  14.087  1.00  0.00     0.074 A 
ATOM     44  C   UNL     1       3.388   8.858  12.702  1.00  0.00     0.031 C 
ATOM     45  C   UNL     1      -1.047   3.979  14.741  1.00  0.00     0.029 A 
ATOM     46  C   UNL     1      -0.113   4.451  15.758  1.00  0.00     0.049 A 
ATOM     47  H   UNL     1       1.300   5.971  15.571  1.00  0.00     0.167 HD
ATOM     48  C   UNL     1       4.436   8.965  14.944  1.00  0.00     0.037 A 
ATOM     49  C   UNL     1      -0.016   3.966  17.012  1.00  0.00     0.037 A 
ATOM     50  C   UNL     1       4.537   8.592  16.331  1.00  0.00     0.049 A 
ATOM     51  C   UNL     1       0.993   4.566  17.954  1.00  0.00     0.074 A 
ATOM     52  C   UNL     1       5.380   9.106  17.300  1.00  0.00     0.029 A 
ATOM     53  N   UNL     1       3.769   7.614  16.946  1.00  0.00    -0.354 N 
ATOM     54  N   UNL     1       1.868   5.516  17.727  1.00  0.00    -0.248 NA
ATOM     55  C   UNL     1       1.022   4.035  19.324  1.00  0.00     0.031 C 
ATOM     56  C   UNL     1       5.150   8.411  18.493  1.00  0.00     0.029 A 
ATOM     57  C   UNL     1       4.132   7.496  18.277  1.00  0.00     0.049 A 
ATOM     58  H   UNL     1       3.070   7.082  16.502  1.00  0.00     0.167 HD
ATOM     59  C   UNL     1       2.535   5.714  18.931  1.00  0.00     0.074 A 
ATOM     60  C   UNL     1       1.954   4.793  19.886  1.00  0.00     0.031 C 
ATOM     61  C   UNL     1       3.538   6.580  19.219  1.00  0.00     0.037 A 
BRANCH  48  62
ATOM     62  C   UNL     1       5.403   9.986  14.410  1.00  0.00     0.058 A 
ATOM     63  C   UNL     1       4.993  11.287  14.080  1.00  0.00     0.135 A 
ATOM     64  C   UNL     1       6.765   9.672  14.267  1.00  0.00     0.135 A 
ATOM     65  F   UNL     1       3.701  11.636  14.184  1.00  0.00    -0.206 F 
ATOM     66  C   UNL     1       5.893  12.234  13.602  1.00  0.00     0.059 A 
ATOM     67  C   UNL     1       7.687  10.612  13.816  1.00  0.00     0.059 A 
ATOM     68  F   UNL     1       7.211   8.443  14.568  1.00  0.00    -0.206 F 
ATOM     69  C   UNL     1       7.239  11.887  13.473  1.00  0.00     0.060 A 
BRANCH  69  70
ATOM     70  S   UNL     1       8.396  13.131  12.864  1.00  0.00     0.124 S 
ATOM     71  O   UNL     1       8.057  13.172  11.444  1.00  0.00    -0.237 OA
ATOM     72  O   UNL     1       8.024  14.311  13.638  1.00  0.00    -0.237 OA
ATOM     73  O   UNL     1       9.703  12.564  13.181  1.00  0.00    -0.744 OA
ENDBRANCH  69  70
ENDBRANCH  48  62
BRANCH  49  74
ATOM     74  C   UNL     1      -0.913   2.866  17.454  1.00  0.00     0.058 A 
ATOM     75  C   UNL     1      -1.948   3.103  18.371  1.00  0.00     0.135 A 
ATOM     76  C   UNL     1      -0.760   1.560  16.964  1.00  0.00     0.135 A 
ATOM     77  F   UNL     1      -2.131   4.333  18.873  1.00  0.00    -0.206 F 
ATOM     78  C   UNL     1      -2.790   2.082  18.799  1.00  0.00     0.059 A 
ATOM     79  C   UNL     1      -1.605   0.527  17.359  1.00  0.00     0.059 A 
ATOM     80  F   UNL     1       0.204   1.285  16.071  1.00  0.00    -0.206 F 
ATOM     81  C   UNL     1      -2.611   0.796  18.286  1.00  0.00     0.060 A 
BRANCH  81  82
ATOM     82  S   UNL     1      -3.738  -0.514  18.813  1.00  0.00     0.124 S 
ATOM     83  O   UNL     1      -3.257  -0.789  20.162  1.00  0.00    -0.237 OA
ATOM     84  O   UNL     1      -5.038   0.143  18.719  1.00  0.00    -0.237 OA
ATOM     85  O   UNL     1      -3.506  -1.569  17.831  1.00  0.00    -0.744 OA
ENDBRANCH  81  82
ENDBRANCH  49  74
BRANCH  61  86
ATOM     86  C   UNL     1       4.051   6.599  20.631  1.00  0.00     0.058 A 
ATOM     87  C   UNL     1       4.858   5.568  21.136  1.00  0.00     0.135 A 
ATOM     88  C   UNL     1       3.777   7.691  21.471  1.00  0.00     0.135 A 
ATOM     89  F   UNL     1       5.144   4.500  20.375  1.00  0.00    -0.206 F 
ATOM     90  C   UNL     1       5.359   5.608  22.433  1.00  0.00     0.059 A 
ATOM     91  C   UNL     1       4.288   7.763  22.763  1.00  0.00     0.059 A 
ATOM     92  F   UNL     1       3.018   8.708  21.032  1.00  0.00    -0.206 F 
ATOM     93  C   UNL     1       5.069   6.711  23.239  1.00  0.00     0.060 A 
BRANCH  93  94
ATOM     94  S   UNL     1       5.753   6.769  24.909  1.00  0.00     0.124 S 
ATOM     95  O   UNL     1       4.900   5.814  25.609  1.00  0.00    -0.237 OA
ATOM     96  O   UNL     1       7.135   6.348  24.697  1.00  0.00    -0.237 OA
ATOM     97  O   UNL     1       5.583   8.166  25.297  1.00  0.00    -0.744 OA
ENDBRANCH  93  94
ENDBRANCH  61  86
ENDBRANCH  35  36
ENDBRANCH  27  30
ENDBRANCH  25  26
ENDBRANCH   1  25
TORSDOF 18
