REMARK SMILES C[C@@H]1CCCN(C(=O)NC2(CC(=O)NCCCCNC(=O)c3ccc(-c4c5nc(c(-c6c(F)cc(S(=O)(=O)[O-])cc6F)c6ccc([nH]6)c(-c6c(F)cc(S(=O)(=O)[O-])cc6F)c6nc(c(-c7c(F)cc(S(=O)(=O)[O-])cc7F)c7ccc4[nH]7)C=C6)C=C5)cc3)CCC2)[C@@H]1C
REMARK SMILES IDX 16 1 15 2 14 3 12 4 13 5 11 7 10 8 88 9 90 10 89 11 9 12
REMARK SMILES IDX 7 13 8 14 6 16 1 17 2 18 3 19 91 20 4 21 92 22 5 23 17 24
REMARK SMILES IDX 18 25 19 26 20 27 21 29 22 30 23 31 87 32 24 33 86 34 25 35
REMARK SMILES IDX 26 36 27 37 80 38 28 39 85 40 79 41 81 42 29 43 84 44 78 45
REMARK SMILES IDX 77 46 30 48 64 49 43 50 63 51 44 52 47 53 62 54 82 55 45 56
REMARK SMILES IDX 46 57 61 59 83 60 48 61 31 62 32 63 41 64 33 65 34 66 40 67
REMARK SMILES IDX 42 68 35 69 36 70 37 71 38 72 39 73 65 74 66 75 75 76 67 77
REMARK SMILES IDX 68 78 74 79 76 80 69 81 70 82 71 83 72 84 73 85 49 86 50 87
REMARK SMILES IDX 59 88 51 89 52 90 58 91 60 92 53 93 54 94 55 95 56 96 57 97
REMARK H PARENT 14 6 9 15 19 28 81 47 47 58
REMARK Flexibility Score: inf
ROOT
ATOM      1  C   UNL     1       0.719   7.925  -2.526  1.00  0.00     0.023 C 
ENDROOT
BRANCH   1   2
ATOM      2  C   UNL     1       0.649   7.553  -4.010  1.00  0.00     0.116 C 
BRANCH   2   3
ATOM      3  N   UNL     1       1.755   6.687  -4.352  1.00  0.00    -0.356 N 
ATOM      4  C   UNL     1       1.834   5.336  -4.226  1.00  0.00     0.222 C 
ATOM      5  O   UNL     1       2.945   4.804  -4.259  1.00  0.00    -0.275 OA
ATOM      6  H   UNL     1       2.551   7.132  -4.722  1.00  0.00     0.163 HD
BRANCH   4   7
ATOM      7  C   UNL     1       0.589   4.490  -4.072  1.00  0.00     0.128 C 
BRANCH   7   8
ATOM      8  C   UNL     1       0.152   4.093  -2.635  1.00  0.00     0.051 C 
ATOM      9  C   UNL     1      -0.976   3.043  -2.754  1.00  0.00     0.029 C 
ATOM     10  C   UNL     1      -0.860   5.079  -2.009  1.00  0.00     0.029 C 
ATOM     11  C   UNL     1      -2.003   4.102  -2.328  1.00  0.00     0.005 C 
BRANCH   8  12
ATOM     12  N   UNL     1       1.335   3.693  -1.836  1.00  0.00    -0.332 N 
ATOM     13  C   UNL     1       1.739   3.060  -0.716  1.00  0.00     0.318 C 
ATOM     14  O   UNL     1       2.959   2.853  -0.735  1.00  0.00    -0.249 OA
ATOM     15  H   UNL     1       2.139   4.014  -2.307  1.00  0.00     0.165 HD
BRANCH  13  16
ATOM     16  N   UNL     1       0.969   2.669   0.340  1.00  0.00    -0.322 N 
ATOM     17  C   UNL     1       1.236  -0.371   0.229  1.00  0.00     0.010 C 
ATOM     18  C   UNL     1       0.878   0.458   1.468  1.00  0.00     0.008 C 
ATOM     19  C   UNL     1      -0.648   0.609   1.617  1.00  0.00     0.007 C 
ATOM     20  C   UNL     1       1.534   1.864   1.461  1.00  0.00     0.086 C 
ATOM     21  C   UNL     1      -1.236   1.587   0.603  1.00  0.00     0.022 C 
ATOM     22  C   UNL     1       3.050   1.791   1.663  1.00  0.00     0.031 C 
ATOM     23  C   UNL     1      -0.450   2.898   0.555  1.00  0.00     0.121 C 
ENDBRANCH  13  16
ENDBRANCH   8  12
ENDBRANCH   7   8
ENDBRANCH   4   7
ENDBRANCH   2   3
ENDBRANCH   1   2
BRANCH   1  24
ATOM     24  C   UNL     1       1.610   9.125  -2.219  1.00  0.00     0.023 C 
BRANCH  24  25
ATOM     25  C   UNL     1       1.091  10.438  -2.785  1.00  0.00     0.116 C 
BRANCH  25  26
ATOM     26  N   UNL     1      -0.245  10.788  -2.317  1.00  0.00    -0.352 N 
ATOM     27  C   UNL     1      -0.795  12.046  -2.231  1.00  0.00     0.251 C 
ATOM     28  H   UNL     1      -0.817  10.040  -2.030  1.00  0.00     0.163 HD
ATOM     29  O   UNL     1      -1.905  12.216  -1.740  1.00  0.00    -0.269 OA
BRANCH  27  30
ATOM     30  C   UNL     1       0.014  13.187  -2.697  1.00  0.00     0.039 A 
ATOM     31  C   UNL     1       0.299  14.221  -1.804  1.00  0.00     0.014 A 
ATOM     32  C   UNL     1       0.583  13.162  -3.972  1.00  0.00     0.014 A 
ATOM     33  C   UNL     1       1.221  15.202  -2.170  1.00  0.00     0.010 A 
ATOM     34  C   UNL     1       1.560  14.091  -4.300  1.00  0.00     0.010 A 
ATOM     35  C   UNL     1       1.888  15.119  -3.403  1.00  0.00    -0.014 A 
BRANCH  35  36
ATOM     36  C   UNL     1       2.922  16.107  -3.795  1.00  0.00     0.031 A 
ATOM     37  C   UNL     1       2.691  16.976  -5.000  1.00  0.00     0.074 A 
ATOM     38  C   UNL     1       4.091  16.161  -3.126  1.00  0.00     0.049 A 
ATOM     39  N   UNL     1       3.510  17.805  -5.590  1.00  0.00    -0.248 NA
ATOM     40  C   UNL     1       1.374  16.867  -5.651  1.00  0.00     0.031 C 
ATOM     41  C   UNL     1       4.450  15.330  -1.974  1.00  0.00     0.029 A 
ATOM     42  N   UNL     1       5.202  16.940  -3.329  1.00  0.00    -0.354 N 
ATOM     43  C   UNL     1       2.820  18.296  -6.692  1.00  0.00     0.074 A 
ATOM     44  C   UNL     1       1.536  17.632  -6.720  1.00  0.00     0.031 C 
ATOM     45  C   UNL     1       5.686  15.659  -1.561  1.00  0.00     0.029 A 
ATOM     46  C   UNL     1       6.220  16.696  -2.438  1.00  0.00     0.049 A 
ATOM     47  H   UNL     1       5.264  17.611  -4.046  1.00  0.00     0.167 HD
ATOM     48  C   UNL     1       3.212  19.235  -7.584  1.00  0.00     0.037 A 
ATOM     49  C   UNL     1       7.447  17.245  -2.344  1.00  0.00     0.037 A 
ATOM     50  C   UNL     1       4.471  19.926  -7.520  1.00  0.00     0.049 A 
ATOM     51  C   UNL     1       7.845  18.312  -3.329  1.00  0.00     0.074 A 
ATOM     52  C   UNL     1       4.944  20.932  -8.343  1.00  0.00     0.029 A 
ATOM     53  N   UNL     1       5.452  19.690  -6.569  1.00  0.00    -0.354 N 
ATOM     54  N   UNL     1       7.162  18.797  -4.339  1.00  0.00    -0.248 NA
ATOM     55  C   UNL     1       9.176  18.912  -3.159  1.00  0.00     0.031 C 
ATOM     56  C   UNL     1       6.222  21.291  -7.902  1.00  0.00     0.029 A 
ATOM     57  C   UNL     1       6.529  20.532  -6.783  1.00  0.00     0.049 A 
ATOM     58  H   UNL     1       5.391  19.023  -5.847  1.00  0.00     0.167 HD
ATOM     59  C   UNL     1       7.966  19.780  -4.903  1.00  0.00     0.074 A 
ATOM     60  C   UNL     1       9.184  19.825  -4.120  1.00  0.00     0.031 C 
ATOM     61  C   UNL     1       7.720  20.576  -5.973  1.00  0.00     0.037 A 
BRANCH  48  62
ATOM     62  C   UNL     1       2.256  19.581  -8.691  1.00  0.00     0.058 A 
ATOM     63  C   UNL     1       1.075  20.299  -8.441  1.00  0.00     0.135 A 
ATOM     64  C   UNL     1       2.532  19.214 -10.017  1.00  0.00     0.135 A 
ATOM     65  F   UNL     1       0.754  20.657  -7.188  1.00  0.00    -0.206 F 
ATOM     66  C   UNL     1       0.187  20.616  -9.463  1.00  0.00     0.059 A 
ATOM     67  C   UNL     1       1.671  19.543 -11.059  1.00  0.00     0.059 A 
ATOM     68  F   UNL     1       3.645  18.523 -10.310  1.00  0.00    -0.206 F 
ATOM     69  C   UNL     1       0.493  20.232 -10.769  1.00  0.00     0.060 A 
BRANCH  69  70
ATOM     70  S   UNL     1      -0.667  20.655 -12.086  1.00  0.00     0.124 S 
ATOM     71  O   UNL     1      -1.732  19.683 -11.857  1.00  0.00    -0.237 OA
ATOM     72  O   UNL     1      -0.998  22.042 -11.778  1.00  0.00    -0.237 OA
ATOM     73  O   UNL     1       0.114  20.455 -13.303  1.00  0.00    -0.744 OA
ENDBRANCH  69  70
ENDBRANCH  48  62
BRANCH  49  74
ATOM     74  C   UNL     1       8.376  16.823  -1.263  1.00  0.00     0.058 A 
ATOM     75  C   UNL     1       8.665  17.680  -0.191  1.00  0.00     0.135 A 
ATOM     76  C   UNL     1       8.994  15.563  -1.279  1.00  0.00     0.135 A 
ATOM     77  F   UNL     1       8.101  18.896  -0.134  1.00  0.00    -0.206 F 
ATOM     78  C   UNL     1       9.552  17.314   0.816  1.00  0.00     0.059 A 
ATOM     79  C   UNL     1       9.868  15.166  -0.271  1.00  0.00     0.059 A 
ATOM     80  F   UNL     1       8.736  14.700  -2.273  1.00  0.00    -0.206 F 
ATOM     81  C   UNL     1      10.151  16.055   0.766  1.00  0.00     0.060 A 
BRANCH  81  82
ATOM     82  S   UNL     1      11.278  15.577   2.094  1.00  0.00     0.124 S 
ATOM     83  O   UNL     1      12.473  16.340   1.753  1.00  0.00    -0.237 OA
ATOM     84  O   UNL     1      10.557  16.018   3.284  1.00  0.00    -0.237 OA
ATOM     85  O   UNL     1      11.385  14.130   1.936  1.00  0.00    -0.744 OA
ENDBRANCH  81  82
ENDBRANCH  49  74
BRANCH  61  86
ATOM     86  C   UNL     1       8.759  21.598  -6.330  1.00  0.00     0.058 A 
ATOM     87  C   UNL     1       9.950  21.242  -6.978  1.00  0.00     0.135 A 
ATOM     88  C   UNL     1       8.523  22.961  -6.085  1.00  0.00     0.135 A 
ATOM     89  F   UNL     1      10.223  19.951  -7.229  1.00  0.00    -0.206 F 
ATOM     90  C   UNL     1      10.881  22.201  -7.360  1.00  0.00     0.059 A 
ATOM     91  C   UNL     1       9.429  23.939  -6.479  1.00  0.00     0.059 A 
ATOM     92  F   UNL     1       7.392  23.352  -5.476  1.00  0.00    -0.206 F 
ATOM     93  C   UNL     1      10.610  23.548  -7.109  1.00  0.00     0.060 A 
BRANCH  93  94
ATOM     94  S   UNL     1      11.800  24.790  -7.657  1.00  0.00     0.124 S 
ATOM     95  O   UNL     1      12.847  24.657  -6.649  1.00  0.00    -0.237 OA
ATOM     96  O   UNL     1      12.147  24.324  -8.996  1.00  0.00    -0.237 OA
ATOM     97  O   UNL     1      11.037  26.034  -7.612  1.00  0.00    -0.744 OA
ENDBRANCH  93  94
ENDBRANCH  61  86
ENDBRANCH  35  36
ENDBRANCH  27  30
ENDBRANCH  25  26
ENDBRANCH  24  25
ENDBRANCH   1  24
TORSDOF 17
