REMARK SMILES O=C(NCCCCNC(=O)c1ccc(-c2c3nc(c(-c4c(F)cc(S(=O)(=O)[O-])cc4F)c4ccc([nH]4)c(-c4c(F)cc(S(=O)(=O)[O-])cc4F)c4nc(c(-c5c(F)cc(S(=O)(=O)[O-])cc5F)c5ccc2[nH]5)C=C4)C=C3)cc1)C1=Cc2cc(Cl)cc(-c3ccc(O)cc3)c2O[C@@H]1C(F)(F)F
REMARK SMILES IDX 6 1 5 2 4 3 3 4 1 5 2 6 77 8 78 9 94 10 79 11 93 12 80 13
REMARK SMILES IDX 92 14 81 15 84 16 82 17 83 18 95 19 96 20 97 21 98 22 85 23
REMARK SMILES IDX 86 24 91 25 87 26 90 27 88 28 89 29 7 31 8 32 9 33 10 35
REMARK SMILES IDX 11 36 12 37 76 38 13 39 75 40 14 41 15 42 16 43 69 44 17 45
REMARK SMILES IDX 74 46 68 47 70 48 18 49 73 50 67 51 66 52 19 54 53 55 32 56
REMARK SMILES IDX 52 57 33 58 36 59 51 60 71 61 34 62 35 63 50 65 72 66 37 67
REMARK SMILES IDX 20 68 21 69 30 70 22 71 23 72 29 73 31 74 24 75 25 76 26 77
REMARK SMILES IDX 27 78 28 79 54 80 55 81 64 82 56 83 57 84 63 85 65 86 58 87
REMARK SMILES IDX 59 88 60 89 61 90 62 91 38 92 39 93 48 94 40 95 41 96 47 97
REMARK SMILES IDX 49 98 42 99 43 100 44 101 45 102 46 103
REMARK H PARENT 3 7 89 30 8 34 70 53 36 64
REMARK Flexibility Score: inf
ROOT
ATOM      1  C   UNL     1       4.098   3.001   3.400  1.00  0.00     0.023 C 
ENDROOT
BRANCH   1   2
ATOM      2  C   UNL     1       4.281   2.612   1.930  1.00  0.00     0.023 C 
BRANCH   2   3
ATOM      3  C   UNL     1       3.702   1.249   1.542  1.00  0.00     0.116 C 
BRANCH   3   4
ATOM      4  N   UNL     1       2.589   1.333   0.590  1.00  0.00    -0.352 N 
ATOM      5  O   UNL     1       1.226   0.654  -1.093  1.00  0.00    -0.270 OA
ATOM      6  C   UNL     1       2.316   0.593  -0.537  1.00  0.00     0.251 C 
ATOM      7  H   UNL     1       1.929   2.036   0.790  1.00  0.00     0.163 HD
BRANCH   6   8
ATOM      8  C   UNL     1       3.331  -0.374  -0.996  1.00  0.00     0.067 C 
ATOM      9  C   UNL     1       4.543   0.046  -1.380  1.00  0.00     0.025 C 
ATOM     10  C   UNL     1       3.088  -1.815  -0.683  1.00  0.00     0.314 C 
ATOM     11  C   UNL     1       5.622  -0.683  -0.676  1.00  0.00     0.019 A 
ATOM     12  O   UNL     1       4.039  -2.280   0.298  1.00  0.00    -0.475 OA
ATOM     13  C   UNL     1       6.865  -0.048  -0.613  1.00  0.00     0.032 A 
ATOM     14  C   UNL     1       5.283  -1.680   0.281  1.00  0.00     0.135 A 
ATOM     15  C   UNL     1       7.728  -0.342   0.435  1.00  0.00     0.042 A 
ATOM     16  C   UNL     1       6.128  -1.933   1.384  1.00  0.00     0.026 A 
ATOM     17  Cl  UNL     1       9.187   0.556   0.601  1.00  0.00    -0.084 Cl
ATOM     18  C   UNL     1       7.365  -1.258   1.423  1.00  0.00     0.033 A 
BRANCH  10  19
ATOM     19  C   UNL     1       3.097  -2.678  -1.962  1.00  0.00     0.429 C 
ATOM     20  F   UNL     1       2.748  -3.960  -1.696  1.00  0.00    -0.167 F 
ATOM     21  F   UNL     1       2.216  -2.218  -2.884  1.00  0.00    -0.167 F 
ATOM     22  F   UNL     1       4.311  -2.716  -2.563  1.00  0.00    -0.167 F 
ENDBRANCH  10  19
BRANCH  16  23
ATOM     23  C   UNL     1       5.696  -2.705   2.576  1.00  0.00    -0.014 A 
ATOM     24  C   UNL     1       5.806  -2.134   3.860  1.00  0.00     0.012 A 
ATOM     25  C   UNL     1       5.167  -4.003   2.491  1.00  0.00     0.012 A 
ATOM     26  C   UNL     1       5.442  -2.838   5.009  1.00  0.00     0.047 A 
ATOM     27  C   UNL     1       4.790  -4.711   3.642  1.00  0.00     0.047 A 
ATOM     28  C   UNL     1       4.941  -4.123   4.892  1.00  0.00     0.115 A 
BRANCH  28  29
ATOM     29  O   UNL     1       4.615  -4.773   6.043  1.00  0.00    -0.508 OA
ATOM     30  H   UNL     1       4.729  -4.347   6.870  1.00  0.00     0.293 HD
ENDBRANCH  28  29
ENDBRANCH  16  23
ENDBRANCH   6   8
ENDBRANCH   3   4
ENDBRANCH   2   3
ENDBRANCH   1   2
BRANCH   1  31
ATOM     31  C   UNL     1       4.647   2.029   4.444  1.00  0.00     0.116 C 
BRANCH  31  32
ATOM     32  N   UNL     1       6.068   1.738   4.329  1.00  0.00    -0.352 N 
ATOM     33  C   UNL     1       6.936   1.341   5.325  1.00  0.00     0.251 C 
ATOM     34  H   UNL     1       6.457   1.836   3.430  1.00  0.00     0.163 HD
ATOM     35  O   UNL     1       8.121   1.148   5.065  1.00  0.00    -0.269 OA
BRANCH  33  36
ATOM     36  C   UNL     1       6.445   1.188   6.715  1.00  0.00     0.039 A 
ATOM     37  C   UNL     1       7.138   1.825   7.750  1.00  0.00     0.014 A 
ATOM     38  C   UNL     1       5.275   0.476   6.992  1.00  0.00     0.014 A 
ATOM     39  C   UNL     1       6.595   1.845   9.037  1.00  0.00     0.010 A 
ATOM     40  C   UNL     1       4.711   0.533   8.262  1.00  0.00     0.010 A 
ATOM     41  C   UNL     1       5.349   1.246   9.286  1.00  0.00    -0.014 A 
BRANCH  41  42
ATOM     42  C   UNL     1       4.635   1.449  10.569  1.00  0.00     0.031 A 
ATOM     43  C   UNL     1       4.424   0.309  11.519  1.00  0.00     0.074 A 
ATOM     44  C   UNL     1       4.075   2.652  10.806  1.00  0.00     0.049 A 
ATOM     45  N   UNL     1       3.791   0.299  12.663  1.00  0.00    -0.248 NA
ATOM     46  C   UNL     1       4.975  -0.995  11.121  1.00  0.00     0.031 C 
ATOM     47  C   UNL     1       4.152   3.809   9.909  1.00  0.00     0.029 A 
ATOM     48  N   UNL     1       3.314   3.098  11.855  1.00  0.00    -0.354 N 
ATOM     49  C   UNL     1       3.869  -1.008  13.127  1.00  0.00     0.074 A 
ATOM     50  C   UNL     1       4.565  -1.773  12.114  1.00  0.00     0.031 C 
ATOM     51  C   UNL     1       3.477   4.834  10.453  1.00  0.00     0.029 A 
ATOM     52  C   UNL     1       2.903   4.404  11.723  1.00  0.00     0.049 A 
ATOM     53  H   UNL     1       3.084   2.537  12.631  1.00  0.00     0.167 HD
ATOM     54  C   UNL     1       3.416  -1.516  14.300  1.00  0.00     0.037 A 
ATOM     55  C   UNL     1       2.150   5.168  12.536  1.00  0.00     0.037 A 
ATOM     56  C   UNL     1       2.714  -0.741  15.292  1.00  0.00     0.049 A 
ATOM     57  C   UNL     1       1.656   4.583  13.829  1.00  0.00     0.074 A 
ATOM     58  C   UNL     1       2.270  -1.137  16.541  1.00  0.00     0.029 A 
ATOM     59  N   UNL     1       2.337   0.587  15.138  1.00  0.00    -0.354 N 
ATOM     60  N   UNL     1       1.829   3.372  14.304  1.00  0.00    -0.248 NA
ATOM     61  C   UNL     1       0.876   5.469  14.703  1.00  0.00     0.031 C 
ATOM     62  C   UNL     1       1.587  -0.062  17.124  1.00  0.00     0.029 A 
ATOM     63  C   UNL     1       1.645   1.018  16.258  1.00  0.00     0.049 A 
ATOM     64  H   UNL     1       2.534   1.141  14.348  1.00  0.00     0.167 HD
ATOM     65  C   UNL     1       1.209   3.360  15.548  1.00  0.00     0.074 A 
ATOM     66  C   UNL     1       0.661   4.686  15.752  1.00  0.00     0.031 C 
ATOM     67  C   UNL     1       1.107   2.345  16.442  1.00  0.00     0.037 A 
BRANCH  54  68
ATOM     68  C   UNL     1       3.670  -2.975  14.567  1.00  0.00     0.058 A 
ATOM     69  C   UNL     1       4.965  -3.462  14.809  1.00  0.00     0.135 A 
ATOM     70  C   UNL     1       2.611  -3.896  14.597  1.00  0.00     0.135 A 
ATOM     71  F   UNL     1       6.017  -2.629  14.784  1.00  0.00    -0.206 F 
ATOM     72  C   UNL     1       5.206  -4.815  15.030  1.00  0.00     0.059 A 
ATOM     73  C   UNL     1       2.825  -5.250  14.842  1.00  0.00     0.059 A 
ATOM     74  F   UNL     1       1.352  -3.487  14.376  1.00  0.00    -0.206 F 
ATOM     75  C   UNL     1       4.130  -5.703  15.037  1.00  0.00     0.060 A 
BRANCH  75  76
ATOM     76  S   UNL     1       4.460  -7.458  15.305  1.00  0.00     0.124 S 
ATOM     77  O   UNL     1       5.029  -7.846  14.017  1.00  0.00    -0.237 OA
ATOM     78  O   UNL     1       5.393  -7.435  16.427  1.00  0.00    -0.237 OA
ATOM     79  O   UNL     1       3.142  -8.011  15.600  1.00  0.00    -0.744 OA
ENDBRANCH  75  76
ENDBRANCH  54  68
BRANCH  55  80
ATOM     80  C   UNL     1       1.871   6.582  12.175  1.00  0.00     0.058 A 
ATOM     81  C   UNL     1       2.504   7.631  12.858  1.00  0.00     0.135 A 
ATOM     82  C   UNL     1       1.002   6.916  11.125  1.00  0.00     0.135 A 
ATOM     83  F   UNL     1       3.343   7.361  13.870  1.00  0.00    -0.206 F 
ATOM     84  C   UNL     1       2.278   8.961  12.523  1.00  0.00     0.059 A 
ATOM     85  C   UNL     1       0.775   8.239  10.757  1.00  0.00     0.059 A 
ATOM     86  F   UNL     1       0.388   5.948  10.427  1.00  0.00    -0.206 F 
ATOM     87  C   UNL     1       1.413   9.255  11.468  1.00  0.00     0.060 A 
BRANCH  87  88
ATOM     88  S   UNL     1       1.173  10.985  11.004  1.00  0.00     0.124 S 
ATOM     89  O   UNL     1       0.341  11.470  12.098  1.00  0.00    -0.237 OA
ATOM     90  O   UNL     1       2.543  11.486  10.972  1.00  0.00    -0.237 OA
ATOM     91  O   UNL     1       0.517  10.894   9.702  1.00  0.00    -0.744 OA
ENDBRANCH  87  88
ENDBRANCH  55  80
BRANCH  67  92
ATOM     92  C   UNL     1       0.403   2.642  17.736  1.00  0.00     0.058 A 
ATOM     93  C   UNL     1      -0.990   2.795  17.800  1.00  0.00     0.135 A 
ATOM     94  C   UNL     1       1.131   2.740  18.933  1.00  0.00     0.135 A 
ATOM     95  F   UNL     1      -1.730   2.721  16.683  1.00  0.00    -0.206 F 
ATOM     96  C   UNL     1      -1.636   3.061  19.003  1.00  0.00     0.059 A 
ATOM     97  C   UNL     1       0.503   2.978  20.151  1.00  0.00     0.059 A 
ATOM     98  F   UNL     1       2.465   2.592  18.928  1.00  0.00    -0.206 F 
ATOM     99  C   UNL     1      -0.880   3.151  20.174  1.00  0.00     0.060 A 
BRANCH  99 100
ATOM    100  S   UNL     1      -1.732   3.468  21.733  1.00  0.00     0.124 S 
ATOM    101  O   UNL     1      -2.034   4.891  21.619  1.00  0.00    -0.237 OA
ATOM    102  O   UNL     1      -2.879   2.568  21.654  1.00  0.00    -0.237 OA
ATOM    103  O   UNL     1      -0.737   3.116  22.741  1.00  0.00    -0.744 OA
ENDBRANCH  99 100
ENDBRANCH  67  92
ENDBRANCH  41  42
ENDBRANCH  33  36
ENDBRANCH  31  32
ENDBRANCH   1  31
TORSDOF 17
