REMARK SMILES COc1ccc(O[C@H]2CC[C@@]([NH2+]C(C)C)(C(=O)NCCCCNC(=O)c3ccc(-c4c5nc(c(-c6c(F)cc(S(=O)(=O)[O-])cc6F)c6ccc([nH]6)c(-c6c(F)cc(S(=O)(=O)[O-])cc6F)c6nc(c(-c7c(F)cc(S(=O)(=O)[O-])cc7F)c7ccc4[nH]7)C=C6)C=C5)cc3)C2)cc1
REMARK SMILES IDX 20 1 19 2 18 3 16 4 17 5 11 7 8 8 9 9 92 10 10 11 7 12 6 13
REMARK SMILES IDX 3 14 4 15 94 16 5 17 93 18 2 19 1 20 12 21 13 24 14 25 15 26
REMARK SMILES IDX 21 27 22 28 23 29 24 30 25 32 26 33 27 34 91 35 28 36 90 37
REMARK SMILES IDX 29 38 30 39 31 40 84 41 32 42 89 43 83 44 85 45 33 46 88 47
REMARK SMILES IDX 82 48 81 49 34 51 68 52 47 53 67 54 48 55 51 56 66 57 86 58
REMARK SMILES IDX 49 59 50 60 65 62 87 63 52 64 35 65 36 66 45 67 37 68 38 69
REMARK SMILES IDX 44 70 46 71 39 72 40 73 41 74 42 75 43 76 69 77 70 78 79 79
REMARK SMILES IDX 71 80 72 81 78 82 80 83 73 84 74 85 75 86 76 87 77 88 53 89
REMARK SMILES IDX 54 90 63 91 55 92 56 93 62 94 64 95 57 96 58 97 59 98 60 99
REMARK SMILES IDX 61 100
REMARK H PARENT 18 6 12 22 12 23 23 31 85 50 51 61
REMARK Flexibility Score: inf
ROOT
ATOM      1  C   UNL     1       8.948   0.910   7.386  1.00  0.00     0.023 C 
ENDROOT
BRANCH   1   2
ATOM      2  C   UNL     1       8.157  -0.290   6.865  1.00  0.00     0.116 C 
BRANCH   2   3
ATOM      3  N   UNL     1       7.074  -0.649   7.762  1.00  0.00    -0.351 N 
ATOM      4  C   UNL     1       5.719  -0.641   7.554  1.00  0.00     0.281 C 
ATOM      5  O   UNL     1       5.013  -1.087   8.463  1.00  0.00    -0.268 OA
ATOM      6  H   UNL     1       7.356  -0.945   8.658  1.00  0.00     0.163 HD
BRANCH   4   7
ATOM      7  C   UNL     1       5.123  -0.166   6.186  1.00  0.00     0.179 C 
ATOM      8  C   UNL     1       3.285   1.416   6.581  1.00  0.00     0.180 C 
ATOM      9  C   UNL     1       4.339   2.146   5.760  1.00  0.00     0.052 C 
ATOM     10  C   UNL     1       3.577  -0.044   6.226  1.00  0.00     0.124 C 
ATOM     11  C   UNL     1       5.587   1.286   5.889  1.00  0.00     0.083 C 
BRANCH   8  12
ATOM     12  O   UNL     1       3.472   1.571   7.984  1.00  0.00    -0.490 OA
BRANCH  12  13
ATOM     13  C   UNL     1       3.065   2.724   8.587  1.00  0.00     0.119 A 
ATOM     14  C   UNL     1       2.482   5.029  10.076  1.00  0.00     0.119 A 
ATOM     15  C   UNL     1       2.322   5.023   8.691  1.00  0.00     0.050 A 
ATOM     16  C   UNL     1       2.873   3.861  10.726  1.00  0.00     0.050 A 
ATOM     17  C   UNL     1       2.608   3.874   7.947  1.00  0.00     0.050 A 
ATOM     18  C   UNL     1       3.170   2.717   9.980  1.00  0.00     0.050 A 
BRANCH  14  19
ATOM     19  O   UNL     1       2.199   6.212  10.702  1.00  0.00    -0.497 OA
ATOM     20  C   UNL     1       3.020   6.487  11.834  1.00  0.00     0.278 C 
ENDBRANCH  14  19
ENDBRANCH  12  13
ENDBRANCH   8  12
BRANCH   7  21
ATOM     21  N   UNL     1       5.575  -1.073   5.093  1.00  0.00    -0.332 N 
ATOM     22  H   UNL     1       6.570  -0.904   4.946  1.00  0.00     0.347 HD
ATOM     23  H   UNL     1       4.976  -0.847   4.299  1.00  0.00     0.347 HD
BRANCH  21  24
ATOM     24  C   UNL     1       5.398  -2.518   5.303  1.00  0.00     0.176 C 
ATOM     25  C   UNL     1       3.963  -2.999   5.084  1.00  0.00     0.075 C 
ATOM     26  C   UNL     1       6.323  -3.232   4.311  1.00  0.00     0.075 C 
ENDBRANCH  21  24
ENDBRANCH   7  21
ENDBRANCH   4   7
ENDBRANCH   2   3
ENDBRANCH   1   2
BRANCH   1  27
ATOM     27  C   UNL     1       9.715   0.653   8.684  1.00  0.00     0.023 C 
BRANCH  27  28
ATOM     28  C   UNL     1      10.702  -0.507   8.630  1.00  0.00     0.116 C 
BRANCH  28  29
ATOM     29  N   UNL     1      11.721  -0.330   7.608  1.00  0.00    -0.352 N 
ATOM     30  C   UNL     1      13.081  -0.492   7.700  1.00  0.00     0.251 C 
ATOM     31  H   UNL     1      11.388  -0.054   6.724  1.00  0.00     0.163 HD
ATOM     32  O   UNL     1      13.799  -0.138   6.766  1.00  0.00    -0.269 OA
BRANCH  30  33
ATOM     33  C   UNL     1      13.683  -1.060   8.926  1.00  0.00     0.039 A 
ATOM     34  C   UNL     1      14.844  -0.477   9.436  1.00  0.00     0.014 A 
ATOM     35  C   UNL     1      13.112  -2.161   9.572  1.00  0.00     0.014 A 
ATOM     36  C   UNL     1      15.399  -0.962  10.622  1.00  0.00     0.010 A 
ATOM     37  C   UNL     1      13.617  -2.588  10.799  1.00  0.00     0.010 A 
ATOM     38  C   UNL     1      14.771  -1.999  11.334  1.00  0.00    -0.014 A 
BRANCH  38  39
ATOM     39  C   UNL     1      15.319  -2.465  12.636  1.00  0.00     0.031 A 
ATOM     40  C   UNL     1      15.814  -3.878  12.796  1.00  0.00     0.074 A 
ATOM     41  C   UNL     1      15.351  -1.615  13.683  1.00  0.00     0.049 A 
ATOM     42  N   UNL     1      16.328  -4.457  13.851  1.00  0.00    -0.248 NA
ATOM     43  C   UNL     1      15.696  -4.765  11.627  1.00  0.00     0.031 C 
ATOM     44  C   UNL     1      14.843  -0.241  13.673  1.00  0.00     0.029 A 
ATOM     45  N   UNL     1      15.831  -1.779  14.959  1.00  0.00    -0.354 N 
ATOM     46  C   UNL     1      16.604  -5.766  13.472  1.00  0.00     0.074 A 
ATOM     47  C   UNL     1      16.130  -5.919  12.114  1.00  0.00     0.031 C 
ATOM     48  C   UNL     1      15.067   0.322  14.871  1.00  0.00     0.029 A 
ATOM     49  C   UNL     1      15.699  -0.659  15.747  1.00  0.00     0.049 A 
ATOM     50  H   UNL     1      16.231  -2.619  15.280  1.00  0.00     0.167 HD
ATOM     51  C   UNL     1      17.229  -6.740  14.175  1.00  0.00     0.037 A 
ATOM     52  C   UNL     1      16.047  -0.446  17.031  1.00  0.00     0.037 A 
ATOM     53  C   UNL     1      17.705  -6.582  15.525  1.00  0.00     0.049 A 
ATOM     54  C   UNL     1      16.727  -1.551  17.796  1.00  0.00     0.074 A 
ATOM     55  C   UNL     1      18.371  -7.501  16.317  1.00  0.00     0.029 A 
ATOM     56  N   UNL     1      17.568  -5.429  16.285  1.00  0.00    -0.354 N 
ATOM     57  N   UNL     1      17.036  -2.762  17.397  1.00  0.00    -0.248 NA
ATOM     58  C   UNL     1      17.120  -1.256  19.180  1.00  0.00     0.031 C 
ATOM     59  C   UNL     1      18.599  -6.919  17.569  1.00  0.00     0.029 A 
ATOM     60  C   UNL     1      18.125  -5.618  17.539  1.00  0.00     0.049 A 
ATOM     61  H   UNL     1      17.138  -4.598  15.977  1.00  0.00     0.167 HD
ATOM     62  C   UNL     1      17.685  -3.362  18.471  1.00  0.00     0.074 A 
ATOM     63  C   UNL     1      17.744  -2.372  19.526  1.00  0.00     0.031 C 
ATOM     64  C   UNL     1      18.183  -4.619  18.578  1.00  0.00     0.037 A 
BRANCH  51  65
ATOM     65  C   UNL     1      17.459  -8.060  13.487  1.00  0.00     0.058 A 
ATOM     66  C   UNL     1      18.374  -8.183  12.428  1.00  0.00     0.135 A 
ATOM     67  C   UNL     1      16.801  -9.224  13.918  1.00  0.00     0.135 A 
ATOM     68  F   UNL     1      19.019  -7.101  11.963  1.00  0.00    -0.206 F 
ATOM     69  C   UNL     1      18.612  -9.404  11.806  1.00  0.00     0.059 A 
ATOM     70  C   UNL     1      17.047 -10.463  13.331  1.00  0.00     0.059 A 
ATOM     71  F   UNL     1      15.915  -9.167  14.924  1.00  0.00    -0.206 F 
ATOM     72  C   UNL     1      17.946 -10.540  12.268  1.00  0.00     0.060 A 
BRANCH  72  73
ATOM     73  S   UNL     1      18.285 -12.120  11.463  1.00  0.00     0.124 S 
ATOM     74  O   UNL     1      17.643 -11.930  10.166  1.00  0.00    -0.237 OA
ATOM     75  O   UNL     1      19.744 -12.154  11.449  1.00  0.00    -0.237 OA
ATOM     76  O   UNL     1      17.646 -13.095  12.341  1.00  0.00    -0.744 OA
ENDBRANCH  72  73
ENDBRANCH  51  65
BRANCH  52  77
ATOM     77  C   UNL     1      15.768   0.867  17.677  1.00  0.00     0.058 A 
ATOM     78  C   UNL     1      16.808   1.725  18.066  1.00  0.00     0.135 A 
ATOM     79  C   UNL     1      14.452   1.280  17.939  1.00  0.00     0.135 A 
ATOM     80  F   UNL     1      18.084   1.376  17.840  1.00  0.00    -0.206 F 
ATOM     81  C   UNL     1      16.558   2.925  18.724  1.00  0.00     0.059 A 
ATOM     82  C   UNL     1      14.175   2.490  18.566  1.00  0.00     0.059 A 
ATOM     83  F   UNL     1      13.418   0.508  17.570  1.00  0.00    -0.206 F 
ATOM     84  C   UNL     1      15.236   3.297  18.973  1.00  0.00     0.060 A 
BRANCH  84  85
ATOM     85  S   UNL     1      14.919   4.861  19.818  1.00  0.00     0.124 S 
ATOM     86  O   UNL     1      15.325   4.545  21.182  1.00  0.00    -0.237 OA
ATOM     87  O   UNL     1      15.785   5.784  19.090  1.00  0.00    -0.237 OA
ATOM     88  O   UNL     1      13.487   5.067  19.616  1.00  0.00    -0.744 OA
ENDBRANCH  84  85
ENDBRANCH  52  77
BRANCH  64  89
ATOM     89  C   UNL     1      18.871  -4.980  19.867  1.00  0.00     0.058 A 
ATOM     90  C   UNL     1      18.162  -5.134  21.069  1.00  0.00     0.135 A 
ATOM     91  C   UNL     1      20.260  -5.192  19.896  1.00  0.00     0.135 A 
ATOM     92  F   UNL     1      16.834  -4.940  21.100  1.00  0.00    -0.206 F 
ATOM     93  C   UNL     1      18.809  -5.443  22.261  1.00  0.00     0.059 A 
ATOM     94  C   UNL     1      20.923  -5.536  21.070  1.00  0.00     0.059 A 
ATOM     95  F   UNL     1      20.986  -5.073  18.773  1.00  0.00    -0.206 F 
ATOM     96  C   UNL     1      20.192  -5.639  22.252  1.00  0.00     0.060 A 
BRANCH  96  97
ATOM     97  S   UNL     1      21.019  -6.042  23.805  1.00  0.00     0.124 S 
ATOM     98  O   UNL     1      20.981  -4.760  24.499  1.00  0.00    -0.237 OA
ATOM     99  O   UNL     1      20.159  -7.086  24.354  1.00  0.00    -0.237 OA
ATOM    100  O   UNL     1      22.342  -6.488  23.379  1.00  0.00    -0.744 OA
ENDBRANCH  96  97
ENDBRANCH  64  89
ENDBRANCH  38  39
ENDBRANCH  30  33
ENDBRANCH  28  29
ENDBRANCH  27  28
ENDBRANCH   1  27
TORSDOF 19
