REMARK SMILES COc1ccccc1-c1ccc(C(=O)NCCCCNC(=O)c2ccc(-c3c4nc(c(-c5c(F)cc(S(=O)(=O)[O-])cc5F)c5ccc([nH]5)c(-c5c(F)cc(S(=O)(=O)[O-])cc5F)c5nc(c(-c6c(F)cc(S(=O)(=O)[O-])cc6F)c6ccc3[nH]6)C=C5)C=C4)cc2)c(O)c1
REMARK SMILES IDX 18 1 17 2 16 3 15 4 13 5 14 6 12 8 9 9 10 10 91 11 11 12
REMARK SMILES IDX 89 13 8 14 3 15 4 16 5 17 7 18 6 19 2 20 1 21 90 22 19 24
REMARK SMILES IDX 20 25 21 26 22 28 23 29 24 30 88 31 25 32 87 33 26 34 27 35
REMARK SMILES IDX 28 36 81 37 29 38 86 39 80 40 82 41 30 42 85 43 79 44 78 45
REMARK SMILES IDX 31 47 65 48 44 49 64 50 45 51 48 52 63 53 83 54 46 55 47 56
REMARK SMILES IDX 62 58 84 59 49 60 32 61 33 62 42 63 34 64 35 65 41 66 43 67
REMARK SMILES IDX 36 68 37 69 38 70 39 71 40 72 66 73 67 74 76 75 68 76 69 77
REMARK SMILES IDX 75 78 77 79 70 80 71 81 72 82 73 83 74 84 50 85 51 86 60 87
REMARK SMILES IDX 52 88 53 89 59 90 61 91 54 92 55 93 56 94 57 95 58 96
REMARK H PARENT 15 7 90 23 20 27 82 46 48 57
REMARK Flexibility Score: inf
ROOT
ATOM      1  C   UNL     1       7.527  -4.901   1.147  1.00  0.00     0.023 C 
ENDROOT
BRANCH   1   2
ATOM      2  C   UNL     1       6.411  -4.093   0.493  1.00  0.00     0.023 C 
BRANCH   2   3
ATOM      3  C   UNL     1       5.683  -3.118   1.424  1.00  0.00     0.116 C 
BRANCH   3   4
ATOM      4  N   UNL     1       6.441  -1.893   1.560  1.00  0.00    -0.352 N 
ATOM      5  C   UNL     1       6.354  -0.694   0.899  1.00  0.00     0.255 C 
ATOM      6  O   UNL     1       7.184   0.170   1.195  1.00  0.00    -0.269 OA
ATOM      7  H   UNL     1       7.143  -1.926   2.249  1.00  0.00     0.163 HD
BRANCH   5   8
ATOM      8  C   UNL     1       5.270  -0.331  -0.061  1.00  0.00     0.081 A 
ATOM      9  C   UNL     1       3.219   0.667  -1.752  1.00  0.00    -0.011 A 
ATOM     10  C   UNL     1       3.853   1.512  -0.839  1.00  0.00     0.010 A 
ATOM     11  C   UNL     1       3.651  -0.660  -1.845  1.00  0.00     0.055 A 
ATOM     12  C   UNL     1       4.855   1.015   0.001  1.00  0.00     0.018 A 
ATOM     13  C   UNL     1       4.679  -1.145  -1.032  1.00  0.00     0.128 A 
BRANCH   9  14
ATOM     14  C   UNL     1       2.129   1.127  -2.616  1.00  0.00     0.024 A 
ATOM     15  C   UNL     1       0.805   0.666  -2.477  1.00  0.00     0.126 A 
ATOM     16  C   UNL     1      -0.166   1.001  -3.425  1.00  0.00     0.047 A 
ATOM     17  C   UNL     1       0.157   1.824  -4.502  1.00  0.00     0.004 A 
ATOM     18  C   UNL     1       2.431   1.966  -3.704  1.00  0.00     0.012 A 
ATOM     19  C   UNL     1       1.453   2.311  -4.640  1.00  0.00     0.001 A 
BRANCH  15  20
ATOM     20  O   UNL     1       0.394  -0.215  -1.506  1.00  0.00    -0.496 OA
ATOM     21  C   UNL     1       0.541   0.298  -0.181  1.00  0.00     0.278 C 
ENDBRANCH  15  20
ENDBRANCH   9  14
BRANCH  13  22
ATOM     22  O   UNL     1       5.095  -2.417  -1.280  1.00  0.00    -0.507 OA
ATOM     23  H   UNL     1       5.781  -2.794  -0.766  1.00  0.00     0.293 HD
ENDBRANCH  13  22
ENDBRANCH   5   8
ENDBRANCH   3   4
ENDBRANCH   2   3
ENDBRANCH   1   2
BRANCH   1  24
ATOM     24  C   UNL     1       7.061  -5.878   2.214  1.00  0.00     0.116 C 
BRANCH  24  25
ATOM     25  N   UNL     1       6.074  -6.834   1.733  1.00  0.00    -0.352 N 
ATOM     26  C   UNL     1       5.890  -8.137   2.130  1.00  0.00     0.251 C 
ATOM     27  H   UNL     1       5.461  -6.506   1.036  1.00  0.00     0.163 HD
ATOM     28  O   UNL     1       5.070  -8.850   1.561  1.00  0.00    -0.269 OA
BRANCH  26  29
ATOM     29  C   UNL     1       6.729  -8.675   3.220  1.00  0.00     0.039 A 
ATOM     30  C   UNL     1       7.404  -9.879   3.017  1.00  0.00     0.014 A 
ATOM     31  C   UNL     1       6.898  -7.955   4.406  1.00  0.00     0.014 A 
ATOM     32  C   UNL     1       8.306 -10.329   3.980  1.00  0.00     0.010 A 
ATOM     33  C   UNL     1       7.855  -8.364   5.327  1.00  0.00     0.010 A 
ATOM     34  C   UNL     1       8.566  -9.555   5.124  1.00  0.00    -0.014 A 
BRANCH  34  35
ATOM     35  C   UNL     1       9.581  -9.978   6.119  1.00  0.00     0.031 A 
ATOM     36  C   UNL     1       9.162 -10.318   7.522  1.00  0.00     0.074 A 
ATOM     37  C   UNL     1      10.883  -9.994   5.774  1.00  0.00     0.049 A 
ATOM     38  N   UNL     1       9.901 -10.668   8.542  1.00  0.00    -0.248 NA
ATOM     39  C   UNL     1       7.724 -10.224   7.827  1.00  0.00     0.031 C 
ATOM     40  C   UNL     1      11.417  -9.619   4.462  1.00  0.00     0.029 A 
ATOM     41  N   UNL     1      11.997 -10.333   6.499  1.00  0.00    -0.354 N 
ATOM     42  C   UNL     1       9.024 -10.821   9.610  1.00  0.00     0.074 A 
ATOM     43  C   UNL     1       7.706 -10.472   9.128  1.00  0.00     0.031 C 
ATOM     44  C   UNL     1      12.751  -9.774   4.468  1.00  0.00     0.029 A 
ATOM     45  C   UNL     1      13.171 -10.231   5.789  1.00  0.00     0.049 A 
ATOM     46  H   UNL     1      11.960 -10.621   7.439  1.00  0.00     0.167 HD
ATOM     47  C   UNL     1       9.290 -11.241  10.869  1.00  0.00     0.037 A 
ATOM     48  C   UNL     1      14.440 -10.481   6.162  1.00  0.00     0.037 A 
ATOM     49  C   UNL     1      10.600 -11.617  11.331  1.00  0.00     0.049 A 
ATOM     50  C   UNL     1      14.707 -10.976   7.557  1.00  0.00     0.074 A 
ATOM     51  C   UNL     1      10.967 -12.118  12.568  1.00  0.00     0.029 A 
ATOM     52  N   UNL     1      11.759 -11.534  10.573  1.00  0.00    -0.354 N 
ATOM     53  N   UNL     1      13.856 -11.184   8.534  1.00  0.00    -0.248 NA
ATOM     54  C   UNL     1      16.103 -11.279   7.898  1.00  0.00     0.031 C 
ATOM     55  C   UNL     1      12.354 -12.306  12.568  1.00  0.00     0.029 A 
ATOM     56  C   UNL     1      12.845 -11.962  11.319  1.00  0.00     0.049 A 
ATOM     57  H   UNL     1      11.804 -11.218   9.642  1.00  0.00     0.167 HD
ATOM     58  C   UNL     1      14.610 -11.665   9.598  1.00  0.00     0.074 A 
ATOM     59  C   UNL     1      15.983 -11.730   9.140  1.00  0.00     0.031 C 
ATOM     60  C   UNL     1      14.204 -12.020  10.843  1.00  0.00     0.037 A 
BRANCH  47  61
ATOM     61  C   UNL     1       8.136 -11.327  11.828  1.00  0.00     0.058 A 
ATOM     62  C   UNL     1       7.138 -12.307  11.692  1.00  0.00     0.135 A 
ATOM     63  C   UNL     1       8.032 -10.434  12.906  1.00  0.00     0.135 A 
ATOM     64  F   UNL     1       7.179 -13.175  10.669  1.00  0.00    -0.206 F 
ATOM     65  C   UNL     1       6.062 -12.378  12.570  1.00  0.00     0.059 A 
ATOM     66  C   UNL     1       6.978 -10.504  13.813  1.00  0.00     0.059 A 
ATOM     67  F   UNL     1       8.956  -9.477  13.083  1.00  0.00    -0.206 F 
ATOM     68  C   UNL     1       5.989 -11.469  13.627  1.00  0.00     0.060 A 
BRANCH  68  69
ATOM     69  S   UNL     1       4.586 -11.572  14.758  1.00  0.00     0.124 S 
ATOM     70  O   UNL     1       3.515 -11.005  13.944  1.00  0.00    -0.237 OA
ATOM     71  O   UNL     1       4.495 -13.006  15.014  1.00  0.00    -0.237 OA
ATOM     72  O   UNL     1       5.007 -10.761  15.896  1.00  0.00    -0.744 OA
ENDBRANCH  68  69
ENDBRANCH  47  61
BRANCH  48  73
ATOM     73  C   UNL     1      15.549 -10.306   5.187  1.00  0.00     0.058 A 
ATOM     74  C   UNL     1      16.206 -11.416   4.638  1.00  0.00     0.135 A 
ATOM     75  C   UNL     1      15.960  -9.030   4.772  1.00  0.00     0.135 A 
ATOM     76  F   UNL     1      15.850 -12.656   5.008  1.00  0.00    -0.206 F 
ATOM     77  C   UNL     1      17.244 -11.271   3.724  1.00  0.00     0.059 A 
ATOM     78  C   UNL     1      16.981  -8.859   3.841  1.00  0.00     0.059 A 
ATOM     79  F   UNL     1      15.351  -7.937   5.254  1.00  0.00    -0.206 F 
ATOM     80  C   UNL     1      17.624  -9.986   3.330  1.00  0.00     0.060 A 
BRANCH  80  81
ATOM     81  S   UNL     1      18.938  -9.809   2.104  1.00  0.00     0.124 S 
ATOM     82  O   UNL     1      20.123 -10.108   2.899  1.00  0.00    -0.237 OA
ATOM     83  O   UNL     1      18.568 -10.809   1.108  1.00  0.00    -0.237 OA
ATOM     84  O   UNL     1      18.803  -8.422   1.668  1.00  0.00    -0.744 OA
ENDBRANCH  80  81
ENDBRANCH  48  73
BRANCH  60  85
ATOM     85  C   UNL     1      15.255 -12.535  11.786  1.00  0.00     0.058 A 
ATOM     86  C   UNL     1      16.198 -11.679  12.375  1.00  0.00     0.135 A 
ATOM     87  C   UNL     1      15.295 -13.896  12.130  1.00  0.00     0.135 A 
ATOM     88  F   UNL     1      16.204 -10.371  12.074  1.00  0.00    -0.206 F 
ATOM     89  C   UNL     1      17.164 -12.159  13.253  1.00  0.00     0.059 A 
ATOM     90  C   UNL     1      16.237 -14.393  13.025  1.00  0.00     0.059 A 
ATOM     91  F   UNL     1      14.408 -14.754  11.602  1.00  0.00    -0.206 F 
ATOM     92  C   UNL     1      17.177 -13.519  13.570  1.00  0.00     0.060 A 
BRANCH  92  93
ATOM     93  S   UNL     1      18.423 -14.129  14.725  1.00  0.00     0.124 S 
ATOM     94  O   UNL     1      19.613 -14.159  13.883  1.00  0.00    -0.237 OA
ATOM     95  O   UNL     1      18.410 -13.109  15.769  1.00  0.00    -0.237 OA
ATOM     96  O   UNL     1      17.903 -15.433  15.126  1.00  0.00    -0.744 OA
ENDBRANCH  92  93
ENDBRANCH  60  85
ENDBRANCH  34  35
ENDBRANCH  26  29
ENDBRANCH  24  25
ENDBRANCH   1  24
TORSDOF 17
