REMARK SMILES CO[C@@H]1C[C@H](C(=O)NCCCCNC(=O)c2ccc(-c3c4nc(c(-c5c(F)cc(S(=O)(=O)[O-])cc5F)c5ccc([nH]5)c(-c5c(F)cc(S(=O)(=O)[O-])cc5F)c5nc(c(-c6c(F)cc(S(=O)(=O)[O-])cc6F)c6ccc3[nH]6)C=C5)C=C4)cc2)N(C(=O)[C@H](CC(C)C)NC(N)=O)C1
REMARK SMILES IDX 10 1 9 2 8 3 6 4 7 5 5 7 3 8 4 9 94 10 82 11 2 12 1 13 83 14
REMARK SMILES IDX 84 15 85 16 90 17 91 18 92 20 93 21 86 24 87 25 88 26 89 27
REMARK SMILES IDX 11 28 12 29 13 30 14 31 15 33 16 34 17 35 81 36 18 37 80 38
REMARK SMILES IDX 19 39 20 40 21 41 74 42 22 43 79 44 73 45 75 46 23 47 78 48
REMARK SMILES IDX 72 49 71 50 24 52 58 53 37 54 57 55 38 56 41 57 56 58 76 59
REMARK SMILES IDX 39 60 40 61 55 63 77 64 42 65 25 66 26 67 35 68 27 69 28 70
REMARK SMILES IDX 34 71 36 72 29 73 30 74 31 75 32 76 33 77 59 78 60 79 69 80
REMARK SMILES IDX 61 81 62 82 68 83 70 84 63 85 64 86 65 87 66 88 67 89 43 90
REMARK SMILES IDX 44 91 53 92 45 93 46 94 52 95 54 96 47 97 48 98 49 99 50 100
REMARK SMILES IDX 51 101
REMARK H PARENT 8 6 90 19 92 22 92 23 13 32 75 51 41 62
REMARK Flexibility Score: inf
ROOT
ATOM      1  C   UNL     1      -5.192  -7.010   0.617  1.00  0.00     0.023 C 
ENDROOT
BRANCH   1   2
ATOM      2  C   UNL     1      -4.118  -6.200  -0.110  1.00  0.00     0.116 C 
BRANCH   2   3
ATOM      3  N   UNL     1      -3.221  -7.097  -0.810  1.00  0.00    -0.354 N 
ATOM      4  C   UNL     1      -3.191  -7.518  -2.100  1.00  0.00     0.242 C 
ATOM      5  O   UNL     1      -2.574  -8.572  -2.307  1.00  0.00    -0.273 OA
ATOM      6  H   UNL     1      -2.503  -7.469  -0.248  1.00  0.00     0.163 HD
BRANCH   4   7
ATOM      7  C   UNL     1      -3.921  -6.843  -3.290  1.00  0.00     0.177 C 
ATOM      8  C   UNL     1      -6.327  -6.498  -3.108  1.00  0.00     0.139 C 
ATOM      9  C   UNL     1      -5.272  -7.500  -3.573  1.00  0.00     0.069 C 
ATOM     10  C   UNL     1      -5.619  -5.138  -3.177  1.00  0.00     0.152 C 
ATOM     11  N   UNL     1      -4.189  -5.409  -3.288  1.00  0.00    -0.326 N 
BRANCH   8  12
ATOM     12  O   UNL     1      -6.763  -6.752  -1.778  1.00  0.00    -0.380 OA
ATOM     13  C   UNL     1      -7.660  -7.851  -1.663  1.00  0.00     0.195 C 
ENDBRANCH   8  12
BRANCH  11  14
ATOM     14  C   UNL     1      -3.344  -4.372  -3.638  1.00  0.00     0.246 C 
ATOM     15  O   UNL     1      -3.679  -3.196  -3.438  1.00  0.00    -0.272 OA
BRANCH  14  16
ATOM     16  C   UNL     1      -2.034  -4.668  -4.417  1.00  0.00     0.173 C 
BRANCH  16  17
ATOM     17  N   UNL     1      -1.993  -3.645  -5.472  1.00  0.00    -0.327 N 
ATOM     18  C   UNL     1      -1.765  -3.933  -6.777  1.00  0.00     0.312 C 
ATOM     19  H   UNL     1      -2.139  -2.705  -5.219  1.00  0.00     0.166 HD
ATOM     20  N   UNL     1      -1.687  -2.832  -7.557  1.00  0.00    -0.352 N 
ATOM     21  O   UNL     1      -1.621  -5.055  -7.240  1.00  0.00    -0.249 OA
ATOM     22  H   UNL     1      -1.806  -1.938  -7.161  1.00  0.00     0.161 HD
ATOM     23  H   UNL     1      -1.510  -2.923  -8.521  1.00  0.00     0.161 HD
ENDBRANCH  16  17
BRANCH  16  24
ATOM     24  C   UNL     1      -0.760  -4.536  -3.572  1.00  0.00     0.038 C 
BRANCH  24  25
ATOM     25  C   UNL     1      -0.319  -5.820  -2.850  1.00  0.00    -0.015 C 
ATOM     26  C   UNL     1       0.015  -6.963  -3.812  1.00  0.00     0.007 C 
ATOM     27  C   UNL     1       0.891  -5.543  -1.957  1.00  0.00     0.007 C 
ENDBRANCH  24  25
ENDBRANCH  16  24
ENDBRANCH  14  16
ENDBRANCH  11  14
ENDBRANCH   4   7
ENDBRANCH   2   3
ENDBRANCH   1   2
BRANCH   1  28
ATOM     28  C   UNL     1      -4.833  -7.431   2.038  1.00  0.00     0.023 C 
BRANCH  28  29
ATOM     29  C   UNL     1      -4.789  -6.286   3.041  1.00  0.00     0.116 C 
BRANCH  29  30
ATOM     30  N   UNL     1      -6.041  -5.543   3.142  1.00  0.00    -0.352 N 
ATOM     31  C   UNL     1      -6.657  -5.039   4.264  1.00  0.00     0.251 C 
ATOM     32  H   UNL     1      -6.508  -5.380   2.291  1.00  0.00     0.163 HD
ATOM     33  O   UNL     1      -7.756  -4.506   4.186  1.00  0.00    -0.269 OA
BRANCH  31  34
ATOM     34  C   UNL     1      -5.990  -5.196   5.573  1.00  0.00     0.039 A 
ATOM     35  C   UNL     1      -6.711  -5.737   6.639  1.00  0.00     0.014 A 
ATOM     36  C   UNL     1      -4.635  -4.889   5.714  1.00  0.00     0.014 A 
ATOM     37  C   UNL     1      -6.045  -6.059   7.823  1.00  0.00     0.010 A 
ATOM     38  C   UNL     1      -3.958  -5.294   6.856  1.00  0.00     0.010 A 
ATOM     39  C   UNL     1      -4.654  -5.887   7.920  1.00  0.00    -0.014 A 
BRANCH  39  40
ATOM     40  C   UNL     1      -3.899  -6.323   9.121  1.00  0.00     0.031 A 
ATOM     41  C   UNL     1      -3.134  -5.311   9.930  1.00  0.00     0.074 A 
ATOM     42  C   UNL     1      -3.825  -7.634   9.425  1.00  0.00     0.049 A 
ATOM     43  N   UNL     1      -2.321  -5.501  10.935  1.00  0.00    -0.248 NA
ATOM     44  C   UNL     1      -3.269  -3.902   9.524  1.00  0.00     0.031 C 
ATOM     45  C   UNL     1      -4.463  -8.719   8.674  1.00  0.00     0.029 A 
ATOM     46  N   UNL     1      -3.166  -8.281  10.441  1.00  0.00    -0.354 N 
ATOM     47  C   UNL     1      -1.825  -4.245  11.261  1.00  0.00     0.074 A 
ATOM     48  C   UNL     1      -2.385  -3.308  10.312  1.00  0.00     0.031 C 
ATOM     49  C   UNL     1      -4.186  -9.891   9.269  1.00  0.00     0.029 A 
ATOM     50  C   UNL     1      -3.325  -9.647  10.422  1.00  0.00     0.049 A 
ATOM     51  H   UNL     1      -2.630  -7.811  11.119  1.00  0.00     0.167 HD
ATOM     52  C   UNL     1      -0.998  -3.898  12.275  1.00  0.00     0.037 A 
ATOM     53  C   UNL     1      -2.832 -10.594  11.243  1.00  0.00     0.037 A 
ATOM     54  C   UNL     1      -0.488  -4.827  13.248  1.00  0.00     0.049 A 
ATOM     55  C   UNL     1      -1.966 -10.178  12.400  1.00  0.00     0.074 A 
ATOM     56  C   UNL     1       0.298  -4.569  14.357  1.00  0.00     0.029 A 
ATOM     57  N   UNL     1      -0.726  -6.193  13.233  1.00  0.00    -0.354 N 
ATOM     58  N   UNL     1      -1.553  -8.977  12.728  1.00  0.00    -0.248 NA
ATOM     59  C   UNL     1      -1.506 -11.242  13.302  1.00  0.00     0.031 C 
ATOM     60  C   UNL     1       0.552  -5.784  15.002  1.00  0.00     0.029 A 
ATOM     61  C   UNL     1      -0.101  -6.794  14.312  1.00  0.00     0.049 A 
ATOM     62  H   UNL     1      -1.261  -6.667  12.555  1.00  0.00     0.167 HD
ATOM     63  C   UNL     1      -0.803  -9.137  13.887  1.00  0.00     0.074 A 
ATOM     64  C   UNL     1      -0.829 -10.550  14.209  1.00  0.00     0.031 C 
ATOM     65  C   UNL     1      -0.151  -8.201  14.619  1.00  0.00     0.037 A 
BRANCH  52  66
ATOM     66  C   UNL     1      -0.615  -2.449  12.387  1.00  0.00     0.058 A 
ATOM     67  C   UNL     1      -1.543  -1.473  12.785  1.00  0.00     0.135 A 
ATOM     68  C   UNL     1       0.693  -2.029  12.097  1.00  0.00     0.135 A 
ATOM     69  F   UNL     1      -2.812  -1.819  13.057  1.00  0.00    -0.206 F 
ATOM     70  C   UNL     1      -1.200  -0.127  12.852  1.00  0.00     0.059 A 
ATOM     71  C   UNL     1       1.065  -0.691  12.183  1.00  0.00     0.059 A 
ATOM     72  F   UNL     1       1.620  -2.920  11.711  1.00  0.00    -0.206 F 
ATOM     73  C   UNL     1       0.106   0.255  12.543  1.00  0.00     0.060 A 
BRANCH  73  74
ATOM     74  S   UNL     1       0.534   2.007  12.620  1.00  0.00     0.124 S 
ATOM     75  O   UNL     1      -0.061   2.505  11.385  1.00  0.00    -0.237 OA
ATOM     76  O   UNL     1      -0.116   2.436  13.854  1.00  0.00    -0.237 OA
ATOM     77  O   UNL     1       1.993   1.997  12.656  1.00  0.00    -0.744 OA
ENDBRANCH  73  74
ENDBRANCH  52  66
BRANCH  53  78
ATOM     78  C   UNL     1      -3.181 -12.022  11.023  1.00  0.00     0.058 A 
ATOM     79  C   UNL     1      -4.084 -12.678  11.872  1.00  0.00     0.135 A 
ATOM     80  C   UNL     1      -2.638 -12.752   9.954  1.00  0.00     0.135 A 
ATOM     81  F   UNL     1      -4.625 -12.022  12.909  1.00  0.00    -0.206 F 
ATOM     82  C   UNL     1      -4.427 -14.012  11.681  1.00  0.00     0.059 A 
ATOM     83  C   UNL     1      -2.982 -14.082   9.730  1.00  0.00     0.059 A 
ATOM     84  F   UNL     1      -1.784 -12.163   9.103  1.00  0.00    -0.206 F 
ATOM     85  C   UNL     1      -3.870 -14.706  10.605  1.00  0.00     0.060 A 
BRANCH  85  86
ATOM     86  S   UNL     1      -4.363 -16.423  10.332  1.00  0.00     0.124 S 
ATOM     87  O   UNL     1      -3.601 -17.114  11.366  1.00  0.00    -0.237 OA
ATOM     88  O   UNL     1      -5.807 -16.366  10.534  1.00  0.00    -0.237 OA
ATOM     89  O   UNL     1      -3.940 -16.676   8.958  1.00  0.00    -0.744 OA
ENDBRANCH  85  86
ENDBRANCH  53  78
BRANCH  65  90
ATOM     90  C   UNL     1       0.562  -8.668  15.855  1.00  0.00     0.058 A 
ATOM     91  C   UNL     1       1.784  -9.353  15.783  1.00  0.00     0.135 A 
ATOM     92  C   UNL     1       0.042  -8.377  17.126  1.00  0.00     0.135 A 
ATOM     93  F   UNL     1       2.317  -9.659  14.589  1.00  0.00    -0.206 F 
ATOM     94  C   UNL     1       2.460  -9.750  16.931  1.00  0.00     0.059 A 
ATOM     95  C   UNL     1       0.712  -8.745  18.288  1.00  0.00     0.059 A 
ATOM     96  F   UNL     1      -1.120  -7.715  17.247  1.00  0.00    -0.206 F 
ATOM     97  C   UNL     1       1.916  -9.441  18.180  1.00  0.00     0.060 A 
BRANCH  97  98
ATOM     98  S   UNL     1       2.821  -9.926  19.665  1.00  0.00     0.124 S 
ATOM     99  O   UNL     1       2.517 -11.351  19.740  1.00  0.00    -0.237 OA
ATOM    100  O   UNL     1       4.198  -9.588  19.319  1.00  0.00    -0.237 OA
ATOM    101  O   UNL     1       2.224  -9.099  20.709  1.00  0.00    -0.744 OA
ENDBRANCH  97  98
ENDBRANCH  65  90
ENDBRANCH  39  40
ENDBRANCH  31  34
ENDBRANCH  29  30
ENDBRANCH  28  29
ENDBRANCH   1  28
TORSDOF 20
