REMARK SMILES COC(=O)C[C@H](NC(=O)N(C)C[C@@H]1CCC[N@H+]1C)C(=O)NCCCCNC(=O)c1ccc(-c2c3nc(c(-c4c(F)cc(S(=O)(=O)[O-])cc4F)c4ccc([nH]4)c(-c4c(F)cc(S(=O)(=O)[O-])cc4F)c4nc(c(-c5c(F)cc(S(=O)(=O)[O-])cc5F)c5ccc2[nH]5)C=C4)C=C3)cc1
REMARK SMILES IDX 23 1 22 2 21 3 19 4 20 5 6 7 5 8 3 9 4 10 2 11 1 12 7 13
REMARK SMILES IDX 8 14 9 16 10 17 11 18 12 19 13 20 14 21 17 22 15 23 16 24
REMARK SMILES IDX 18 25 24 27 25 28 26 29 27 30 28 32 29 33 30 34 94 35 31 36
REMARK SMILES IDX 93 37 32 38 33 39 34 40 87 41 35 42 92 43 86 44 88 45 36 46
REMARK SMILES IDX 91 47 85 48 84 49 37 51 71 52 50 53 70 54 51 55 54 56 69 57
REMARK SMILES IDX 89 58 52 59 53 60 68 62 90 63 55 64 38 65 39 66 48 67 40 68
REMARK SMILES IDX 41 69 47 70 49 71 42 72 43 73 44 74 45 75 46 76 72 77 73 78
REMARK SMILES IDX 82 79 74 80 75 81 81 82 83 83 76 84 77 85 78 86 79 87 80 88
REMARK SMILES IDX 56 89 57 90 66 91 58 92 59 93 65 94 67 95 60 96 61 97 62 98
REMARK SMILES IDX 63 99 64 100
REMARK H PARENT 21 6 7 15 17 26 26 31 88 50 54 61
REMARK Flexibility Score: inf
ROOT
ATOM      1  C   UNL     1       4.003   4.780  -6.571  1.00  0.00     0.023 C 
ENDROOT
BRANCH   1   2
ATOM      2  C   UNL     1       3.755   6.004  -5.698  1.00  0.00     0.116 C 
BRANCH   2   3
ATOM      3  N   UNL     1       2.522   6.699  -6.032  1.00  0.00    -0.354 N 
ATOM      4  C   UNL     1       1.412   6.937  -5.272  1.00  0.00     0.243 C 
ATOM      5  O   UNL     1       0.564   7.718  -5.713  1.00  0.00    -0.273 OA
ATOM      6  H   UNL     1       2.481   7.054  -6.949  1.00  0.00     0.163 HD
BRANCH   4   7
ATOM      7  C   UNL     1       1.278   6.377  -3.846  1.00  0.00     0.184 C 
BRANCH   7   8
ATOM      8  C   UNL     1       2.214   7.182  -2.937  1.00  0.00     0.157 C 
BRANCH   8   9
ATOM      9  C   UNL     1       2.520   6.468  -1.658  1.00  0.00     0.308 C 
ATOM     10  O   UNL     1       3.611   5.966  -1.413  1.00  0.00    -0.252 OA
BRANCH   9  11
ATOM     11  O   UNL     1       1.432   6.423  -0.848  1.00  0.00    -0.469 OA
ATOM     12  C   UNL     1       1.641   5.670   0.347  1.00  0.00     0.282 C 
ENDBRANCH   9  11
ENDBRANCH   8   9
ENDBRANCH   7   8
BRANCH   7  13
ATOM     13  N   UNL     1       1.521   4.933  -3.856  1.00  0.00    -0.326 N 
ATOM     14  C   UNL     1       0.904   3.873  -4.409  1.00  0.00     0.318 C 
ATOM     15  H   UNL     1       2.319   4.679  -3.339  1.00  0.00     0.166 HD
ATOM     16  O   UNL     1       1.544   2.819  -4.326  1.00  0.00    -0.249 OA
BRANCH  14  17
ATOM     17  N   UNL     1      -0.283   3.947  -5.082  1.00  0.00    -0.322 N 
ATOM     18  C   UNL     1      -1.278   5.007  -5.065  1.00  0.00     0.149 C 
BRANCH  17  19
ATOM     19  C   UNL     1      -0.596   2.813  -5.973  1.00  0.00     0.185 C 
BRANCH  19  20
ATOM     20  C   UNL     1       0.109   2.937  -7.343  1.00  0.00     0.203 C 
ATOM     21  C   UNL     1      -0.643   3.866  -8.302  1.00  0.00     0.073 C 
ATOM     22  N   UNL     1       0.177   1.688  -8.128  1.00  0.00    -0.333 N 
ATOM     23  C   UNL     1      -0.308   3.358  -9.700  1.00  0.00     0.068 C 
ATOM     24  C   UNL     1       0.552   2.126  -9.479  1.00  0.00     0.262 C 
ATOM     25  C   UNL     1       1.159   0.745  -7.597  1.00  0.00     0.333 C 
ATOM     26  H   UNL     1      -0.711   1.186  -8.102  1.00  0.00     0.348 HD
ENDBRANCH  19  20
ENDBRANCH  17  19
ENDBRANCH  14  17
ENDBRANCH   7  13
ENDBRANCH   4   7
ENDBRANCH   2   3
ENDBRANCH   1   2
BRANCH   1  27
ATOM     27  C   UNL     1       4.185   5.078  -8.058  1.00  0.00     0.023 C 
BRANCH  27  28
ATOM     28  C   UNL     1       5.248   6.121  -8.385  1.00  0.00     0.116 C 
BRANCH  28  29
ATOM     29  N   UNL     1       6.573   5.762  -7.899  1.00  0.00    -0.352 N 
ATOM     30  C   UNL     1       7.772   5.778  -8.574  1.00  0.00     0.251 C 
ATOM     31  H   UNL     1       6.617   5.468  -6.960  1.00  0.00     0.163 HD
ATOM     32  O   UNL     1       8.785   5.327  -8.051  1.00  0.00    -0.269 OA
BRANCH  30  33
ATOM     33  C   UNL     1       7.815   6.311  -9.951  1.00  0.00     0.039 A 
ATOM     34  C   UNL     1       8.399   5.540 -10.959  1.00  0.00     0.014 A 
ATOM     35  C   UNL     1       7.227   7.542 -10.252  1.00  0.00     0.014 A 
ATOM     36  C   UNL     1       8.317   5.967 -12.287  1.00  0.00     0.010 A 
ATOM     37  C   UNL     1       7.078   7.925 -11.580  1.00  0.00     0.010 A 
ATOM     38  C   UNL     1       7.615   7.139 -12.612  1.00  0.00    -0.014 A 
BRANCH  38  39
ATOM     39  C   UNL     1       7.412   7.561 -14.023  1.00  0.00     0.031 A 
ATOM     40  C   UNL     1       7.965   8.876 -14.499  1.00  0.00     0.074 A 
ATOM     41  C   UNL     1       6.645   6.814 -14.841  1.00  0.00     0.049 A 
ATOM     42  N   UNL     1       7.788   9.481 -15.645  1.00  0.00    -0.248 NA
ATOM     43  C   UNL     1       8.799   9.626 -13.546  1.00  0.00     0.031 C 
ATOM     44  C   UNL     1       6.008   5.545 -14.480  1.00  0.00     0.029 A 
ATOM     45  N   UNL     1       6.247   7.026 -16.138  1.00  0.00    -0.354 N 
ATOM     46  C   UNL     1       8.466  10.690 -15.542  1.00  0.00     0.074 A 
ATOM     47  C   UNL     1       9.015  10.754 -14.206  1.00  0.00     0.031 C 
ATOM     48  C   UNL     1       5.304   5.092 -15.529  1.00  0.00     0.029 A 
ATOM     49  C   UNL     1       5.399   6.056 -16.621  1.00  0.00     0.049 A 
ATOM     50  H   UNL     1       6.540   7.799 -16.672  1.00  0.00     0.167 HD
ATOM     51  C   UNL     1       8.629  11.650 -16.483  1.00  0.00     0.037 A 
ATOM     52  C   UNL     1       4.752   5.962 -17.800  1.00  0.00     0.037 A 
ATOM     53  C   UNL     1       8.098  11.565 -17.818  1.00  0.00     0.049 A 
ATOM     54  C   UNL     1       4.950   7.036 -18.834  1.00  0.00     0.074 A 
ATOM     55  C   UNL     1       8.272  12.448 -18.870  1.00  0.00     0.029 A 
ATOM     56  N   UNL     1       7.281  10.545 -18.284  1.00  0.00    -0.354 N 
ATOM     57  N   UNL     1       5.661   8.136 -18.751  1.00  0.00    -0.248 NA
ATOM     58  C   UNL     1       4.267   6.859 -20.123  1.00  0.00     0.031 C 
ATOM     59  C   UNL     1       7.515  11.991 -19.953  1.00  0.00     0.029 A 
ATOM     60  C   UNL     1       6.918  10.791 -19.598  1.00  0.00     0.049 A 
ATOM     61  H   UNL     1       7.000   9.761 -17.758  1.00  0.00     0.167 HD
ATOM     62  C   UNL     1       5.532   8.768 -19.983  1.00  0.00     0.074 A 
ATOM     63  C   UNL     1       4.680   7.926 -20.796  1.00  0.00     0.031 C 
ATOM     64  C   UNL     1       6.075   9.938 -20.401  1.00  0.00     0.037 A 
BRANCH  51  65
ATOM     65  C   UNL     1       9.404  12.881 -16.095  1.00  0.00     0.058 A 
ATOM     66  C   UNL     1      10.784  12.838 -15.834  1.00  0.00     0.135 A 
ATOM     67  C   UNL     1       8.760  14.125 -15.996  1.00  0.00     0.135 A 
ATOM     68  F   UNL     1      11.449  11.674 -15.902  1.00  0.00    -0.206 F 
ATOM     69  C   UNL     1      11.487  13.973 -15.444  1.00  0.00     0.059 A 
ATOM     70  C   UNL     1       9.450  15.280 -15.640  1.00  0.00     0.059 A 
ATOM     71  F   UNL     1       7.443  14.226 -16.237  1.00  0.00    -0.206 F 
ATOM     72  C   UNL     1      10.809  15.189 -15.345  1.00  0.00     0.060 A 
BRANCH  72  73
ATOM     73  S   UNL     1      11.731  16.648 -14.818  1.00  0.00     0.124 S 
ATOM     74  O   UNL     1      11.926  16.370 -13.398  1.00  0.00    -0.237 OA
ATOM     75  O   UNL     1      12.930  16.578 -15.647  1.00  0.00    -0.237 OA
ATOM     76  O   UNL     1      10.826  17.752 -15.122  1.00  0.00    -0.744 OA
ENDBRANCH  72  73
ENDBRANCH  51  65
BRANCH  52  77
ATOM     77  C   UNL     1       3.859   4.800 -18.057  1.00  0.00     0.058 A 
ATOM     78  C   UNL     1       4.221   3.793 -18.964  1.00  0.00     0.135 A 
ATOM     79  C   UNL     1       2.646   4.651 -17.366  1.00  0.00     0.135 A 
ATOM     80  F   UNL     1       5.367   3.893 -19.654  1.00  0.00    -0.206 F 
ATOM     81  C   UNL     1       3.412   2.682 -19.181  1.00  0.00     0.059 A 
ATOM     82  C   UNL     1       1.832   3.537 -17.547  1.00  0.00     0.059 A 
ATOM     83  F   UNL     1       2.261   5.578 -16.475  1.00  0.00    -0.206 F 
ATOM     84  C   UNL     1       2.222   2.559 -18.461  1.00  0.00     0.060 A 
BRANCH  84  85
ATOM     85  S   UNL     1       1.217   1.077 -18.696  1.00  0.00     0.124 S 
ATOM     86  O   UNL     1       0.666   1.303 -20.027  1.00  0.00    -0.237 OA
ATOM     87  O   UNL     1       2.211   0.014 -18.587  1.00  0.00    -0.237 OA
ATOM     88  O   UNL     1       0.259   1.144 -17.596  1.00  0.00    -0.744 OA
ENDBRANCH  84  85
ENDBRANCH  52  77
BRANCH  64  89
ATOM     89  C   UNL     1       5.801  10.374 -21.814  1.00  0.00     0.058 A 
ATOM     90  C   UNL     1       4.553  10.883 -22.203  1.00  0.00     0.135 A 
ATOM     91  C   UNL     1       6.835  10.372 -22.766  1.00  0.00     0.135 A 
ATOM     92  F   UNL     1       3.529  10.899 -21.335  1.00  0.00    -0.206 F 
ATOM     93  C   UNL     1       4.337  11.370 -23.489  1.00  0.00     0.059 A 
ATOM     94  C   UNL     1       6.649  10.880 -24.048  1.00  0.00     0.059 A 
ATOM     95  F   UNL     1       8.050   9.903 -22.443  1.00  0.00    -0.206 F 
ATOM     96  C   UNL     1       5.394  11.374 -24.401  1.00  0.00     0.060 A 
BRANCH  96  97
ATOM     97  S   UNL     1       5.119  12.076 -26.041  1.00  0.00     0.124 S 
ATOM     98  O   UNL     1       4.279  11.057 -26.662  1.00  0.00    -0.237 OA
ATOM     99  O   UNL     1       4.458  13.341 -25.732  1.00  0.00    -0.237 OA
ATOM    100  O   UNL     1       6.466  12.198 -26.590  1.00  0.00    -0.744 OA
ENDBRANCH  96  97
ENDBRANCH  64  89
ENDBRANCH  38  39
ENDBRANCH  30  33
ENDBRANCH  28  29
ENDBRANCH  27  28
ENDBRANCH   1  27
TORSDOF 21
