REMARK SMILES Cc1oc2c(c1C(=O)NCCCCNC(=O)c1ccc(-c3c4nc(c(-c5c(F)cc(S(=O)(=O)[O-])cc5F)c5ccc([nH]5)c(-c5c(F)cc(S(=O)(=O)[O-])cc5F)c5nc(c(-c6c(F)cc(S(=O)(=O)[O-])cc6F)c6ccc3[nH]6)C=C5)C=C4)cc1)C(=O)C[C@H](c1ccco1)C2
REMARK SMILES IDX 12 1 11 2 10 3 9 4 7 5 8 6 6 8 1 9 2 10 3 11 4 12 5 13 92 14
REMARK SMILES IDX 83 15 86 16 84 17 85 18 87 19 88 20 91 21 89 22 90 23 13 24
REMARK SMILES IDX 14 25 15 26 16 28 17 29 18 30 82 31 19 32 81 33 20 34 21 35
REMARK SMILES IDX 22 36 75 37 23 38 80 39 74 40 76 41 24 42 79 43 73 44 72 45
REMARK SMILES IDX 25 47 59 48 38 49 58 50 39 51 42 52 57 53 77 54 40 55 41 56
REMARK SMILES IDX 56 58 78 59 43 60 26 61 27 62 36 63 28 64 29 65 35 66 37 67
REMARK SMILES IDX 30 68 31 69 32 70 33 71 34 72 60 73 61 74 70 75 62 76 63 77
REMARK SMILES IDX 69 78 71 79 64 80 65 81 66 82 67 83 68 84 44 85 45 86 54 87
REMARK SMILES IDX 46 88 47 89 53 90 55 91 48 92 49 93 50 94 51 95 52 96
REMARK H PARENT 9 7 14 27 76 46 42 57
REMARK Flexibility Score: inf
ROOT
ATOM      1  C   UNL     1       2.079   4.709  -0.056  1.00  0.00     0.023 C 
ENDROOT
BRANCH   1   2
ATOM      2  C   UNL     1       1.965   3.183  -0.185  1.00  0.00     0.023 C 
BRANCH   2   3
ATOM      3  C   UNL     1       0.545   2.651  -0.366  1.00  0.00     0.116 C 
BRANCH   3   4
ATOM      4  N   UNL     1       0.104   2.627  -1.736  1.00  0.00    -0.352 N 
ATOM      5  C   UNL     1      -0.248   1.658  -2.639  1.00  0.00     0.255 C 
ATOM      6  O   UNL     1      -0.781   2.131  -3.646  1.00  0.00    -0.269 OA
ATOM      7  H   UNL     1       0.039   3.531  -2.119  1.00  0.00     0.163 HD
BRANCH   5   8
ATOM      8  C   UNL     1      -0.046   0.204  -2.521  1.00  0.00     0.092 A 
ATOM      9  C   UNL     1       0.705  -0.576  -0.038  1.00  0.00     0.088 C 
ATOM     10  C   UNL     1       0.337  -0.645  -1.469  1.00  0.00     0.114 A 
ATOM     11  O   UNL     1       0.348  -1.948  -1.873  1.00  0.00    -0.465 OA
ATOM     12  C   UNL     1      -0.041  -1.979  -3.146  1.00  0.00     0.116 A 
ATOM     13  C   UNL     1      -0.293  -0.720  -3.628  1.00  0.00     0.072 A 
ATOM     14  C   UNL     1      -0.155  -3.289  -3.813  1.00  0.00     0.088 C 
ATOM     15  C   UNL     1      -0.701  -0.609  -5.029  1.00  0.00     0.167 C 
ATOM     16  C   UNL     1      -0.209  -3.070  -5.339  1.00  0.00     0.071 C 
ATOM     17  O   UNL     1      -0.633   0.420  -5.694  1.00  0.00    -0.294 OA
ATOM     18  C   UNL     1      -1.174  -1.916  -5.684  1.00  0.00     0.093 C 
BRANCH  16  19
ATOM     19  C   UNL     1      -0.548  -4.334  -6.066  1.00  0.00     0.107 A 
ATOM     20  C   UNL     1      -0.572  -4.682  -7.402  1.00  0.00     0.046 A 
ATOM     21  O   UNL     1      -0.860  -5.425  -5.306  1.00  0.00    -0.469 OA
ATOM     22  C   UNL     1      -0.921  -6.054  -7.454  1.00  0.00     0.042 A 
ATOM     23  C   UNL     1      -1.086  -6.459  -6.152  1.00  0.00     0.195 A 
ENDBRANCH  16  19
ENDBRANCH   5   8
ENDBRANCH   3   4
ENDBRANCH   2   3
ENDBRANCH   1   2
BRANCH   1  24
ATOM     24  C   UNL     1       1.296   5.321   1.105  1.00  0.00     0.116 C 
BRANCH  24  25
ATOM     25  N   UNL     1       1.711   4.812   2.409  1.00  0.00    -0.352 N 
ATOM     26  C   UNL     1       1.140   5.083   3.641  1.00  0.00     0.251 C 
ATOM     27  H   UNL     1       2.487   4.206   2.413  1.00  0.00     0.163 HD
ATOM     28  O   UNL     1       1.779   4.936   4.670  1.00  0.00    -0.269 OA
BRANCH  26  29
ATOM     29  C   UNL     1      -0.259   5.551   3.684  1.00  0.00     0.039 A 
ATOM     30  C   UNL     1      -0.629   6.632   4.490  1.00  0.00     0.014 A 
ATOM     31  C   UNL     1      -1.197   4.905   2.880  1.00  0.00     0.014 A 
ATOM     32  C   UNL     1      -1.931   7.122   4.404  1.00  0.00     0.010 A 
ATOM     33  C   UNL     1      -2.453   5.448   2.724  1.00  0.00     0.010 A 
ATOM     34  C   UNL     1      -2.832   6.544   3.497  1.00  0.00    -0.014 A 
BRANCH  34  35
ATOM     35  C   UNL     1      -4.124   7.176   3.234  1.00  0.00     0.031 A 
ATOM     36  C   UNL     1      -4.046   8.587   2.755  1.00  0.00     0.074 A 
ATOM     37  C   UNL     1      -5.283   6.485   3.184  1.00  0.00     0.049 A 
ATOM     38  N   UNL     1      -4.480   9.647   3.352  1.00  0.00    -0.248 NA
ATOM     39  C   UNL     1      -3.280   8.876   1.531  1.00  0.00     0.031 C 
ATOM     40  C   UNL     1      -5.475   5.039   3.334  1.00  0.00     0.029 A 
ATOM     41  N   UNL     1      -6.533   6.917   2.858  1.00  0.00    -0.354 N 
ATOM     42  C   UNL     1      -4.242  10.712   2.485  1.00  0.00     0.074 A 
ATOM     43  C   UNL     1      -3.343  10.209   1.480  1.00  0.00     0.031 C 
ATOM     44  C   UNL     1      -6.694   4.696   2.865  1.00  0.00     0.029 A 
ATOM     45  C   UNL     1      -7.424   5.902   2.518  1.00  0.00     0.049 A 
ATOM     46  H   UNL     1      -6.785   7.869   2.863  1.00  0.00     0.167 HD
ATOM     47  C   UNL     1      -4.981  11.857   2.546  1.00  0.00     0.037 A 
ATOM     48  C   UNL     1      -8.652   6.043   1.955  1.00  0.00     0.037 A 
ATOM     49  C   UNL     1      -5.755  11.903   3.762  1.00  0.00     0.049 A 
ATOM     50  C   UNL     1      -9.090   7.440   2.224  1.00  0.00     0.074 A 
ATOM     51  C   UNL     1      -5.447  11.873   5.109  1.00  0.00     0.029 A 
ATOM     52  N   UNL     1      -7.094  11.604   3.674  1.00  0.00    -0.354 N 
ATOM     53  N   UNL     1      -9.382   7.889   3.414  1.00  0.00    -0.248 NA
ATOM     54  C   UNL     1      -8.764   8.461   1.239  1.00  0.00     0.031 C 
ATOM     55  C   UNL     1      -6.472  11.081   5.700  1.00  0.00     0.029 A 
ATOM     56  C   UNL     1      -7.388  10.746   4.701  1.00  0.00     0.049 A 
ATOM     57  H   UNL     1      -7.724  11.944   2.999  1.00  0.00     0.167 HD
ATOM     58  C   UNL     1      -8.839   9.165   3.450  1.00  0.00     0.074 A 
ATOM     59  C   UNL     1      -8.566   9.502   2.054  1.00  0.00     0.031 C 
ATOM     60  C   UNL     1      -8.389   9.707   4.621  1.00  0.00     0.037 A 
BRANCH  47  61
ATOM     61  C   UNL     1      -5.296  12.771   1.381  1.00  0.00     0.058 A 
ATOM     62  C   UNL     1      -5.960  13.994   1.628  1.00  0.00     0.135 A 
ATOM     63  C   UNL     1      -5.236  12.379   0.027  1.00  0.00     0.135 A 
ATOM     64  F   UNL     1      -6.076  14.471   2.878  1.00  0.00    -0.206 F 
ATOM     65  C   UNL     1      -6.594  14.722   0.621  1.00  0.00     0.059 A 
ATOM     66  C   UNL     1      -5.813  13.119  -1.001  1.00  0.00     0.059 A 
ATOM     67  F   UNL     1      -4.702  11.214  -0.357  1.00  0.00    -0.206 F 
ATOM     68  C   UNL     1      -6.529  14.264  -0.691  1.00  0.00     0.060 A 
BRANCH  68  69
ATOM     69  S   UNL     1      -7.430  15.144  -1.978  1.00  0.00     0.124 S 
ATOM     70  O   UNL     1      -8.812  14.843  -1.621  1.00  0.00    -0.237 OA
ATOM     71  O   UNL     1      -6.999  16.521  -1.762  1.00  0.00    -0.237 OA
ATOM     72  O   UNL     1      -6.945  14.526  -3.208  1.00  0.00    -0.744 OA
ENDBRANCH  68  69
ENDBRANCH  47  61
BRANCH  48  73
ATOM     73  C   UNL     1      -9.351   5.156   0.982  1.00  0.00     0.058 A 
ATOM     74  C   UNL     1     -10.689   5.396   0.613  1.00  0.00     0.135 A 
ATOM     75  C   UNL     1      -8.650   4.232   0.179  1.00  0.00     0.135 A 
ATOM     76  F   UNL     1     -11.438   6.262   1.312  1.00  0.00    -0.206 F 
ATOM     77  C   UNL     1     -11.269   4.820  -0.525  1.00  0.00     0.059 A 
ATOM     78  C   UNL     1      -9.212   3.634  -0.949  1.00  0.00     0.059 A 
ATOM     79  F   UNL     1      -7.359   3.951   0.404  1.00  0.00    -0.206 F 
ATOM     80  C   UNL     1     -10.511   3.961  -1.317  1.00  0.00     0.060 A 
BRANCH  80  81
ATOM     81  S   UNL     1     -11.168   3.398  -2.906  1.00  0.00     0.124 S 
ATOM     82  O   UNL     1     -12.193   2.447  -2.490  1.00  0.00    -0.237 OA
ATOM     83  O   UNL     1     -11.653   4.640  -3.497  1.00  0.00    -0.237 OA
ATOM     84  O   UNL     1     -10.003   2.813  -3.565  1.00  0.00    -0.744 OA
ENDBRANCH  80  81
ENDBRANCH  48  73
BRANCH  60  85
ATOM     85  C   UNL     1      -8.771   9.042   5.918  1.00  0.00     0.058 A 
ATOM     86  C   UNL     1      -8.415   7.732   6.284  1.00  0.00     0.135 A 
ATOM     87  C   UNL     1      -9.389   9.833   6.900  1.00  0.00     0.135 A 
ATOM     88  F   UNL     1      -7.724   6.943   5.450  1.00  0.00    -0.206 F 
ATOM     89  C   UNL     1      -8.703   7.217   7.549  1.00  0.00     0.059 A 
ATOM     90  C   UNL     1      -9.653   9.353   8.179  1.00  0.00     0.059 A 
ATOM     91  F   UNL     1      -9.697  11.114   6.637  1.00  0.00    -0.206 F 
ATOM     92  C   UNL     1      -9.322   8.037   8.492  1.00  0.00     0.060 A 
BRANCH  92  93
ATOM     93  S   UNL     1      -9.630   7.395  10.150  1.00  0.00     0.124 S 
ATOM     94  O   UNL     1     -10.735   6.471   9.919  1.00  0.00    -0.237 OA
ATOM     95  O   UNL     1      -8.352   6.782  10.498  1.00  0.00    -0.237 OA
ATOM     96  O   UNL     1      -9.967   8.590  10.921  1.00  0.00    -0.744 OA
ENDBRANCH  92  93
ENDBRANCH  60  85
ENDBRANCH  34  35
ENDBRANCH  26  29
ENDBRANCH  24  25
ENDBRANCH   1  24
TORSDOF 15
