REMARK SMILES Cc1nc(CC(=O)N2C[C@@H](C(=O)NCCCCNC(=O)c3ccc(-c4c5nc(c(-c6c(F)cc(S(=O)(=O)[O-])cc6F)c6ccc([nH]6)c(-c6c(F)cc(S(=O)(=O)[O-])cc6F)c6nc(c(-c7c(F)cc(S(=O)(=O)[O-])cc7F)c7ccc4[nH]7)C=C6)C=C5)cc3)[C@H](c3ccc4c(c3)OCO4)C2)cs1
REMARK SMILES IDX 15 1 14 2 13 3 11 4 12 5 10 7 8 8 9 9 97 10 87 11 6 12 7 13
REMARK SMILES IDX 5 14 4 15 1 16 2 17 3 18 99 19 98 20 88 21 89 22 93 23 90 24
REMARK SMILES IDX 92 25 91 26 94 27 96 28 95 29 16 30 17 31 18 32 19 33 20 35
REMARK SMILES IDX 21 36 22 37 86 38 23 39 85 40 24 41 25 42 26 43 79 44 27 45
REMARK SMILES IDX 84 46 78 47 80 48 28 49 83 50 77 51 76 52 29 54 63 55 42 56
REMARK SMILES IDX 62 57 43 58 46 59 61 60 81 61 44 62 45 63 60 65 82 66 47 67
REMARK SMILES IDX 30 68 31 69 40 70 32 71 33 72 39 73 41 74 34 75 35 76 36 77
REMARK SMILES IDX 37 78 38 79 64 80 65 81 74 82 66 83 67 84 73 85 75 86 68 87
REMARK SMILES IDX 69 88 70 89 71 90 72 91 48 92 49 93 58 94 50 95 51 96 57 97
REMARK SMILES IDX 59 98 52 99 53 100 54 101 55 102 56 103
REMARK H PARENT 13 6 18 34 80 53 46 64
REMARK Flexibility Score: inf
ROOT
ATOM      1  C   UNL     1      -3.405  -4.122  -4.166  1.00  0.00     0.023 C 
ENDROOT
BRANCH   1   2
ATOM      2  C   UNL     1      -2.040  -4.002  -4.830  1.00  0.00     0.116 C 
BRANCH   2   3
ATOM      3  N   UNL     1      -1.660  -2.619  -5.074  1.00  0.00    -0.356 N 
ATOM      4  C   UNL     1      -0.501  -1.968  -4.767  1.00  0.00     0.225 C 
ATOM      5  O   UNL     1      -0.349  -0.812  -5.164  1.00  0.00    -0.275 OA
ATOM      6  H   UNL     1      -2.341  -2.072  -5.528  1.00  0.00     0.163 HD
BRANCH   4   7
ATOM      7  C   UNL     1       0.564  -2.682  -3.970  1.00  0.00     0.107 C 
ATOM      8  N   UNL     1       2.339  -2.437  -2.511  1.00  0.00    -0.341 N 
ATOM      9  C   UNL     1       1.101  -1.784  -2.886  1.00  0.00     0.133 C 
ATOM     10  C   UNL     1       2.918  -3.114  -3.676  1.00  0.00     0.128 C 
ATOM     11  C   UNL     1       1.829  -3.046  -4.776  1.00  0.00     0.053 C 
BRANCH   8  12
ATOM     12  C   UNL     1       2.931  -2.493  -1.269  1.00  0.00     0.228 C 
ATOM     13  O   UNL     1       4.106  -2.862  -1.157  1.00  0.00    -0.274 OA
BRANCH  12  14
ATOM     14  C   UNL     1       2.087  -2.316  -0.010  1.00  0.00     0.157 C 
BRANCH  14  15
ATOM     15  C   UNL     1       1.252  -1.087   0.095  1.00  0.00     0.061 A 
ATOM     16  C   UNL     1      -2.215   0.085   0.125  1.00  0.00     0.079 C 
ATOM     17  C   UNL     1      -0.736  -0.087   0.172  1.00  0.00     0.090 A 
ATOM     18  N   UNL     1      -0.129  -1.253   0.185  1.00  0.00    -0.246 NA
ATOM     19  S   UNL     1       0.307   1.277   0.173  1.00  0.00    -0.127 S 
ATOM     20  C   UNL     1       1.667   0.230   0.120  1.00  0.00     0.091 A 
ENDBRANCH  14  15
ENDBRANCH  12  14
ENDBRANCH   8  12
BRANCH  11  21
ATOM     21  C   UNL     1       1.512  -4.273  -5.616  1.00  0.00    -0.038 A 
ATOM     22  C   UNL     1       1.603  -5.592  -5.112  1.00  0.00     0.008 A 
ATOM     23  C   UNL     1       0.856  -4.057  -6.847  1.00  0.00     0.054 A 
ATOM     24  C   UNL     1       0.982  -6.661  -5.773  1.00  0.00     0.051 A 
ATOM     25  C   UNL     1       0.203  -5.117  -7.438  1.00  0.00     0.166 A 
ATOM     26  C   UNL     1       0.250  -6.381  -6.905  1.00  0.00     0.165 A 
ATOM     27  O   UNL     1      -0.652  -5.030  -8.493  1.00  0.00    -0.454 OA
ATOM     28  O   UNL     1      -0.562  -7.248  -7.568  1.00  0.00    -0.454 OA
ATOM     29  C   UNL     1      -1.266  -6.335  -8.437  1.00  0.00     0.468 C 
ENDBRANCH  11  21
ENDBRANCH   4   7
ENDBRANCH   2   3
ENDBRANCH   1   2
BRANCH   1  30
ATOM     30  C   UNL     1      -4.576  -3.649  -5.029  1.00  0.00     0.023 C 
BRANCH  30  31
ATOM     31  C   UNL     1      -4.661  -4.274  -6.418  1.00  0.00     0.116 C 
BRANCH  31  32
ATOM     32  N   UNL     1      -4.763  -5.725  -6.386  1.00  0.00    -0.352 N 
ATOM     33  C   UNL     1      -5.618  -6.545  -7.080  1.00  0.00     0.251 C 
ATOM     34  H   UNL     1      -4.132  -6.181  -5.783  1.00  0.00     0.163 HD
ATOM     35  O   UNL     1      -5.647  -7.748  -6.828  1.00  0.00    -0.269 OA
BRANCH  33  36
ATOM     36  C   UNL     1      -6.514  -5.979  -8.112  1.00  0.00     0.039 A 
ATOM     37  C   UNL     1      -7.853  -6.377  -8.137  1.00  0.00     0.014 A 
ATOM     38  C   UNL     1      -6.038  -5.063  -9.054  1.00  0.00     0.014 A 
ATOM     39  C   UNL     1      -8.725  -5.818  -9.075  1.00  0.00     0.010 A 
ATOM     40  C   UNL     1      -6.925  -4.451  -9.937  1.00  0.00     0.010 A 
ATOM     41  C   UNL     1      -8.275  -4.831  -9.967  1.00  0.00    -0.014 A 
BRANCH  41  42
ATOM     42  C   UNL     1      -9.191  -4.218 -10.967  1.00  0.00     0.031 A 
ATOM     43  C   UNL     1      -8.927  -4.411 -12.439  1.00  0.00     0.074 A 
ATOM     44  C   UNL     1     -10.230  -3.462 -10.560  1.00  0.00     0.049 A 
ATOM     45  N   UNL     1      -9.557  -3.900 -13.466  1.00  0.00    -0.248 NA
ATOM     46  C   UNL     1      -7.790  -5.273 -12.805  1.00  0.00     0.031 C 
ATOM     47  C   UNL     1     -10.574  -3.170  -9.166  1.00  0.00     0.029 A 
ATOM     48  N   UNL     1     -11.188  -2.792 -11.281  1.00  0.00    -0.354 N 
ATOM     49  C   UNL     1      -8.898  -4.379 -14.592  1.00  0.00     0.074 A 
ATOM     50  C   UNL     1      -7.775  -5.162 -14.125  1.00  0.00     0.031 C 
ATOM     51  C   UNL     1     -11.675  -2.400  -9.134  1.00  0.00     0.029 A 
ATOM     52  C   UNL     1     -12.094  -2.109 -10.502  1.00  0.00     0.049 A 
ATOM     53  H   UNL     1     -11.224  -2.800 -12.265  1.00  0.00     0.167 HD
ATOM     54  C   UNL     1      -9.217  -4.215 -15.898  1.00  0.00     0.037 A 
ATOM     55  C   UNL     1     -13.137  -1.331 -10.851  1.00  0.00     0.037 A 
ATOM     56  C   UNL     1     -10.347  -3.452 -16.362  1.00  0.00     0.049 A 
ATOM     57  C   UNL     1     -13.451  -1.140 -12.314  1.00  0.00     0.074 A 
ATOM     58  C   UNL     1     -10.760  -3.232 -17.665  1.00  0.00     0.029 A 
ATOM     59  N   UNL     1     -11.252  -2.798 -15.541  1.00  0.00    -0.354 N 
ATOM     60  N   UNL     1     -12.833  -1.629 -13.364  1.00  0.00    -0.248 NA
ATOM     61  C   UNL     1     -14.615  -0.304 -12.641  1.00  0.00     0.031 C 
ATOM     62  C   UNL     1     -11.895  -2.417 -17.633  1.00  0.00     0.029 A 
ATOM     63  C   UNL     1     -12.222  -2.175 -16.309  1.00  0.00     0.049 A 
ATOM     64  H   UNL     1     -11.211  -2.778 -14.557  1.00  0.00     0.167 HD
ATOM     65  C   UNL     1     -13.565  -1.203 -14.468  1.00  0.00     0.074 A 
ATOM     66  C   UNL     1     -14.674  -0.424 -13.959  1.00  0.00     0.031 C 
ATOM     67  C   UNL     1     -13.342  -1.437 -15.785  1.00  0.00     0.037 A 
BRANCH  54  68
ATOM     68  C   UNL     1      -8.353  -4.897 -16.924  1.00  0.00     0.058 A 
ATOM     69  C   UNL     1      -8.369  -6.293 -17.076  1.00  0.00     0.135 A 
ATOM     70  C   UNL     1      -7.556  -4.152 -17.807  1.00  0.00     0.135 A 
ATOM     71  F   UNL     1      -9.096  -7.057 -16.245  1.00  0.00    -0.206 F 
ATOM     72  C   UNL     1      -7.617  -6.927 -18.059  1.00  0.00     0.059 A 
ATOM     73  C   UNL     1      -6.819  -4.762 -18.818  1.00  0.00     0.059 A 
ATOM     74  F   UNL     1      -7.501  -2.815 -17.704  1.00  0.00    -0.206 F 
ATOM     75  C   UNL     1      -6.851  -6.152 -18.932  1.00  0.00     0.060 A 
BRANCH  75  76
ATOM     76  S   UNL     1      -5.917  -6.991 -20.228  1.00  0.00     0.124 S 
ATOM     77  O   UNL     1      -4.875  -7.656 -19.453  1.00  0.00    -0.237 OA
ATOM     78  O   UNL     1      -6.925  -7.866 -20.819  1.00  0.00    -0.237 OA
ATOM     79  O   UNL     1      -5.462  -5.898 -21.082  1.00  0.00    -0.744 OA
ENDBRANCH  75  76
ENDBRANCH  54  68
BRANCH  55  80
ATOM     80  C   UNL     1     -13.979  -0.672  -9.812  1.00  0.00     0.058 A 
ATOM     81  C   UNL     1     -15.329  -1.022  -9.645  1.00  0.00     0.135 A 
ATOM     82  C   UNL     1     -13.471   0.360  -9.009  1.00  0.00     0.135 A 
ATOM     83  F   UNL     1     -15.865  -2.002 -10.388  1.00  0.00    -0.206 F 
ATOM     84  C   UNL     1     -16.157  -0.336  -8.762  1.00  0.00     0.059 A 
ATOM     85  C   UNL     1     -14.271   1.038  -8.094  1.00  0.00     0.059 A 
ATOM     86  F   UNL     1     -12.182   0.721  -9.110  1.00  0.00    -0.206 F 
ATOM     87  C   UNL     1     -15.620   0.700  -7.997  1.00  0.00     0.060 A 
BRANCH  87  88
ATOM     88  S   UNL     1     -16.706   1.599  -6.869  1.00  0.00     0.124 S 
ATOM     89  O   UNL     1     -17.495   2.398  -7.799  1.00  0.00    -0.237 OA
ATOM     90  O   UNL     1     -17.415   0.516  -6.196  1.00  0.00    -0.237 OA
ATOM     91  O   UNL     1     -15.773   2.345  -6.030  1.00  0.00    -0.744 OA
ENDBRANCH  87  88
ENDBRANCH  55  80
BRANCH  67  92
ATOM     92  C   UNL     1     -14.362  -0.922 -16.766  1.00  0.00     0.058 A 
ATOM     93  C   UNL     1     -14.519   0.446 -17.035  1.00  0.00     0.135 A 
ATOM     94  C   UNL     1     -15.175  -1.826 -17.471  1.00  0.00     0.135 A 
ATOM     95  F   UNL     1     -13.769   1.353 -16.389  1.00  0.00    -0.206 F 
ATOM     96  C   UNL     1     -15.474   0.903 -17.938  1.00  0.00     0.059 A 
ATOM     97  C   UNL     1     -16.112  -1.393 -18.404  1.00  0.00     0.059 A 
ATOM     98  F   UNL     1     -15.057  -3.147 -17.264  1.00  0.00    -0.206 F 
ATOM     99  C   UNL     1     -16.267  -0.025 -18.617  1.00  0.00     0.060 A 
BRANCH  99 100
ATOM    100  S   UNL     1     -17.494   0.581 -19.794  1.00  0.00     0.124 S 
ATOM    101  O   UNL     1     -18.512   1.127 -18.902  1.00  0.00    -0.237 OA
ATOM    102  O   UNL     1     -16.732   1.561 -20.562  1.00  0.00    -0.237 OA
ATOM    103  O   UNL     1     -17.881  -0.619 -20.529  1.00  0.00    -0.744 OA
ENDBRANCH  99 100
ENDBRANCH  67  92
ENDBRANCH  41  42
ENDBRANCH  33  36
ENDBRANCH  31  32
ENDBRANCH  30  31
ENDBRANCH   1  30
TORSDOF 18
