REMARK SMILES CC(=O)Nc1cccc(-c2ccc(F)c(C(=O)NCCCCNC(=O)c3ccc(-c4c5nc(c(-c6c(F)cc(S(=O)(=O)[O-])cc6F)c6ccc([nH]6)c(-c6c(F)cc(S(=O)(=O)[O-])cc6F)c6nc(c(-c7c(F)cc(S(=O)(=O)[O-])cc7F)c7ccc4[nH]7)C=C6)C=C5)cc3)c2)c1
REMARK SMILES IDX 21 1 20 2 19 3 18 4 16 5 17 6 15 8 10 9 11 10 92 11 12 12
REMARK SMILES IDX 13 13 14 14 9 15 5 16 6 17 93 18 7 19 8 20 4 21 1 22 2 23
REMARK SMILES IDX 3 24 22 26 23 27 24 28 25 30 26 31 27 32 91 33 28 34 90 35
REMARK SMILES IDX 29 36 30 37 31 38 84 39 32 40 89 41 83 42 85 43 33 44 88 45
REMARK SMILES IDX 82 46 81 47 34 49 68 50 47 51 67 52 48 53 51 54 66 55 86 56
REMARK SMILES IDX 49 57 50 58 65 60 87 61 52 62 35 63 36 64 45 65 37 66 38 67
REMARK SMILES IDX 44 68 46 69 39 70 40 71 41 72 42 73 43 74 69 75 70 76 79 77
REMARK SMILES IDX 71 78 72 79 78 80 80 81 73 82 74 83 75 84 76 85 77 86 53 87
REMARK SMILES IDX 54 88 63 89 55 90 56 91 62 92 64 93 57 94 58 95 59 96 60 97
REMARK SMILES IDX 61 98
REMARK H PARENT 18 7 4 25 23 29 85 48 51 59
REMARK Flexibility Score: inf
ROOT
ATOM      1  C   UNL     1       7.684   4.326   2.401  1.00  0.00     0.023 C 
ENDROOT
BRANCH   1   2
ATOM      2  C   UNL     1       6.988   3.099   2.974  1.00  0.00     0.023 C 
BRANCH   2   3
ATOM      3  C   UNL     1       6.479   2.068   1.975  1.00  0.00     0.116 C 
BRANCH   3   4
ATOM      4  N   UNL     1       7.501   1.452   1.140  1.00  0.00    -0.352 N 
ATOM      5  C   UNL     1       7.691   0.139   0.748  1.00  0.00     0.254 C 
ATOM      6  O   UNL     1       8.605  -0.118  -0.030  1.00  0.00    -0.269 OA
ATOM      7  H   UNL     1       8.175   2.080   0.793  1.00  0.00     0.163 HD
BRANCH   5   8
ATOM      8  C   UNL     1       6.834  -0.958   1.262  1.00  0.00     0.076 A 
ATOM      9  C   UNL     1       4.713  -1.681   2.240  1.00  0.00    -0.017 A 
ATOM     10  C   UNL     1       5.303  -2.910   2.565  1.00  0.00     0.012 A 
ATOM     11  C   UNL     1       5.468  -0.770   1.480  1.00  0.00     0.025 A 
ATOM     12  C   UNL     1       6.630  -3.176   2.211  1.00  0.00     0.041 A 
ATOM     13  C   UNL     1       7.398  -2.187   1.596  1.00  0.00     0.135 A 
ATOM     14  F   UNL     1       8.697  -2.444   1.385  1.00  0.00    -0.206 F 
BRANCH   9  15
ATOM     15  C   UNL     1       3.431  -1.231   2.822  1.00  0.00    -0.016 A 
ATOM     16  C   UNL     1       1.416   0.154   2.664  1.00  0.00     0.041 A 
ATOM     17  C   UNL     1       1.256   0.056   4.050  1.00  0.00     0.026 A 
ATOM     18  C   UNL     1       2.500  -0.493   2.064  1.00  0.00     0.034 A 
ATOM     19  C   UNL     1       2.131  -0.714   4.814  1.00  0.00     0.003 A 
ATOM     20  C   UNL     1       3.208  -1.353   4.204  1.00  0.00     0.009 A 
BRANCH  16  21
ATOM     21  N   UNL     1       0.512   0.983   1.982  1.00  0.00    -0.326 N 
ATOM     22  C   UNL     1       0.648   0.116  -0.356  1.00  0.00     0.114 C 
ATOM     23  C   UNL     1       0.188   1.118   0.664  1.00  0.00     0.221 C 
ATOM     24  O   UNL     1      -0.543   2.054   0.333  1.00  0.00    -0.275 OA
ATOM     25  H   UNL     1       0.011   1.590   2.574  1.00  0.00     0.169 HD
ENDBRANCH  16  21
ENDBRANCH   9  15
ENDBRANCH   5   8
ENDBRANCH   3   4
ENDBRANCH   2   3
ENDBRANCH   1   2
BRANCH   1  26
ATOM     26  C   UNL     1       6.944   5.071   1.297  1.00  0.00     0.116 C 
BRANCH  26  27
ATOM     27  N   UNL     1       5.618   5.537   1.679  1.00  0.00    -0.352 N 
ATOM     28  C   UNL     1       5.067   6.796   1.581  1.00  0.00     0.251 C 
ATOM     29  H   UNL     1       5.028   4.850   2.064  1.00  0.00     0.163 HD
ATOM     30  O   UNL     1       3.947   7.008   2.029  1.00  0.00    -0.269 OA
BRANCH  28  31
ATOM     31  C   UNL     1       5.849   7.901   0.979  1.00  0.00     0.039 A 
ATOM     32  C   UNL     1       5.926   9.120   1.659  1.00  0.00     0.014 A 
ATOM     33  C   UNL     1       6.536   7.726  -0.224  1.00  0.00     0.014 A 
ATOM     34  C   UNL     1       6.772  10.127   1.184  1.00  0.00     0.010 A 
ATOM     35  C   UNL     1       7.437   8.697  -0.651  1.00  0.00     0.010 A 
ATOM     36  C   UNL     1       7.574   9.903   0.054  1.00  0.00    -0.014 A 
BRANCH  36  37
ATOM     37  C   UNL     1       8.572  10.903  -0.409  1.00  0.00     0.031 A 
ATOM     38  C   UNL     1       8.436  11.521  -1.774  1.00  0.00     0.074 A 
ATOM     39  C   UNL     1       9.648  11.182   0.354  1.00  0.00     0.049 A 
ATOM     40  N   UNL     1       9.269  12.297  -2.417  1.00  0.00    -0.248 NA
ATOM     41  C   UNL     1       7.215  11.194  -2.528  1.00  0.00     0.031 C 
ATOM     42  C   UNL     1       9.922  10.613   1.676  1.00  0.00     0.029 A 
ATOM     43  N   UNL     1      10.726  12.000   0.119  1.00  0.00    -0.354 N 
ATOM     44  C   UNL     1       8.690  12.527  -3.659  1.00  0.00     0.074 A 
ATOM     45  C   UNL     1       7.454  11.775  -3.695  1.00  0.00     0.031 C 
ATOM     46  C   UNL     1      11.082  11.109   2.139  1.00  0.00     0.029 A 
ATOM     47  C   UNL     1      11.654  12.001   1.135  1.00  0.00     0.049 A 
ATOM     48  H   UNL     1      10.825  12.537  -0.701  1.00  0.00     0.167 HD
ATOM     49  C   UNL     1       9.137  13.308  -4.671  1.00  0.00     0.037 A 
ATOM     50  C   UNL     1      12.836  12.638   1.241  1.00  0.00     0.037 A 
ATOM     51  C   UNL     1      10.344  14.088  -4.615  1.00  0.00     0.049 A 
ATOM     52  C   UNL     1      13.297  13.525   0.116  1.00  0.00     0.074 A 
ATOM     53  C   UNL     1      10.854  14.956  -5.566  1.00  0.00     0.029 A 
ATOM     54  N   UNL     1      11.227  14.104  -3.545  1.00  0.00    -0.354 N 
ATOM     55  N   UNL     1      12.714  13.765  -1.034  1.00  0.00    -0.248 NA
ATOM     56  C   UNL     1      14.572  14.232   0.303  1.00  0.00     0.031 C 
ATOM     57  C   UNL     1      12.058  15.477  -5.081  1.00  0.00     0.029 A 
ATOM     58  C   UNL     1      12.279  14.963  -3.813  1.00  0.00     0.049 A 
ATOM     59  H   UNL     1      11.121  13.582  -2.717  1.00  0.00     0.167 HD
ATOM     60  C   UNL     1      13.534  14.674  -1.693  1.00  0.00     0.074 A 
ATOM     61  C   UNL     1      14.653  14.942  -0.814  1.00  0.00     0.031 C 
ATOM     62  C   UNL     1      13.373  15.236  -2.916  1.00  0.00     0.037 A 
BRANCH  49  63
ATOM     63  C   UNL     1       8.307  13.363  -5.923  1.00  0.00     0.058 A 
ATOM     64  C   UNL     1       7.072  14.030  -5.956  1.00  0.00     0.135 A 
ATOM     65  C   UNL     1       8.759  12.761  -7.108  1.00  0.00     0.135 A 
ATOM     66  F   UNL     1       6.586  14.608  -4.846  1.00  0.00    -0.206 F 
ATOM     67  C   UNL     1       6.299  14.071  -7.111  1.00  0.00     0.059 A 
ATOM     68  C   UNL     1       8.013  12.812  -8.283  1.00  0.00     0.059 A 
ATOM     69  F   UNL     1       9.932  12.110  -7.131  1.00  0.00    -0.206 F 
ATOM     70  C   UNL     1       6.776  13.455  -8.269  1.00  0.00     0.060 A 
BRANCH  70  71
ATOM     71  S   UNL     1       5.761  13.512  -9.760  1.00  0.00     0.124 S 
ATOM     72  O   UNL     1       4.740  12.514  -9.454  1.00  0.00    -0.237 OA
ATOM     73  O   UNL     1       5.304  14.899  -9.777  1.00  0.00    -0.237 OA
ATOM     74  O   UNL     1       6.695  13.151 -10.821  1.00  0.00    -0.744 OA
ENDBRANCH  70  71
ENDBRANCH  49  63
BRANCH  50  75
ATOM     75  C   UNL     1      13.657  12.482   2.471  1.00  0.00     0.058 A 
ATOM     76  C   UNL     1      13.768  13.530   3.396  1.00  0.00     0.135 A 
ATOM     77  C   UNL     1      14.335  11.286   2.752  1.00  0.00     0.135 A 
ATOM     78  F   UNL     1      13.143  14.695   3.167  1.00  0.00    -0.206 F 
ATOM     79  C   UNL     1      14.533  13.406   4.551  1.00  0.00     0.059 A 
ATOM     80  C   UNL     1      15.089  11.130   3.911  1.00  0.00     0.059 A 
ATOM     81  F   UNL     1      14.247  10.248   1.907  1.00  0.00    -0.206 F 
ATOM     82  C   UNL     1      15.191  12.200   4.800  1.00  0.00     0.060 A 
BRANCH  82  83
ATOM     83  S   UNL     1      16.142  12.030   6.327  1.00  0.00     0.124 S 
ATOM     84  O   UNL     1      17.340  12.800   6.013  1.00  0.00    -0.237 OA
ATOM     85  O   UNL     1      15.245  12.620   7.316  1.00  0.00    -0.237 OA
ATOM     86  O   UNL     1      16.329  10.587   6.444  1.00  0.00    -0.744 OA
ENDBRANCH  82  83
ENDBRANCH  50  75
BRANCH  62  87
ATOM     87  C   UNL     1      14.401  16.236  -3.362  1.00  0.00     0.058 A 
ATOM     88  C   UNL     1      15.668  15.839  -3.815  1.00  0.00     0.135 A 
ATOM     89  C   UNL     1      14.084  17.603  -3.404  1.00  0.00     0.135 A 
ATOM     90  F   UNL     1      16.020  14.544  -3.787  1.00  0.00    -0.206 F 
ATOM     91  C   UNL     1      16.591  16.766  -4.286  1.00  0.00     0.059 A 
ATOM     92  C   UNL     1      14.985  18.545  -3.891  1.00  0.00     0.059 A 
ATOM     93  F   UNL     1      12.882  18.032  -2.989  1.00  0.00    -0.206 F 
ATOM     94  C   UNL     1      16.239  18.117  -4.324  1.00  0.00     0.060 A 
BRANCH  94  95
ATOM     95  S   UNL     1      17.425  19.305  -4.989  1.00  0.00     0.124 S 
ATOM     96  O   UNL     1      18.366  19.433  -3.881  1.00  0.00    -0.237 OA
ATOM     97  O   UNL     1      17.930  18.617  -6.173  1.00  0.00    -0.237 OA
ATOM     98  O   UNL     1      16.607  20.484  -5.259  1.00  0.00    -0.744 OA
ENDBRANCH  94  95
ENDBRANCH  62  87
ENDBRANCH  36  37
ENDBRANCH  28  31
ENDBRANCH  26  27
ENDBRANCH   1  26
TORSDOF 16
