REMARK SMILES Cc1cc(C)c(S(=O)(=O)Nc2ccc(N3CC[NH+](C)CC3)c(C(=O)NCCCCNC(=O)c3ccc(-c4c5nc(c(-c6c(F)cc(S(=O)(=O)[O-])cc6F)c6ccc([nH]6)c(-c6c(F)cc(S(=O)(=O)[O-])cc6F)c6nc(c(-c7c(F)cc(S(=O)(=O)[O-])cc7F)c7ccc4[nH]7)C=C6)C=C5)cc3)c2)c(C)c1
REMARK SMILES IDX 27 1 26 2 25 3 23 4 24 5 22 7 11 8 12 9 99 10 13 11 14 12
REMARK SMILES IDX 10 13 7 15 8 16 9 17 6 18 1 19 2 20 3 21 102 22 4 23 100 24
REMARK SMILES IDX 5 25 101 26 15 27 16 28 21 29 17 30 20 31 18 32 19 33 28 35
REMARK SMILES IDX 29 36 30 37 31 38 32 40 33 41 34 42 98 43 35 44 97 45 36 46
REMARK SMILES IDX 37 47 38 48 91 49 39 50 96 51 90 52 92 53 40 54 95 55 89 56
REMARK SMILES IDX 88 57 41 59 75 60 54 61 74 62 55 63 58 64 73 65 93 66 56 67
REMARK SMILES IDX 57 68 72 70 94 71 59 72 42 73 43 74 52 75 44 76 45 77 51 78
REMARK SMILES IDX 53 79 46 80 47 81 48 82 49 83 50 84 76 85 77 86 86 87 78 88
REMARK SMILES IDX 79 89 85 90 87 91 80 92 81 93 82 94 83 95 84 96 60 97 61 98
REMARK SMILES IDX 70 99 62 100 63 101 69 102 71 103 64 104 65 105 66 106
REMARK SMILES IDX 67 107 68 108
REMARK H PARENT 25 6 10 14 18 34 30 39 92 58 58 69
REMARK Flexibility Score: inf
ROOT
ATOM      1  C   UNL     1      -0.151  -1.635   3.913  1.00  0.00     0.023 C 
ENDROOT
BRANCH   1   2
ATOM      2  C   UNL     1       0.852  -1.246   2.823  1.00  0.00     0.116 C 
BRANCH   2   3
ATOM      3  N   UNL     1       2.068  -2.014   2.971  1.00  0.00    -0.352 N 
ATOM      4  C   UNL     1       2.485  -3.232   2.490  1.00  0.00     0.253 C 
ATOM      5  O   UNL     1       3.498  -3.667   3.038  1.00  0.00    -0.269 OA
ATOM      6  H   UNL     1       2.741  -1.570   3.536  1.00  0.00     0.163 HD
BRANCH   4   7
ATOM      7  C   UNL     1       1.787  -4.003   1.396  1.00  0.00     0.065 A 
ATOM      8  C   UNL     1      -0.220  -4.384   0.069  1.00  0.00     0.050 A 
ATOM      9  C   UNL     1       0.442  -5.338  -0.690  1.00  0.00     0.029 A 
ATOM     10  C   UNL     1       0.399  -3.870   1.203  1.00  0.00     0.042 A 
ATOM     11  C   UNL     1       1.797  -5.555  -0.474  1.00  0.00     0.029 A 
ATOM     12  C   UNL     1       2.520  -4.810   0.479  1.00  0.00     0.050 A 
BRANCH   8  13
ATOM     13  N   UNL     1      -1.453  -3.909  -0.452  1.00  0.00    -0.280 N 
ATOM     14  H   UNL     1      -1.938  -4.516  -1.057  1.00  0.00     0.180 HD
BRANCH  13  15
ATOM     15  S   UNL     1      -2.169  -2.427  -0.149  1.00  0.00     0.262 S 
ATOM     16  O   UNL     1      -2.462  -2.409   1.274  1.00  0.00    -0.201 OA
ATOM     17  O   UNL     1      -3.228  -2.326  -1.130  1.00  0.00    -0.201 OA
BRANCH  15  18
ATOM     18  C   UNL     1      -1.060  -1.037  -0.462  1.00  0.00     0.093 A 
ATOM     19  C   UNL     1       1.848   2.157  -0.076  1.00  0.00     0.044 C 
ATOM     20  C   UNL     1       0.827   1.070  -0.244  1.00  0.00    -0.051 A 
ATOM     21  C   UNL     1      -0.473   1.242   0.219  1.00  0.00     0.008 A 
ATOM     22  C   UNL     1       1.128  -0.095  -0.949  1.00  0.00     0.008 A 
ATOM     23  C   UNL     1      -1.427   0.209   0.120  1.00  0.00    -0.030 A 
ATOM     24  C   UNL     1       0.184  -1.136  -1.116  1.00  0.00    -0.030 A 
ATOM     25  C   UNL     1      -2.827   0.575   0.551  1.00  0.00     0.046 C 
ATOM     26  C   UNL     1       0.608  -2.228  -2.051  1.00  0.00     0.046 C 
ENDBRANCH  15  18
ENDBRANCH  13  15
ENDBRANCH   8  13
BRANCH  12  27
ATOM     27  N   UNL     1       3.898  -4.786   0.349  1.00  0.00    -0.360 N 
ATOM     28  C   UNL     1       4.785  -5.466   1.302  1.00  0.00     0.178 C 
ATOM     29  C   UNL     1       4.503  -4.569  -0.973  1.00  0.00     0.178 C 
ATOM     30  C   UNL     1       6.098  -4.651   1.431  1.00  0.00     0.283 C 
ATOM     31  C   UNL     1       5.837  -3.808  -0.825  1.00  0.00     0.283 C 
ATOM     32  N   UNL     1       6.778  -4.455   0.119  1.00  0.00    -0.334 N 
ATOM     33  C   UNL     1       7.965  -3.617   0.286  1.00  0.00     0.332 C 
ATOM     34  H   UNL     1       7.066  -5.361  -0.249  1.00  0.00     0.347 HD
ENDBRANCH  12  27
ENDBRANCH   4   7
ENDBRANCH   2   3
ENDBRANCH   1   2
BRANCH   1  35
ATOM     35  C   UNL     1       0.174  -1.055   5.291  1.00  0.00     0.023 C 
BRANCH  35  36
ATOM     36  C   UNL     1       0.159   0.467   5.354  1.00  0.00     0.116 C 
BRANCH  36  37
ATOM     37  N   UNL     1      -1.109   1.038   4.931  1.00  0.00    -0.352 N 
ATOM     38  C   UNL     1      -1.680   2.221   5.328  1.00  0.00     0.251 C 
ATOM     39  H   UNL     1      -1.623   0.511   4.277  1.00  0.00     0.163 HD
ATOM     40  O   UNL     1      -2.812   2.518   4.962  1.00  0.00    -0.269 OA
BRANCH  38  41
ATOM     41  C   UNL     1      -0.926   3.115   6.229  1.00  0.00     0.039 A 
ATOM     42  C   UNL     1      -1.553   3.589   7.384  1.00  0.00     0.014 A 
ATOM     43  C   UNL     1       0.394   3.471   5.939  1.00  0.00     0.014 A 
ATOM     44  C   UNL     1      -0.840   4.395   8.272  1.00  0.00     0.010 A 
ATOM     45  C   UNL     1       1.121   4.225   6.854  1.00  0.00     0.010 A 
ATOM     46  C   UNL     1       0.507   4.705   8.020  1.00  0.00    -0.014 A 
BRANCH  46  47
ATOM     47  C   UNL     1       1.275   5.571   8.945  1.00  0.00     0.031 A 
ATOM     48  C   UNL     1       1.712   6.937   8.492  1.00  0.00     0.074 A 
ATOM     49  C   UNL     1       1.622   5.111  10.162  1.00  0.00     0.049 A 
ATOM     50  N   UNL     1       2.438   7.823   9.122  1.00  0.00    -0.248 NA
ATOM     51  C   UNL     1       1.305   7.347   7.138  1.00  0.00     0.031 C 
ATOM     52  C   UNL     1       1.301   3.783  10.690  1.00  0.00     0.029 A 
ATOM     53  N   UNL     1       2.328   5.709  11.173  1.00  0.00    -0.354 N 
ATOM     54  C   UNL     1       2.597   8.881   8.235  1.00  0.00     0.074 A 
ATOM     55  C   UNL     1       1.926   8.510   7.008  1.00  0.00     0.031 C 
ATOM     56  C   UNL     1       1.789   3.677  11.937  1.00  0.00     0.029 A 
ATOM     57  C   UNL     1       2.472   4.918  12.288  1.00  0.00     0.049 A 
ATOM     58  H   UNL     1       2.697   6.619  11.107  1.00  0.00     0.167 HD
ATOM     59  C   UNL     1       3.228  10.063   8.431  1.00  0.00     0.037 A 
ATOM     60  C   UNL     1       3.078   5.174  13.463  1.00  0.00     0.037 A 
ATOM     61  C   UNL     1       3.852  10.445   9.670  1.00  0.00     0.049 A 
ATOM     62  C   UNL     1       3.706   6.523  13.684  1.00  0.00     0.074 A 
ATOM     63  C   UNL     1       4.477  11.637   9.991  1.00  0.00     0.029 A 
ATOM     64  N   UNL     1       3.913   9.644  10.800  1.00  0.00    -0.354 N 
ATOM     65  N   UNL     1       3.810   7.530  12.849  1.00  0.00    -0.248 NA
ATOM     66  C   UNL     1       4.283   6.777  15.011  1.00  0.00     0.031 C 
ATOM     67  C   UNL     1       4.926  11.553  11.314  1.00  0.00     0.029 A 
ATOM     68  C   UNL     1       4.557  10.318  11.823  1.00  0.00     0.049 A 
ATOM     69  H   UNL     1       3.551   8.731  10.866  1.00  0.00     0.167 HD
ATOM     70  C   UNL     1       4.433   8.549  13.560  1.00  0.00     0.074 A 
ATOM     71  C   UNL     1       4.680   8.037  14.893  1.00  0.00     0.031 C 
ATOM     72  C   UNL     1       4.768   9.796  13.149  1.00  0.00     0.037 A 
BRANCH  59  73
ATOM     73  C   UNL     1       3.263  11.024   7.278  1.00  0.00     0.058 A 
ATOM     74  C   UNL     1       2.116  11.725   6.872  1.00  0.00     0.135 A 
ATOM     75  C   UNL     1       4.455  11.251   6.572  1.00  0.00     0.135 A 
ATOM     76  F   UNL     1       0.946  11.528   7.501  1.00  0.00    -0.206 F 
ATOM     77  C   UNL     1       2.140  12.590   5.783  1.00  0.00     0.059 A 
ATOM     78  C   UNL     1       4.507  12.131   5.495  1.00  0.00     0.059 A 
ATOM     79  F   UNL     1       5.579  10.605   6.918  1.00  0.00    -0.206 F 
ATOM     80  C   UNL     1       3.340  12.781   5.096  1.00  0.00     0.060 A 
BRANCH  80  81
ATOM     81  S   UNL     1       3.360  13.895   3.676  1.00  0.00     0.124 S 
ATOM     82  O   UNL     1       2.781  13.049   2.637  1.00  0.00    -0.237 OA
ATOM     83  O   UNL     1       2.524  15.002   4.129  1.00  0.00    -0.237 OA
ATOM     84  O   UNL     1       4.776  14.210   3.514  1.00  0.00    -0.744 OA
ENDBRANCH  80  81
ENDBRANCH  59  73
BRANCH  60  85
ATOM     85  C   UNL     1       3.067   4.154  14.542  1.00  0.00     0.058 A 
ATOM     86  C   UNL     1       2.233   4.304  15.659  1.00  0.00     0.135 A 
ATOM     87  C   UNL     1       3.879   3.013  14.477  1.00  0.00     0.135 A 
ATOM     88  F   UNL     1       1.441   5.383  15.764  1.00  0.00    -0.206 F 
ATOM     89  C   UNL     1       2.216   3.368  16.687  1.00  0.00     0.059 A 
ATOM     90  C   UNL     1       3.866   2.052  15.484  1.00  0.00     0.059 A 
ATOM     91  F   UNL     1       4.680   2.816  13.418  1.00  0.00    -0.206 F 
ATOM     92  C   UNL     1       3.040   2.245  16.591  1.00  0.00     0.060 A 
BRANCH  92  93
ATOM     93  S   UNL     1       2.984   1.011  17.909  1.00  0.00     0.124 S 
ATOM     94  O   UNL     1       3.796   1.647  18.939  1.00  0.00    -0.237 OA
ATOM     95  O   UNL     1       1.554   0.919  18.188  1.00  0.00    -0.237 OA
ATOM     96  O   UNL     1       3.569  -0.171  17.282  1.00  0.00    -0.744 OA
ENDBRANCH  92  93
ENDBRANCH  60  85
BRANCH  72  97
ATOM     97  C   UNL     1       5.386  10.708  14.168  1.00  0.00     0.058 A 
ATOM     98  C   UNL     1       6.726  10.573  14.561  1.00  0.00     0.135 A 
ATOM     99  C   UNL     1       4.633  11.749  14.732  1.00  0.00     0.135 A 
ATOM    100  F   UNL     1       7.484   9.590  14.051  1.00  0.00    -0.206 F 
ATOM    101  C   UNL     1       7.293  11.426  15.502  1.00  0.00     0.059 A 
ATOM    102  C   UNL     1       5.185  12.625  15.660  1.00  0.00     0.059 A 
ATOM    103  F   UNL     1       3.349  11.924  14.380  1.00  0.00    -0.206 F 
ATOM    104  C   UNL     1       6.513  12.447  16.050  1.00  0.00     0.060 A 
BRANCH 104 105
ATOM    105  S   UNL     1       7.258  13.564  17.256  1.00  0.00     0.124 S 
ATOM    106  O   UNL     1       7.183  12.768  18.477  1.00  0.00    -0.237 OA
ATOM    107  O   UNL     1       8.598  13.768  16.715  1.00  0.00    -0.237 OA
ATOM    108  O   UNL     1       6.388  14.735  17.213  1.00  0.00    -0.744 OA
ENDBRANCH 104 105
ENDBRANCH  72  97
ENDBRANCH  46  47
ENDBRANCH  38  41
ENDBRANCH  36  37
ENDBRANCH  35  36
ENDBRANCH   1  35
TORSDOF 18
