REMARK SMILES CC(C)[C@@H](C)[N@@H+]1[C@@H](C(=O)NCCCCNC(=O)c2ccc(-c3c4nc(c(-c5c(F)cc(S(=O)(=O)[O-])cc5F)c5ccc([nH]5)c(-c5c(F)cc(S(=O)(=O)[O-])cc5F)c5nc(c(-c6c(F)cc(S(=O)(=O)[O-])cc6F)c6ccc3[nH]6)C=C5)C=C4)cc2)C[C@H]2CCCC[C@H]21
REMARK SMILES IDX 13 1 12 2 11 3 10 4 8 5 9 6 7 8 6 9 90 10 84 12 85 13 89 14
REMARK SMILES IDX 86 15 88 16 87 17 4 18 5 19 2 20 1 21 3 22 14 23 15 24 16 25
REMARK SMILES IDX 17 27 18 28 19 29 83 30 20 31 82 32 21 33 22 34 23 35 76 36
REMARK SMILES IDX 24 37 81 38 75 39 77 40 25 41 80 42 74 43 73 44 26 46 60 47
REMARK SMILES IDX 39 48 59 49 40 50 43 51 58 52 78 53 41 54 42 55 57 57 79 58
REMARK SMILES IDX 44 59 27 60 28 61 37 62 29 63 30 64 36 65 38 66 31 67 32 68
REMARK SMILES IDX 33 69 34 70 35 71 61 72 62 73 71 74 63 75 64 76 70 77 72 78
REMARK SMILES IDX 65 79 66 80 67 81 68 82 69 83 45 84 46 85 55 86 47 87 48 88
REMARK SMILES IDX 54 89 56 90 49 91 50 92 51 93 52 94 53 95
REMARK H PARENT 10 7 6 11 15 26 77 45 43 56
REMARK Flexibility Score: inf
ROOT
ATOM      1  C   UNL     1      -8.189   1.705   2.191  1.00  0.00     0.023 C 
ENDROOT
BRANCH   1   2
ATOM      2  C   UNL     1      -7.028   2.041   1.258  1.00  0.00     0.023 C 
BRANCH   2   3
ATOM      3  C   UNL     1      -5.798   2.643   1.929  1.00  0.00     0.116 C 
BRANCH   3   4
ATOM      4  N   UNL     1      -5.177   1.754   2.889  1.00  0.00    -0.351 N 
ATOM      5  C   UNL     1      -3.845   1.482   3.072  1.00  0.00     0.278 C 
ATOM      6  O   UNL     1      -3.543   0.729   4.000  1.00  0.00    -0.268 OA
ATOM      7  H   UNL     1      -5.795   1.280   3.493  1.00  0.00     0.163 HD
BRANCH   5   8
ATOM      8  C   UNL     1      -2.824   2.095   2.082  1.00  0.00     0.275 C 
ATOM      9  N   UNL     1      -1.419   1.617   2.365  1.00  0.00    -0.320 N 
ATOM     10  C   UNL     1      -0.710   2.774   2.925  1.00  0.00     0.188 C 
ATOM     11  H   UNL     1      -1.335   0.880   3.065  1.00  0.00     0.349 HD
ATOM     12  C   UNL     1      -2.778   3.628   2.151  1.00  0.00     0.085 C 
ATOM     13  C   UNL     1      -1.294   3.958   2.166  1.00  0.00     0.054 C 
ATOM     14  C   UNL     1      -0.927   2.891   4.449  1.00  0.00     0.065 C 
ATOM     15  C   UNL     1      -0.956   5.323   2.755  1.00  0.00     0.010 C 
ATOM     16  C   UNL     1      -0.428   4.238   4.971  1.00  0.00     0.006 C 
ATOM     17  C   UNL     1      -1.129   5.397   4.269  1.00  0.00     0.001 C 
BRANCH   9  18
ATOM     18  C   UNL     1      -0.860   0.922   1.171  1.00  0.00     0.184 C 
ATOM     19  C   UNL     1      -1.527  -0.476   1.166  1.00  0.00     0.075 C 
BRANCH  18  20
ATOM     20  C   UNL     1       0.705   0.776   1.020  1.00  0.00     0.041 C 
ATOM     21  C   UNL     1       1.088  -0.280  -0.039  1.00  0.00     0.013 C 
ATOM     22  C   UNL     1       1.412   2.079   0.594  1.00  0.00     0.013 C 
ENDBRANCH  18  20
ENDBRANCH   9  18
ENDBRANCH   5   8
ENDBRANCH   3   4
ENDBRANCH   2   3
ENDBRANCH   1   2
BRANCH   1  23
ATOM     23  C   UNL     1      -8.656   2.839   3.095  1.00  0.00     0.116 C 
BRANCH  23  24
ATOM     24  N   UNL     1      -9.109   4.011   2.358  1.00  0.00    -0.352 N 
ATOM     25  C   UNL     1     -10.320   4.662   2.413  1.00  0.00     0.251 C 
ATOM     26  H   UNL     1      -8.454   4.394   1.730  1.00  0.00     0.163 HD
ATOM     27  O   UNL     1     -10.568   5.567   1.621  1.00  0.00    -0.269 OA
BRANCH  25  28
ATOM     28  C   UNL     1     -11.334   4.239   3.403  1.00  0.00     0.039 A 
ATOM     29  C   UNL     1     -12.640   3.991   2.974  1.00  0.00     0.014 A 
ATOM     30  C   UNL     1     -10.983   4.047   4.742  1.00  0.00     0.014 A 
ATOM     31  C   UNL     1     -13.572   3.459   3.870  1.00  0.00     0.010 A 
ATOM     32  C   UNL     1     -11.889   3.449   5.611  1.00  0.00     0.010 A 
ATOM     33  C   UNL     1     -13.190   3.139   5.182  1.00  0.00    -0.014 A 
BRANCH  33  34
ATOM     34  C   UNL     1     -14.119   2.464   6.126  1.00  0.00     0.031 A 
ATOM     35  C   UNL     1     -14.527   3.156   7.397  1.00  0.00     0.074 A 
ATOM     36  C   UNL     1     -14.515   1.198   5.887  1.00  0.00     0.049 A 
ATOM     37  N   UNL     1     -15.205   2.687   8.412  1.00  0.00    -0.248 NA
ATOM     38  C   UNL     1     -14.086   4.551   7.561  1.00  0.00     0.031 C 
ATOM     39  C   UNL     1     -14.155   0.403   4.710  1.00  0.00     0.029 A 
ATOM     40  N   UNL     1     -15.293   0.347   6.633  1.00  0.00    -0.354 N 
ATOM     41  C   UNL     1     -15.253   3.718   9.343  1.00  0.00     0.074 A 
ATOM     42  C   UNL     1     -14.498   4.822   8.791  1.00  0.00     0.031 C 
ATOM     43  C   UNL     1     -14.719  -0.812   4.808  1.00  0.00     0.029 A 
ATOM     44  C   UNL     1     -15.445  -0.899   6.072  1.00  0.00     0.049 A 
ATOM     45  H   UNL     1     -15.703   0.605   7.490  1.00  0.00     0.167 HD
ATOM     46  C   UNL     1     -15.886   3.749  10.540  1.00  0.00     0.037 A 
ATOM     47  C   UNL     1     -16.083  -1.995   6.529  1.00  0.00     0.037 A 
ATOM     48  C   UNL     1     -16.664   2.660  11.069  1.00  0.00     0.049 A 
ATOM     49  C   UNL     1     -16.780  -1.937   7.862  1.00  0.00     0.074 A 
ATOM     50  C   UNL     1     -17.388   2.613  12.248  1.00  0.00     0.029 A 
ATOM     51  N   UNL     1     -16.822   1.427  10.453  1.00  0.00    -0.354 N 
ATOM     52  N   UNL     1     -16.855  -0.937   8.708  1.00  0.00    -0.248 NA
ATOM     53  C   UNL     1     -17.479  -3.152   8.303  1.00  0.00     0.031 C 
ATOM     54  C   UNL     1     -17.958   1.341  12.360  1.00  0.00     0.029 A 
ATOM     55  C   UNL     1     -17.622   0.608  11.232  1.00  0.00     0.049 A 
ATOM     56  H   UNL     1     -16.424   1.172   9.589  1.00  0.00     0.167 HD
ATOM     57  C   UNL     1     -17.632  -1.393   9.767  1.00  0.00     0.074 A 
ATOM     58  C   UNL     1     -18.008  -2.757   9.453  1.00  0.00     0.031 C 
ATOM     59  C   UNL     1     -18.002  -0.741  10.896  1.00  0.00     0.037 A 
BRANCH  46  60
ATOM     60  C   UNL     1     -15.768   5.006  11.355  1.00  0.00     0.058 A 
ATOM     61  C   UNL     1     -16.420   6.191  10.976  1.00  0.00     0.135 A 
ATOM     62  C   UNL     1     -15.018   5.022  12.542  1.00  0.00     0.135 A 
ATOM     63  F   UNL     1     -17.137   6.234   9.842  1.00  0.00    -0.206 F 
ATOM     64  C   UNL     1     -16.305   7.356  11.726  1.00  0.00     0.059 A 
ATOM     65  C   UNL     1     -14.912   6.170  13.323  1.00  0.00     0.059 A 
ATOM     66  F   UNL     1     -14.375   3.917  12.951  1.00  0.00    -0.206 F 
ATOM     67  C   UNL     1     -15.546   7.336  12.897  1.00  0.00     0.060 A 
BRANCH  67  68
ATOM     68  S   UNL     1     -15.404   8.858  13.858  1.00  0.00     0.124 S 
ATOM     69  O   UNL     1     -14.473   9.631  13.040  1.00  0.00    -0.237 OA
ATOM     70  O   UNL     1     -16.780   9.344  13.881  1.00  0.00    -0.237 OA
ATOM     71  O   UNL     1     -14.882   8.401  15.142  1.00  0.00    -0.744 OA
ENDBRANCH  67  68
ENDBRANCH  46  60
BRANCH  47  72
ATOM     72  C   UNL     1     -16.109  -3.237   5.712  1.00  0.00     0.058 A 
ATOM     73  C   UNL     1     -17.289  -3.656   5.080  1.00  0.00     0.135 A 
ATOM     74  C   UNL     1     -14.958  -4.021   5.536  1.00  0.00     0.135 A 
ATOM     75  F   UNL     1     -18.416  -2.943   5.224  1.00  0.00    -0.206 F 
ATOM     76  C   UNL     1     -17.333  -4.817   4.315  1.00  0.00     0.059 A 
ATOM     77  C   UNL     1     -14.972  -5.174   4.757  1.00  0.00     0.059 A 
ATOM     78  F   UNL     1     -13.800  -3.654   6.106  1.00  0.00    -0.206 F 
ATOM     79  C   UNL     1     -16.168  -5.569   4.158  1.00  0.00     0.060 A 
BRANCH  79  80
ATOM     80  S   UNL     1     -16.225  -7.049   3.123  1.00  0.00     0.124 S 
ATOM     81  O   UNL     1     -16.927  -7.987   3.991  1.00  0.00    -0.237 OA
ATOM     82  O   UNL     1     -16.966  -6.580   1.956  1.00  0.00    -0.237 OA
ATOM     83  O   UNL     1     -14.815  -7.342   2.883  1.00  0.00    -0.744 OA
ENDBRANCH  79  80
ENDBRANCH  47  72
BRANCH  59  84
ATOM     84  C   UNL     1     -18.893  -1.470  11.861  1.00  0.00     0.058 A 
ATOM     85  C   UNL     1     -18.398  -2.475  12.705  1.00  0.00     0.135 A 
ATOM     86  C   UNL     1     -20.241  -1.102  11.996  1.00  0.00     0.135 A 
ATOM     87  F   UNL     1     -17.117  -2.868  12.609  1.00  0.00    -0.206 F 
ATOM     88  C   UNL     1     -19.212  -3.098  13.646  1.00  0.00     0.059 A 
ATOM     89  C   UNL     1     -21.067  -1.695  12.945  1.00  0.00     0.059 A 
ATOM     90  F   UNL     1     -20.761  -0.140  11.217  1.00  0.00    -0.206 F 
ATOM     91  C   UNL     1     -20.544  -2.697  13.762  1.00  0.00     0.060 A 
BRANCH  91  92
ATOM     92  S   UNL     1     -21.575  -3.470  15.027  1.00  0.00     0.124 S 
ATOM     93  O   UNL     1     -21.840  -4.776  14.433  1.00  0.00    -0.237 OA
ATOM     94  O   UNL     1     -20.695  -3.470  16.192  1.00  0.00    -0.237 OA
ATOM     95  O   UNL     1     -22.726  -2.576  15.120  1.00  0.00    -0.744 OA
ENDBRANCH  91  92
ENDBRANCH  59  84
ENDBRANCH  33  34
ENDBRANCH  25  28
ENDBRANCH  23  24
ENDBRANCH   1  23
TORSDOF 16
