REMARK SMILES CCc1cccc(C)c1Nc1ccccc1CC(=O)NCCCCNC(=O)c1ccc(-c2c3nc(c(-c4c(F)cc(S(=O)(=O)[O-])cc4F)c4ccc([nH]4)c(-c4c(F)cc(S(=O)(=O)[O-])cc4F)c4nc(c(-c5c(F)cc(S(=O)(=O)[O-])cc5F)c5ccc2[nH]5)C=C4)C=C3)cc1
REMARK SMILES IDX 22 1 21 2 20 3 18 4 19 5 17 7 16 8 11 9 12 10 13 11 15 12
REMARK SMILES IDX 14 13 10 14 9 16 3 17 4 18 5 19 7 20 6 21 8 22 2 23 1 24
REMARK SMILES IDX 23 25 24 26 25 27 26 28 27 30 28 31 29 32 93 33 30 34 92 35
REMARK SMILES IDX 31 36 32 37 33 38 86 39 34 40 91 41 85 42 87 43 35 44 90 45
REMARK SMILES IDX 84 46 83 47 36 49 70 50 49 51 69 52 50 53 53 54 68 55 88 56
REMARK SMILES IDX 51 57 52 58 67 60 89 61 54 62 37 63 38 64 47 65 39 66 40 67
REMARK SMILES IDX 46 68 48 69 41 70 42 71 43 72 44 73 45 74 71 75 72 76 81 77
REMARK SMILES IDX 73 78 74 79 80 80 82 81 75 82 76 83 77 84 78 85 79 86 55 87
REMARK SMILES IDX 56 88 65 89 57 90 58 91 64 92 66 93 59 94 60 95 61 96 62 97
REMARK SMILES IDX 63 98
REMARK H PARENT 20 6 10 15 25 29 87 48 53 59
REMARK Flexibility Score: inf
ROOT
ATOM      1  C   UNL     1       7.291   2.353  -3.039  1.00  0.00     0.023 C 
ENDROOT
BRANCH   1   2
ATOM      2  C   UNL     1       7.499   2.750  -1.575  1.00  0.00     0.116 C 
BRANCH   2   3
ATOM      3  N   UNL     1       6.293   3.161  -0.874  1.00  0.00    -0.356 N 
ATOM      4  C   UNL     1       5.475   2.511   0.000  1.00  0.00     0.224 C 
ATOM      5  O   UNL     1       4.731   3.220   0.689  1.00  0.00    -0.275 OA
ATOM      6  H   UNL     1       6.015   4.085  -1.068  1.00  0.00     0.163 HD
BRANCH   4   7
ATOM      7  C   UNL     1       5.551   1.021   0.260  1.00  0.00     0.137 C 
BRANCH   7   8
ATOM      8  C   UNL     1       5.330   0.067  -0.896  1.00  0.00    -0.015 A 
ATOM      9  C   UNL     1       4.067  -0.281  -1.425  1.00  0.00     0.042 A 
ATOM     10  C   UNL     1       4.015  -1.228  -2.472  1.00  0.00     0.026 A 
ATOM     11  C   UNL     1       5.164  -1.830  -2.982  1.00  0.00     0.002 A 
ATOM     12  C   UNL     1       6.475  -0.601  -1.391  1.00  0.00     0.006 A 
ATOM     13  C   UNL     1       6.398  -1.523  -2.434  1.00  0.00     0.000 A 
BRANCH   9  14
ATOM     14  N   UNL     1       2.829   0.273  -1.022  1.00  0.00    -0.355 N 
ATOM     15  H   UNL     1       2.170  -0.391  -0.717  1.00  0.00     0.167 HD
BRANCH  14  16
ATOM     16  C   UNL     1       2.369   1.609  -0.978  1.00  0.00     0.045 A 
ATOM     17  C   UNL     1       1.440   2.024   0.007  1.00  0.00    -0.024 A 
ATOM     18  C   UNL     1       1.163   3.406   0.134  1.00  0.00     0.006 A 
ATOM     19  C   UNL     1       1.713   4.348  -0.725  1.00  0.00     0.001 A 
ATOM     20  C   UNL     1       2.772   2.553  -1.957  1.00  0.00    -0.027 A 
ATOM     21  C   UNL     1       2.485   3.918  -1.791  1.00  0.00     0.005 A 
ATOM     22  C   UNL     1       3.441   2.135  -3.236  1.00  0.00     0.046 C 
BRANCH  17  23
ATOM     23  C   UNL     1       0.672   1.155   0.987  1.00  0.00     0.034 C 
ATOM     24  C   UNL     1       0.655  -0.360   0.861  1.00  0.00     0.009 C 
ENDBRANCH  17  23
ENDBRANCH  14  16
ENDBRANCH   9  14
ENDBRANCH   7   8
ENDBRANCH   4   7
ENDBRANCH   2   3
ENDBRANCH   1   2
BRANCH   1  25
ATOM     25  C   UNL     1       6.523   3.351  -3.905  1.00  0.00     0.023 C 
BRANCH  25  26
ATOM     26  C   UNL     1       7.351   4.526  -4.405  1.00  0.00     0.116 C 
BRANCH  26  27
ATOM     27  N   UNL     1       7.294   4.652  -5.862  1.00  0.00    -0.352 N 
ATOM     28  C   UNL     1       7.607   5.759  -6.644  1.00  0.00     0.251 C 
ATOM     29  H   UNL     1       6.995   3.851  -6.351  1.00  0.00     0.163 HD
ATOM     30  O   UNL     1       7.501   5.774  -7.839  1.00  0.00    -0.269 OA
BRANCH  28  31
ATOM     31  C   UNL     1       8.115   6.931  -5.898  1.00  0.00     0.039 A 
ATOM     32  C   UNL     1       9.501   7.090  -5.817  1.00  0.00     0.014 A 
ATOM     33  C   UNL     1       7.247   7.559  -5.009  1.00  0.00     0.014 A 
ATOM     34  C   UNL     1      10.040   7.720  -4.701  1.00  0.00     0.010 A 
ATOM     35  C   UNL     1       7.791   8.110  -3.864  1.00  0.00     0.010 A 
ATOM     36  C   UNL     1       9.185   8.125  -3.676  1.00  0.00    -0.014 A 
BRANCH  36  37
ATOM     37  C   UNL     1       9.644   8.431  -2.321  1.00  0.00     0.031 A 
ATOM     38  C   UNL     1       9.473   9.797  -1.766  1.00  0.00     0.074 A 
ATOM     39  C   UNL     1      10.157   7.460  -1.532  1.00  0.00     0.049 A 
ATOM     40  N   UNL     1      10.032  10.234  -0.686  1.00  0.00    -0.248 NA
ATOM     41  C   UNL     1       8.704  10.823  -2.457  1.00  0.00     0.031 C 
ATOM     42  C   UNL     1      10.290   7.493  -0.078  1.00  0.00     0.029 A 
ATOM     43  N   UNL     1      10.840   6.307  -1.893  1.00  0.00    -0.354 N 
ATOM     44  C   UNL     1       9.492  11.467  -0.390  1.00  0.00     0.074 A 
ATOM     45  C   UNL     1       8.741  11.819  -1.569  1.00  0.00     0.031 C 
ATOM     46  C   UNL     1      11.185   6.569   0.303  1.00  0.00     0.029 A 
ATOM     47  C   UNL     1      11.777   6.010  -0.898  1.00  0.00     0.049 A 
ATOM     48  H   UNL     1      10.689   5.784  -2.714  1.00  0.00     0.167 HD
ATOM     49  C   UNL     1       9.654  11.976   0.869  1.00  0.00     0.037 A 
ATOM     50  C   UNL     1      13.121   5.988  -1.145  1.00  0.00     0.037 A 
ATOM     51  C   UNL     1      10.661  11.209   1.612  1.00  0.00     0.049 A 
ATOM     52  C   UNL     1      13.919   7.021  -0.379  1.00  0.00     0.074 A 
ATOM     53  C   UNL     1      10.586  10.221   2.581  1.00  0.00     0.029 A 
ATOM     54  N   UNL     1      11.984  11.224   1.175  1.00  0.00    -0.354 N 
ATOM     55  N   UNL     1      13.389   8.022   0.268  1.00  0.00    -0.248 NA
ATOM     56  C   UNL     1      15.379   7.024  -0.302  1.00  0.00     0.031 C 
ATOM     57  C   UNL     1      11.855   9.591   2.668  1.00  0.00     0.029 A 
ATOM     58  C   UNL     1      12.708  10.207   1.769  1.00  0.00     0.049 A 
ATOM     59  H   UNL     1      12.352  11.870   0.530  1.00  0.00     0.167 HD
ATOM     60  C   UNL     1      14.380   8.818   0.780  1.00  0.00     0.074 A 
ATOM     61  C   UNL     1      15.608   8.126   0.433  1.00  0.00     0.031 C 
ATOM     62  C   UNL     1      14.109   9.992   1.426  1.00  0.00     0.037 A 
BRANCH  49  63
ATOM     63  C   UNL     1       8.707  12.983   1.522  1.00  0.00     0.058 A 
ATOM     64  C   UNL     1       8.582  13.048   2.931  1.00  0.00     0.135 A 
ATOM     65  C   UNL     1       7.821  13.839   0.837  1.00  0.00     0.135 A 
ATOM     66  F   UNL     1       9.409  12.371   3.739  1.00  0.00    -0.206 F 
ATOM     67  C   UNL     1       7.597  13.800   3.585  1.00  0.00     0.059 A 
ATOM     68  C   UNL     1       6.802  14.567   1.462  1.00  0.00     0.059 A 
ATOM     69  F   UNL     1       7.923  14.068  -0.473  1.00  0.00    -0.206 F 
ATOM     70  C   UNL     1       6.685  14.530   2.839  1.00  0.00     0.060 A 
BRANCH  70  71
ATOM     71  S   UNL     1       5.370  15.437   3.674  1.00  0.00     0.124 S 
ATOM     72  O   UNL     1       4.683  14.377   4.405  1.00  0.00    -0.237 OA
ATOM     73  O   UNL     1       6.122  16.388   4.485  1.00  0.00    -0.237 OA
ATOM     74  O   UNL     1       4.608  16.023   2.573  1.00  0.00    -0.744 OA
ENDBRANCH  70  71
ENDBRANCH  49  63
BRANCH  50  75
ATOM     75  C   UNL     1      13.474   5.442  -2.481  1.00  0.00     0.058 A 
ATOM     76  C   UNL     1      13.297   4.060  -2.670  1.00  0.00     0.135 A 
ATOM     77  C   UNL     1      13.502   6.261  -3.618  1.00  0.00     0.135 A 
ATOM     78  F   UNL     1      13.292   3.232  -1.612  1.00  0.00    -0.206 F 
ATOM     79  C   UNL     1      12.964   3.535  -3.911  1.00  0.00     0.059 A 
ATOM     80  C   UNL     1      13.174   5.753  -4.877  1.00  0.00     0.059 A 
ATOM     81  F   UNL     1      13.676   7.585  -3.495  1.00  0.00    -0.206 F 
ATOM     82  C   UNL     1      12.827   4.406  -4.989  1.00  0.00     0.060 A 
BRANCH  82  83
ATOM     83  S   UNL     1      11.956   3.790  -6.449  1.00  0.00     0.124 S 
ATOM     84  O   UNL     1      12.789   2.662  -6.849  1.00  0.00    -0.237 OA
ATOM     85  O   UNL     1      10.655   3.449  -5.875  1.00  0.00    -0.237 OA
ATOM     86  O   UNL     1      11.963   4.936  -7.351  1.00  0.00    -0.744 OA
ENDBRANCH  82  83
ENDBRANCH  50  75
BRANCH  62  87
ATOM     87  C   UNL     1      15.138  11.009   1.859  1.00  0.00     0.058 A 
ATOM     88  C   UNL     1      16.334  11.263   1.165  1.00  0.00     0.135 A 
ATOM     89  C   UNL     1      14.873  11.870   2.951  1.00  0.00     0.135 A 
ATOM     90  F   UNL     1      16.643  10.593   0.045  1.00  0.00    -0.206 F 
ATOM     91  C   UNL     1      17.240  12.247   1.566  1.00  0.00     0.059 A 
ATOM     92  C   UNL     1      15.738  12.893   3.336  1.00  0.00     0.059 A 
ATOM     93  F   UNL     1      13.752  11.748   3.678  1.00  0.00    -0.206 F 
ATOM     94  C   UNL     1      16.935  13.057   2.654  1.00  0.00     0.060 A 
BRANCH  94  95
ATOM     95  S   UNL     1      18.066  14.370   3.154  1.00  0.00     0.124 S 
ATOM     96  O   UNL     1      18.819  13.716   4.220  1.00  0.00    -0.237 OA
ATOM     97  O   UNL     1      18.817  14.641   1.931  1.00  0.00    -0.237 OA
ATOM     98  O   UNL     1      17.165  15.437   3.575  1.00  0.00    -0.744 OA
ENDBRANCH  94  95
ENDBRANCH  62  87
ENDBRANCH  36  37
ENDBRANCH  28  31
ENDBRANCH  26  27
ENDBRANCH  25  26
ENDBRANCH   1  25
TORSDOF 18
