REMARK SMILES CCOc1ccc(-c2nc(C(=O)NCCCCNC(=O)c3ccc(-c4c5nc(c(-c6c(F)cc(S(=O)(=O)[O-])cc6F)c6ccc([nH]6)c(-c6c(F)cc(S(=O)(=O)[O-])cc6F)c6nc(c(-c7c(F)cc(S(=O)(=O)[O-])cc7F)c7ccc4[nH]7)C=C6)C=C5)cc3)cc(=O)[nH]2)cc1
REMARK SMILES IDX 15 1 14 2 13 3 11 4 12 5 10 7 8 8 9 9 90 10 88 11 87 13
REMARK SMILES IDX 89 14 7 15 4 16 5 17 92 18 6 19 91 20 3 21 2 22 1 23 16 24
REMARK SMILES IDX 17 25 18 26 19 27 20 29 21 30 22 31 86 32 23 33 85 34 24 35
REMARK SMILES IDX 25 36 26 37 79 38 27 39 84 40 78 41 80 42 28 43 83 44 77 45
REMARK SMILES IDX 76 46 29 48 63 49 42 50 62 51 43 52 46 53 61 54 81 55 44 56
REMARK SMILES IDX 45 57 60 59 82 60 47 61 30 62 31 63 40 64 32 65 33 66 39 67
REMARK SMILES IDX 41 68 34 69 35 70 36 71 37 72 38 73 64 74 65 75 74 76 66 77
REMARK SMILES IDX 67 78 73 79 75 80 68 81 69 82 70 83 71 84 72 85 48 86 49 87
REMARK SMILES IDX 58 88 50 89 51 90 57 91 59 92 52 93 53 94 54 95 55 96 56 97
REMARK H PARENT 13 6 90 12 18 28 80 47 46 58
REMARK Flexibility Score: inf
ROOT
ATOM      1  C   UNL     1      12.629  -2.641   1.774  1.00  0.00     0.023 C 
ENDROOT
BRANCH   1   2
ATOM      2  C   UNL     1      11.592  -3.756   1.805  1.00  0.00     0.116 C 
BRANCH   2   3
ATOM      3  N   UNL     1      10.535  -3.549   2.777  1.00  0.00    -0.351 N 
ATOM      4  C   UNL     1       9.172  -3.535   2.687  1.00  0.00     0.270 C 
ATOM      5  O   UNL     1       8.552  -3.321   3.733  1.00  0.00    -0.268 OA
ATOM      6  H   UNL     1      10.869  -3.385   3.689  1.00  0.00     0.163 HD
BRANCH   4   7
ATOM      7  C   UNL     1       8.418  -3.715   1.381  1.00  0.00     0.136 A 
ATOM      8  C   UNL     1       6.427  -3.408   0.279  1.00  0.00     0.141 A 
ATOM      9  N   UNL     1       7.149  -3.160   1.323  1.00  0.00    -0.225 NA
ATOM     10  N   UNL     1       6.918  -4.050  -0.826  1.00  0.00    -0.306 N 
ATOM     11  C   UNL     1       8.168  -4.579  -0.851  1.00  0.00     0.251 A 
ATOM     12  H   UNL     1       6.349  -4.131  -1.625  1.00  0.00     0.171 HD
ATOM     13  C   UNL     1       8.896  -4.514   0.418  1.00  0.00     0.105 A 
ATOM     14  O   UNL     1       8.659  -5.080  -1.849  1.00  0.00    -0.269 OA
BRANCH   8  15
ATOM     15  C   UNL     1       4.997  -3.034   0.215  1.00  0.00     0.018 A 
ATOM     16  C   UNL     1       2.287  -2.401   0.177  1.00  0.00     0.119 A 
ATOM     17  C   UNL     1       2.714  -3.611  -0.362  1.00  0.00     0.047 A 
ATOM     18  C   UNL     1       3.197  -1.534   0.784  1.00  0.00     0.047 A 
ATOM     19  C   UNL     1       4.072  -3.929  -0.346  1.00  0.00     0.016 A 
ATOM     20  C   UNL     1       4.558  -1.846   0.799  1.00  0.00     0.016 A 
BRANCH  16  21
ATOM     21  O   UNL     1       0.945  -2.146   0.208  1.00  0.00    -0.494 OA
BRANCH  21  22
ATOM     22  C   UNL     1       0.555  -1.140  -0.735  1.00  0.00     0.226 C 
ATOM     23  C   UNL     1       0.588   0.246  -0.112  1.00  0.00     0.049 C 
ENDBRANCH  21  22
ENDBRANCH  16  21
ENDBRANCH   8  15
ENDBRANCH   4   7
ENDBRANCH   2   3
ENDBRANCH   1   2
BRANCH   1  24
ATOM     24  C   UNL     1      13.542  -2.539   2.989  1.00  0.00     0.023 C 
BRANCH  24  25
ATOM     25  C   UNL     1      14.235  -3.829   3.411  1.00  0.00     0.116 C 
BRANCH  25  26
ATOM     26  N   UNL     1      14.964  -4.487   2.335  1.00  0.00    -0.352 N 
ATOM     27  C   UNL     1      16.241  -5.000   2.338  1.00  0.00     0.251 C 
ATOM     28  H   UNL     1      14.474  -4.578   1.486  1.00  0.00     0.163 HD
ATOM     29  O   UNL     1      16.730  -5.444   1.304  1.00  0.00    -0.269 OA
BRANCH  27  30
ATOM     30  C   UNL     1      17.030  -4.973   3.587  1.00  0.00     0.039 A 
ATOM     31  C   UNL     1      18.331  -4.466   3.555  1.00  0.00     0.014 A 
ATOM     32  C   UNL     1      16.465  -5.391   4.794  1.00  0.00     0.014 A 
ATOM     33  C   UNL     1      19.034  -4.302   4.750  1.00  0.00     0.010 A 
ATOM     34  C   UNL     1      17.131  -5.142   5.989  1.00  0.00     0.010 A 
ATOM     35  C   UNL     1      18.423  -4.595   5.981  1.00  0.00    -0.014 A 
BRANCH  35  36
ATOM     36  C   UNL     1      19.118  -4.336   7.268  1.00  0.00     0.031 A 
ATOM     37  C   UNL     1      19.420  -5.475   8.204  1.00  0.00     0.074 A 
ATOM     38  C   UNL     1      19.419  -3.070   7.623  1.00  0.00     0.049 A 
ATOM     39  N   UNL     1      19.964  -5.446   9.393  1.00  0.00    -0.248 NA
ATOM     40  C   UNL     1      19.032  -6.824   7.757  1.00  0.00     0.031 C 
ATOM     41  C   UNL     1      19.123  -1.875   6.829  1.00  0.00     0.029 A 
ATOM     42  N   UNL     1      20.031  -2.574   8.747  1.00  0.00    -0.354 N 
ATOM     43  C   UNL     1      19.974  -6.762   9.838  1.00  0.00     0.074 A 
ATOM     44  C   UNL     1      19.322  -7.557   8.821  1.00  0.00     0.031 C 
ATOM     45  C   UNL     1      19.578  -0.790   7.477  1.00  0.00     0.029 A 
ATOM     46  C   UNL     1      20.159  -1.204   8.750  1.00  0.00     0.049 A 
ATOM     47  H   UNL     1      20.348  -3.146   9.483  1.00  0.00     0.167 HD
ATOM     48  C   UNL     1      20.505  -7.268  10.976  1.00  0.00     0.037 A 
ATOM     49  C   UNL     1      20.678  -0.375   9.676  1.00  0.00     0.037 A 
ATOM     50  C   UNL     1      21.169  -6.472  11.975  1.00  0.00     0.049 A 
ATOM     51  C   UNL     1      21.259  -0.959  10.937  1.00  0.00     0.074 A 
ATOM     52  C   UNL     1      21.788  -6.894  13.138  1.00  0.00     0.029 A 
ATOM     53  N   UNL     1      21.299  -5.091  11.932  1.00  0.00    -0.354 N 
ATOM     54  N   UNL     1      21.323  -2.216  11.309  1.00  0.00    -0.248 NA
ATOM     55  C   UNL     1      21.846  -0.017  11.898  1.00  0.00     0.031 C 
ATOM     56  C   UNL     1      22.246  -5.764  13.824  1.00  0.00     0.029 A 
ATOM     57  C   UNL     1      21.967  -4.643  13.059  1.00  0.00     0.049 A 
ATOM     58  H   UNL     1      20.964  -4.515  11.207  1.00  0.00     0.167 HD
ATOM     59  C   UNL     1      21.982  -2.217  12.534  1.00  0.00     0.074 A 
ATOM     60  C   UNL     1      22.309  -0.838  12.831  1.00  0.00     0.031 C 
ATOM     61  C   UNL     1      22.291  -3.265  13.338  1.00  0.00     0.037 A 
BRANCH  48  62
ATOM     62  C   UNL     1      20.392  -8.753  11.199  1.00  0.00     0.058 A 
ATOM     63  C   UNL     1      21.097  -9.674  10.405  1.00  0.00     0.135 A 
ATOM     64  C   UNL     1      19.595  -9.263  12.236  1.00  0.00     0.135 A 
ATOM     65  F   UNL     1      21.862  -9.245   9.389  1.00  0.00    -0.206 F 
ATOM     66  C   UNL     1      20.990 -11.045  10.611  1.00  0.00     0.059 A 
ATOM     67  C   UNL     1      19.499 -10.630  12.481  1.00  0.00     0.059 A 
ATOM     68  F   UNL     1      18.898  -8.431  13.025  1.00  0.00    -0.206 F 
ATOM     69  C   UNL     1      20.189 -11.514  11.653  1.00  0.00     0.060 A 
BRANCH  69  70
ATOM     70  S   UNL     1      20.068 -13.296  11.909  1.00  0.00     0.124 S 
ATOM     71  O   UNL     1      19.266 -13.702  10.758  1.00  0.00    -0.237 OA
ATOM     72  O   UNL     1      21.467 -13.710  11.883  1.00  0.00    -0.237 OA
ATOM     73  O   UNL     1      19.407 -13.411  13.205  1.00  0.00    -0.744 OA
ENDBRANCH  69  70
ENDBRANCH  48  62
BRANCH  49  74
ATOM     74  C   UNL     1      20.692   1.094   9.437  1.00  0.00     0.058 A 
ATOM     75  C   UNL     1      21.894   1.781   9.209  1.00  0.00     0.135 A 
ATOM     76  C   UNL     1      19.503   1.840   9.418  1.00  0.00     0.135 A 
ATOM     77  F   UNL     1      23.059   1.115   9.223  1.00  0.00    -0.206 F 
ATOM     78  C   UNL     1      21.921   3.155   8.990  1.00  0.00     0.059 A 
ATOM     79  C   UNL     1      19.501   3.210   9.173  1.00  0.00     0.059 A 
ATOM     80  F   UNL     1      18.323   1.231   9.613  1.00  0.00    -0.206 F 
ATOM     81  C   UNL     1      20.717   3.861   8.970  1.00  0.00     0.060 A 
BRANCH  81  82
ATOM     82  S   UNL     1      20.759   5.635   8.637  1.00  0.00     0.124 S 
ATOM     83  O   UNL     1      21.330   6.153   9.875  1.00  0.00    -0.237 OA
ATOM     84  O   UNL     1      21.619   5.704   7.460  1.00  0.00    -0.237 OA
ATOM     85  O   UNL     1      19.357   5.966   8.401  1.00  0.00    -0.744 OA
ENDBRANCH  81  82
ENDBRANCH  49  74
BRANCH  61  86
ATOM     86  C   UNL     1      23.055  -2.969  14.600  1.00  0.00     0.058 A 
ATOM     87  C   UNL     1      22.462  -2.315  15.691  1.00  0.00     0.135 A 
ATOM     88  C   UNL     1      24.387  -3.394  14.738  1.00  0.00     0.135 A 
ATOM     89  F   UNL     1      21.193  -1.882  15.611  1.00  0.00    -0.206 F 
ATOM     90  C   UNL     1      23.170  -2.067  16.862  1.00  0.00     0.059 A 
ATOM     91  C   UNL     1      25.104  -3.186  15.912  1.00  0.00     0.059 A 
ATOM     92  F   UNL     1      25.000  -4.036  13.730  1.00  0.00    -0.206 F 
ATOM     93  C   UNL     1      24.490  -2.509  16.964  1.00  0.00     0.060 A 
BRANCH  93  94
ATOM     94  S   UNL     1      25.387  -2.207  18.501  1.00  0.00     0.124 S 
ATOM     95  O   UNL     1      25.627  -0.769  18.424  1.00  0.00    -0.237 OA
ATOM     96  O   UNL     1      24.427  -2.636  19.512  1.00  0.00    -0.237 OA
ATOM     97  O   UNL     1      26.573  -3.049  18.374  1.00  0.00    -0.744 OA
ENDBRANCH  93  94
ENDBRANCH  61  86
ENDBRANCH  35  36
ENDBRANCH  27  30
ENDBRANCH  25  26
ENDBRANCH  24  25
ENDBRANCH   1  24
TORSDOF 17
