REMARK SMILES Cc1c(Cl)cccc1NC(=O)C[C@H](C(=O)NCCCCNC(=O)c1ccc(-c2c3nc(c(-c4c(F)cc(S(=O)(=O)[O-])cc4F)c4ccc([nH]4)c(-c4c(F)cc(S(=O)(=O)[O-])cc4F)c4nc(c(-c5c(F)cc(S(=O)(=O)[O-])cc5F)c5ccc2[nH]5)C=C4)C=C3)cc1)[C@H](C)c1ccccc1
REMARK SMILES IDX 18 1 17 2 16 3 14 4 15 5 13 7 12 8 10 9 9 10 11 12 8 13 1 14
REMARK SMILES IDX 2 15 3 16 4 17 5 18 7 19 6 20 90 21 91 22 92 23 93 24 97 25
REMARK SMILES IDX 94 26 96 27 95 28 19 29 20 30 21 31 22 32 23 34 24 35 25 36
REMARK SMILES IDX 89 37 26 38 88 39 27 40 28 41 29 42 82 43 30 44 87 45 81 46
REMARK SMILES IDX 83 47 31 48 86 49 80 50 79 51 32 53 66 54 45 55 65 56 46 57
REMARK SMILES IDX 49 58 64 59 84 60 47 61 48 62 63 64 85 65 50 66 33 67 34 68
REMARK SMILES IDX 43 69 35 70 36 71 42 72 44 73 37 74 38 75 39 76 40 77 41 78
REMARK SMILES IDX 67 79 68 80 77 81 69 82 70 83 76 84 78 85 71 86 72 87 73 88
REMARK SMILES IDX 74 89 75 90 51 91 52 92 61 93 53 94 54 95 60 96 62 97 55 98
REMARK SMILES IDX 56 99 57 100 58 101 59 102
REMARK H PARENT 16 6 9 11 21 33 83 52 49 63
REMARK Flexibility Score: inf
ROOT
ATOM      1  C   UNL     1      -4.569   0.424   2.688  1.00  0.00     0.023 C 
ENDROOT
BRANCH   1   2
ATOM      2  C   UNL     1      -4.914  -0.753   0.881  1.00  0.00     0.116 C 
BRANCH   2   3
ATOM      3  N   UNL     1      -6.254  -1.398   0.256  1.00  0.00    -0.356 N 
ATOM      4  C   UNL     1      -6.910  -1.231  -0.921  1.00  0.00     0.224 C 
ATOM      5  O   UNL     1      -7.982  -1.823  -1.069  1.00  0.00    -0.275 OA
ATOM      6  H   UNL     1      -6.687  -2.049   0.854  1.00  0.00     0.163 HD
BRANCH   4   7
ATOM      7  C   UNL     1      -6.368  -0.310  -2.007  1.00  0.00     0.095 C 
BRANCH   7   8
ATOM      8  C   UNL     1      -6.791   1.131  -1.621  1.00  0.00     0.114 C 
BRANCH   8   9
ATOM      9  C   UNL     1      -5.808   2.245  -1.340  1.00  0.00     0.225 C 
ATOM     10  N   UNL     1      -5.160   2.369  -0.143  1.00  0.00    -0.326 N 
ATOM     11  H   UNL     1      -4.778   3.252   0.069  1.00  0.00     0.169 HD
ATOM     12  O   UNL     1      -5.549   3.076  -2.217  1.00  0.00    -0.275 OA
BRANCH  10  13
ATOM     13  C   UNL     1      -4.989   1.361   0.805  1.00  0.00     0.045 A 
ATOM     14  C   UNL     1      -2.136   1.466   0.443  1.00  0.00     0.048 C 
ATOM     15  C   UNL     1      -3.316   0.702   0.973  1.00  0.00    -0.009 A 
ATOM     16  C   UNL     1      -3.037  -0.824   1.880  1.00  0.00     0.046 A 
ATOM     17  Cl  UNL     1      -1.457  -1.490   1.991  1.00  0.00    -0.084 Cl
ATOM     18  C   UNL     1      -4.413  -1.674   2.673  1.00  0.00     0.021 A 
ATOM     19  C   UNL     1      -6.370   0.551   1.636  1.00  0.00     0.026 A 
ATOM     20  C   UNL     1      -6.084  -0.981   2.577  1.00  0.00     0.004 A 
ENDBRANCH  10  13
ENDBRANCH   8   9
ENDBRANCH   7   8
BRANCH   7  21
ATOM     21  C   UNL     1      -4.943  -0.795  -2.426  1.00  0.00     0.029 C 
ATOM     22  C   UNL     1      -3.842   0.251  -2.587  1.00  0.00     0.013 C 
BRANCH  21  23
ATOM     23  C   UNL     1      -4.914  -1.825  -3.564  1.00  0.00    -0.044 A 
ATOM     24  C   UNL     1      -5.310  -3.149  -3.299  1.00  0.00     0.004 A 
ATOM     25  C   UNL     1      -4.312  -1.546  -4.798  1.00  0.00     0.004 A 
ATOM     26  C   UNL     1      -5.011  -4.175  -4.197  1.00  0.00     0.000 A 
ATOM     27  C   UNL     1      -3.999  -2.574  -5.686  1.00  0.00     0.000 A 
ATOM     28  C   UNL     1      -4.328  -3.890  -5.376  1.00  0.00     0.000 A 
ENDBRANCH  21  23
ENDBRANCH   7  21
ENDBRANCH   4   7
ENDBRANCH   2   3
ENDBRANCH   1   2
BRANCH   1  29
ATOM     29  C   UNL     1      -5.024   0.343   4.344  1.00  0.00     0.023 C 
BRANCH  29  30
ATOM     30  C   UNL     1      -4.445  -0.719   5.273  1.00  0.00     0.116 C 
BRANCH  30  31
ATOM     31  N   UNL     1      -3.006  -0.905   5.132  1.00  0.00    -0.352 N 
ATOM     32  C   UNL     1      -2.199  -1.716   5.887  1.00  0.00     0.251 C 
ATOM     33  H   UNL     1      -2.566  -0.393   4.416  1.00  0.00     0.163 HD
ATOM     34  O   UNL     1      -1.002  -1.834   5.669  1.00  0.00    -0.269 OA
BRANCH  32  35
ATOM     35  C   UNL     1      -2.832  -2.363   7.038  1.00  0.00     0.039 A 
ATOM     36  C   UNL     1      -2.556  -1.828   8.294  1.00  0.00     0.014 A 
ATOM     37  C   UNL     1      -3.840  -3.309   6.839  1.00  0.00     0.014 A 
ATOM     38  C   UNL     1      -3.337  -2.217   9.370  1.00  0.00     0.010 A 
ATOM     39  C   UNL     1      -4.671  -3.631   7.902  1.00  0.00     0.010 A 
ATOM     40  C   UNL     1      -4.419  -3.091   9.173  1.00  0.00    -0.014 A 
BRANCH  40  41
ATOM     41  C   UNL     1      -5.272  -3.463  10.320  1.00  0.00     0.031 A 
ATOM     42  C   UNL     1      -5.264  -4.883  10.801  1.00  0.00     0.074 A 
ATOM     43  C   UNL     1      -6.024  -2.519  10.918  1.00  0.00     0.049 A 
ATOM     44  N   UNL     1      -5.909  -5.411  11.805  1.00  0.00    -0.248 NA
ATOM     45  C   UNL     1      -4.439  -5.841  10.044  1.00  0.00     0.031 C 
ATOM     46  C   UNL     1      -6.116  -1.117  10.496  1.00  0.00     0.029 A 
ATOM     47  N   UNL     1      -6.842  -2.586  12.015  1.00  0.00    -0.354 N 
ATOM     48  C   UNL     1      -5.571  -6.758  11.798  1.00  0.00     0.074 A 
ATOM     49  C   UNL     1      -4.718  -6.982  10.654  1.00  0.00     0.031 C 
ATOM     50  C   UNL     1      -6.910  -0.451  11.349  1.00  0.00     0.029 A 
ATOM     51  C   UNL     1      -7.420  -1.384  12.348  1.00  0.00     0.049 A 
ATOM     52  H   UNL     1      -7.001  -3.418  12.517  1.00  0.00     0.167 HD
ATOM     53  C   UNL     1      -5.921  -7.713  12.687  1.00  0.00     0.037 A 
ATOM     54  C   UNL     1      -8.269  -1.077  13.348  1.00  0.00     0.037 A 
ATOM     55  C   UNL     1      -6.758  -7.460  13.829  1.00  0.00     0.049 A 
ATOM     56  C   UNL     1      -8.667  -2.170  14.305  1.00  0.00     0.074 A 
ATOM     57  C   UNL     1      -7.146  -8.342  14.820  1.00  0.00     0.029 A 
ATOM     58  N   UNL     1      -7.340  -6.236  14.127  1.00  0.00    -0.354 N 
ATOM     59  N   UNL     1      -8.287  -3.427  14.324  1.00  0.00    -0.248 NA
ATOM     60  C   UNL     1      -9.599  -1.808  15.379  1.00  0.00     0.031 C 
ATOM     61  C   UNL     1      -8.020  -7.669  15.678  1.00  0.00     0.029 A 
ATOM     62  C   UNL     1      -8.113  -6.348  15.269  1.00  0.00     0.049 A 
ATOM     63  H   UNL     1      -7.221  -5.410  13.604  1.00  0.00     0.167 HD
ATOM     64  C   UNL     1      -8.908  -3.996  15.430  1.00  0.00     0.074 A 
ATOM     65  C   UNL     1      -9.672  -2.940  16.063  1.00  0.00     0.031 C 
ATOM     66  C   UNL     1      -8.854  -5.273  15.884  1.00  0.00     0.037 A 
BRANCH  53  67
ATOM     67  C   UNL     1      -5.416  -9.109  12.457  1.00  0.00     0.058 A 
ATOM     68  C   UNL     1      -4.057  -9.440  12.592  1.00  0.00     0.135 A 
ATOM     69  C   UNL     1      -6.312 -10.143  12.144  1.00  0.00     0.135 A 
ATOM     70  F   UNL     1      -3.151  -8.487  12.863  1.00  0.00    -0.206 F 
ATOM     71  C   UNL     1      -3.605 -10.743  12.413  1.00  0.00     0.059 A 
ATOM     72  C   UNL     1      -5.888 -11.459  11.994  1.00  0.00     0.059 A 
ATOM     73  F   UNL     1      -7.620  -9.880  11.989  1.00  0.00    -0.206 F 
ATOM     74  C   UNL     1      -4.531 -11.748  12.125  1.00  0.00     0.060 A 
BRANCH  74  75
ATOM     75  S   UNL     1      -3.932 -13.440  11.943  1.00  0.00     0.124 S 
ATOM     76  O   UNL     1      -3.174 -13.351  10.698  1.00  0.00    -0.237 OA
ATOM     77  O   UNL     1      -3.140 -13.618  13.156  1.00  0.00    -0.237 OA
ATOM     78  O   UNL     1      -5.157 -14.230  11.875  1.00  0.00    -0.744 OA
ENDBRANCH  74  75
ENDBRANCH  53  67
BRANCH  54  79
ATOM     79  C   UNL     1      -8.797   0.308  13.496  1.00  0.00     0.058 A 
ATOM     80  C   UNL     1      -8.486   1.092  14.618  1.00  0.00     0.135 A 
ATOM     81  C   UNL     1      -9.642   0.870  12.525  1.00  0.00     0.135 A 
ATOM     82  F   UNL     1      -7.684   0.604  15.576  1.00  0.00    -0.206 F 
ATOM     83  C   UNL     1      -9.019   2.366  14.789  1.00  0.00     0.059 A 
ATOM     84  C   UNL     1     -10.159   2.155  12.657  1.00  0.00     0.059 A 
ATOM     85  F   UNL     1      -9.958   0.174  11.422  1.00  0.00    -0.206 F 
ATOM     86  C   UNL     1      -9.856   2.889  13.802  1.00  0.00     0.060 A 
BRANCH  86  87
ATOM     87  S   UNL     1     -10.530   4.549  14.026  1.00  0.00     0.124 S 
ATOM     88  O   UNL     1     -11.470   4.338  15.122  1.00  0.00    -0.237 OA
ATOM     89  O   UNL     1      -9.335   5.322  14.348  1.00  0.00    -0.237 OA
ATOM     90  O   UNL     1     -11.130   4.845  12.729  1.00  0.00    -0.744 OA
ENDBRANCH  86  87
ENDBRANCH  54  79
BRANCH  66  91
ATOM     91  C   UNL     1      -9.602  -5.589  17.149  1.00  0.00     0.058 A 
ATOM     92  C   UNL     1     -11.004  -5.616  17.196  1.00  0.00     0.135 A 
ATOM     93  C   UNL     1      -8.899  -5.930  18.317  1.00  0.00     0.135 A 
ATOM     94  F   UNL     1     -11.724  -5.294  16.110  1.00  0.00    -0.206 F 
ATOM     95  C   UNL     1     -11.683  -5.941  18.365  1.00  0.00     0.059 A 
ATOM     96  C   UNL     1      -9.557  -6.297  19.484  1.00  0.00     0.059 A 
ATOM     97  F   UNL     1      -7.556  -5.933  18.322  1.00  0.00    -0.206 F 
ATOM     98  C   UNL     1     -10.950  -6.287  19.502  1.00  0.00     0.060 A 
BRANCH  98  99
ATOM     99  S   UNL     1     -11.847  -6.743  20.999  1.00  0.00     0.124 S 
ATOM    100  O   UNL     1     -12.408  -5.460  21.408  1.00  0.00    -0.237 OA
ATOM    101  O   UNL     1     -12.805  -7.724  20.499  1.00  0.00    -0.237 OA
ATOM    102  O   UNL     1     -10.806  -7.279  21.870  1.00  0.00    -0.744 OA
ENDBRANCH  98  99
ENDBRANCH  66  91
ENDBRANCH  40  41
ENDBRANCH  32  35
ENDBRANCH  30  31
ENDBRANCH  29  30
ENDBRANCH   1  29
TORSDOF 19
