REMARK SMILES CC[C@@H]1CCC[C@@H]([NH+]2CC(n3cc(C(=O)NCCCCNC(=O)c4ccc(-c5c6nc(c(-c7c(F)cc(S(=O)(=O)[O-])cc7F)c7ccc([nH]7)c(-c7c(F)cc(S(=O)(=O)[O-])cc7F)c7nc(c(-c8c(F)cc(S(=O)(=O)[O-])cc8F)c8ccc5[nH]8)C=C7)C=C6)cc4)nn3)C2)C1
REMARK SMILES IDX 18 1 17 2 16 3 14 4 15 5 13 7 11 8 12 9 91 10 90 11 10 12
REMARK SMILES IDX 8 13 9 14 92 15 7 17 3 18 4 19 93 20 5 21 6 22 2 23 1 24
REMARK SMILES IDX 19 25 20 26 21 27 22 28 23 30 24 31 25 32 89 33 26 34 88 35
REMARK SMILES IDX 27 36 28 37 29 38 82 39 30 40 87 41 81 42 83 43 31 44 86 45
REMARK SMILES IDX 80 46 79 47 32 49 66 50 45 51 65 52 46 53 49 54 64 55 84 56
REMARK SMILES IDX 47 57 48 58 63 60 85 61 50 62 33 63 34 64 43 65 35 66 36 67
REMARK SMILES IDX 42 68 44 69 37 70 38 71 39 72 40 73 41 74 67 75 68 76 77 77
REMARK SMILES IDX 69 78 70 79 76 80 78 81 71 82 72 83 73 84 74 85 75 86 51 87
REMARK SMILES IDX 52 88 61 89 53 90 54 91 60 92 62 93 55 94 56 95 57 96 58 97
REMARK SMILES IDX 59 98
REMARK H PARENT 16 6 8 16 21 29 83 48 49 59
REMARK Flexibility Score: inf
ROOT
ATOM      1  C   UNL     1       2.553  -7.507   8.162  1.00  0.00     0.023 C 
ENDROOT
BRANCH   1   2
ATOM      2  C   UNL     1       3.926  -6.849   8.343  1.00  0.00     0.116 C 
BRANCH   2   3
ATOM      3  N   UNL     1       4.933  -7.447   7.486  1.00  0.00    -0.351 N 
ATOM      4  C   UNL     1       5.559  -7.042   6.327  1.00  0.00     0.273 C 
ATOM      5  O   UNL     1       6.368  -7.836   5.845  1.00  0.00    -0.267 OA
ATOM      6  H   UNL     1       5.232  -8.331   7.799  1.00  0.00     0.163 HD
BRANCH   4   7
ATOM      7  C   UNL     1       5.266  -5.766   5.683  1.00  0.00     0.170 A 
ATOM      8  N   UNL     1       4.417  -3.889   4.962  1.00  0.00    -0.237 N 
ATOM      9  C   UNL     1       4.295  -4.830   5.945  1.00  0.00     0.145 A 
ATOM     10  N   UNL     1       5.404  -4.211   4.115  1.00  0.00    -0.066 NA
ATOM     11  N   UNL     1       5.948  -5.341   4.554  1.00  0.00    -0.125 NA
BRANCH   8  12
ATOM     12  C   UNL     1       3.252  -3.183   4.574  1.00  0.00     0.218 C 
ATOM     13  N   UNL     1       2.366  -1.331   4.162  1.00  0.00    -0.329 N 
ATOM     14  C   UNL     1       3.349  -2.184   3.436  1.00  0.00     0.296 C 
ATOM     15  C   UNL     1       2.833  -1.983   5.430  1.00  0.00     0.296 C 
ATOM     16  H   UNL     1       2.367  -0.322   4.006  1.00  0.00     0.348 HD
BRANCH  13  17
ATOM     17  C   UNL     1       0.919  -1.542   3.891  1.00  0.00     0.184 C 
ATOM     18  C   UNL     1       0.763  -1.774   1.315  1.00  0.00    -0.006 C 
ATOM     19  C   UNL     1       0.135  -3.169   1.473  1.00  0.00     0.004 C 
ATOM     20  C   UNL     1       0.501  -0.894   2.550  1.00  0.00     0.068 C 
ATOM     21  C   UNL     1       0.462  -3.843   2.799  1.00  0.00     0.006 C 
ATOM     22  C   UNL     1       0.226  -2.921   3.993  1.00  0.00     0.065 C 
BRANCH  18  23
ATOM     23  C   UNL     1       0.267  -1.136   0.007  1.00  0.00     0.000 C 
ATOM     24  C   UNL     1       0.934   0.197  -0.297  1.00  0.00     0.004 C 
ENDBRANCH  18  23
ENDBRANCH  13  17
ENDBRANCH   8  12
ENDBRANCH   4   7
ENDBRANCH   2   3
ENDBRANCH   1   2
BRANCH   1  25
ATOM     25  C   UNL     1       2.365  -8.803   8.966  1.00  0.00     0.023 C 
BRANCH  25  26
ATOM     26  C   UNL     1       2.410  -8.622  10.483  1.00  0.00     0.116 C 
BRANCH  26  27
ATOM     27  N   UNL     1       1.340  -7.763  10.991  1.00  0.00    -0.352 N 
ATOM     28  C   UNL     1       1.216  -7.229  12.266  1.00  0.00     0.251 C 
ATOM     29  H   UNL     1       0.624  -7.536  10.354  1.00  0.00     0.163 HD
ATOM     30  O   UNL     1       0.133  -6.892  12.707  1.00  0.00    -0.269 OA
BRANCH  28  31
ATOM     31  C   UNL     1       2.445  -7.051  13.060  1.00  0.00     0.039 A 
ATOM     32  C   UNL     1       2.521  -7.410  14.410  1.00  0.00     0.014 A 
ATOM     33  C   UNL     1       3.554  -6.551  12.386  1.00  0.00     0.014 A 
ATOM     34  C   UNL     1       3.756  -7.338  15.055  1.00  0.00     0.010 A 
ATOM     35  C   UNL     1       4.787  -6.634  12.970  1.00  0.00     0.010 A 
ATOM     36  C   UNL     1       4.890  -6.963  14.321  1.00  0.00    -0.014 A 
BRANCH  36  37
ATOM     37  C   UNL     1       6.238  -7.036  14.883  1.00  0.00     0.031 A 
ATOM     38  C   UNL     1       6.639  -8.398  15.349  1.00  0.00     0.074 A 
ATOM     39  C   UNL     1       7.118  -6.026  14.690  1.00  0.00     0.049 A 
ATOM     40  N   UNL     1       6.987  -8.764  16.539  1.00  0.00    -0.248 NA
ATOM     41  C   UNL     1       6.490  -9.528  14.412  1.00  0.00     0.031 C 
ATOM     42  C   UNL     1       6.890  -4.762  13.972  1.00  0.00     0.029 A 
ATOM     43  N   UNL     1       8.451  -5.966  14.953  1.00  0.00    -0.354 N 
ATOM     44  C   UNL     1       7.349 -10.107  16.435  1.00  0.00     0.074 A 
ATOM     45  C   UNL     1       6.812 -10.568  15.184  1.00  0.00     0.031 C 
ATOM     46  C   UNL     1       8.073  -4.206  13.636  1.00  0.00     0.029 A 
ATOM     47  C   UNL     1       9.137  -4.973  14.252  1.00  0.00     0.049 A 
ATOM     48  H   UNL     1       8.896  -6.574  15.587  1.00  0.00     0.167 HD
ATOM     49  C   UNL     1       8.296 -10.650  17.252  1.00  0.00     0.037 A 
ATOM     50  C   UNL     1      10.485  -4.821  14.156  1.00  0.00     0.037 A 
ATOM     51  C   UNL     1       8.527  -9.807  18.400  1.00  0.00     0.049 A 
ATOM     52  C   UNL     1      11.079  -5.588  15.283  1.00  0.00     0.074 A 
ATOM     53  C   UNL     1       7.726  -9.309  19.410  1.00  0.00     0.029 A 
ATOM     54  N   UNL     1       9.659  -9.027  18.400  1.00  0.00    -0.354 N 
ATOM     55  N   UNL     1      10.904  -5.271  16.538  1.00  0.00    -0.248 NA
ATOM     56  C   UNL     1      11.435  -6.977  15.036  1.00  0.00     0.031 C 
ATOM     57  C   UNL     1       8.181  -7.973  19.611  1.00  0.00     0.029 A 
ATOM     58  C   UNL     1       9.287  -7.764  18.786  1.00  0.00     0.049 A 
ATOM     59  H   UNL     1      10.569  -9.321  18.167  1.00  0.00     0.167 HD
ATOM     60  C   UNL     1      10.695  -6.481  17.185  1.00  0.00     0.074 A 
ATOM     61  C   UNL     1      11.107  -7.501  16.220  1.00  0.00     0.031 C 
ATOM     62  C   UNL     1       9.929  -6.556  18.314  1.00  0.00     0.037 A 
BRANCH  49  63
ATOM     63  C   UNL     1       9.287 -11.717  16.832  1.00  0.00     0.058 A 
ATOM     64  C   UNL     1      10.144 -12.279  17.803  1.00  0.00     0.135 A 
ATOM     65  C   UNL     1       9.631 -11.998  15.490  1.00  0.00     0.135 A 
ATOM     66  F   UNL     1       9.915 -12.084  19.112  1.00  0.00    -0.206 F 
ATOM     67  C   UNL     1      11.301 -12.984  17.465  1.00  0.00     0.059 A 
ATOM     68  C   UNL     1      10.749 -12.743  15.133  1.00  0.00     0.059 A 
ATOM     69  F   UNL     1       8.963 -11.485  14.451  1.00  0.00    -0.206 F 
ATOM     70  C   UNL     1      11.604 -13.193  16.124  1.00  0.00     0.060 A 
BRANCH  70  71
ATOM     71  S   UNL     1      13.150 -14.000  15.679  1.00  0.00     0.124 S 
ATOM     72  O   UNL     1      14.127 -12.995  16.081  1.00  0.00    -0.237 OA
ATOM     73  O   UNL     1      13.103 -15.211  16.492  1.00  0.00    -0.237 OA
ATOM     74  O   UNL     1      13.015 -14.212  14.241  1.00  0.00    -0.744 OA
ENDBRANCH  70  71
ENDBRANCH  49  63
BRANCH  50  75
ATOM     75  C   UNL     1      11.282  -4.350  12.986  1.00  0.00     0.058 A 
ATOM     76  C   UNL     1      12.648  -4.032  13.107  1.00  0.00     0.135 A 
ATOM     77  C   UNL     1      10.793  -4.464  11.668  1.00  0.00     0.135 A 
ATOM     78  F   UNL     1      13.209  -3.920  14.320  1.00  0.00    -0.206 F 
ATOM     79  C   UNL     1      13.487  -3.887  11.992  1.00  0.00     0.059 A 
ATOM     80  C   UNL     1      11.606  -4.315  10.544  1.00  0.00     0.059 A 
ATOM     81  F   UNL     1       9.521  -4.817  11.430  1.00  0.00    -0.206 F 
ATOM     82  C   UNL     1      12.959  -4.053  10.713  1.00  0.00     0.060 A 
BRANCH  82  83
ATOM     83  S   UNL     1      14.066  -4.051   9.280  1.00  0.00     0.124 S 
ATOM     84  O   UNL     1      14.471  -2.651   9.212  1.00  0.00    -0.237 OA
ATOM     85  O   UNL     1      15.101  -4.995   9.688  1.00  0.00    -0.237 OA
ATOM     86  O   UNL     1      13.208  -4.505   8.189  1.00  0.00    -0.744 OA
ENDBRANCH  82  83
ENDBRANCH  50  75
BRANCH  62  87
ATOM     87  C   UNL     1       9.535  -5.273  19.004  1.00  0.00     0.058 A 
ATOM     88  C   UNL     1       8.710  -4.280  18.442  1.00  0.00     0.135 A 
ATOM     89  C   UNL     1       9.873  -5.125  20.357  1.00  0.00     0.135 A 
ATOM     90  F   UNL     1       8.249  -4.394  17.190  1.00  0.00    -0.206 F 
ATOM     91  C   UNL     1       8.278  -3.174  19.177  1.00  0.00     0.059 A 
ATOM     92  C   UNL     1       9.428  -4.048  21.118  1.00  0.00     0.059 A 
ATOM     93  F   UNL     1      10.602  -6.069  20.974  1.00  0.00    -0.206 F 
ATOM     94  C   UNL     1       8.642  -3.067  20.518  1.00  0.00     0.060 A 
BRANCH  94  95
ATOM     95  S   UNL     1       8.030  -1.673  21.489  1.00  0.00     0.124 S 
ATOM     96  O   UNL     1       8.791  -0.558  20.936  1.00  0.00    -0.237 OA
ATOM     97  O   UNL     1       6.602  -1.678  21.188  1.00  0.00    -0.237 OA
ATOM     98  O   UNL     1       8.370  -2.039  22.862  1.00  0.00    -0.744 OA
ENDBRANCH  94  95
ENDBRANCH  62  87
ENDBRANCH  36  37
ENDBRANCH  28  31
ENDBRANCH  26  27
ENDBRANCH  25  26
ENDBRANCH   1  25
TORSDOF 17
