REMARK SMILES COc1cccc(OC)c1[C@@H](C(=O)NCCCCNC(=O)c1ccc(-c2c3nc(c(-c4c(F)cc(S(=O)(=O)[O-])cc4F)c4ccc([nH]4)c(-c4c(F)cc(S(=O)(=O)[O-])cc4F)c4nc(c(-c5c(F)cc(S(=O)(=O)[O-])cc5F)c5ccc2[nH]5)C=C4)C=C3)cc1)[N@H+](C)Cc1c(C)n[nH]c1C
REMARK SMILES IDX 16 1 15 2 14 3 12 4 13 5 11 7 10 8 3 9 4 10 5 11 7 12 6 13
REMARK SMILES IDX 2 14 1 15 8 16 9 17 88 18 89 19 90 21 91 22 92 23 96 24
REMARK SMILES IDX 93 25 94 26 95 27 97 28 17 30 18 31 19 32 20 33 21 35 22 36
REMARK SMILES IDX 23 37 87 38 24 39 86 40 25 41 26 42 27 43 80 44 28 45 85 46
REMARK SMILES IDX 79 47 81 48 29 49 84 50 78 51 77 52 30 54 64 55 43 56 63 57
REMARK SMILES IDX 44 58 47 59 62 60 82 61 45 62 46 63 61 65 83 66 48 67 31 68
REMARK SMILES IDX 32 69 41 70 33 71 34 72 40 73 42 74 35 75 36 76 37 77 38 78
REMARK SMILES IDX 39 79 65 80 66 81 75 82 67 83 68 84 74 85 76 86 69 87 70 88
REMARK SMILES IDX 71 89 72 90 73 91 49 92 50 93 59 94 51 95 52 96 58 97 60 98
REMARK SMILES IDX 53 99 54 100 55 101 56 102 57 103
REMARK H PARENT 14 6 88 20 95 29 19 34 81 53 47 64
REMARK Flexibility Score: inf
ROOT
ATOM      1  C   UNL     1       1.926  -1.887   4.262  1.00  0.00     0.023 C 
ENDROOT
BRANCH   1   2
ATOM      2  C   UNL     1       2.211  -0.689   3.363  1.00  0.00     0.116 C 
BRANCH   2   3
ATOM      3  N   UNL     1       3.563  -0.712   2.864  1.00  0.00    -0.351 N 
ATOM      4  C   UNL     1       4.116  -1.074   1.678  1.00  0.00     0.283 C 
ATOM      5  O   UNL     1       5.342  -0.930   1.675  1.00  0.00    -0.268 OA
ATOM      6  H   UNL     1       4.226  -0.399   3.521  1.00  0.00     0.163 HD
BRANCH   4   7
ATOM      7  C   UNL     1       3.285  -1.447   0.417  1.00  0.00     0.313 C 
BRANCH   7   8
ATOM      8  C   UNL     1       2.170  -2.480   0.609  1.00  0.00     0.103 A 
ATOM      9  C   UNL     1       0.799  -2.097   0.588  1.00  0.00     0.132 A 
ATOM     10  C   UNL     1      -0.231  -3.011   0.864  1.00  0.00     0.047 A 
ATOM     11  C   UNL     1       0.058  -4.341   1.132  1.00  0.00     0.008 A 
ATOM     12  C   UNL     1       2.422  -3.829   0.933  1.00  0.00     0.132 A 
ATOM     13  C   UNL     1       1.384  -4.750   1.157  1.00  0.00     0.047 A 
BRANCH   9  14
ATOM     14  O   UNL     1       0.372  -0.788   0.588  1.00  0.00    -0.496 OA
ATOM     15  C   UNL     1       0.430  -0.121  -0.664  1.00  0.00     0.278 C 
ENDBRANCH   9  14
BRANCH  12  16
ATOM     16  O   UNL     1       3.680  -4.358   0.965  1.00  0.00    -0.496 OA
ATOM     17  C   UNL     1       4.322  -4.252   2.232  1.00  0.00     0.278 C 
ENDBRANCH  12  16
ENDBRANCH   7   8
BRANCH   7  18
ATOM     18  N   UNL     1       4.145  -1.543  -0.796  1.00  0.00    -0.319 N 
ATOM     19  C   UNL     1       3.923  -0.585  -1.857  1.00  0.00     0.333 C 
ATOM     20  H   UNL     1       4.870  -1.258  -0.136  1.00  0.00     0.349 HD
BRANCH  18  21
ATOM     21  C   UNL     1       4.893  -2.725  -1.201  1.00  0.00     0.303 C 
BRANCH  21  22
ATOM     22  C   UNL     1       6.241  -2.885  -0.548  1.00  0.00     0.050 A 
ATOM     23  C   UNL     1       7.248  -1.905  -0.254  1.00  0.00     0.068 A 
ATOM     24  C   UNL     1       6.861  -4.085  -0.206  1.00  0.00     0.041 A 
ATOM     25  C   UNL     1       7.258  -0.436  -0.483  1.00  0.00     0.069 C 
ATOM     26  N   UNL     1       8.343  -2.455   0.290  1.00  0.00    -0.180 NA
ATOM     27  N   UNL     1       8.039  -3.747   0.394  1.00  0.00    -0.282 N 
ATOM     28  C   UNL     1       6.486  -5.507  -0.387  1.00  0.00     0.066 C 
ATOM     29  H   UNL     1       8.612  -4.398   0.860  1.00  0.00     0.190 HD
ENDBRANCH  21  22
ENDBRANCH  18  21
ENDBRANCH   7  18
ENDBRANCH   4   7
ENDBRANCH   2   3
ENDBRANCH   1   2
BRANCH   1  30
ATOM     30  C   UNL     1       2.898  -2.018   5.439  1.00  0.00     0.023 C 
BRANCH  30  31
ATOM     31  C   UNL     1       3.066  -0.747   6.263  1.00  0.00     0.116 C 
BRANCH  31  32
ATOM     32  N   UNL     1       1.794  -0.218   6.729  1.00  0.00    -0.352 N 
ATOM     33  C   UNL     1       1.464   0.265   7.968  1.00  0.00     0.251 C 
ATOM     34  H   UNL     1       1.070  -0.205   6.062  1.00  0.00     0.163 HD
ATOM     35  O   UNL     1       0.296   0.537   8.232  1.00  0.00    -0.269 OA
BRANCH  33  36
ATOM     36  C   UNL     1       2.520   0.421   8.985  1.00  0.00     0.039 A 
ATOM     37  C   UNL     1       2.298  -0.093  10.264  1.00  0.00     0.014 A 
ATOM     38  C   UNL     1       3.732   1.042   8.668  1.00  0.00     0.014 A 
ATOM     39  C   UNL     1       3.318  -0.035  11.212  1.00  0.00     0.010 A 
ATOM     40  C   UNL     1       4.772   1.033   9.591  1.00  0.00     0.010 A 
ATOM     41  C   UNL     1       4.574   0.497  10.872  1.00  0.00    -0.014 A 
BRANCH  41  42
ATOM     42  C   UNL     1       5.694   0.489  11.845  1.00  0.00     0.031 A 
ATOM     43  C   UNL     1       6.272   1.784  12.343  1.00  0.00     0.074 A 
ATOM     44  C   UNL     1       6.220  -0.687  12.242  1.00  0.00     0.049 A 
ATOM     45  N   UNL     1       7.285   1.979  13.147  1.00  0.00    -0.248 NA
ATOM     46  C   UNL     1       5.645   3.024  11.856  1.00  0.00     0.031 C 
ATOM     47  C   UNL     1       5.771  -2.007  11.794  1.00  0.00     0.029 A 
ATOM     48  N   UNL     1       7.249  -0.963  13.106  1.00  0.00    -0.354 N 
ATOM     49  C   UNL     1       7.420   3.357  13.258  1.00  0.00     0.074 A 
ATOM     50  C   UNL     1       6.422   3.952  12.396  1.00  0.00     0.031 C 
ATOM     51  C   UNL     1       6.500  -2.951  12.408  1.00  0.00     0.029 A 
ATOM     52  C   UNL     1       7.495  -2.307  13.259  1.00  0.00     0.049 A 
ATOM     53  H   UNL     1       7.763  -0.265  13.573  1.00  0.00     0.167 HD
ATOM     54  C   UNL     1       8.280   4.062  14.031  1.00  0.00     0.037 A 
ATOM     55  C   UNL     1       8.421  -2.949  13.997  1.00  0.00     0.037 A 
ATOM     56  C   UNL     1       9.258   3.461  14.900  1.00  0.00     0.049 A 
ATOM     57  C   UNL     1       9.370  -2.146  14.842  1.00  0.00     0.074 A 
ATOM     58  C   UNL     1      10.152   4.089  15.750  1.00  0.00     0.029 A 
ATOM     59  N   UNL     1       9.472   2.097  15.035  1.00  0.00    -0.354 N 
ATOM     60  N   UNL     1       9.462  -0.843  14.963  1.00  0.00    -0.248 NA
ATOM     61  C   UNL     1      10.335  -2.896  15.656  1.00  0.00     0.031 C 
ATOM     62  C   UNL     1      10.935   3.107  16.364  1.00  0.00     0.029 A 
ATOM     63  C   UNL     1      10.492   1.864  15.943  1.00  0.00     0.049 A 
ATOM     64  H   UNL     1       8.971   1.397  14.556  1.00  0.00     0.167 HD
ATOM     65  C   UNL     1      10.479  -0.617  15.884  1.00  0.00     0.074 A 
ATOM     66  C   UNL     1      10.963  -1.919  16.297  1.00  0.00     0.031 C 
ATOM     67  C   UNL     1      10.964   0.562  16.346  1.00  0.00     0.037 A 
BRANCH  54  68
ATOM     68  C   UNL     1       8.195   5.563  13.985  1.00  0.00     0.058 A 
ATOM     69  C   UNL     1       7.110   6.254  14.547  1.00  0.00     0.135 A 
ATOM     70  C   UNL     1       9.237   6.323  13.429  1.00  0.00     0.135 A 
ATOM     71  F   UNL     1       6.077   5.577  15.074  1.00  0.00    -0.206 F 
ATOM     72  C   UNL     1       7.054   7.643  14.548  1.00  0.00     0.059 A 
ATOM     73  C   UNL     1       9.216   7.715  13.445  1.00  0.00     0.059 A 
ATOM     74  F   UNL     1      10.296   5.713  12.873  1.00  0.00    -0.206 F 
ATOM     75  C   UNL     1       8.115   8.366  14.001  1.00  0.00     0.060 A 
BRANCH  75  76
ATOM     76  S   UNL     1       8.042  10.168  14.047  1.00  0.00     0.124 S 
ATOM     77  O   UNL     1       6.997  10.443  13.065  1.00  0.00    -0.237 OA
ATOM     78  O   UNL     1       7.688  10.429  15.438  1.00  0.00    -0.237 OA
ATOM     79  O   UNL     1       9.388  10.575  13.658  1.00  0.00    -0.744 OA
ENDBRANCH  75  76
ENDBRANCH  54  68
BRANCH  55  80
ATOM     80  C   UNL     1       8.464  -4.436  13.986  1.00  0.00     0.058 A 
ATOM     81  C   UNL     1       8.038  -5.177  15.098  1.00  0.00     0.135 A 
ATOM     82  C   UNL     1       8.878  -5.143  12.847  1.00  0.00     0.135 A 
ATOM     83  F   UNL     1       7.641  -4.546  16.213  1.00  0.00    -0.206 F 
ATOM     84  C   UNL     1       8.017  -6.568  15.080  1.00  0.00     0.059 A 
ATOM     85  C   UNL     1       8.843  -6.533  12.797  1.00  0.00     0.059 A 
ATOM     86  F   UNL     1       9.281  -4.479  11.752  1.00  0.00    -0.206 F 
ATOM     87  C   UNL     1       8.411  -7.237  13.920  1.00  0.00     0.060 A 
BRANCH  87  88
ATOM     88  S   UNL     1       8.292  -9.039  13.879  1.00  0.00     0.124 S 
ATOM     89  O   UNL     1       9.378  -9.427  14.771  1.00  0.00    -0.237 OA
ATOM     90  O   UNL     1       6.940  -9.266  14.380  1.00  0.00    -0.237 OA
ATOM     91  O   UNL     1       8.490  -9.357  12.468  1.00  0.00    -0.744 OA
ENDBRANCH  87  88
ENDBRANCH  55  80
BRANCH  67  92
ATOM     92  C   UNL     1      12.059   0.508  17.375  1.00  0.00     0.058 A 
ATOM     93  C   UNL     1      13.368   0.126  17.044  1.00  0.00     0.135 A 
ATOM     94  C   UNL     1      11.808   0.904  18.700  1.00  0.00     0.135 A 
ATOM     95  F   UNL     1      13.662  -0.266  15.794  1.00  0.00    -0.206 F 
ATOM     96  C   UNL     1      14.385   0.117  17.993  1.00  0.00     0.059 A 
ATOM     97  C   UNL     1      12.815   0.931  19.658  1.00  0.00     0.059 A 
ATOM     98  F   UNL     1      10.575   1.290  19.068  1.00  0.00    -0.206 F 
ATOM     99  C   UNL     1      14.099   0.524  19.298  1.00  0.00     0.060 A 
BRANCH  99 100
ATOM    100  S   UNL     1      15.435   0.540  20.511  1.00  0.00     0.124 S 
ATOM    101  O   UNL     1      15.631  -0.886  20.751  1.00  0.00    -0.237 OA
ATOM    102  O   UNL     1      16.508   1.213  19.785  1.00  0.00    -0.237 OA
ATOM    103  O   UNL     1      14.873   1.293  21.628  1.00  0.00    -0.744 OA
ENDBRANCH  99 100
ENDBRANCH  67  92
ENDBRANCH  41  42
ENDBRANCH  33  36
ENDBRANCH  31  32
ENDBRANCH  30  31
ENDBRANCH   1  30
TORSDOF 20
