REMARK SMILES COc1ccc2c(c1)C=C(C(=O)NCCCCNC(=O)c1ccc(-c3c4nc(c(-c5c(F)cc(S(=O)(=O)[O-])cc5F)c5ccc([nH]5)c(-c5c(F)cc(S(=O)(=O)[O-])cc5F)c5nc(c(-c6c(F)cc(S(=O)(=O)[O-])cc6F)c6ccc3[nH]6)C=C5)C=C4)cc1)[C@H](C(F)(F)F)O2
REMARK SMILES IDX 16 1 15 2 14 3 13 4 11 5 12 6 10 8 3 9 4 10 8 11 5 12 7 13
REMARK SMILES IDX 6 14 9 15 92 16 87 17 2 18 1 19 88 20 89 21 90 22 91 23
REMARK SMILES IDX 17 24 18 25 19 26 20 28 21 29 22 30 86 31 23 32 85 33 24 34
REMARK SMILES IDX 25 35 26 36 79 37 27 38 84 39 78 40 80 41 28 42 83 43 77 44
REMARK SMILES IDX 76 45 29 47 63 48 42 49 62 50 43 51 46 52 61 53 81 54 44 55
REMARK SMILES IDX 45 56 60 58 82 59 47 60 30 61 31 62 40 63 32 64 33 65 39 66
REMARK SMILES IDX 41 67 34 68 35 69 36 70 37 71 38 72 64 73 65 74 74 75 66 76
REMARK SMILES IDX 67 77 73 78 75 79 68 80 69 81 70 82 71 83 72 84 48 85 49 86
REMARK SMILES IDX 58 87 50 88 51 89 57 90 59 91 52 92 53 93 54 94 55 95 56 96
REMARK H PARENT 13 7 18 27 80 46 46 57
REMARK Flexibility Score: inf
ROOT
ATOM      1  C   UNL     1      -5.158   4.719   5.504  1.00  0.00     0.023 C 
ENDROOT
BRANCH   1   2
ATOM      2  C   UNL     1      -3.851   4.311   4.815  1.00  0.00     0.023 C 
BRANCH   2   3
ATOM      3  C   UNL     1      -2.709   5.321   4.986  1.00  0.00     0.116 C 
BRANCH   3   4
ATOM      4  N   UNL     1      -2.099   5.163   6.296  1.00  0.00    -0.352 N 
ATOM      5  C   UNL     1      -1.075   4.394   6.750  1.00  0.00     0.251 C 
ATOM      6  O   UNL     1      -0.889   4.343   7.964  1.00  0.00    -0.270 OA
ATOM      7  H   UNL     1      -2.509   5.726   6.992  1.00  0.00     0.163 HD
BRANCH   5   8
ATOM      8  C   UNL     1      -0.129   3.678   5.850  1.00  0.00     0.067 C 
ATOM      9  C   UNL     1       1.107   1.547   1.695  1.00  0.00     0.119 A 
ATOM     10  C   UNL     1       2.442   1.520   2.095  1.00  0.00     0.050 A 
ATOM     11  C   UNL     1       0.137   2.062   2.553  1.00  0.00     0.058 A 
ATOM     12  C   UNL     1       2.798   2.001   3.359  1.00  0.00     0.051 A 
ATOM     13  C   UNL     1       0.492   2.537   3.820  1.00  0.00     0.021 A 
ATOM     14  C   UNL     1       1.824   2.510   4.218  1.00  0.00     0.128 A 
ATOM     15  C   UNL     1      -0.505   3.146   4.679  1.00  0.00     0.025 C 
ATOM     16  O   UNL     1       2.260   3.027   5.400  1.00  0.00    -0.475 OA
ATOM     17  C   UNL     1       1.276   3.434   6.400  1.00  0.00     0.314 C 
BRANCH   9  18
ATOM     18  O   UNL     1       0.669   1.186   0.452  1.00  0.00    -0.497 OA
ATOM     19  C   UNL     1       1.206  -0.045  -0.019  1.00  0.00     0.278 C 
ENDBRANCH   9  18
BRANCH  17  20
ATOM     20  C   UNL     1       1.911   4.585   7.217  1.00  0.00     0.429 C 
ATOM     21  F   UNL     1       1.548   4.572   8.518  1.00  0.00    -0.167 F 
ATOM     22  F   UNL     1       3.269   4.478   7.225  1.00  0.00    -0.167 F 
ATOM     23  F   UNL     1       1.623   5.803   6.705  1.00  0.00    -0.167 F 
ENDBRANCH  17  20
ENDBRANCH   5   8
ENDBRANCH   3   4
ENDBRANCH   2   3
ENDBRANCH   1   2
BRANCH   1  24
ATOM     24  C   UNL     1      -5.808   5.985   4.954  1.00  0.00     0.116 C 
BRANCH  24  25
ATOM     25  N   UNL     1      -6.077   5.911   3.527  1.00  0.00    -0.352 N 
ATOM     26  C   UNL     1      -7.105   6.475   2.808  1.00  0.00     0.251 C 
ATOM     27  H   UNL     1      -5.434   5.382   3.002  1.00  0.00     0.163 HD
ATOM     28  O   UNL     1      -7.237   6.206   1.625  1.00  0.00    -0.269 OA
BRANCH  26  29
ATOM     29  C   UNL     1      -8.068   7.372   3.487  1.00  0.00     0.039 A 
ATOM     30  C   UNL     1      -9.431   7.182   3.251  1.00  0.00     0.014 A 
ATOM     31  C   UNL     1      -7.637   8.382   4.351  1.00  0.00     0.014 A 
ATOM     32  C   UNL     1     -10.364   7.966   3.930  1.00  0.00     0.010 A 
ATOM     33  C   UNL     1      -8.570   9.117   5.078  1.00  0.00     0.010 A 
ATOM     34  C   UNL     1      -9.943   8.916   4.876  1.00  0.00    -0.014 A 
BRANCH  34  35
ATOM     35  C   UNL     1     -10.936   9.678   5.675  1.00  0.00     0.031 A 
ATOM     36  C   UNL     1     -11.050  11.172   5.534  1.00  0.00     0.074 A 
ATOM     37  C   UNL     1     -11.702   9.020   6.569  1.00  0.00     0.049 A 
ATOM     38  N   UNL     1     -11.858  11.996   6.149  1.00  0.00    -0.248 NA
ATOM     39  C   UNL     1     -10.121  11.831   4.602  1.00  0.00     0.031 C 
ATOM     40  C   UNL     1     -11.627   7.584   6.852  1.00  0.00     0.029 A 
ATOM     41  N   UNL     1     -12.688   9.470   7.411  1.00  0.00    -0.354 N 
ATOM     42  C   UNL     1     -11.526  13.267   5.695  1.00  0.00     0.074 A 
ATOM     43  C   UNL     1     -10.415  13.111   4.782  1.00  0.00     0.031 C 
ATOM     44  C   UNL     1     -12.541   7.269   7.784  1.00  0.00     0.029 A 
ATOM     45  C   UNL     1     -13.248   8.480   8.185  1.00  0.00     0.049 A 
ATOM     46  H   UNL     1     -12.968  10.412   7.457  1.00  0.00     0.167 HD
ATOM     47  C   UNL     1     -12.108  14.451   5.997  1.00  0.00     0.037 A 
ATOM     48  C   UNL     1     -14.220   8.542   9.117  1.00  0.00     0.037 A 
ATOM     49  C   UNL     1     -13.242  14.592   6.875  1.00  0.00     0.049 A 
ATOM     50  C   UNL     1     -14.878   9.866   9.398  1.00  0.00     0.074 A 
ATOM     51  C   UNL     1     -13.970  15.734   7.161  1.00  0.00     0.029 A 
ATOM     52  N   UNL     1     -13.808  13.562   7.611  1.00  0.00    -0.354 N 
ATOM     53  N   UNL     1     -14.624  11.041   8.872  1.00  0.00    -0.248 NA
ATOM     54  C   UNL     1     -15.962   9.872  10.389  1.00  0.00     0.031 C 
ATOM     55  C   UNL     1     -14.944  15.406   8.109  1.00  0.00     0.029 A 
ATOM     56  C   UNL     1     -14.857  14.049   8.375  1.00  0.00     0.049 A 
ATOM     57  H   UNL     1     -13.510  12.624   7.594  1.00  0.00     0.167 HD
ATOM     58  C   UNL     1     -15.531  11.920   9.453  1.00  0.00     0.074 A 
ATOM     59  C   UNL     1     -16.354  11.138  10.351  1.00  0.00     0.031 C 
ATOM     60  C   UNL     1     -15.668  13.256   9.263  1.00  0.00     0.037 A 
BRANCH  47  61
ATOM     61  C   UNL     1     -11.546  15.699   5.374  1.00  0.00     0.058 A 
ATOM     62  C   UNL     1     -11.726  15.990   4.013  1.00  0.00     0.135 A 
ATOM     63  C   UNL     1     -10.893  16.657   6.167  1.00  0.00     0.135 A 
ATOM     64  F   UNL     1     -12.330  15.104   3.205  1.00  0.00    -0.206 F 
ATOM     65  C   UNL     1     -11.271  17.182   3.458  1.00  0.00     0.059 A 
ATOM     66  C   UNL     1     -10.451  17.866   5.639  1.00  0.00     0.059 A 
ATOM     67  F   UNL     1     -10.691  16.427   7.474  1.00  0.00    -0.206 F 
ATOM     68  C   UNL     1     -10.641  18.118   4.281  1.00  0.00     0.060 A 
BRANCH  68  69
ATOM     69  S   UNL     1     -10.100  19.679   3.554  1.00  0.00     0.124 S 
ATOM     70  O   UNL     1      -8.951  19.249   2.761  1.00  0.00    -0.237 OA
ATOM     71  O   UNL     1     -11.275  20.092   2.793  1.00  0.00    -0.237 OA
ATOM     72  O   UNL     1      -9.786  20.505   4.715  1.00  0.00    -0.744 OA
ENDBRANCH  68  69
ENDBRANCH  47  61
BRANCH  48  73
ATOM     73  C   UNL     1     -14.640   7.315   9.846  1.00  0.00     0.058 A 
ATOM     74  C   UNL     1     -15.906   6.745   9.640  1.00  0.00     0.135 A 
ATOM     75  C   UNL     1     -13.791   6.699  10.778  1.00  0.00     0.135 A 
ATOM     76  F   UNL     1     -16.755   7.298   8.761  1.00  0.00    -0.206 F 
ATOM     77  C   UNL     1     -16.329   5.631  10.358  1.00  0.00     0.059 A 
ATOM     78  C   UNL     1     -14.181   5.567  11.487  1.00  0.00     0.059 A 
ATOM     79  F   UNL     1     -12.561   7.191  10.996  1.00  0.00    -0.206 F 
ATOM     80  C   UNL     1     -15.460   5.052  11.283  1.00  0.00     0.060 A 
BRANCH  80  81
ATOM     81  S   UNL     1     -16.011   3.597  12.201  1.00  0.00     0.124 S 
ATOM     82  O   UNL     1     -16.928   4.191  13.166  1.00  0.00    -0.237 OA
ATOM     83  O   UNL     1     -16.623   2.785  11.153  1.00  0.00    -0.237 OA
ATOM     84  O   UNL     1     -14.770   3.062  12.753  1.00  0.00    -0.744 OA
ENDBRANCH  80  81
ENDBRANCH  48  73
BRANCH  60  85
ATOM     85  C   UNL     1     -16.765  13.949  10.024  1.00  0.00     0.058 A 
ATOM     86  C   UNL     1     -16.683  14.157  11.410  1.00  0.00     0.135 A 
ATOM     87  C   UNL     1     -17.899  14.435   9.354  1.00  0.00     0.135 A 
ATOM     88  F   UNL     1     -15.621  13.707  12.099  1.00  0.00    -0.206 F 
ATOM     89  C   UNL     1     -17.703  14.790  12.111  1.00  0.00     0.059 A 
ATOM     90  C   UNL     1     -18.918  15.098  10.030  1.00  0.00     0.059 A 
ATOM     91  F   UNL     1     -18.021  14.274   8.026  1.00  0.00    -0.206 F 
ATOM     92  C   UNL     1     -18.819  15.254  11.412  1.00  0.00     0.060 A 
BRANCH  92  93
ATOM     93  S   UNL     1     -20.134  16.083  12.330  1.00  0.00     0.124 S 
ATOM     94  O   UNL     1     -20.790  14.955  12.983  1.00  0.00    -0.237 OA
ATOM     95  O   UNL     1     -19.387  16.978  13.209  1.00  0.00    -0.237 OA
ATOM     96  O   UNL     1     -20.912  16.744  11.287  1.00  0.00    -0.744 OA
ENDBRANCH  92  93
ENDBRANCH  60  85
ENDBRANCH  34  35
ENDBRANCH  26  29
ENDBRANCH  24  25
ENDBRANCH   1  24
TORSDOF 16
