REMARK SMILES CCOC(=O)C1=NN(c2ccc(Cl)cc2F)[C@@H](C(=O)NCCCCNC(=O)c2ccc(-c3c4nc(c(-c5c(F)cc(S(=O)(=O)[O-])cc5F)c5ccc([nH]5)c(-c5c(F)cc(S(=O)(=O)[O-])cc5F)c5nc(c(-c6c(F)cc(S(=O)(=O)[O-])cc6F)c6ccc3[nH]6)C=C5)C=C4)cc2)C1
REMARK SMILES IDX 22 1 21 2 20 3 18 4 19 5 17 7 6 8 7 9 94 10 8 11 4 12 5 13
REMARK SMILES IDX 3 14 2 15 1 16 9 17 10 18 15 19 11 20 14 21 16 22 12 23
REMARK SMILES IDX 13 24 23 25 24 26 25 27 26 28 27 30 28 31 29 32 93 33 30 34
REMARK SMILES IDX 92 35 31 36 32 37 33 38 86 39 34 40 91 41 85 42 87 43 35 44
REMARK SMILES IDX 90 45 84 46 83 47 36 49 70 50 49 51 69 52 50 53 53 54 68 55
REMARK SMILES IDX 88 56 51 57 52 58 67 60 89 61 54 62 37 63 38 64 47 65 39 66
REMARK SMILES IDX 40 67 46 68 48 69 41 70 42 71 43 72 44 73 45 74 71 75 72 76
REMARK SMILES IDX 81 77 73 78 74 79 80 80 82 81 75 82 76 83 77 84 78 85 79 86
REMARK SMILES IDX 55 87 56 88 65 89 57 90 58 91 64 92 66 93 59 94 60 95 61 96
REMARK SMILES IDX 62 97 63 98
REMARK H PARENT 20 6 25 29 87 48 53 59
REMARK Flexibility Score: inf
ROOT
ATOM      1  C   UNL     1       3.102   7.707   3.230  1.00  0.00     0.023 C 
ENDROOT
BRANCH   1   2
ATOM      2  C   UNL     1       2.882   7.148   4.636  1.00  0.00     0.116 C 
BRANCH   2   3
ATOM      3  N   UNL     1       1.814   6.172   4.660  1.00  0.00    -0.354 N 
ATOM      4  C   UNL     1       1.883   4.812   4.549  1.00  0.00     0.245 C 
ATOM      5  O   UNL     1       0.808   4.202   4.544  1.00  0.00    -0.273 OA
ATOM      6  H   UNL     1       0.908   6.541   4.772  1.00  0.00     0.163 HD
BRANCH   4   7
ATOM      7  C   UNL     1       3.244   4.069   4.507  1.00  0.00     0.203 C 
ATOM      8  C   UNL     1       2.939   2.315   3.085  1.00  0.00     0.148 C 
ATOM      9  N   UNL     1       3.500   3.212   2.331  1.00  0.00    -0.169 NA
ATOM     10  C   UNL     1       2.991   2.558   4.556  1.00  0.00     0.103 C 
ATOM     11  N   UNL     1       3.892   4.210   3.191  1.00  0.00    -0.249 N 
BRANCH   8  12
ATOM     12  C   UNL     1       2.339   1.047   2.561  1.00  0.00     0.354 C 
ATOM     13  O   UNL     1       2.871  -0.036   2.730  1.00  0.00    -0.245 OA
BRANCH  12  14
ATOM     14  O   UNL     1       1.167   1.331   1.966  1.00  0.00    -0.461 OA
BRANCH  14  15
ATOM     15  C   UNL     1       0.459   0.216   1.411  1.00  0.00     0.230 C 
ATOM     16  C   UNL     1       0.841   0.044  -0.047  1.00  0.00     0.049 C 
ENDBRANCH  14  15
ENDBRANCH  12  14
ENDBRANCH   8  12
BRANCH  11  17
ATOM     17  C   UNL     1       5.032   4.942   2.871  1.00  0.00     0.096 A 
ATOM     18  C   UNL     1       5.308   5.234   1.520  1.00  0.00     0.032 A 
ATOM     19  C   UNL     1       5.954   5.430   3.812  1.00  0.00     0.149 A 
ATOM     20  C   UNL     1       6.415   6.000   1.137  1.00  0.00     0.023 A 
ATOM     21  C   UNL     1       7.067   6.189   3.446  1.00  0.00     0.062 A 
ATOM     22  F   UNL     1       5.804   5.167   5.119  1.00  0.00    -0.205 F 
ATOM     23  C   UNL     1       7.290   6.476   2.106  1.00  0.00     0.044 A 
ATOM     24  Cl  UNL     1       8.653   7.417   1.646  1.00  0.00    -0.084 Cl
ENDBRANCH  11  17
ENDBRANCH   4   7
ENDBRANCH   2   3
ENDBRANCH   1   2
BRANCH   1  25
ATOM     25  C   UNL     1       2.067   8.739   2.774  1.00  0.00     0.023 C 
BRANCH  25  26
ATOM     26  C   UNL     1       2.089  10.065   3.532  1.00  0.00     0.116 C 
BRANCH  26  27
ATOM     27  N   UNL     1       3.359  10.764   3.419  1.00  0.00    -0.352 N 
ATOM     28  C   UNL     1       3.604  12.116   3.424  1.00  0.00     0.251 C 
ATOM     29  H   UNL     1       4.152  10.189   3.325  1.00  0.00     0.163 HD
ATOM     30  O   UNL     1       4.740  12.530   3.209  1.00  0.00    -0.269 OA
BRANCH  28  31
ATOM     31  C   UNL     1       2.497  13.072   3.646  1.00  0.00     0.039 A 
ATOM     32  C   UNL     1       2.373  14.160   2.776  1.00  0.00     0.014 A 
ATOM     33  C   UNL     1       1.593  12.908   4.699  1.00  0.00     0.014 A 
ATOM     34  C   UNL     1       1.301  15.045   2.916  1.00  0.00     0.010 A 
ATOM     35  C   UNL     1       0.506  13.771   4.819  1.00  0.00     0.010 A 
ATOM     36  C   UNL     1       0.344  14.837   3.921  1.00  0.00    -0.014 A 
BRANCH  36  37
ATOM     37  C   UNL     1      -0.852  15.703   4.032  1.00  0.00     0.031 A 
ATOM     38  C   UNL     1      -0.995  16.657   5.179  1.00  0.00     0.074 A 
ATOM     39  C   UNL     1      -1.855  15.559   3.145  1.00  0.00     0.049 A 
ATOM     40  N   UNL     1      -2.029  17.378   5.527  1.00  0.00    -0.248 NA
ATOM     41  C   UNL     1       0.170  16.799   6.066  1.00  0.00     0.031 C 
ATOM     42  C   UNL     1      -1.857  14.630   2.013  1.00  0.00     0.029 A 
ATOM     43  N   UNL     1      -3.075  16.179   3.072  1.00  0.00    -0.354 N 
ATOM     44  C   UNL     1      -1.665  18.015   6.705  1.00  0.00     0.074 A 
ATOM     45  C   UNL     1      -0.303  17.615   6.998  1.00  0.00     0.031 C 
ATOM     46  C   UNL     1      -3.025  14.742   1.357  1.00  0.00     0.029 A 
ATOM     47  C   UNL     1      -3.856  15.734   2.034  1.00  0.00     0.049 A 
ATOM     48  H   UNL     1      -3.365  16.876   3.704  1.00  0.00     0.167 HD
ATOM     49  C   UNL     1      -2.402  18.846   7.479  1.00  0.00     0.037 A 
ATOM     50  C   UNL     1      -5.106  16.078   1.673  1.00  0.00     0.037 A 
ATOM     51  C   UNL     1      -3.735  19.286   7.167  1.00  0.00     0.049 A 
ATOM     52  C   UNL     1      -5.853  17.104   2.471  1.00  0.00     0.074 A 
ATOM     53  C   UNL     1      -4.550  20.151   7.876  1.00  0.00     0.029 A 
ATOM     54  N   UNL     1      -4.444  18.905   6.038  1.00  0.00    -0.354 N 
ATOM     55  N   UNL     1      -5.491  17.703   3.579  1.00  0.00    -0.248 NA
ATOM     56  C   UNL     1      -7.175  17.502   1.969  1.00  0.00     0.031 C 
ATOM     57  C   UNL     1      -5.752  20.299   7.170  1.00  0.00     0.029 A 
ATOM     58  C   UNL     1      -5.681  19.527   6.022  1.00  0.00     0.049 A 
ATOM     59  H   UNL     1      -4.116  18.283   5.349  1.00  0.00     0.167 HD
ATOM     60  C   UNL     1      -6.541  18.549   3.911  1.00  0.00     0.074 A 
ATOM     61  C   UNL     1      -7.548  18.393   2.879  1.00  0.00     0.031 C 
ATOM     62  C   UNL     1      -6.663  19.372   4.980  1.00  0.00     0.037 A 
BRANCH  49  63
ATOM     63  C   UNL     1      -1.771  19.302   8.758  1.00  0.00     0.058 A 
ATOM     64  C   UNL     1      -0.890  20.392   8.792  1.00  0.00     0.135 A 
ATOM     65  C   UNL     1      -2.020  18.612   9.954  1.00  0.00     0.135 A 
ATOM     66  F   UNL     1      -0.608  21.068   7.668  1.00  0.00    -0.206 F 
ATOM     67  C   UNL     1      -0.250  20.767   9.969  1.00  0.00     0.059 A 
ATOM     68  C   UNL     1      -1.397  18.974  11.143  1.00  0.00     0.059 A 
ATOM     69  F   UNL     1      -2.847  17.555   9.965  1.00  0.00    -0.206 F 
ATOM     70  C   UNL     1      -0.497  20.041  11.135  1.00  0.00     0.060 A 
BRANCH  70  71
ATOM     71  S   UNL     1       0.363  20.477  12.662  1.00  0.00     0.124 S 
ATOM     72  O   UNL     1       1.516  19.583  12.607  1.00  0.00    -0.237 OA
ATOM     73  O   UNL     1       0.657  21.896  12.482  1.00  0.00    -0.237 OA
ATOM     74  O   UNL     1      -0.625  20.173  13.691  1.00  0.00    -0.744 OA
ENDBRANCH  70  71
ENDBRANCH  49  63
BRANCH  50  75
ATOM     75  C   UNL     1      -5.715  15.442   0.483  1.00  0.00     0.058 A 
ATOM     76  C   UNL     1      -5.631  16.053  -0.775  1.00  0.00     0.135 A 
ATOM     77  C   UNL     1      -6.332  14.187   0.572  1.00  0.00     0.135 A 
ATOM     78  F   UNL     1      -5.046  17.254  -0.899  1.00  0.00    -0.206 F 
ATOM     79  C   UNL     1      -6.133  15.436  -1.915  1.00  0.00     0.059 A 
ATOM     80  C   UNL     1      -6.836  13.548  -0.555  1.00  0.00     0.059 A 
ATOM     81  F   UNL     1      -6.419  13.563   1.757  1.00  0.00    -0.206 F 
ATOM     82  C   UNL     1      -6.732  14.181  -1.794  1.00  0.00     0.060 A 
BRANCH  82  83
ATOM     83  S   UNL     1      -7.304  13.326  -3.280  1.00  0.00     0.124 S 
ATOM     84  O   UNL     1      -8.685  13.786  -3.368  1.00  0.00    -0.237 OA
ATOM     85  O   UNL     1      -6.398  13.827  -4.309  1.00  0.00    -0.237 OA
ATOM     86  O   UNL     1      -7.122  11.919  -2.932  1.00  0.00    -0.744 OA
ENDBRANCH  82  83
ENDBRANCH  50  75
BRANCH  62  87
ATOM     87  C   UNL     1      -7.925  20.172   5.077  1.00  0.00     0.058 A 
ATOM     88  C   UNL     1      -9.069  19.643   5.691  1.00  0.00     0.135 A 
ATOM     89  C   UNL     1      -7.983  21.480   4.577  1.00  0.00     0.135 A 
ATOM     90  F   UNL     1      -9.058  18.393   6.178  1.00  0.00    -0.206 F 
ATOM     91  C   UNL     1     -10.241  20.385   5.798  1.00  0.00     0.059 A 
ATOM     92  C   UNL     1      -9.143  22.242   4.677  1.00  0.00     0.059 A 
ATOM     93  F   UNL     1      -6.911  22.024   3.979  1.00  0.00    -0.206 F 
ATOM     94  C   UNL     1     -10.270  21.682   5.282  1.00  0.00     0.060 A 
BRANCH  94  95
ATOM     95  S   UNL     1     -11.777  22.665   5.436  1.00  0.00     0.124 S 
ATOM     96  O   UNL     1     -12.481  22.316   4.207  1.00  0.00    -0.237 OA
ATOM     97  O   UNL     1     -12.371  22.161   6.671  1.00  0.00    -0.237 OA
ATOM     98  O   UNL     1     -11.271  24.033   5.508  1.00  0.00    -0.744 OA
ENDBRANCH  94  95
ENDBRANCH  62  87
ENDBRANCH  36  37
ENDBRANCH  28  31
ENDBRANCH  26  27
ENDBRANCH  25  26
ENDBRANCH   1  25
TORSDOF 18
