REMARK SMILES C[NH2+][C@@]1(C(=O)NCCCCNC(=O)c2ccc(-c3c4nc(c(-c5c(F)cc(S(=O)(=O)[O-])cc5F)c5ccc([nH]5)c(-c5c(F)cc(S(=O)(=O)[O-])cc5F)c5nc(c(-c6c(F)cc(S(=O)(=O)[O-])cc6F)c6ccc3[nH]6)C=C5)C=C4)cc2)CC[C@H](SC(C)C)C1
REMARK SMILES IDX 9 1 8 2 7 3 6 4 4 5 5 6 3 8 80 9 87 10 81 11 82 12 2 13 1 14
REMARK SMILES IDX 83 17 84 18 85 19 86 20 10 21 11 22 12 23 13 25 14 26 15 27
REMARK SMILES IDX 79 28 16 29 78 30 17 31 18 32 19 33 72 34 20 35 77 36 71 37
REMARK SMILES IDX 73 38 21 39 76 40 70 41 69 42 22 44 56 45 35 46 55 47 36 48
REMARK SMILES IDX 39 49 54 50 74 51 37 52 38 53 53 55 75 56 40 57 23 58 24 59
REMARK SMILES IDX 33 60 25 61 26 62 32 63 34 64 27 65 28 66 29 67 30 68 31 69
REMARK SMILES IDX 57 70 58 71 67 72 59 73 60 74 66 75 68 76 61 77 62 78 63 79
REMARK SMILES IDX 64 80 65 81 41 82 42 83 51 84 43 85 44 86 50 87 52 88 45 89
REMARK SMILES IDX 46 90 47 91 48 92 49 93
REMARK H PARENT 6 7 2 15 2 16 11 24 73 43 39 54
REMARK Flexibility Score: inf
ROOT
ATOM      1  C   UNL     1      -5.085  -0.853   4.670  1.00  0.00     0.023 C 
ENDROOT
BRANCH   1   2
ATOM      2  C   UNL     1      -4.298  -0.945   3.369  1.00  0.00     0.023 C 
BRANCH   2   3
ATOM      3  C   UNL     1      -3.595   0.341   2.948  1.00  0.00     0.116 C 
BRANCH   3   4
ATOM      4  N   UNL     1      -2.232   0.416   3.412  1.00  0.00    -0.351 N 
ATOM      5  C   UNL     1      -1.044   0.415   2.754  1.00  0.00     0.281 C 
ATOM      6  O   UNL     1      -0.043   0.403   3.490  1.00  0.00    -0.268 OA
ATOM      7  H   UNL     1      -2.146   0.480   4.390  1.00  0.00     0.163 HD
BRANCH   5   8
ATOM      8  C   UNL     1      -0.855   0.368   1.168  1.00  0.00     0.176 C 
ATOM      9  C   UNL     1      -1.560   1.504   0.417  1.00  0.00     0.080 C 
ATOM     10  C   UNL     1      -1.422  -0.943   0.595  1.00  0.00     0.093 C 
ATOM     11  C   UNL     1      -2.749   0.911  -0.333  1.00  0.00     0.022 C 
ATOM     12  C   UNL     1      -2.558  -0.600  -0.407  1.00  0.00     0.054 C 
BRANCH   8  13
ATOM     13  N   UNL     1       0.609   0.595   0.978  1.00  0.00    -0.336 N 
ATOM     14  C   UNL     1       1.247   0.066  -0.207  1.00  0.00     0.331 C 
ATOM     15  H   UNL     1       0.758   1.603   0.974  1.00  0.00     0.346 HD
ATOM     16  H   UNL     1       1.040   0.076   1.743  1.00  0.00     0.346 HD
ENDBRANCH   8  13
BRANCH  12  17
ATOM     17  S   UNL     1      -3.916  -1.793  -0.027  1.00  0.00    -0.155 SA
BRANCH  17  18
ATOM     18  C   UNL     1      -5.540  -1.167  -0.616  1.00  0.00     0.040 C 
ATOM     19  C   UNL     1      -5.831   0.321  -0.599  1.00  0.00     0.019 C 
ATOM     20  C   UNL     1      -5.878  -1.788  -1.966  1.00  0.00     0.019 C 
ENDBRANCH  17  18
ENDBRANCH  12  17
ENDBRANCH   5   8
ENDBRANCH   3   4
ENDBRANCH   2   3
ENDBRANCH   1   2
BRANCH   1  21
ATOM     21  C   UNL     1      -6.153   0.237   4.713  1.00  0.00     0.116 C 
BRANCH  21  22
ATOM     22  N   UNL     1      -7.059   0.254   3.569  1.00  0.00    -0.352 N 
ATOM     23  C   UNL     1      -8.406   0.548   3.547  1.00  0.00     0.251 C 
ATOM     24  H   UNL     1      -6.656   0.027   2.700  1.00  0.00     0.163 HD
ATOM     25  O   UNL     1      -9.040   0.487   2.501  1.00  0.00    -0.269 OA
BRANCH  23  26
ATOM     26  C   UNL     1      -9.079   0.878   4.821  1.00  0.00     0.039 A 
ATOM     27  C   UNL     1     -10.198   0.137   5.206  1.00  0.00     0.014 A 
ATOM     28  C   UNL     1      -8.526   1.828   5.682  1.00  0.00     0.014 A 
ATOM     29  C   UNL     1     -10.692   0.267   6.505  1.00  0.00     0.010 A 
ATOM     30  C   UNL     1      -8.964   1.890   7.000  1.00  0.00     0.010 A 
ATOM     31  C   UNL     1     -10.037   1.095   7.432  1.00  0.00    -0.014 A 
BRANCH  31  32
ATOM     32  C   UNL     1     -10.425   1.122   8.866  1.00  0.00     0.031 A 
ATOM     33  C   UNL     1     -10.880   2.409   9.498  1.00  0.00     0.074 A 
ATOM     34  C   UNL     1     -10.263   0.017   9.623  1.00  0.00     0.049 A 
ATOM     35  N   UNL     1     -11.130   2.668  10.755  1.00  0.00    -0.248 NA
ATOM     36  C   UNL     1     -11.032   3.567   8.603  1.00  0.00     0.031 C 
ATOM     37  C   UNL     1      -9.758  -1.274   9.147  1.00  0.00     0.029 A 
ATOM     38  N   UNL     1     -10.492  -0.194  10.959  1.00  0.00    -0.354 N 
ATOM     39  C   UNL     1     -11.432   4.023  10.807  1.00  0.00     0.074 A 
ATOM     40  C   UNL     1     -11.292   4.540   9.463  1.00  0.00     0.031 C 
ATOM     41  C   UNL     1      -9.742  -2.146  10.168  1.00  0.00     0.029 A 
ATOM     42  C   UNL     1     -10.201  -1.471  11.377  1.00  0.00     0.049 A 
ATOM     43  H   UNL     1     -10.834   0.505  11.563  1.00  0.00     0.167 HD
ATOM     44  C   UNL     1     -11.813   4.766  11.874  1.00  0.00     0.037 A 
ATOM     45  C   UNL     1     -10.292  -2.035  12.597  1.00  0.00     0.037 A 
ATOM     46  C   UNL     1     -12.008   4.236  13.197  1.00  0.00     0.049 A 
ATOM     47  C   UNL     1     -10.787  -1.209  13.751  1.00  0.00     0.074 A 
ATOM     48  C   UNL     1     -12.463   4.889  14.329  1.00  0.00     0.029 A 
ATOM     49  N   UNL     1     -11.771   2.919  13.562  1.00  0.00    -0.354 N 
ATOM     50  N   UNL     1     -11.120   0.059  13.771  1.00  0.00    -0.248 NA
ATOM     51  C   UNL     1     -10.926  -1.890  15.046  1.00  0.00     0.031 C 
ATOM     52  C   UNL     1     -12.487   3.970  15.383  1.00  0.00     0.029 A 
ATOM     53  C   UNL     1     -12.072   2.739  14.901  1.00  0.00     0.049 A 
ATOM     54  H   UNL     1     -11.438   2.216  12.958  1.00  0.00     0.167 HD
ATOM     55  C   UNL     1     -11.528   0.323  15.073  1.00  0.00     0.074 A 
ATOM     56  C   UNL     1     -11.410  -0.919  15.809  1.00  0.00     0.031 C 
ATOM     57  C   UNL     1     -11.960   1.490  15.611  1.00  0.00     0.037 A 
BRANCH  44  58
ATOM     58  C   UNL     1     -12.061   6.229  11.640  1.00  0.00     0.058 A 
ATOM     59  C   UNL     1     -13.184   6.677  10.927  1.00  0.00     0.135 A 
ATOM     60  C   UNL     1     -11.170   7.194  12.135  1.00  0.00     0.135 A 
ATOM     61  F   UNL     1     -14.057   5.793  10.417  1.00  0.00    -0.206 F 
ATOM     62  C   UNL     1     -13.396   8.028  10.679  1.00  0.00     0.059 A 
ATOM     63  C   UNL     1     -11.376   8.554  11.921  1.00  0.00     0.059 A 
ATOM     64  F   UNL     1     -10.080   6.819  12.823  1.00  0.00    -0.206 F 
ATOM     65  C   UNL     1     -12.482   8.959  11.174  1.00  0.00     0.060 A 
BRANCH  65  66
ATOM     66  S   UNL     1     -12.758  10.710  10.831  1.00  0.00     0.124 S 
ATOM     67  O   UNL     1     -12.296  10.810   9.450  1.00  0.00    -0.237 OA
ATOM     68  O   UNL     1     -14.197  10.848  11.028  1.00  0.00    -0.237 OA
ATOM     69  O   UNL     1     -11.926  11.383  11.823  1.00  0.00    -0.744 OA
ENDBRANCH  65  66
ENDBRANCH  44  58
BRANCH  45  70
ATOM     70  C   UNL     1      -9.946  -3.469  12.780  1.00  0.00     0.058 A 
ATOM     71  C   UNL     1     -10.953  -4.429  12.956  1.00  0.00     0.135 A 
ATOM     72  C   UNL     1      -8.615  -3.909  12.766  1.00  0.00     0.135 A 
ATOM     73  F   UNL     1     -12.241  -4.053  12.981  1.00  0.00    -0.206 F 
ATOM     74  C   UNL     1     -10.653  -5.777  13.126  1.00  0.00     0.059 A 
ATOM     75  C   UNL     1      -8.290  -5.255  12.915  1.00  0.00     0.059 A 
ATOM     76  F   UNL     1      -7.617  -3.030  12.583  1.00  0.00    -0.206 F 
ATOM     77  C   UNL     1      -9.317  -6.180  13.104  1.00  0.00     0.060 A 
BRANCH  77  78
ATOM     78  S   UNL     1      -8.939  -7.939  13.270  1.00  0.00     0.124 S 
ATOM     79  O   UNL     1      -9.104  -8.139  14.705  1.00  0.00    -0.237 OA
ATOM     80  O   UNL     1      -9.951  -8.556  12.419  1.00  0.00    -0.237 OA
ATOM     81  O   UNL     1      -7.570  -8.033  12.771  1.00  0.00    -0.744 OA
ENDBRANCH  77  78
ENDBRANCH  45  70
BRANCH  57  82
ATOM     82  C   UNL     1     -12.368   1.471  17.055  1.00  0.00     0.058 A 
ATOM     83  C   UNL     1     -11.417   1.459  18.085  1.00  0.00     0.135 A 
ATOM     84  C   UNL     1     -13.726   1.521  17.410  1.00  0.00     0.135 A 
ATOM     85  F   UNL     1     -10.107   1.405  17.795  1.00  0.00    -0.206 F 
ATOM     86  C   UNL     1     -11.798   1.481  19.423  1.00  0.00     0.059 A 
ATOM     87  C   UNL     1     -14.129   1.562  18.740  1.00  0.00     0.059 A 
ATOM     88  F   UNL     1     -14.673   1.542  16.459  1.00  0.00    -0.206 F 
ATOM     89  C   UNL     1     -13.157   1.532  19.740  1.00  0.00     0.060 A 
BRANCH  89  90
ATOM     90  S   UNL     1     -13.642   1.601  21.478  1.00  0.00     0.124 S 
ATOM     91  O   UNL     1     -13.498   0.206  21.878  1.00  0.00    -0.237 OA
ATOM     92  O   UNL     1     -12.665   2.527  22.043  1.00  0.00    -0.237 OA
ATOM     93  O   UNL     1     -15.012   2.103  21.425  1.00  0.00    -0.744 OA
ENDBRANCH  89  90
ENDBRANCH  57  82
ENDBRANCH  31  32
ENDBRANCH  23  26
ENDBRANCH  21  22
ENDBRANCH   1  21
TORSDOF 17
