REMARK SMILES CCC[C@]1(C(=O)NC[C@@H]2CC[C@H](C(=O)NCCCCNC(=O)c3ccc(-c4c5nc(c(-c6c(F)cc(S(=O)(=O)[O-])cc6F)c6ccc([nH]6)c(-c6c(F)cc(S(=O)(=O)[O-])cc6F)c6nc(c(-c7c(F)cc(S(=O)(=O)[O-])cc7F)c7ccc4[nH]7)C=C6)C=C5)cc3)O2)CCC[NH2+]C1
REMARK SMILES IDX 16 1 15 2 13 3 14 4 12 6 9 7 10 8 89 9 11 10 8 11 7 12 5 13
REMARK SMILES IDX 6 14 4 16 90 17 94 18 91 19 93 20 92 21 3 24 2 25 1 26 17 27
REMARK SMILES IDX 18 28 19 29 20 30 21 31 22 33 23 34 24 35 88 36 25 37 87 38
REMARK SMILES IDX 26 39 27 40 28 41 81 42 29 43 86 44 80 45 82 46 30 47 85 48
REMARK SMILES IDX 79 49 78 50 31 52 65 53 44 54 64 55 45 56 48 57 63 58 83 59
REMARK SMILES IDX 46 60 47 61 62 63 84 64 49 65 32 66 33 67 42 68 34 69 35 70
REMARK SMILES IDX 41 71 43 72 36 73 37 74 38 75 39 76 40 77 66 78 67 79 76 80
REMARK SMILES IDX 68 81 69 82 75 83 77 84 70 85 71 86 72 87 73 88 74 89 50 90
REMARK SMILES IDX 51 91 60 92 52 93 53 94 59 95 61 96 54 97 55 98 56 99 57 100
REMARK SMILES IDX 58 101
REMARK H PARENT 15 5 7 15 93 22 93 23 20 32 82 51 48 62
REMARK Flexibility Score: inf
ROOT
ATOM      1  C   UNL     1      -0.673   0.883   2.166  1.00  0.00     0.116 C 
ENDROOT
BRANCH   1   2
ATOM      2  N   UNL     1       0.296   1.810   2.705  1.00  0.00    -0.354 N 
ATOM      3  C   UNL     1       0.905   1.798   3.928  1.00  0.00     0.249 C 
ATOM      4  O   UNL     1       1.794   2.628   4.142  1.00  0.00    -0.272 OA
ATOM      5  H   UNL     1       0.553   2.551   2.109  1.00  0.00     0.163 HD
BRANCH   3   6
ATOM      6  C   UNL     1       0.479   0.809   5.039  1.00  0.00     0.207 C 
ATOM      7  C   UNL     1      -0.523  -1.284   5.259  1.00  0.00     0.138 C 
ATOM      8  C   UNL     1      -1.652  -0.274   5.379  1.00  0.00     0.037 C 
ATOM      9  O   UNL     1       0.577  -0.569   4.684  1.00  0.00    -0.363 OA
ATOM     10  C   UNL     1      -0.926   1.042   5.581  1.00  0.00     0.045 C 
BRANCH   7  11
ATOM     11  C   UNL     1      -0.832  -2.573   4.465  1.00  0.00     0.147 C 
BRANCH  11  12
ATOM     12  N   UNL     1      -1.235  -2.367   3.074  1.00  0.00    -0.353 N 
ATOM     13  C   UNL     1      -0.629  -2.489   1.861  1.00  0.00     0.232 C 
ATOM     14  O   UNL     1      -1.371  -2.198   0.915  1.00  0.00    -0.274 OA
ATOM     15  H   UNL     1      -2.170  -2.068   2.997  1.00  0.00     0.163 HD
BRANCH  13  16
ATOM     16  C   UNL     1       0.816  -3.000   1.622  1.00  0.00     0.098 C 
ATOM     17  C   UNL     1       1.867  -2.283   2.488  1.00  0.00     0.028 C 
ATOM     18  C   UNL     1       0.804  -4.511   1.998  1.00  0.00     0.277 C 
ATOM     19  C   UNL     1       3.224  -2.982   2.494  1.00  0.00     0.063 C 
ATOM     20  N   UNL     1       2.134  -5.132   1.969  1.00  0.00    -0.345 N 
ATOM     21  C   UNL     1       3.063  -4.453   2.868  1.00  0.00     0.260 C 
ATOM     22  H   UNL     1       2.050  -6.108   2.255  1.00  0.00     0.346 HD
ATOM     23  H   UNL     1       2.499  -5.061   1.019  1.00  0.00     0.346 HD
BRANCH  16  24
ATOM     24  C   UNL     1       1.204  -2.922   0.093  1.00  0.00     0.022 C 
BRANCH  24  25
ATOM     25  C   UNL     1       1.092  -1.609  -0.697  1.00  0.00    -0.002 C 
ATOM     26  C   UNL     1       2.063  -0.490  -0.377  1.00  0.00     0.004 C 
ENDBRANCH  24  25
ENDBRANCH  16  24
ENDBRANCH  13  16
ENDBRANCH  11  12
ENDBRANCH   7  11
ENDBRANCH   3   6
ENDBRANCH   1   2
BRANCH   1  27
ATOM     27  C   UNL     1      -2.040   1.508   1.909  1.00  0.00     0.023 C 
BRANCH  27  28
ATOM     28  C   UNL     1      -2.242   2.016   0.479  1.00  0.00     0.023 C 
BRANCH  28  29
ATOM     29  C   UNL     1      -2.191   0.950  -0.618  1.00  0.00     0.116 C 
BRANCH  29  30
ATOM     30  N   UNL     1      -3.207  -0.085  -0.499  1.00  0.00    -0.352 N 
ATOM     31  C   UNL     1      -3.741  -0.864  -1.510  1.00  0.00     0.251 C 
ATOM     32  H   UNL     1      -3.554  -0.251   0.407  1.00  0.00     0.163 HD
ATOM     33  O   UNL     1      -4.634  -1.660  -1.296  1.00  0.00    -0.269 OA
BRANCH  31  34
ATOM     34  C   UNL     1      -3.217  -0.665  -2.880  1.00  0.00     0.039 A 
ATOM     35  C   UNL     1      -4.065  -0.182  -3.875  1.00  0.00     0.014 A 
ATOM     36  C   UNL     1      -1.860  -0.866  -3.138  1.00  0.00     0.014 A 
ATOM     37  C   UNL     1      -3.525   0.199  -5.106  1.00  0.00     0.010 A 
ATOM     38  C   UNL     1      -1.313  -0.428  -4.340  1.00  0.00     0.010 A 
ATOM     39  C   UNL     1      -2.136   0.137  -5.326  1.00  0.00    -0.014 A 
BRANCH  39  40
ATOM     40  C   UNL     1      -1.520   0.725  -6.545  1.00  0.00     0.031 A 
ATOM     41  C   UNL     1      -0.777  -0.142  -7.522  1.00  0.00     0.074 A 
ATOM     42  C   UNL     1      -1.561   2.062  -6.724  1.00  0.00     0.049 A 
ATOM     43  N   UNL     1      -0.098   0.209  -8.585  1.00  0.00    -0.248 NA
ATOM     44  C   UNL     1      -0.779  -1.590  -7.261  1.00  0.00     0.031 C 
ATOM     45  C   UNL     1      -2.206   3.018  -5.820  1.00  0.00     0.029 A 
ATOM     46  N   UNL     1      -1.039   2.853  -7.718  1.00  0.00    -0.354 N 
ATOM     47  C   UNL     1       0.412  -0.970  -9.116  1.00  0.00     0.074 A 
ATOM     48  C   UNL     1       0.005  -2.041  -8.230  1.00  0.00     0.031 C 
ATOM     49  C   UNL     1      -2.061   4.259  -6.312  1.00  0.00     0.029 A 
ATOM     50  C   UNL     1      -1.278   4.196  -7.541  1.00  0.00     0.049 A 
ATOM     51  H   UNL     1      -0.539   2.492  -8.486  1.00  0.00     0.167 HD
ATOM     52  C   UNL     1       1.133  -1.146 -10.249  1.00  0.00     0.037 A 
ATOM     53  C   UNL     1      -0.900   5.259  -8.277  1.00  0.00     0.037 A 
ATOM     54  C   UNL     1       1.524  -0.080 -11.134  1.00  0.00     0.049 A 
ATOM     55  C   UNL     1      -0.086   5.038  -9.524  1.00  0.00     0.074 A 
ATOM     56  C   UNL     1       2.231  -0.163 -12.322  1.00  0.00     0.029 A 
ATOM     57  N   UNL     1       1.238   1.262 -10.933  1.00  0.00    -0.354 N 
ATOM     58  N   UNL     1       0.346   3.910 -10.034  1.00  0.00    -0.248 NA
ATOM     59  C   UNL     1       0.291   6.231 -10.295  1.00  0.00     0.031 C 
ATOM     60  C   UNL     1       2.398   1.132 -12.824  1.00  0.00     0.029 A 
ATOM     61  C   UNL     1       1.761   2.018 -11.970  1.00  0.00     0.049 A 
ATOM     62  H   UNL     1       0.738   1.625 -10.166  1.00  0.00     0.167 HD
ATOM     63  C   UNL     1       1.016   4.255 -11.203  1.00  0.00     0.074 A 
ATOM     64  C   UNL     1       0.931   5.695 -11.326  1.00  0.00     0.031 C 
ATOM     65  C   UNL     1       1.643   3.449 -12.093  1.00  0.00     0.037 A 
BRANCH  52  66
ATOM     66  C   UNL     1       1.534  -2.551 -10.607  1.00  0.00     0.058 A 
ATOM     67  C   UNL     1       0.589  -3.484 -11.063  1.00  0.00     0.135 A 
ATOM     68  C   UNL     1       2.875  -2.958 -10.535  1.00  0.00     0.135 A 
ATOM     69  F   UNL     1      -0.709  -3.151 -11.139  1.00  0.00    -0.206 F 
ATOM     70  C   UNL     1       0.956  -4.781 -11.408  1.00  0.00     0.059 A 
ATOM     71  C   UNL     1       3.269  -4.243 -10.900  1.00  0.00     0.059 A 
ATOM     72  F   UNL     1       3.820  -2.104 -10.109  1.00  0.00    -0.206 F 
ATOM     73  C   UNL     1       2.299  -5.151 -11.322  1.00  0.00     0.060 A 
BRANCH  73  74
ATOM     74  S   UNL     1       2.758  -6.836 -11.779  1.00  0.00     0.124 S 
ATOM     75  O   UNL     1       2.267  -7.593 -10.631  1.00  0.00    -0.237 OA
ATOM     76  O   UNL     1       2.027  -7.034 -13.026  1.00  0.00    -0.237 OA
ATOM     77  O   UNL     1       4.210  -6.769 -11.911  1.00  0.00    -0.744 OA
ENDBRANCH  73  74
ENDBRANCH  52  66
BRANCH  53  78
ATOM     78  C   UNL     1      -1.299   6.633  -7.868  1.00  0.00     0.058 A 
ATOM     79  C   UNL     1      -2.247   7.356  -8.607  1.00  0.00     0.135 A 
ATOM     80  C   UNL     1      -0.741   7.251  -6.739  1.00  0.00     0.135 A 
ATOM     81  F   UNL     1      -2.805   6.810  -9.698  1.00  0.00    -0.206 F 
ATOM     82  C   UNL     1      -2.609   8.653  -8.258  1.00  0.00     0.059 A 
ATOM     83  C   UNL     1      -1.105   8.538  -6.355  1.00  0.00     0.059 A 
ATOM     84  F   UNL     1       0.156   6.594  -5.987  1.00  0.00    -0.206 F 
ATOM     85  C   UNL     1      -2.029   9.237  -7.130  1.00  0.00     0.060 A 
BRANCH  85  86
ATOM     86  S   UNL     1      -2.524  10.911  -6.668  1.00  0.00     0.124 S 
ATOM     87  O   UNL     1      -1.807  11.711  -7.654  1.00  0.00    -0.237 OA
ATOM     88  O   UNL     1      -3.974  10.858  -6.820  1.00  0.00    -0.237 OA
ATOM     89  O   UNL     1      -2.050  11.031  -5.292  1.00  0.00    -0.744 OA
ENDBRANCH  85  86
ENDBRANCH  53  78
BRANCH  65  90
ATOM     90  C   UNL     1       2.247   4.090 -13.310  1.00  0.00     0.058 A 
ATOM     91  C   UNL     1       3.452   4.804 -13.247  1.00  0.00     0.135 A 
ATOM     92  C   UNL     1       1.651   3.915 -14.570  1.00  0.00     0.135 A 
ATOM     93  F   UNL     1       4.056   5.008 -12.065  1.00  0.00    -0.206 F 
ATOM     94  C   UNL     1       4.046   5.327 -14.391  1.00  0.00     0.059 A 
ATOM     95  C   UNL     1       2.237   4.410 -15.730  1.00  0.00     0.059 A 
ATOM     96  F   UNL     1       0.499   3.235 -14.684  1.00  0.00    -0.206 F 
ATOM     97  C   UNL     1       3.434   5.119 -15.630  1.00  0.00     0.060 A 
BRANCH  97  98
ATOM     98  S   UNL     1       4.250   5.742 -17.115  1.00  0.00     0.124 S 
ATOM     99  O   UNL     1       3.978   7.172 -17.024  1.00  0.00    -0.237 OA
ATOM    100  O   UNL     1       5.639   5.346 -16.899  1.00  0.00    -0.237 OA
ATOM    101  O   UNL     1       3.567   5.040 -18.198  1.00  0.00    -0.744 OA
ENDBRANCH  97  98
ENDBRANCH  65  90
ENDBRANCH  39  40
ENDBRANCH  31  34
ENDBRANCH  29  30
ENDBRANCH  28  29
ENDBRANCH  27  28
ENDBRANCH   1  27
TORSDOF 19
