REMARK SMILES Cc1ccc(C)c(S(=O)(=O)N[C@H](CC2=c3ccccc3=NC2)C(=O)NCCCCNC(=O)c2ccc(-c3c4nc(c(-c5c(F)cc(S(=O)(=O)[O-])cc5F)c5ccc([nH]5)c(-c5c(F)cc(S(=O)(=O)[O-])cc5F)c5nc(c(-c6c(F)cc(S(=O)(=O)[O-])cc6F)c6ccc3[nH]6)C=C5)C=C4)cc2)c1
REMARK SMILES IDX 27 1 26 2 25 3 23 4 24 5 12 7 11 8 8 10 9 11 10 12 7 13 1 14
REMARK SMILES IDX 2 15 3 16 99 17 4 18 5 19 6 20 13 21 14 22 15 23 22 24 16 25
REMARK SMILES IDX 20 26 21 27 17 28 19 29 18 30 28 31 29 32 30 33 31 34 32 36
REMARK SMILES IDX 33 37 34 38 98 39 35 40 97 41 36 42 37 43 38 44 91 45 39 46
REMARK SMILES IDX 96 47 90 48 92 49 40 50 95 51 89 52 88 53 41 55 75 56 54 57
REMARK SMILES IDX 74 58 55 59 58 60 73 61 93 62 56 63 57 64 72 66 94 67 59 68
REMARK SMILES IDX 42 69 43 70 52 71 44 72 45 73 51 74 53 75 46 76 47 77 48 78
REMARK SMILES IDX 49 79 50 80 76 81 77 82 86 83 78 84 79 85 85 86 87 87 80 88
REMARK SMILES IDX 81 89 82 90 83 91 84 92 60 93 61 94 70 95 62 96 63 97 69 98
REMARK SMILES IDX 71 99 64 100 65 101 66 102 67 103 68 104
REMARK H PARENT 25 6 11 9 30 35 92 54 58 65
REMARK Flexibility Score: inf
ROOT
ATOM      1  C   UNL     1      -1.638   8.060  -0.801  1.00  0.00     0.023 C 
ENDROOT
BRANCH   1   2
ATOM      2  C   UNL     1      -1.006   6.985  -1.740  1.00  0.00     0.116 C 
BRANCH   2   3
ATOM      3  N   UNL     1       0.420   6.693  -1.648  1.00  0.00    -0.355 N 
ATOM      4  C   UNL     1       1.169   5.576  -1.367  1.00  0.00     0.238 C 
ATOM      5  O   UNL     1       2.391   5.756  -1.292  1.00  0.00    -0.273 OA
ATOM      6  H   UNL     1       0.978   7.484  -1.830  1.00  0.00     0.163 HD
BRANCH   4   7
ATOM      7  C   UNL     1       0.591   4.178  -1.054  1.00  0.00     0.163 C 
BRANCH   7   8
ATOM      8  N   UNL     1      -0.448   3.810  -2.070  1.00  0.00    -0.198 NA
ATOM      9  H   UNL     1      -1.237   3.417  -1.556  1.00  0.00     0.142 HD
BRANCH   8  10
ATOM     10  S   UNL     1      -0.070   2.708  -3.306  1.00  0.00     0.241 S 
ATOM     11  O   UNL     1       1.355   2.791  -3.543  1.00  0.00    -0.207 OA
ATOM     12  O   UNL     1      -1.048   2.971  -4.329  1.00  0.00    -0.207 OA
BRANCH  10  13
ATOM     13  C   UNL     1      -0.444   1.104  -2.633  1.00  0.00     0.085 A 
ATOM     14  C   UNL     1      -1.737  -0.211   0.694  1.00  0.00     0.044 C 
ATOM     15  C   UNL     1      -1.198  -0.179  -0.703  1.00  0.00    -0.050 A 
ATOM     16  C   UNL     1      -0.823  -1.353  -1.357  1.00  0.00     0.004 A 
ATOM     17  C   UNL     1      -1.044   1.037  -1.369  1.00  0.00     0.025 A 
ATOM     18  C   UNL     1      -0.300  -1.302  -2.654  1.00  0.00     0.005 A 
ATOM     19  C   UNL     1      -0.098  -0.076  -3.314  1.00  0.00    -0.031 A 
ATOM     20  C   UNL     1       0.453  -0.126  -4.714  1.00  0.00     0.046 C 
ENDBRANCH  10  13
ENDBRANCH   8  10
ENDBRANCH   7   8
BRANCH   7  21
ATOM     21  C   UNL     1       0.061   3.901   0.409  1.00  0.00     0.063 C 
BRANCH  21  22
ATOM     22  C   UNL     1       0.297   4.852   1.562  1.00  0.00    -0.037 C 
ATOM     23  C   UNL     1       0.725   4.735   2.822  1.00  0.00     0.001 A 
ATOM     24  C   UNL     1      -0.158   6.246   1.356  1.00  0.00     0.174 C 
ATOM     25  C   UNL     1       1.167   3.697   3.697  1.00  0.00     0.010 A 
ATOM     26  C   UNL     1       0.556   6.108   3.357  1.00  0.00     0.065 A 
ATOM     27  N   UNL     1      -0.008   6.994   2.604  1.00  0.00    -0.280 NA
ATOM     28  C   UNL     1       1.504   4.015   4.963  1.00  0.00     0.001 A 
ATOM     29  C   UNL     1       1.019   6.401   4.717  1.00  0.00     0.028 A 
ATOM     30  C   UNL     1       1.475   5.384   5.457  1.00  0.00     0.002 A 
ENDBRANCH  21  22
ENDBRANCH   7  21
ENDBRANCH   4   7
ENDBRANCH   2   3
ENDBRANCH   1   2
BRANCH   1  31
ATOM     31  C   UNL     1      -0.767   8.962   0.108  1.00  0.00     0.023 C 
BRANCH  31  32
ATOM     32  C   UNL     1      -0.723  10.486  -0.075  1.00  0.00     0.116 C 
BRANCH  32  33
ATOM     33  N   UNL     1      -2.012  11.105  -0.381  1.00  0.00    -0.352 N 
ATOM     34  C   UNL     1      -2.525  11.643  -1.551  1.00  0.00     0.251 C 
ATOM     35  H   UNL     1      -2.629  11.149   0.386  1.00  0.00     0.163 HD
ATOM     36  O   UNL     1      -3.582  12.266  -1.517  1.00  0.00    -0.269 OA
BRANCH  34  37
ATOM     37  C   UNL     1      -1.813  11.462  -2.835  1.00  0.00     0.039 A 
ATOM     38  C   UNL     1      -2.238  11.953  -4.068  1.00  0.00     0.014 A 
ATOM     39  C   UNL     1      -0.739  10.601  -2.849  1.00  0.00     0.014 A 
ATOM     40  C   UNL     1      -1.620  11.447  -5.225  1.00  0.00     0.010 A 
ATOM     41  C   UNL     1       0.138  10.598  -3.868  1.00  0.00     0.010 A 
ATOM     42  C   UNL     1      -0.490  10.634  -5.082  1.00  0.00    -0.014 A 
BRANCH  42  43
ATOM     43  C   UNL     1       0.323  10.081  -6.137  1.00  0.00     0.031 A 
ATOM     44  C   UNL     1       1.224  11.091  -6.720  1.00  0.00     0.074 A 
ATOM     45  C   UNL     1       0.570   8.765  -6.297  1.00  0.00     0.049 A 
ATOM     46  N   UNL     1       0.937  11.873  -7.704  1.00  0.00    -0.248 NA
ATOM     47  C   UNL     1       2.423  11.497  -5.961  1.00  0.00     0.031 C 
ATOM     48  C   UNL     1       0.138   7.608  -5.513  1.00  0.00     0.029 A 
ATOM     49  N   UNL     1       1.351   8.200  -7.248  1.00  0.00    -0.354 N 
ATOM     50  C   UNL     1       2.058  12.669  -7.853  1.00  0.00     0.074 A 
ATOM     51  C   UNL     1       2.729  12.637  -6.583  1.00  0.00     0.031 C 
ATOM     52  C   UNL     1       0.803   6.499  -5.925  1.00  0.00     0.029 A 
ATOM     53  C   UNL     1       1.581   6.839  -7.104  1.00  0.00     0.049 A 
ATOM     54  H   UNL     1       1.730   8.720  -7.993  1.00  0.00     0.167 HD
ATOM     55  C   UNL     1       2.521  13.005  -9.088  1.00  0.00     0.037 A 
ATOM     56  C   UNL     1       2.370   6.089  -7.918  1.00  0.00     0.037 A 
ATOM     57  C   UNL     1       1.580  12.591 -10.109  1.00  0.00     0.049 A 
ATOM     58  C   UNL     1       2.494   6.850  -9.198  1.00  0.00     0.074 A 
ATOM     59  C   UNL     1       0.252  12.868 -10.372  1.00  0.00     0.029 A 
ATOM     60  N   UNL     1       1.853  11.411 -10.767  1.00  0.00    -0.354 N 
ATOM     61  N   UNL     1       1.491   7.106  -9.998  1.00  0.00    -0.248 NA
ATOM     62  C   UNL     1       3.640   7.735  -9.346  1.00  0.00     0.031 C 
ATOM     63  C   UNL     1      -0.318  11.623 -10.776  1.00  0.00     0.029 A 
ATOM     64  C   UNL     1       0.698  10.665 -10.814  1.00  0.00     0.049 A 
ATOM     65  H   UNL     1       2.725  11.146 -11.139  1.00  0.00     0.167 HD
ATOM     66  C   UNL     1       1.701   8.406 -10.442  1.00  0.00     0.074 A 
ATOM     67  C   UNL     1       3.084   8.707 -10.075  1.00  0.00     0.031 C 
ATOM     68  C   UNL     1       0.656   9.213 -10.802  1.00  0.00     0.037 A 
BRANCH  55  69
ATOM     69  C   UNL     1       3.953  13.356  -9.401  1.00  0.00     0.058 A 
ATOM     70  C   UNL     1       4.248  13.917 -10.659  1.00  0.00     0.135 A 
ATOM     71  C   UNL     1       5.074  12.986  -8.624  1.00  0.00     0.135 A 
ATOM     72  F   UNL     1       3.261  14.298 -11.485  1.00  0.00    -0.206 F 
ATOM     73  C   UNL     1       5.553  14.046 -11.130  1.00  0.00     0.059 A 
ATOM     74  C   UNL     1       6.384  13.165  -9.047  1.00  0.00     0.059 A 
ATOM     75  F   UNL     1       4.969  12.342  -7.457  1.00  0.00    -0.206 F 
ATOM     76  C   UNL     1       6.614  13.658 -10.318  1.00  0.00     0.060 A 
BRANCH  76  77
ATOM     77  S   UNL     1       8.293  13.737 -10.957  1.00  0.00     0.124 S 
ATOM     78  O   UNL     1       8.257  12.710 -11.992  1.00  0.00    -0.237 OA
ATOM     79  O   UNL     1       8.371  15.117 -11.425  1.00  0.00    -0.237 OA
ATOM     80  O   UNL     1       9.113  13.430  -9.789  1.00  0.00    -0.744 OA
ENDBRANCH  76  77
ENDBRANCH  55  69
BRANCH  56  81
ATOM     81  C   UNL     1       3.309   4.990  -7.559  1.00  0.00     0.058 A 
ATOM     82  C   UNL     1       3.925   4.217  -8.561  1.00  0.00     0.135 A 
ATOM     83  C   UNL     1       3.868   4.890  -6.269  1.00  0.00     0.135 A 
ATOM     84  F   UNL     1       3.469   4.261  -9.823  1.00  0.00    -0.206 F 
ATOM     85  C   UNL     1       5.072   3.452  -8.319  1.00  0.00     0.059 A 
ATOM     86  C   UNL     1       5.006   4.126  -6.001  1.00  0.00     0.059 A 
ATOM     87  F   UNL     1       3.385   5.623  -5.255  1.00  0.00    -0.206 F 
ATOM     88  C   UNL     1       5.623   3.435  -7.039  1.00  0.00     0.060 A 
BRANCH  88  89
ATOM     89  S   UNL     1       7.216   2.615  -6.779  1.00  0.00     0.124 S 
ATOM     90  O   UNL     1       6.874   1.211  -6.982  1.00  0.00    -0.237 OA
ATOM     91  O   UNL     1       8.046   3.221  -7.815  1.00  0.00    -0.237 OA
ATOM     92  O   UNL     1       7.572   2.979  -5.410  1.00  0.00    -0.744 OA
ENDBRANCH  88  89
ENDBRANCH  56  81
BRANCH  68  93
ATOM     93  C   UNL     1      -0.700   8.572 -11.013  1.00  0.00     0.058 A 
ATOM     94  C   UNL     1      -1.465   7.952 -10.007  1.00  0.00     0.135 A 
ATOM     95  C   UNL     1      -1.315   8.733 -12.264  1.00  0.00     0.135 A 
ATOM     96  F   UNL     1      -0.999   7.838  -8.757  1.00  0.00    -0.206 F 
ATOM     97  C   UNL     1      -2.764   7.488 -10.242  1.00  0.00     0.059 A 
ATOM     98  C   UNL     1      -2.619   8.309 -12.513  1.00  0.00     0.059 A 
ATOM     99  F   UNL     1      -0.664   9.365 -13.255  1.00  0.00    -0.206 F 
ATOM    100  C   UNL     1      -3.336   7.678 -11.499  1.00  0.00     0.060 A 
BRANCH 100 101
ATOM    101  S   UNL     1      -5.044   7.158 -11.779  1.00  0.00     0.124 S 
ATOM    102  O   UNL     1      -4.939   5.704 -11.725  1.00  0.00    -0.237 OA
ATOM    103  O   UNL     1      -5.752   7.784 -10.666  1.00  0.00    -0.237 OA
ATOM    104  O   UNL     1      -5.359   7.711 -13.095  1.00  0.00    -0.744 OA
ENDBRANCH 100 101
ENDBRANCH  68  93
ENDBRANCH  42  43
ENDBRANCH  34  37
ENDBRANCH  32  33
ENDBRANCH  31  32
ENDBRANCH   1  31
TORSDOF 19
