REMARK SMILES COc1ccc2c(c1)[C@H]([NH2+][C@H]1CCC[C@H](C(=O)NCCCCNC(=O)c3ccc(-c4c5nc(c(-c6c(F)cc(S(=O)(=O)[O-])cc6F)c6ccc([nH]6)c(-c6c(F)cc(S(=O)(=O)[O-])cc6F)c6nc(c(-c7c(F)cc(S(=O)(=O)[O-])cc7F)c7ccc4[nH]7)C=C6)C=C5)cc3)C1)CC2
REMARK SMILES IDX 20 1 19 2 18 3 16 4 17 5 15 7 11 8 12 9 92 10 13 11 14 12
REMARK SMILES IDX 10 13 9 16 3 17 4 18 8 19 5 20 7 21 6 22 94 23 93 24 2 25
REMARK SMILES IDX 1 26 21 27 22 28 23 29 24 30 25 32 26 33 27 34 91 35 28 36
REMARK SMILES IDX 90 37 29 38 30 39 31 40 84 41 32 42 89 43 83 44 85 45 33 46
REMARK SMILES IDX 88 47 82 48 81 49 34 51 68 52 47 53 67 54 48 55 51 56 66 57
REMARK SMILES IDX 86 58 49 59 50 60 65 62 87 63 52 64 35 65 36 66 45 67 37 68
REMARK SMILES IDX 38 69 44 70 46 71 39 72 40 73 41 74 42 75 43 76 69 77 70 78
REMARK SMILES IDX 79 79 71 80 72 81 78 82 80 83 73 84 74 85 75 86 76 87 77 88
REMARK SMILES IDX 53 89 54 90 63 91 55 92 56 93 62 94 64 95 57 96 58 97 59 98
REMARK SMILES IDX 60 99 61 100
REMARK H PARENT 18 6 10 14 10 15 23 31 85 50 51 61
REMARK Flexibility Score: inf
ROOT
ATOM      1  C   UNL     1      -7.128   4.923  -4.238  1.00  0.00     0.023 C 
ENDROOT
BRANCH   1   2
ATOM      2  C   UNL     1      -5.792   5.403  -3.669  1.00  0.00     0.116 C 
BRANCH   2   3
ATOM      3  N   UNL     1      -5.681   5.246  -2.235  1.00  0.00    -0.356 N 
ATOM      4  C   UNL     1      -4.999   4.332  -1.491  1.00  0.00     0.223 C 
ATOM      5  O   UNL     1      -4.987   4.491  -0.267  1.00  0.00    -0.275 OA
ATOM      6  H   UNL     1      -6.182   5.911  -1.710  1.00  0.00     0.163 HD
BRANCH   4   7
ATOM      7  C   UNL     1      -4.254   3.148  -2.118  1.00  0.00     0.084 C 
ATOM      8  C   UNL     1      -2.410   2.775  -3.941  1.00  0.00     0.183 C 
ATOM      9  C   UNL     1      -3.540   2.724  -4.969  1.00  0.00     0.065 C 
ATOM     10  C   UNL     1      -2.901   3.564  -2.712  1.00  0.00     0.078 C 
ATOM     11  C   UNL     1      -4.882   2.185  -4.476  1.00  0.00     0.007 C 
ATOM     12  C   UNL     1      -5.177   2.281  -2.980  1.00  0.00     0.014 C 
BRANCH   8  13
ATOM     13  N   UNL     1      -1.657   1.533  -3.673  1.00  0.00    -0.338 N 
ATOM     14  H   UNL     1      -1.269   1.218  -4.562  1.00  0.00     0.347 HD
ATOM     15  H   UNL     1      -0.980   1.800  -2.958  1.00  0.00     0.347 HD
BRANCH  13  16
ATOM     16  C   UNL     1      -2.364   0.412  -3.093  1.00  0.00     0.214 C 
ATOM     17  C   UNL     1      -4.017  -1.658  -5.861  1.00  0.00     0.119 A 
ATOM     18  C   UNL     1      -4.310  -2.789  -5.094  1.00  0.00     0.047 A 
ATOM     19  C   UNL     1      -3.242  -0.620  -5.350  1.00  0.00     0.056 A 
ATOM     20  C   UNL     1      -3.811  -2.897  -3.793  1.00  0.00     0.008 A 
ATOM     21  C   UNL     1      -2.875  -0.664  -4.018  1.00  0.00     0.016 A 
ATOM     22  C   UNL     1      -3.079  -1.838  -3.277  1.00  0.00    -0.038 A 
ATOM     23  C   UNL     1      -2.444  -1.710  -1.921  1.00  0.00     0.042 C 
ATOM     24  C   UNL     1      -1.543  -0.471  -2.137  1.00  0.00     0.075 C 
BRANCH  17  25
ATOM     25  O   UNL     1      -4.498  -1.526  -7.137  1.00  0.00    -0.497 OA
ATOM     26  C   UNL     1      -5.870  -1.119  -7.106  1.00  0.00     0.278 C 
ENDBRANCH  17  25
ENDBRANCH  13  16
ENDBRANCH   8  13
ENDBRANCH   4   7
ENDBRANCH   2   3
ENDBRANCH   1   2
BRANCH   1  27
ATOM     27  C   UNL     1      -8.341   5.758  -3.842  1.00  0.00     0.023 C 
BRANCH  27  28
ATOM     28  C   UNL     1      -8.240   7.232  -4.194  1.00  0.00     0.116 C 
BRANCH  28  29
ATOM     29  N   UNL     1      -8.044   7.477  -5.616  1.00  0.00    -0.352 N 
ATOM     30  C   UNL     1      -8.513   8.543  -6.351  1.00  0.00     0.251 C 
ATOM     31  H   UNL     1      -7.517   6.805  -6.107  1.00  0.00     0.163 HD
ATOM     32  O   UNL     1      -8.358   8.593  -7.563  1.00  0.00    -0.269 OA
BRANCH  30  33
ATOM     33  C   UNL     1      -9.249   9.602  -5.633  1.00  0.00     0.039 A 
ATOM     34  C   UNL     1     -10.565   9.887  -6.006  1.00  0.00     0.014 A 
ATOM     35  C   UNL     1      -8.671  10.213  -4.518  1.00  0.00     0.014 A 
ATOM     36  C   UNL     1     -11.334  10.734  -5.205  1.00  0.00     0.010 A 
ATOM     37  C   UNL     1      -9.459  10.998  -3.687  1.00  0.00     0.010 A 
ATOM     38  C   UNL     1     -10.799  11.260  -4.018  1.00  0.00    -0.014 A 
BRANCH  38  39
ATOM     39  C   UNL     1     -11.605  12.098  -3.095  1.00  0.00     0.031 A 
ATOM     40  C   UNL     1     -11.183  13.518  -2.840  1.00  0.00     0.074 A 
ATOM     41  C   UNL     1     -12.625  11.552  -2.403  1.00  0.00     0.049 A 
ATOM     42  N   UNL     1     -11.610  14.356  -1.933  1.00  0.00    -0.248 NA
ATOM     43  C   UNL     1     -10.107  14.052  -3.694  1.00  0.00     0.031 C 
ATOM     44  C   UNL     1     -13.096  10.170  -2.526  1.00  0.00     0.029 A 
ATOM     45  N   UNL     1     -13.434  12.089  -1.431  1.00  0.00    -0.354 N 
ATOM     46  C   UNL     1     -10.826  15.495  -2.075  1.00  0.00     0.074 A 
ATOM     47  C   UNL     1      -9.882  15.234  -3.138  1.00  0.00     0.031 C 
ATOM     48  C   UNL     1     -14.107   9.969  -1.663  1.00  0.00     0.029 A 
ATOM     49  C   UNL     1     -14.331  11.192  -0.899  1.00  0.00     0.049 A 
ATOM     50  H   UNL     1     -13.376  13.028  -1.142  1.00  0.00     0.167 HD
ATOM     51  C   UNL     1     -10.898  16.657  -1.386  1.00  0.00     0.037 A 
ATOM     52  C   UNL     1     -15.218  11.336   0.106  1.00  0.00     0.037 A 
ATOM     53  C   UNL     1     -11.888  16.935  -0.382  1.00  0.00     0.049 A 
ATOM     54  C   UNL     1     -15.315  12.662   0.815  1.00  0.00     0.074 A 
ATOM     55  C   UNL     1     -12.104  18.116   0.306  1.00  0.00     0.029 A 
ATOM     56  N   UNL     1     -12.835  16.028   0.068  1.00  0.00    -0.354 N 
ATOM     57  N   UNL     1     -14.608  13.749   0.624  1.00  0.00    -0.248 NA
ATOM     58  C   UNL     1     -16.330  12.783   1.872  1.00  0.00     0.031 C 
ATOM     59  C   UNL     1     -13.168  17.916   1.190  1.00  0.00     0.029 A 
ATOM     60  C   UNL     1     -13.634  16.621   1.028  1.00  0.00     0.049 A 
ATOM     61  H   UNL     1     -12.925  15.100  -0.249  1.00  0.00     0.167 HD
ATOM     62  C   UNL     1     -15.115  14.692   1.512  1.00  0.00     0.074 A 
ATOM     63  C   UNL     1     -16.189  14.050   2.239  1.00  0.00     0.031 C 
ATOM     64  C   UNL     1     -14.725  15.974   1.709  1.00  0.00     0.037 A 
BRANCH  51  65
ATOM     65  C   UNL     1      -9.894  17.727  -1.701  1.00  0.00     0.058 A 
ATOM     66  C   UNL     1      -9.973  18.484  -2.879  1.00  0.00     0.135 A 
ATOM     67  C   UNL     1      -8.885  18.046  -0.779  1.00  0.00     0.135 A 
ATOM     68  F   UNL     1     -10.907  18.205  -3.801  1.00  0.00    -0.206 F 
ATOM     69  C   UNL     1      -9.079  19.518  -3.137  1.00  0.00     0.059 A 
ATOM     70  C   UNL     1      -7.994  19.090  -1.006  1.00  0.00     0.059 A 
ATOM     71  F   UNL     1      -8.764  17.347   0.361  1.00  0.00    -0.206 F 
ATOM     72  C   UNL     1      -8.096  19.816  -2.192  1.00  0.00     0.060 A 
BRANCH  72  73
ATOM     73  S   UNL     1      -6.971  21.189  -2.522  1.00  0.00     0.124 S 
ATOM     74  O   UNL     1      -6.080  20.602  -3.518  1.00  0.00    -0.237 OA
ATOM     75  O   UNL     1      -7.875  22.224  -3.013  1.00  0.00    -0.237 OA
ATOM     76  O   UNL     1      -6.368  21.454  -1.219  1.00  0.00    -0.744 OA
ENDBRANCH  72  73
ENDBRANCH  51  65
BRANCH  52  77
ATOM     77  C   UNL     1     -16.091  10.202   0.511  1.00  0.00     0.058 A 
ATOM     78  C   UNL     1     -17.468  10.224   0.246  1.00  0.00     0.135 A 
ATOM     79  C   UNL     1     -15.575   9.093   1.199  1.00  0.00     0.135 A 
ATOM     80  F   UNL     1     -18.008  11.266  -0.405  1.00  0.00    -0.206 F 
ATOM     81  C   UNL     1     -18.311   9.206   0.679  1.00  0.00     0.059 A 
ATOM     82  C   UNL     1     -16.395   8.050   1.621  1.00  0.00     0.059 A 
ATOM     83  F   UNL     1     -14.261   9.014   1.459  1.00  0.00    -0.206 F 
ATOM     84  C   UNL     1     -17.765   8.126   1.373  1.00  0.00     0.060 A 
BRANCH  84  85
ATOM     85  S   UNL     1     -18.862   6.801   1.927  1.00  0.00     0.124 S 
ATOM     86  O   UNL     1     -19.468   7.401   3.110  1.00  0.00    -0.237 OA
ATOM     87  O   UNL     1     -19.743   6.627   0.777  1.00  0.00    -0.237 OA
ATOM     88  O   UNL     1     -17.945   5.693   2.177  1.00  0.00    -0.744 OA
ENDBRANCH  84  85
ENDBRANCH  52  77
BRANCH  64  89
ATOM     89  C   UNL     1     -15.496  16.795   2.701  1.00  0.00     0.058 A 
ATOM     90  C   UNL     1     -15.301  16.652   4.082  1.00  0.00     0.135 A 
ATOM     91  C   UNL     1     -16.367  17.802   2.256  1.00  0.00     0.135 A 
ATOM     92  F   UNL     1     -14.482  15.698   4.554  1.00  0.00    -0.206 F 
ATOM     93  C   UNL     1     -15.947  17.481   4.992  1.00  0.00     0.059 A 
ATOM     94  C   UNL     1     -17.008  18.655   3.148  1.00  0.00     0.059 A 
ATOM     95  F   UNL     1     -16.578  17.982   0.943  1.00  0.00    -0.206 F 
ATOM     96  C   UNL     1     -16.794  18.484   4.515  1.00  0.00     0.060 A 
BRANCH  96  97
ATOM     97  S   UNL     1     -17.571  19.601   5.701  1.00  0.00     0.124 S 
ATOM     98  O   UNL     1     -18.642  18.766   6.233  1.00  0.00    -0.237 OA
ATOM     99  O   UNL     1     -16.477  19.893   6.623  1.00  0.00    -0.237 OA
ATOM    100  O   UNL     1     -18.001  20.726   4.875  1.00  0.00    -0.744 OA
ENDBRANCH  96  97
ENDBRANCH  64  89
ENDBRANCH  38  39
ENDBRANCH  30  33
ENDBRANCH  28  29
ENDBRANCH  27  28
ENDBRANCH   1  27
TORSDOF 17
