REMARK SMILES COc1ccc2c(c1)c(CC(=O)NCCCCNC(=O)c1ccc(-c3c4nc(c(-c5c(F)cc(S(=O)(=O)[O-])cc5F)c5ccc([nH]5)c(-c5c(F)cc(S(=O)(=O)[O-])cc5F)c5nc(c(-c6c(F)cc(S(=O)(=O)[O-])cc6F)c6ccc3[nH]6)C=C5)C=C4)cc1)c(C)n2C(=O)c1ccc(Cl)cc1
REMARK SMILES IDX 15 1 14 2 13 3 11 4 12 5 10 7 9 8 3 9 4 10 8 11 5 12 7 13
REMARK SMILES IDX 6 14 89 15 87 16 88 17 2 18 1 19 90 20 91 21 92 22 93 23
REMARK SMILES IDX 98 24 94 25 97 26 95 27 96 28 16 29 17 30 18 31 19 32 20 34
REMARK SMILES IDX 21 35 22 36 86 37 23 38 85 39 24 40 25 41 26 42 79 43 27 44
REMARK SMILES IDX 84 45 78 46 80 47 28 48 83 49 77 50 76 51 29 53 63 54 42 55
REMARK SMILES IDX 62 56 43 57 46 58 61 59 81 60 44 61 45 62 60 64 82 65 47 66
REMARK SMILES IDX 30 67 31 68 40 69 32 70 33 71 39 72 41 73 34 74 35 75 36 76
REMARK SMILES IDX 37 77 38 78 64 79 65 80 74 81 66 82 67 83 73 84 75 85 68 86
REMARK SMILES IDX 69 87 70 88 71 89 72 90 48 91 49 92 58 93 50 94 51 95 57 96
REMARK SMILES IDX 59 97 52 98 53 99 54 100 55 101 56 102
REMARK H PARENT 13 6 18 33 80 52 46 63
REMARK Flexibility Score: inf
ROOT
ATOM      1  C   UNL     1       0.197  -6.986  -3.414  1.00  0.00     0.023 C 
ENDROOT
BRANCH   1   2
ATOM      2  C   UNL     1      -1.169  -6.650  -4.008  1.00  0.00     0.116 C 
BRANCH   2   3
ATOM      3  N   UNL     1      -2.028  -5.964  -3.067  1.00  0.00    -0.356 N 
ATOM      4  C   UNL     1      -2.505  -4.686  -3.141  1.00  0.00     0.224 C 
ATOM      5  O   UNL     1      -3.274  -4.292  -2.261  1.00  0.00    -0.275 OA
ATOM      6  H   UNL     1      -2.302  -6.482  -2.276  1.00  0.00     0.163 HD
BRANCH   4   7
ATOM      7  C   UNL     1      -2.147  -3.806  -4.332  1.00  0.00     0.138 C 
BRANCH   7   8
ATOM      8  C   UNL     1      -0.680  -3.487  -4.425  1.00  0.00    -0.009 A 
ATOM      9  C   UNL     1       0.743  -1.706  -1.369  1.00  0.00     0.119 A 
ATOM     10  C   UNL     1       2.030  -1.566  -1.860  1.00  0.00     0.048 A 
ATOM     11  C   UNL     1      -0.221  -2.366  -2.129  1.00  0.00     0.057 A 
ATOM     12  C   UNL     1       2.366  -2.045  -3.130  1.00  0.00     0.031 A 
ATOM     13  C   UNL     1       0.098  -2.861  -3.415  1.00  0.00     0.008 A 
ATOM     14  C   UNL     1       1.402  -2.728  -3.900  1.00  0.00     0.057 A 
ATOM     15  N   UNL     1       1.472  -3.387  -5.140  1.00  0.00    -0.280 N 
ATOM     16  C   UNL     1       0.153  -3.686  -5.523  1.00  0.00     0.028 A 
ATOM     17  C   UNL     1      -0.257  -4.183  -6.876  1.00  0.00     0.065 C 
BRANCH   9  18
ATOM     18  O   UNL     1       0.336  -1.252  -0.144  1.00  0.00    -0.497 OA
ATOM     19  C   UNL     1       0.861   0.027   0.199  1.00  0.00     0.278 C 
ENDBRANCH   9  18
BRANCH  15  20
ATOM     20  C   UNL     1       2.653  -3.691  -5.887  1.00  0.00     0.262 C 
ATOM     21  O   UNL     1       2.553  -4.256  -6.962  1.00  0.00    -0.268 OA
BRANCH  20  22
ATOM     22  C   UNL     1       4.028  -3.346  -5.471  1.00  0.00     0.040 A 
ATOM     23  C   UNL     1       4.630  -3.958  -4.367  1.00  0.00     0.015 A 
ATOM     24  C   UNL     1       4.701  -2.359  -6.201  1.00  0.00     0.015 A 
ATOM     25  C   UNL     1       5.880  -3.506  -3.934  1.00  0.00     0.021 A 
ATOM     26  C   UNL     1       5.953  -1.921  -5.770  1.00  0.00     0.021 A 
ATOM     27  C   UNL     1       6.527  -2.480  -4.627  1.00  0.00     0.041 A 
ATOM     28  Cl  UNL     1       8.033  -1.874  -4.058  1.00  0.00    -0.084 Cl
ENDBRANCH  20  22
ENDBRANCH  15  20
ENDBRANCH   7   8
ENDBRANCH   4   7
ENDBRANCH   2   3
ENDBRANCH   1   2
BRANCH   1  29
ATOM     29  C   UNL     1       0.168  -8.110  -2.369  1.00  0.00     0.023 C 
BRANCH  29  30
ATOM     30  C   UNL     1      -0.598  -9.357  -2.816  1.00  0.00     0.116 C 
BRANCH  30  31
ATOM     31  N   UNL     1      -0.098  -9.919  -4.055  1.00  0.00    -0.352 N 
ATOM     32  C   UNL     1       0.797 -10.900  -4.374  1.00  0.00     0.251 C 
ATOM     33  H   UNL     1      -0.495  -9.496  -4.850  1.00  0.00     0.163 HD
ATOM     34  O   UNL     1       0.868 -11.194  -5.570  1.00  0.00    -0.269 OA
BRANCH  32  35
ATOM     35  C   UNL     1       1.709 -11.569  -3.411  1.00  0.00     0.039 A 
ATOM     36  C   UNL     1       1.725 -11.359  -2.032  1.00  0.00     0.014 A 
ATOM     37  C   UNL     1       2.676 -12.424  -3.975  1.00  0.00     0.014 A 
ATOM     38  C   UNL     1       2.736 -11.895  -1.250  1.00  0.00     0.010 A 
ATOM     39  C   UNL     1       3.683 -12.975  -3.197  1.00  0.00     0.010 A 
ATOM     40  C   UNL     1       3.738 -12.657  -1.845  1.00  0.00    -0.014 A 
BRANCH  40  41
ATOM     41  C   UNL     1       4.803 -13.140  -0.981  1.00  0.00     0.031 A 
ATOM     42  C   UNL     1       4.365 -14.069   0.099  1.00  0.00     0.074 A 
ATOM     43  C   UNL     1       6.095 -12.830  -1.204  1.00  0.00     0.049 A 
ATOM     44  N   UNL     1       4.467 -13.922   1.381  1.00  0.00    -0.248 NA
ATOM     45  C   UNL     1       3.594 -15.256  -0.306  1.00  0.00     0.031 C 
ATOM     46  C   UNL     1       6.677 -12.142  -2.360  1.00  0.00     0.029 A 
ATOM     47  N   UNL     1       7.187 -13.168  -0.471  1.00  0.00    -0.354 N 
ATOM     48  C   UNL     1       3.955 -15.092   1.941  1.00  0.00     0.074 A 
ATOM     49  C   UNL     1       3.297 -15.801   0.874  1.00  0.00     0.031 C 
ATOM     50  C   UNL     1       8.014 -12.338  -2.364  1.00  0.00     0.029 A 
ATOM     51  C   UNL     1       8.388 -13.047  -1.153  1.00  0.00     0.049 A 
ATOM     52  H   UNL     1       7.131 -13.472   0.464  1.00  0.00     0.167 HD
ATOM     53  C   UNL     1       4.284 -15.501   3.197  1.00  0.00     0.037 A 
ATOM     54  C   UNL     1       9.575 -13.595  -0.789  1.00  0.00     0.037 A 
ATOM     55  C   UNL     1       4.794 -14.420   3.996  1.00  0.00     0.049 A 
ATOM     56  C   UNL     1       9.498 -13.860   0.675  1.00  0.00     0.074 A 
ATOM     57  C   UNL     1       4.273 -13.212   4.421  1.00  0.00     0.029 A 
ATOM     58  N   UNL     1       6.153 -14.318   4.174  1.00  0.00    -0.354 N 
ATOM     59  N   UNL     1       9.389 -12.918   1.577  1.00  0.00    -0.248 NA
ATOM     60  C   UNL     1       9.048 -15.178   1.101  1.00  0.00     0.031 C 
ATOM     61  C   UNL     1       5.360 -12.294   4.335  1.00  0.00     0.029 A 
ATOM     62  C   UNL     1       6.487 -13.009   3.925  1.00  0.00     0.049 A 
ATOM     63  H   UNL     1       6.767 -15.043   4.430  1.00  0.00     0.167 HD
ATOM     64  C   UNL     1       8.494 -13.415   2.516  1.00  0.00     0.074 A 
ATOM     65  C   UNL     1       8.372 -14.839   2.203  1.00  0.00     0.031 C 
ATOM     66  C   UNL     1       7.716 -12.591   3.281  1.00  0.00     0.037 A 
BRANCH  53  67
ATOM     67  C   UNL     1       4.430 -16.951   3.588  1.00  0.00     0.058 A 
ATOM     68  C   UNL     1       4.540 -17.313   4.945  1.00  0.00     0.135 A 
ATOM     69  C   UNL     1       4.731 -17.972   2.658  1.00  0.00     0.135 A 
ATOM     70  F   UNL     1       4.301 -16.414   5.914  1.00  0.00    -0.206 F 
ATOM     71  C   UNL     1       4.965 -18.582   5.346  1.00  0.00     0.059 A 
ATOM     72  C   UNL     1       5.101 -19.256   3.035  1.00  0.00     0.059 A 
ATOM     73  F   UNL     1       4.776 -17.742   1.340  1.00  0.00    -0.206 F 
ATOM     74  C   UNL     1       5.254 -19.543   4.381  1.00  0.00     0.060 A 
BRANCH  74  75
ATOM     75  S   UNL     1       5.906 -21.144   4.888  1.00  0.00     0.124 S 
ATOM     76  O   UNL     1       7.215 -20.772   5.412  1.00  0.00    -0.237 OA
ATOM     77  O   UNL     1       4.919 -21.573   5.873  1.00  0.00    -0.237 OA
ATOM     78  O   UNL     1       5.918 -21.911   3.646  1.00  0.00    -0.744 OA
ENDBRANCH  74  75
ENDBRANCH  53  67
BRANCH  54  79
ATOM     79  C   UNL     1      10.525 -14.276  -1.716  1.00  0.00     0.058 A 
ATOM     80  C   UNL     1      11.835 -14.608  -1.332  1.00  0.00     0.135 A 
ATOM     81  C   UNL     1      10.087 -14.824  -2.943  1.00  0.00     0.135 A 
ATOM     82  F   UNL     1      12.323 -14.174  -0.160  1.00  0.00    -0.206 F 
ATOM     83  C   UNL     1      12.656 -15.436  -2.113  1.00  0.00     0.059 A 
ATOM     84  C   UNL     1      10.889 -15.634  -3.743  1.00  0.00     0.059 A 
ATOM     85  F   UNL     1       8.827 -14.658  -3.370  1.00  0.00    -0.206 F 
ATOM     86  C   UNL     1      12.169 -15.951  -3.315  1.00  0.00     0.060 A 
BRANCH  86  87
ATOM     87  S   UNL     1      13.176 -17.104  -4.278  1.00  0.00     0.124 S 
ATOM     88  O   UNL     1      14.311 -16.270  -4.658  1.00  0.00    -0.237 OA
ATOM     89  O   UNL     1      13.454 -18.155  -3.304  1.00  0.00    -0.237 OA
ATOM     90  O   UNL     1      12.295 -17.492  -5.376  1.00  0.00    -0.744 OA
ENDBRANCH  86  87
ENDBRANCH  54  79
BRANCH  66  91
ATOM     91  C   UNL     1       7.978 -11.103   3.254  1.00  0.00     0.058 A 
ATOM     92  C   UNL     1       7.798 -10.299   2.113  1.00  0.00     0.135 A 
ATOM     93  C   UNL     1       8.203 -10.437   4.468  1.00  0.00     0.135 A 
ATOM     94  F   UNL     1       7.472 -10.841   0.933  1.00  0.00    -0.206 F 
ATOM     95  C   UNL     1       7.861  -8.905   2.171  1.00  0.00     0.059 A 
ATOM     96  C   UNL     1       8.240  -9.046   4.556  1.00  0.00     0.059 A 
ATOM     97  F   UNL     1       8.318 -11.140   5.608  1.00  0.00    -0.206 F 
ATOM     98  C   UNL     1       8.072  -8.285   3.401  1.00  0.00     0.060 A 
BRANCH  98  99
ATOM     99  S   UNL     1       8.036  -6.481   3.488  1.00  0.00     0.124 S 
ATOM    100  O   UNL     1       9.253  -6.113   2.772  1.00  0.00    -0.237 OA
ATOM    101  O   UNL     1       6.782  -6.156   2.812  1.00  0.00    -0.237 OA
ATOM    102  O   UNL     1       8.049  -6.206   4.923  1.00  0.00    -0.744 OA
ENDBRANCH  98  99
ENDBRANCH  66  91
ENDBRANCH  40  41
ENDBRANCH  32  35
ENDBRANCH  30  31
ENDBRANCH  29  30
ENDBRANCH   1  29
TORSDOF 18
