REMARK SMILES O=C(NCCCCNC(=O)c1ccc([C@@H]2CC(O)=Nc3c2ncn3-c2cccc(Cl)c2)cc1)c1ccc(-c2c3nc(c(-c4c(F)cc(S(=O)(=O)[O-])cc4F)c4ccc([nH]4)c(-c4c(F)cc(S(=O)(=O)[O-])cc4F)c4nc(c(-c5c(F)cc(S(=O)(=O)[O-])cc5F)c5ccc2[nH]5)C=C4)C=C3)cc1
REMARK SMILES IDX 5 1 4 2 3 3 1 4 2 5 34 7 35 8 99 9 36 10 98 11 37 12 38 13
REMARK SMILES IDX 39 14 92 15 40 16 97 17 91 18 93 19 41 20 96 21 90 22 89 23
REMARK SMILES IDX 42 25 76 26 55 27 75 28 56 29 59 30 74 31 94 32 57 33 58 34
REMARK SMILES IDX 73 36 95 37 60 38 43 39 44 40 53 41 45 42 46 43 52 44 54 45
REMARK SMILES IDX 47 46 48 47 49 48 50 49 51 50 77 51 78 52 87 53 79 54 80 55
REMARK SMILES IDX 86 56 88 57 81 58 82 59 83 60 84 61 85 62 61 63 62 64 71 65
REMARK SMILES IDX 63 66 64 67 70 68 72 69 65 70 66 71 67 72 68 73 69 74 6 75
REMARK SMILES IDX 7 76 8 77 9 78 10 80 11 81 12 82 33 83 13 84 32 85 14 86
REMARK SMILES IDX 15 87 16 88 21 89 17 90 20 91 22 92 19 93 24 94 23 95 18 96
REMARK SMILES IDX 25 98 26 99 31 100 27 101 29 102 28 103 30 104
REMARK H PARENT 3 6 93 24 59 35 8 79 18 97
REMARK Flexibility Score: inf
ROOT
ATOM      1  C   UNL     1       4.918   2.046   0.792  1.00  0.00     0.023 C 
ENDROOT
BRANCH   1   2
ATOM      2  C   UNL     1       4.640   0.553   0.952  1.00  0.00     0.116 C 
BRANCH   2   3
ATOM      3  N   UNL     1       3.237   0.205   1.049  1.00  0.00    -0.352 N 
ATOM      4  O   UNL     1       1.179  -0.447   0.592  1.00  0.00    -0.269 OA
ATOM      5  C   UNL     1       2.236   0.000   0.139  1.00  0.00     0.251 C 
ATOM      6  H   UNL     1       2.937   0.090   1.980  1.00  0.00     0.163 HD
BRANCH   5   7
ATOM      7  C   UNL     1       2.312   0.339  -1.308  1.00  0.00     0.039 A 
ATOM      8  C   UNL     1       3.482   0.544  -2.039  1.00  0.00     0.014 A 
ATOM      9  C   UNL     1       1.075   0.463  -1.971  1.00  0.00     0.014 A 
ATOM     10  C   UNL     1       3.420   0.947  -3.372  1.00  0.00     0.010 A 
ATOM     11  C   UNL     1       1.007   0.849  -3.305  1.00  0.00     0.010 A 
ATOM     12  C   UNL     1       2.183   1.122  -3.998  1.00  0.00    -0.014 A 
BRANCH  12  13
ATOM     13  C   UNL     1       2.163   1.412  -5.432  1.00  0.00     0.031 A 
ATOM     14  C   UNL     1       2.702   0.310  -6.288  1.00  0.00     0.074 A 
ATOM     15  C   UNL     1       1.552   2.490  -5.967  1.00  0.00     0.049 A 
ATOM     16  N   UNL     1       3.687   0.343  -7.127  1.00  0.00    -0.248 NA
ATOM     17  C   UNL     1       2.134  -1.037  -6.097  1.00  0.00     0.031 C 
ATOM     18  C   UNL     1       0.726   3.485  -5.280  1.00  0.00     0.029 A 
ATOM     19  N   UNL     1       1.452   2.866  -7.274  1.00  0.00    -0.354 N 
ATOM     20  C   UNL     1       3.732  -0.920  -7.719  1.00  0.00     0.074 A 
ATOM     21  C   UNL     1       2.864  -1.765  -6.942  1.00  0.00     0.031 C 
ATOM     22  C   UNL     1       0.032   4.199  -6.196  1.00  0.00     0.029 A 
ATOM     23  C   UNL     1       0.455   3.803  -7.529  1.00  0.00     0.049 A 
ATOM     24  H   UNL     1       2.036   2.504  -7.979  1.00  0.00     0.167 HD
ATOM     25  C   UNL     1       4.317  -1.135  -8.931  1.00  0.00     0.037 A 
ATOM     26  C   UNL     1      -0.033   4.171  -8.744  1.00  0.00     0.037 A 
ATOM     27  C   UNL     1       5.227  -0.076  -9.274  1.00  0.00     0.049 A 
ATOM     28  C   UNL     1       0.975   3.778  -9.762  1.00  0.00     0.074 A 
ATOM     29  C   UNL     1       6.372   0.440  -8.700  1.00  0.00     0.029 A 
ATOM     30  N   UNL     1       4.811   0.867 -10.181  1.00  0.00    -0.354 N 
ATOM     31  N   UNL     1       2.159   4.316  -9.867  1.00  0.00    -0.248 NA
ATOM     32  C   UNL     1       0.828   2.470 -10.383  1.00  0.00     0.031 C 
ATOM     33  C   UNL     1       6.286   1.847  -8.912  1.00  0.00     0.029 A 
ATOM     34  C   UNL     1       5.133   2.093  -9.657  1.00  0.00     0.049 A 
ATOM     35  H   UNL     1       4.366   0.696 -11.043  1.00  0.00     0.167 HD
ATOM     36  C   UNL     1       3.002   3.258 -10.172  1.00  0.00     0.074 A 
ATOM     37  C   UNL     1       2.115   2.163 -10.556  1.00  0.00     0.031 C 
ATOM     38  C   UNL     1       4.323   3.279  -9.824  1.00  0.00     0.037 A 
BRANCH  25  39
ATOM     39  C   UNL     1       3.811  -2.134  -9.946  1.00  0.00     0.058 A 
ATOM     40  C   UNL     1       4.583  -2.431 -11.087  1.00  0.00     0.135 A 
ATOM     41  C   UNL     1       2.477  -2.599  -9.977  1.00  0.00     0.135 A 
ATOM     42  F   UNL     1       5.858  -2.019 -11.177  1.00  0.00    -0.206 F 
ATOM     43  C   UNL     1       4.053  -3.092 -12.198  1.00  0.00     0.059 A 
ATOM     44  C   UNL     1       1.945  -3.307 -11.050  1.00  0.00     0.059 A 
ATOM     45  F   UNL     1       1.597  -2.307  -9.011  1.00  0.00    -0.206 F 
ATOM     46  C   UNL     1       2.728  -3.515 -12.172  1.00  0.00     0.060 A 
BRANCH  46  47
ATOM     47  S   UNL     1       2.013  -4.287 -13.635  1.00  0.00     0.124 S 
ATOM     48  O   UNL     1       1.960  -3.162 -14.562  1.00  0.00    -0.237 OA
ATOM     49  O   UNL     1       2.994  -5.323 -13.941  1.00  0.00    -0.237 OA
ATOM     50  O   UNL     1       0.722  -4.776 -13.160  1.00  0.00    -0.744 OA
ENDBRANCH  46  47
ENDBRANCH  25  39
BRANCH  26  51
ATOM     51  C   UNL     1      -1.440   4.500  -9.113  1.00  0.00     0.058 A 
ATOM     52  C   UNL     1      -1.759   5.083 -10.354  1.00  0.00     0.135 A 
ATOM     53  C   UNL     1      -2.527   3.983  -8.379  1.00  0.00     0.135 A 
ATOM     54  F   UNL     1      -0.787   5.579 -11.136  1.00  0.00    -0.206 F 
ATOM     55  C   UNL     1      -3.067   5.110 -10.857  1.00  0.00     0.059 A 
ATOM     56  C   UNL     1      -3.838   4.008  -8.854  1.00  0.00     0.059 A 
ATOM     57  F   UNL     1      -2.335   3.349  -7.213  1.00  0.00    -0.206 F 
ATOM     58  C   UNL     1      -4.099   4.550 -10.105  1.00  0.00     0.060 A 
BRANCH  58  59
ATOM     59  S   UNL     1      -5.758   4.419 -10.818  1.00  0.00     0.124 S 
ATOM     60  O   UNL     1      -6.188   5.813 -10.840  1.00  0.00    -0.237 OA
ATOM     61  O   UNL     1      -5.489   3.814 -12.118  1.00  0.00    -0.237 OA
ATOM     62  O   UNL     1      -6.467   3.563  -9.871  1.00  0.00    -0.744 OA
ENDBRANCH  58  59
ENDBRANCH  26  51
BRANCH  38  63
ATOM     63  C   UNL     1       4.924   4.581  -9.360  1.00  0.00     0.058 A 
ATOM     64  C   UNL     1       4.528   5.278  -8.203  1.00  0.00     0.135 A 
ATOM     65  C   UNL     1       6.057   5.059 -10.036  1.00  0.00     0.135 A 
ATOM     66  F   UNL     1       3.522   4.832  -7.439  1.00  0.00    -0.206 F 
ATOM     67  C   UNL     1       5.205   6.418  -7.764  1.00  0.00     0.059 A 
ATOM     68  C   UNL     1       6.766   6.174  -9.597  1.00  0.00     0.059 A 
ATOM     69  F   UNL     1       6.524   4.405 -11.112  1.00  0.00    -0.206 F 
ATOM     70  C   UNL     1       6.326   6.857  -8.466  1.00  0.00     0.060 A 
BRANCH  70  71
ATOM     71  S   UNL     1       7.249   8.283  -7.853  1.00  0.00     0.124 S 
ATOM     72  O   UNL     1       6.337   9.386  -8.139  1.00  0.00    -0.237 OA
ATOM     73  O   UNL     1       7.430   7.960  -6.440  1.00  0.00    -0.237 OA
ATOM     74  O   UNL     1       8.475   8.265  -8.648  1.00  0.00    -0.744 OA
ENDBRANCH  70  71
ENDBRANCH  38  63
ENDBRANCH  12  13
ENDBRANCH   5   7
ENDBRANCH   2   3
ENDBRANCH   1   2
BRANCH   1  75
ATOM     75  C   UNL     1       4.420   2.931   1.940  1.00  0.00     0.023 C 
BRANCH  75  76
ATOM     76  C   UNL     1       4.835   2.503   3.345  1.00  0.00     0.116 C 
BRANCH  76  77
ATOM     77  N   UNL     1       6.277   2.452   3.526  1.00  0.00    -0.352 N 
ATOM     78  C   UNL     1       7.055   3.008   4.514  1.00  0.00     0.251 C 
ATOM     79  H   UNL     1       6.768   1.945   2.840  1.00  0.00     0.163 HD
ATOM     80  O   UNL     1       8.274   2.942   4.450  1.00  0.00    -0.269 OA
BRANCH  78  81
ATOM     81  C   UNL     1       6.423   3.702   5.658  1.00  0.00     0.039 A 
ATOM     82  C   UNL     1       6.903   4.964   6.014  1.00  0.00     0.014 A 
ATOM     83  C   UNL     1       5.405   3.103   6.404  1.00  0.00     0.014 A 
ATOM     84  C   UNL     1       6.325   5.650   7.083  1.00  0.00     0.005 A 
ATOM     85  C   UNL     1       4.817   3.796   7.464  1.00  0.00     0.005 A 
ATOM     86  C   UNL     1       5.269   5.080   7.817  1.00  0.00    -0.038 A 
BRANCH  86  87
ATOM     87  C   UNL     1       4.694   5.843   8.998  1.00  0.00     0.081 C 
ATOM     88  C   UNL     1       4.812   5.049  10.317  1.00  0.00     0.111 C 
ATOM     89  C   UNL     1       3.279   6.155   8.673  1.00  0.00     0.093 A 
ATOM     90  C   UNL     1       3.494   4.580  10.911  1.00  0.00     0.188 C 
ATOM     91  C   UNL     1       2.247   5.738   9.483  1.00  0.00     0.164 A 
ATOM     92  N   UNL     1       2.820   6.842   7.583  1.00  0.00    -0.238 NA
ATOM     93  N   UNL     1       2.297   4.936  10.573  1.00  0.00    -0.198 NA
ATOM     94  N   UNL     1       1.095   6.194   8.869  1.00  0.00    -0.283 N 
ATOM     95  C   UNL     1       1.506   6.801   7.699  1.00  0.00     0.206 A 
BRANCH  90  96
ATOM     96  O   UNL     1       3.634   3.721  11.941  1.00  0.00    -0.496 OA
ATOM     97  H   UNL     1       4.489   3.446  12.209  1.00  0.00     0.294 HD
ENDBRANCH  90  96
BRANCH  94  98
ATOM     98  C   UNL     1      -0.231   6.072   9.341  1.00  0.00     0.050 A 
ATOM     99  C   UNL     1      -1.273   5.777   8.454  1.00  0.00     0.027 A 
ATOM    100  C   UNL     1      -0.491   6.242  10.708  1.00  0.00     0.047 A 
ATOM    101  C   UNL     1      -2.568   5.606   8.950  1.00  0.00     0.004 A 
ATOM    102  C   UNL     1      -1.795   6.121  11.179  1.00  0.00     0.043 A 
ATOM    103  C   UNL     1      -2.831   5.787  10.310  1.00  0.00     0.020 A 
ATOM    104  Cl  UNL     1      -2.131   6.402  12.844  1.00  0.00    -0.084 Cl
ENDBRANCH  94  98
ENDBRANCH  86  87
ENDBRANCH  78  81
ENDBRANCH  76  77
ENDBRANCH  75  76
ENDBRANCH   1  75
TORSDOF 17
