REMARK SMILES Cc1cc(CNC(=O)C[C@H](C)CC(=O)NCCCCNC(=O)c2ccc(-c3c4nc(c(-c5c(F)cc(S(=O)(=O)[O-])cc5F)c5ccc([nH]5)c(-c5c(F)cc(S(=O)(=O)[O-])cc5F)c5nc(c(-c6c(F)cc(S(=O)(=O)[O-])cc6F)c6ccc3[nH]6)C=C5)C=C4)cc2)cc(C)c1F
REMARK SMILES IDX 16 1 15 2 13 3 14 4 12 6 10 7 11 8 9 9 7 10 6 11 8 13 5 14
REMARK SMILES IDX 4 15 1 16 2 17 3 18 92 19 90 20 93 21 89 22 91 23 17 24
REMARK SMILES IDX 18 25 19 26 20 27 21 28 22 30 23 31 24 32 88 33 25 34 87 35
REMARK SMILES IDX 26 36 27 37 28 38 81 39 29 40 86 41 80 42 82 43 30 44 85 45
REMARK SMILES IDX 79 46 78 47 31 49 65 50 44 51 64 52 45 53 48 54 63 55 83 56
REMARK SMILES IDX 46 57 47 58 62 60 84 61 49 62 32 63 33 64 42 65 34 66 35 67
REMARK SMILES IDX 41 68 43 69 36 70 37 71 38 72 39 73 40 74 66 75 67 76 76 77
REMARK SMILES IDX 68 78 69 79 75 80 77 81 70 82 71 83 72 84 73 85 74 86 50 87
REMARK SMILES IDX 51 88 60 89 52 90 53 91 59 92 61 93 54 94 55 95 56 96 57 97
REMARK SMILES IDX 58 98
REMARK H PARENT 15 5 6 12 20 29 82 48 48 59
REMARK Flexibility Score: inf
ROOT
ATOM      1  C   UNL     1      -2.682  -1.381   7.132  1.00  0.00     0.116 C 
ENDROOT
BRANCH   1   2
ATOM      2  N   UNL     1      -1.801  -2.333   6.487  1.00  0.00    -0.356 N 
ATOM      3  C   UNL     1      -0.722  -2.101   5.689  1.00  0.00     0.220 C 
ATOM      4  O   UNL     1      -0.163  -3.055   5.147  1.00  0.00    -0.275 OA
ATOM      5  H   UNL     1      -2.012  -3.281   6.647  1.00  0.00     0.163 HD
BRANCH   3   6
ATOM      6  C   UNL     1      -0.224  -0.682   5.465  1.00  0.00     0.103 C 
BRANCH   6   7
ATOM      7  C   UNL     1      -0.951   0.024   4.303  1.00  0.00     0.004 C 
ATOM      8  C   UNL     1      -1.913   1.109   4.808  1.00  0.00     0.009 C 
BRANCH   7   9
ATOM      9  C   UNL     1       0.056   0.627   3.305  1.00  0.00     0.103 C 
BRANCH   9  10
ATOM     10  C   UNL     1      -0.634   1.264   2.109  1.00  0.00     0.220 C 
ATOM     11  N   UNL     1      -1.270   0.481   1.195  1.00  0.00    -0.352 N 
ATOM     12  H   UNL     1      -1.921   0.938   0.615  1.00  0.00     0.163 HD
ATOM     13  O   UNL     1      -0.671   2.489   1.977  1.00  0.00    -0.275 OA
BRANCH  11  14
ATOM     14  C   UNL     1      -1.109  -0.938   0.969  1.00  0.00     0.151 C 
BRANCH  14  15
ATOM     15  C   UNL     1      -2.416  -1.663   0.762  1.00  0.00    -0.028 A 
ATOM     16  C   UNL     1      -5.586  -2.529   2.713  1.00  0.00     0.047 C 
ATOM     17  C   UNL     1      -4.561  -2.458   1.622  1.00  0.00    -0.015 A 
ATOM     18  C   UNL     1      -3.418  -1.658   1.747  1.00  0.00     0.012 A 
ATOM     19  C   UNL     1      -4.707  -3.249   0.481  1.00  0.00     0.129 A 
ATOM     20  C   UNL     1      -3.745  -3.252  -0.532  1.00  0.00    -0.015 A 
ATOM     21  F   UNL     1      -5.790  -4.032   0.366  1.00  0.00    -0.206 F 
ATOM     22  C   UNL     1      -2.601  -2.457  -0.381  1.00  0.00     0.012 A 
ATOM     23  C   UNL     1      -3.908  -4.111  -1.749  1.00  0.00     0.047 C 
ENDBRANCH  14  15
ENDBRANCH  11  14
ENDBRANCH   9  10
ENDBRANCH   7   9
ENDBRANCH   6   7
ENDBRANCH   3   6
ENDBRANCH   1   2
BRANCH   1  24
ATOM     24  C   UNL     1      -3.986  -1.232   6.349  1.00  0.00     0.023 C 
BRANCH  24  25
ATOM     25  C   UNL     1      -5.069  -2.232   6.729  1.00  0.00     0.023 C 
BRANCH  25  26
ATOM     26  C   UNL     1      -5.594  -2.067   8.149  1.00  0.00     0.116 C 
BRANCH  26  27
ATOM     27  N   UNL     1      -6.182  -0.754   8.394  1.00  0.00    -0.352 N 
ATOM     28  C   UNL     1      -7.411  -0.463   8.935  1.00  0.00     0.251 C 
ATOM     29  H   UNL     1      -5.629   0.020   8.140  1.00  0.00     0.163 HD
ATOM     30  O   UNL     1      -7.824   0.691   8.983  1.00  0.00    -0.269 OA
BRANCH  28  31
ATOM     31  C   UNL     1      -8.233  -1.581   9.427  1.00  0.00     0.039 A 
ATOM     32  C   UNL     1      -9.510  -1.772   8.899  1.00  0.00     0.014 A 
ATOM     33  C   UNL     1      -7.678  -2.497  10.327  1.00  0.00     0.014 A 
ATOM     34  C   UNL     1     -10.213  -2.931   9.224  1.00  0.00     0.010 A 
ATOM     35  C   UNL     1      -8.346  -3.685  10.585  1.00  0.00     0.010 A 
ATOM     36  C   UNL     1      -9.622  -3.907  10.043  1.00  0.00    -0.014 A 
BRANCH  36  37
ATOM     37  C   UNL     1     -10.347  -5.144  10.409  1.00  0.00     0.031 A 
ATOM     38  C   UNL     1     -10.754  -5.347  11.841  1.00  0.00     0.074 A 
ATOM     39  C   UNL     1     -10.587  -6.091   9.483  1.00  0.00     0.049 A 
ATOM     40  N   UNL     1     -11.322  -6.382  12.399  1.00  0.00    -0.248 NA
ATOM     41  C   UNL     1     -10.450  -4.249  12.776  1.00  0.00     0.031 C 
ATOM     42  C   UNL     1     -10.201  -6.019   8.072  1.00  0.00     0.029 A 
ATOM     43  N   UNL     1     -11.212  -7.307   9.593  1.00  0.00    -0.354 N 
ATOM     44  C   UNL     1     -11.435  -6.063  13.746  1.00  0.00     0.074 A 
ATOM     45  C   UNL     1     -10.817  -4.771  13.936  1.00  0.00     0.031 C 
ATOM     46  C   UNL     1     -10.623  -7.129   7.442  1.00  0.00     0.029 A 
ATOM     47  C   UNL     1     -11.285  -8.001   8.408  1.00  0.00     0.049 A 
ATOM     48  H   UNL     1     -11.575  -7.651  10.441  1.00  0.00     0.167 HD
ATOM     49  C   UNL     1     -12.036  -6.768  14.732  1.00  0.00     0.037 A 
ATOM     50  C   UNL     1     -11.831  -9.203   8.139  1.00  0.00     0.037 A 
ATOM     51  C   UNL     1     -12.689  -8.030  14.528  1.00  0.00     0.049 A 
ATOM     52  C   UNL     1     -12.487  -9.973   9.253  1.00  0.00     0.074 A 
ATOM     53  C   UNL     1     -13.377  -8.802  15.446  1.00  0.00     0.029 A 
ATOM     54  N   UNL     1     -12.742  -8.700  13.315  1.00  0.00    -0.354 N 
ATOM     55  N   UNL     1     -12.624  -9.639  10.515  1.00  0.00    -0.248 NA
ATOM     56  C   UNL     1     -13.060 -11.282   8.911  1.00  0.00     0.031 C 
ATOM     57  C   UNL     1     -13.829  -9.953  14.791  1.00  0.00     0.029 A 
ATOM     58  C   UNL     1     -13.443  -9.884  13.461  1.00  0.00     0.049 A 
ATOM     59  H   UNL     1     -12.341  -8.381  12.475  1.00  0.00     0.167 HD
ATOM     60  C   UNL     1     -13.310 -10.688  11.114  1.00  0.00     0.074 A 
ATOM     61  C   UNL     1     -13.572 -11.664  10.074  1.00  0.00     0.031 C 
ATOM     62  C   UNL     1     -13.689 -10.835  12.407  1.00  0.00     0.037 A 
BRANCH  49  63
ATOM     63  C   UNL     1     -12.037  -6.162  16.104  1.00  0.00     0.058 A 
ATOM     64  C   UNL     1     -12.844  -5.055  16.410  1.00  0.00     0.135 A 
ATOM     65  C   UNL     1     -11.227  -6.688  17.123  1.00  0.00     0.135 A 
ATOM     66  F   UNL     1     -13.617  -4.501  15.462  1.00  0.00    -0.206 F 
ATOM     67  C   UNL     1     -12.829  -4.470  17.670  1.00  0.00     0.059 A 
ATOM     68  C   UNL     1     -11.213  -6.133  18.399  1.00  0.00     0.059 A 
ATOM     69  F   UNL     1     -10.431  -7.740  16.879  1.00  0.00    -0.206 F 
ATOM     70  C   UNL     1     -12.007  -5.015  18.658  1.00  0.00     0.060 A 
BRANCH  70  71
ATOM     71  S   UNL     1     -11.995  -4.240  20.288  1.00  0.00     0.124 S 
ATOM     72  O   UNL     1     -11.224  -3.028  20.027  1.00  0.00    -0.237 OA
ATOM     73  O   UNL     1     -13.416  -4.043  20.551  1.00  0.00    -0.237 OA
ATOM     74  O   UNL     1     -11.336  -5.233  21.131  1.00  0.00    -0.744 OA
ENDBRANCH  70  71
ENDBRANCH  49  63
BRANCH  50  75
ATOM     75  C   UNL     1     -11.816  -9.736   6.752  1.00  0.00     0.058 A 
ATOM     76  C   UNL     1     -12.988  -9.754   5.982  1.00  0.00     0.135 A 
ATOM     77  C   UNL     1     -10.639 -10.224   6.165  1.00  0.00     0.135 A 
ATOM     78  F   UNL     1     -14.139  -9.302   6.503  1.00  0.00    -0.206 F 
ATOM     79  C   UNL     1     -12.999 -10.248   4.682  1.00  0.00     0.059 A 
ATOM     80  C   UNL     1     -10.621 -10.709   4.860  1.00  0.00     0.059 A 
ATOM     81  F   UNL     1      -9.490 -10.216   6.857  1.00  0.00    -0.206 F 
ATOM     82  C   UNL     1     -11.809 -10.723   4.129  1.00  0.00     0.060 A 
BRANCH  82  83
ATOM     83  S   UNL     1     -11.826 -11.321   2.424  1.00  0.00     0.124 S 
ATOM     84  O   UNL     1     -12.525 -12.593   2.566  1.00  0.00    -0.237 OA
ATOM     85  O   UNL     1     -12.560 -10.263   1.736  1.00  0.00    -0.237 OA
ATOM     86  O   UNL     1     -10.409 -11.413   2.086  1.00  0.00    -0.744 OA
ENDBRANCH  82  83
ENDBRANCH  50  75
BRANCH  62  87
ATOM     87  C   UNL     1     -14.427 -12.088  12.775  1.00  0.00     0.058 A 
ATOM     88  C   UNL     1     -13.748 -13.301  12.955  1.00  0.00     0.135 A 
ATOM     89  C   UNL     1     -15.804 -12.053  13.045  1.00  0.00     0.135 A 
ATOM     90  F   UNL     1     -12.432 -13.383  12.703  1.00  0.00    -0.206 F 
ATOM     91  C   UNL     1     -14.411 -14.442  13.391  1.00  0.00     0.059 A 
ATOM     92  C   UNL     1     -16.483 -13.177  13.501  1.00  0.00     0.059 A 
ATOM     93  F   UNL     1     -16.493 -10.910  12.895  1.00  0.00    -0.206 F 
ATOM     94  C   UNL     1     -15.778 -14.368  13.669  1.00  0.00     0.060 A 
BRANCH  94  95
ATOM     95  S   UNL     1     -16.611 -15.839  14.303  1.00  0.00     0.124 S 
ATOM     96  O   UNL     1     -16.716 -16.658  13.100  1.00  0.00    -0.237 OA
ATOM     97  O   UNL     1     -15.674 -16.317  15.315  1.00  0.00    -0.237 OA
ATOM     98  O   UNL     1     -17.872 -15.317  14.821  1.00  0.00    -0.744 OA
ENDBRANCH  94  95
ENDBRANCH  62  87
ENDBRANCH  36  37
ENDBRANCH  28  31
ENDBRANCH  26  27
ENDBRANCH  25  26
ENDBRANCH  24  25
ENDBRANCH   1  24
TORSDOF 19
