REMARK SMILES Nc1c(N2CCC(C(=O)NCCCCNC(=O)c3ccc(-c4c5nc(c(-c6c(F)cc(S(=O)(=O)[O-])cc6F)c6ccc([nH]6)c(-c6c(F)cc(S(=O)(=O)[O-])cc6F)c6nc(c(-c7c(F)cc(S(=O)(=O)[O-])cc7F)c7ccc4[nH]7)C=C6)C=C5)cc3)CC2)ncnc1N1CCN(c2ccccc2)CC1
REMARK SMILES IDX 12 1 11 2 10 3 8 4 9 5 7 7 4 8 5 9 85 10 6 11 84 12 3 13
REMARK SMILES IDX 2 14 89 15 86 16 88 17 87 18 1 19 90 22 91 23 101 24 92 25
REMARK SMILES IDX 100 26 93 27 94 28 95 29 99 30 96 31 98 32 97 33 13 34 14 35
REMARK SMILES IDX 15 36 16 37 17 39 18 40 19 41 83 42 20 43 82 44 21 45 22 46
REMARK SMILES IDX 23 47 76 48 24 49 81 50 75 51 77 52 25 53 80 54 74 55 73 56
REMARK SMILES IDX 26 58 60 59 39 60 59 61 40 62 43 63 58 64 78 65 41 66 42 67
REMARK SMILES IDX 57 69 79 70 44 71 27 72 28 73 37 74 29 75 30 76 36 77 38 78
REMARK SMILES IDX 31 79 32 80 33 81 34 82 35 83 61 84 62 85 71 86 63 87 64 88
REMARK SMILES IDX 70 89 72 90 65 91 66 92 67 93 68 94 69 95 45 96 46 97 55 98
REMARK SMILES IDX 47 99 48 100 54 101 56 102 49 103 50 104 51 105 52 106
REMARK SMILES IDX 53 107
REMARK H PARENT 10 6 1 20 1 21 15 38 77 57 43 68
REMARK Flexibility Score: inf
ROOT
ATOM      1  C   UNL     1      -4.140   2.735   4.542  1.00  0.00     0.023 C 
ENDROOT
BRANCH   1   2
ATOM      2  C   UNL     1      -2.895   1.947   4.938  1.00  0.00     0.116 C 
BRANCH   2   3
ATOM      3  N   UNL     1      -3.226   0.741   5.681  1.00  0.00    -0.356 N 
ATOM      4  C   UNL     1      -3.078  -0.573   5.354  1.00  0.00     0.223 C 
ATOM      5  O   UNL     1      -3.438  -1.422   6.172  1.00  0.00    -0.275 OA
ATOM      6  H   UNL     1      -3.623   0.900   6.568  1.00  0.00     0.163 HD
BRANCH   4   7
ATOM      7  C   UNL     1      -2.456  -0.998   4.034  1.00  0.00     0.082 C 
ATOM      8  N   UNL     1      -1.212  -0.236   1.606  1.00  0.00    -0.355 N 
ATOM      9  C   UNL     1      -2.583  -0.686   1.503  1.00  0.00     0.119 C 
ATOM     10  C   UNL     1      -0.354  -0.807   2.628  1.00  0.00     0.119 C 
ATOM     11  C   UNL     1      -3.299  -0.544   2.834  1.00  0.00     0.035 C 
ATOM     12  C   UNL     1      -0.971  -0.613   4.000  1.00  0.00     0.035 C 
BRANCH   8  13
ATOM     13  C   UNL     1      -0.794   0.878   0.893  1.00  0.00     0.157 A 
ATOM     14  C   UNL     1       0.358   0.791   0.103  1.00  0.00     0.118 A 
ATOM     15  C   UNL     1       0.769   1.963  -0.550  1.00  0.00     0.157 A 
ATOM     16  N   UNL     1      -1.487   2.025   1.010  1.00  0.00    -0.217 NA
ATOM     17  N   UNL     1       0.134   3.133  -0.386  1.00  0.00    -0.217 NA
ATOM     18  C   UNL     1      -0.975   3.092   0.371  1.00  0.00     0.226 A 
BRANCH  14  19
ATOM     19  N   UNL     1       1.018  -0.435  -0.120  1.00  0.00    -0.393 N 
ATOM     20  H   UNL     1       0.718  -1.248   0.346  1.00  0.00     0.156 HD
ATOM     21  H   UNL     1       1.781  -0.478  -0.742  1.00  0.00     0.156 HD
ENDBRANCH  14  19
BRANCH  15  22
ATOM     22  N   UNL     1       1.892   1.898  -1.357  1.00  0.00    -0.351 N 
ATOM     23  C   UNL     1       2.894   2.958  -1.322  1.00  0.00     0.139 C 
ATOM     24  C   UNL     1       1.780   1.193  -2.639  1.00  0.00     0.139 C 
ATOM     25  C   UNL     1       4.277   2.322  -1.624  1.00  0.00     0.138 C 
ATOM     26  C   UNL     1       3.139   0.547  -2.979  1.00  0.00     0.138 C 
ATOM     27  N   UNL     1       4.233   1.538  -2.878  1.00  0.00    -0.368 N 
BRANCH  27  28
ATOM     28  C   UNL     1       5.393   1.267  -3.583  1.00  0.00     0.037 A 
ATOM     29  C   UNL     1       6.629   1.051  -2.963  1.00  0.00     0.026 A 
ATOM     30  C   UNL     1       5.348   1.223  -4.984  1.00  0.00     0.026 A 
ATOM     31  C   UNL     1       7.781   0.806  -3.719  1.00  0.00     0.002 A 
ATOM     32  C   UNL     1       6.495   0.993  -5.744  1.00  0.00     0.002 A 
ATOM     33  C   UNL     1       7.714   0.784  -5.110  1.00  0.00     0.000 A 
ENDBRANCH  27  28
ENDBRANCH  15  22
ENDBRANCH   8  13
ENDBRANCH   4   7
ENDBRANCH   2   3
ENDBRANCH   1   2
BRANCH   1  34
ATOM     34  C   UNL     1      -4.909   3.339   5.714  1.00  0.00     0.023 C 
BRANCH  34  35
ATOM     35  C   UNL     1      -4.077   4.202   6.654  1.00  0.00     0.116 C 
BRANCH  35  36
ATOM     36  N   UNL     1      -3.397   5.295   5.973  1.00  0.00    -0.352 N 
ATOM     37  C   UNL     1      -3.340   6.621   6.326  1.00  0.00     0.251 C 
ATOM     38  H   UNL     1      -2.915   5.050   5.150  1.00  0.00     0.163 HD
ATOM     39  O   UNL     1      -2.821   7.442   5.576  1.00  0.00    -0.269 OA
BRANCH  37  40
ATOM     40  C   UNL     1      -3.945   7.049   7.602  1.00  0.00     0.039 A 
ATOM     41  C   UNL     1      -4.863   8.100   7.595  1.00  0.00     0.014 A 
ATOM     42  C   UNL     1      -3.646   6.372   8.789  1.00  0.00     0.014 A 
ATOM     43  C   UNL     1      -5.541   8.426   8.770  1.00  0.00     0.010 A 
ATOM     44  C   UNL     1      -4.372   6.653   9.941  1.00  0.00     0.010 A 
ATOM     45  C   UNL     1      -5.328   7.680   9.941  1.00  0.00    -0.014 A 
BRANCH  45  46
ATOM     46  C   UNL     1      -6.098   7.963  11.177  1.00  0.00     0.031 A 
ATOM     47  C   UNL     1      -5.391   8.490  12.395  1.00  0.00     0.074 A 
ATOM     48  C   UNL     1      -7.420   7.704  11.215  1.00  0.00     0.049 A 
ATOM     49  N   UNL     1      -5.879   8.756  13.578  1.00  0.00    -0.248 NA
ATOM     50  C   UNL     1      -3.944   8.727  12.273  1.00  0.00     0.031 C 
ATOM     51  C   UNL     1      -8.206   7.153  10.109  1.00  0.00     0.029 A 
ATOM     52  N   UNL     1      -8.337   7.871  12.222  1.00  0.00    -0.354 N 
ATOM     53  C   UNL     1      -4.801   9.189  14.340  1.00  0.00     0.074 A 
ATOM     54  C   UNL     1      -3.624   9.095  13.505  1.00  0.00     0.031 C 
ATOM     55  C   UNL     1      -9.492   7.061  10.486  1.00  0.00     0.029 A 
ATOM     56  C   UNL     1      -9.617   7.516  11.868  1.00  0.00     0.049 A 
ATOM     57  H   UNL     1      -8.100   8.213  13.114  1.00  0.00     0.167 HD
ATOM     58  C   UNL     1      -4.798   9.652  15.612  1.00  0.00     0.037 A 
ATOM     59  C   UNL     1     -10.762   7.557  12.577  1.00  0.00     0.037 A 
ATOM     60  C   UNL     1      -5.974   9.770  16.430  1.00  0.00     0.049 A 
ATOM     61  C   UNL     1     -10.731   8.065  13.992  1.00  0.00     0.074 A 
ATOM     62  C   UNL     1      -6.080  10.264  17.718  1.00  0.00     0.029 A 
ATOM     63  N   UNL     1      -7.251   9.398  16.037  1.00  0.00    -0.354 N 
ATOM     64  N   UNL     1      -9.708   8.506  14.684  1.00  0.00    -0.248 NA
ATOM     65  C   UNL     1     -12.006   8.079  14.723  1.00  0.00     0.031 C 
ATOM     66  C   UNL     1      -7.418  10.165  18.114  1.00  0.00     0.029 A 
ATOM     67  C   UNL     1      -8.150   9.640  17.061  1.00  0.00     0.049 A 
ATOM     68  H   UNL     1      -7.484   9.017  15.159  1.00  0.00     0.167 HD
ATOM     69  C   UNL     1     -10.219   8.870  15.925  1.00  0.00     0.074 A 
ATOM     70  C   UNL     1     -11.642   8.605  15.886  1.00  0.00     0.031 C 
ATOM     71  C   UNL     1      -9.566   9.376  16.999  1.00  0.00     0.037 A 
BRANCH  58  72
ATOM     72  C   UNL     1      -3.481  10.089  16.186  1.00  0.00     0.058 A 
ATOM     73  C   UNL     1      -2.865  11.280  15.769  1.00  0.00     0.135 A 
ATOM     74  C   UNL     1      -2.844   9.335  17.183  1.00  0.00     0.135 A 
ATOM     75  F   UNL     1      -3.424  12.028  14.804  1.00  0.00    -0.206 F 
ATOM     76  C   UNL     1      -1.652  11.697  16.304  1.00  0.00     0.059 A 
ATOM     77  C   UNL     1      -1.641   9.745  17.750  1.00  0.00     0.059 A 
ATOM     78  F   UNL     1      -3.389   8.186  17.615  1.00  0.00    -0.206 F 
ATOM     79  C   UNL     1      -1.047  10.921  17.295  1.00  0.00     0.060 A 
BRANCH  79  80
ATOM     80  S   UNL     1       0.524  11.482  17.985  1.00  0.00     0.124 S 
ATOM     81  O   UNL     1       1.442  11.198  16.885  1.00  0.00    -0.237 OA
ATOM     82  O   UNL     1       0.266  12.895  18.244  1.00  0.00    -0.237 OA
ATOM     83  O   UNL     1       0.691  10.650  19.172  1.00  0.00    -0.744 OA
ENDBRANCH  79  80
ENDBRANCH  58  72
BRANCH  59  84
ATOM     84  C   UNL     1     -12.041   7.144  11.943  1.00  0.00     0.058 A 
ATOM     85  C   UNL     1     -12.998   8.102  11.577  1.00  0.00     0.135 A 
ATOM     86  C   UNL     1     -12.323   5.798  11.669  1.00  0.00     0.135 A 
ATOM     87  F   UNL     1     -12.775   9.401  11.825  1.00  0.00    -0.206 F 
ATOM     88  C   UNL     1     -14.195   7.740  10.969  1.00  0.00     0.059 A 
ATOM     89  C   UNL     1     -13.506   5.412  11.044  1.00  0.00     0.059 A 
ATOM     90  F   UNL     1     -11.432   4.846  11.987  1.00  0.00    -0.206 F 
ATOM     91  C   UNL     1     -14.439   6.391  10.703  1.00  0.00     0.060 A 
BRANCH  91  92
ATOM     92  S   UNL     1     -15.972   5.939   9.862  1.00  0.00     0.124 S 
ATOM     93  O   UNL     1     -16.955   6.128  10.921  1.00  0.00    -0.237 OA
ATOM     94  O   UNL     1     -16.017   6.904   8.768  1.00  0.00    -0.237 OA
ATOM     95  O   UNL     1     -15.736   4.556   9.457  1.00  0.00    -0.744 OA
ENDBRANCH  91  92
ENDBRANCH  59  84
BRANCH  71  96
ATOM     96  C   UNL     1     -10.378   9.695  18.221  1.00  0.00     0.058 A 
ATOM     97  C   UNL     1     -10.810   8.686  19.093  1.00  0.00     0.135 A 
ATOM     98  C   UNL     1     -10.645  11.029  18.570  1.00  0.00     0.135 A 
ATOM     99  F   UNL     1     -10.585   7.396  18.797  1.00  0.00    -0.206 F 
ATOM    100  C   UNL     1     -11.481   8.987  20.273  1.00  0.00     0.059 A 
ATOM    101  C   UNL     1     -11.297  11.354  19.755  1.00  0.00     0.059 A 
ATOM    102  F   UNL     1     -10.244  12.030  17.770  1.00  0.00    -0.206 F 
ATOM    103  C   UNL     1     -11.713  10.325  20.599  1.00  0.00     0.060 A 
BRANCH 103 104
ATOM    104  S   UNL     1     -12.523  10.703  22.167  1.00  0.00     0.124 S 
ATOM    105  O   UNL     1     -13.904  10.325  21.884  1.00  0.00    -0.237 OA
ATOM    106  O   UNL     1     -11.809   9.841  23.104  1.00  0.00    -0.237 OA
ATOM    107  O   UNL     1     -12.286  12.134  22.336  1.00  0.00    -0.744 OA
ENDBRANCH 103 104
ENDBRANCH  71  96
ENDBRANCH  45  46
ENDBRANCH  37  40
ENDBRANCH  35  36
ENDBRANCH  34  35
ENDBRANCH   1  34
TORSDOF 18
