REMARK SMILES CC(C)c1nc(N2C[C@H](C)OC(C)(C)C2)sc1C(=O)NCCCCNC(=O)c1ccc(-c2c3nc(c(-c4c(F)cc(S(=O)(=O)[O-])cc4F)c4ccc([nH]4)c(-c4c(F)cc(S(=O)(=O)[O-])cc4F)c4nc(c(-c5c(F)cc(S(=O)(=O)[O-])cc5F)c5ccc2[nH]5)C=C4)C=C3)cc1
REMARK SMILES IDX 23 1 22 2 21 3 20 4 18 5 19 6 17 8 4 9 5 10 6 11 16 12 2 13
REMARK SMILES IDX 1 14 3 15 7 16 8 17 15 18 9 19 12 20 11 21 10 22 13 23 14 24
REMARK SMILES IDX 24 25 25 26 26 27 27 29 28 30 29 31 93 32 30 33 92 34 31 35
REMARK SMILES IDX 32 36 33 37 86 38 34 39 91 40 85 41 87 42 35 43 90 44 84 45
REMARK SMILES IDX 83 46 36 48 70 49 49 50 69 51 50 52 53 53 68 54 88 55 51 56
REMARK SMILES IDX 52 57 67 59 89 60 54 61 37 62 38 63 47 64 39 65 40 66 46 67
REMARK SMILES IDX 48 68 41 69 42 70 43 71 44 72 45 73 71 74 72 75 81 76 73 77
REMARK SMILES IDX 74 78 80 79 82 80 75 81 76 82 77 83 78 84 79 85 55 86 56 87
REMARK SMILES IDX 65 88 57 89 58 90 64 91 66 92 59 93 60 94 61 95 62 96 63 97
REMARK H PARENT 20 7 25 28 87 47 53 58
REMARK Flexibility Score: inf
ROOT
ATOM      1  C   UNL     1       2.912   2.437  -0.479  1.00  0.00     0.023 C 
ENDROOT
BRANCH   1   2
ATOM      2  C   UNL     1       1.925   1.281  -0.366  1.00  0.00     0.023 C 
BRANCH   2   3
ATOM      3  C   UNL     1       1.131   1.239   0.939  1.00  0.00     0.116 C 
BRANCH   3   4
ATOM      4  N   UNL     1      -0.218   1.704   0.756  1.00  0.00    -0.351 N 
ATOM      5  C   UNL     1      -1.470   1.157   0.726  1.00  0.00     0.263 C 
ATOM      6  O   UNL     1      -2.313   2.043   0.508  1.00  0.00    -0.268 OA
ATOM      7  H   UNL     1      -0.247   2.677   0.615  1.00  0.00     0.163 HD
BRANCH   5   8
ATOM      8  C   UNL     1      -1.867  -0.244   0.927  1.00  0.00     0.117 A 
ATOM      9  C   UNL     1      -1.339  -1.524   1.135  1.00  0.00     0.069 A 
ATOM     10  N   UNL     1      -2.295  -2.528   1.330  1.00  0.00    -0.224 NA
ATOM     11  C   UNL     1      -3.512  -2.114   1.113  1.00  0.00     0.186 A 
ATOM     12  S   UNL     1      -3.616  -0.440   0.833  1.00  0.00    -0.091 S 
BRANCH   9  13
ATOM     13  C   UNL     1       0.051  -2.106   1.154  1.00  0.00     0.034 C 
ATOM     14  C   UNL     1       0.788  -1.906  -0.169  1.00  0.00     0.014 C 
ATOM     15  C   UNL     1       0.825  -1.821   2.443  1.00  0.00     0.014 C 
ENDBRANCH   9  13
BRANCH  11  16
ATOM     16  N   UNL     1      -4.599  -2.925   1.140  1.00  0.00    -0.343 N 
ATOM     17  C   UNL     1      -5.567  -2.925   0.044  1.00  0.00     0.150 C 
ATOM     18  C   UNL     1      -4.572  -4.154   1.933  1.00  0.00     0.153 C 
ATOM     19  C   UNL     1      -5.335  -4.171  -0.836  1.00  0.00     0.135 C 
ATOM     20  C   UNL     1      -4.493  -5.427   1.045  1.00  0.00     0.081 C 
ATOM     21  O   UNL     1      -5.434  -5.377  -0.054  1.00  0.00    -0.369 OA
ATOM     22  C   UNL     1      -6.378  -4.258  -1.942  1.00  0.00     0.040 C 
ATOM     23  C   UNL     1      -3.074  -5.689   0.522  1.00  0.00     0.044 C 
ATOM     24  C   UNL     1      -4.923  -6.636   1.892  1.00  0.00     0.044 C 
ENDBRANCH  11  16
ENDBRANCH   5   8
ENDBRANCH   3   4
ENDBRANCH   2   3
ENDBRANCH   1   2
BRANCH   1  25
ATOM     25  C   UNL     1       3.979   2.491   0.609  1.00  0.00     0.116 C 
BRANCH  25  26
ATOM     26  N   UNL     1       4.722   1.250   0.792  1.00  0.00    -0.352 N 
ATOM     27  C   UNL     1       6.047   1.101   1.141  1.00  0.00     0.251 C 
ATOM     28  H   UNL     1       4.216   0.417   0.650  1.00  0.00     0.163 HD
ATOM     29  O   UNL     1       6.554  -0.014   1.215  1.00  0.00    -0.269 OA
BRANCH  27  30
ATOM     30  C   UNL     1       6.856   2.315   1.365  1.00  0.00     0.039 A 
ATOM     31  C   UNL     1       8.010   2.507   0.603  1.00  0.00     0.014 A 
ATOM     32  C   UNL     1       6.395   3.313   2.227  1.00  0.00     0.014 A 
ATOM     33  C   UNL     1       8.645   3.750   0.627  1.00  0.00     0.010 A 
ATOM     34  C   UNL     1       6.981   4.572   2.187  1.00  0.00     0.010 A 
ATOM     35  C   UNL     1       8.100   4.809   1.373  1.00  0.00    -0.014 A 
BRANCH  35  36
ATOM     36  C   UNL     1       8.658   6.183   1.293  1.00  0.00     0.031 A 
ATOM     37  C   UNL     1       9.203   6.844   2.527  1.00  0.00     0.074 A 
ATOM     38  C   UNL     1       8.579   6.869   0.135  1.00  0.00     0.049 A 
ATOM     39  N   UNL     1       9.617   8.073   2.691  1.00  0.00    -0.248 NA
ATOM     40  C   UNL     1       9.252   6.025   3.749  1.00  0.00     0.031 C 
ATOM     41  C   UNL     1       8.004   6.365  -1.116  1.00  0.00     0.029 A 
ATOM     42  N   UNL     1       8.969   8.148  -0.175  1.00  0.00    -0.354 N 
ATOM     43  C   UNL     1       9.941   8.186   4.037  1.00  0.00     0.074 A 
ATOM     44  C   UNL     1       9.635   6.914   4.654  1.00  0.00     0.031 C 
ATOM     45  C   UNL     1       8.105   7.313  -2.062  1.00  0.00     0.029 A 
ATOM     46  C   UNL     1       8.719   8.502  -1.480  1.00  0.00     0.049 A 
ATOM     47  H   UNL     1       9.390   8.755   0.476  1.00  0.00     0.167 HD
ATOM     48  C   UNL     1      10.467   9.246   4.695  1.00  0.00     0.037 A 
ATOM     49  C   UNL     1       8.957   9.656  -2.134  1.00  0.00     0.037 A 
ATOM     50  C   UNL     1      10.821  10.491   4.068  1.00  0.00     0.049 A 
ATOM     51  C   UNL     1       9.601  10.796  -1.397  1.00  0.00     0.074 A 
ATOM     52  C   UNL     1      11.430  11.598   4.632  1.00  0.00     0.029 A 
ATOM     53  N   UNL     1      10.611  10.787   2.729  1.00  0.00    -0.354 N 
ATOM     54  N   UNL     1       9.953  10.866  -0.136  1.00  0.00    -0.248 NA
ATOM     55  C   UNL     1       9.887  12.012  -2.172  1.00  0.00     0.031 C 
ATOM     56  C   UNL     1      11.572  12.572   3.637  1.00  0.00     0.029 A 
ATOM     57  C   UNL     1      11.075  12.061   2.448  1.00  0.00     0.049 A 
ATOM     58  H   UNL     1      10.193  10.182   2.075  1.00  0.00     0.167 HD
ATOM     59  C   UNL     1      10.519  12.125   0.030  1.00  0.00     0.074 A 
ATOM     60  C   UNL     1      10.472  12.779  -1.262  1.00  0.00     0.031 C 
ATOM     61  C   UNL     1      11.029  12.689   1.153  1.00  0.00     0.037 A 
BRANCH  48  62
ATOM     62  C   UNL     1      10.701   9.090   6.170  1.00  0.00     0.058 A 
ATOM     63  C   UNL     1      11.732   8.275   6.666  1.00  0.00     0.135 A 
ATOM     64  C   UNL     1       9.888   9.758   7.099  1.00  0.00     0.135 A 
ATOM     65  F   UNL     1      12.525   7.600   5.819  1.00  0.00    -0.206 F 
ATOM     66  C   UNL     1      11.924   8.097   8.031  1.00  0.00     0.059 A 
ATOM     67  C   UNL     1      10.078   9.614   8.470  1.00  0.00     0.059 A 
ATOM     68  F   UNL     1       8.888  10.548   6.678  1.00  0.00    -0.206 F 
ATOM     69  C   UNL     1      11.087   8.765   8.926  1.00  0.00     0.060 A 
BRANCH  69  70
ATOM     70  S   UNL     1      11.332   8.511  10.696  1.00  0.00     0.124 S 
ATOM     71  O   UNL     1      10.693   7.213  10.892  1.00  0.00    -0.237 OA
ATOM     72  O   UNL     1      12.786   8.525  10.820  1.00  0.00    -0.237 OA
ATOM     73  O   UNL     1      10.643   9.648  11.299  1.00  0.00    -0.744 OA
ENDBRANCH  69  70
ENDBRANCH  48  62
BRANCH  49  74
ATOM     74  C   UNL     1       8.619   9.775  -3.575  1.00  0.00     0.058 A 
ATOM     75  C   UNL     1       9.627   9.746  -4.550  1.00  0.00     0.135 A 
ATOM     76  C   UNL     1       7.291   9.901  -4.009  1.00  0.00     0.135 A 
ATOM     77  F   UNL     1      10.912   9.632  -4.181  1.00  0.00    -0.206 F 
ATOM     78  C   UNL     1       9.334   9.850  -5.905  1.00  0.00     0.059 A 
ATOM     79  C   UNL     1       6.971   9.988  -5.361  1.00  0.00     0.059 A 
ATOM     80  F   UNL     1       6.290   9.915  -3.115  1.00  0.00    -0.206 F 
ATOM     81  C   UNL     1       8.001   9.970  -6.301  1.00  0.00     0.060 A 
BRANCH  81  82
ATOM     82  S   UNL     1       7.623  10.048  -8.066  1.00  0.00     0.124 S 
ATOM     83  O   UNL     1       7.964  11.431  -8.378  1.00  0.00    -0.237 OA
ATOM     84  O   UNL     1       8.512   9.030  -8.618  1.00  0.00    -0.237 OA
ATOM     85  O   UNL     1       6.201   9.719  -8.116  1.00  0.00    -0.744 OA
ENDBRANCH  81  82
ENDBRANCH  49  74
BRANCH  61  86
ATOM     86  C   UNL     1      11.601  14.070   1.028  1.00  0.00     0.058 A 
ATOM     87  C   UNL     1      10.774  15.201   0.954  1.00  0.00     0.135 A 
ATOM     88  C   UNL     1      12.991  14.267   1.038  1.00  0.00     0.135 A 
ATOM     89  F   UNL     1       9.440  15.061   0.933  1.00  0.00    -0.206 F 
ATOM     90  C   UNL     1      11.307  16.483   0.879  1.00  0.00     0.059 A 
ATOM     91  C   UNL     1      13.545  15.542   0.984  1.00  0.00     0.059 A 
ATOM     92  F   UNL     1      13.822  13.216   1.116  1.00  0.00    -0.206 F 
ATOM     93  C   UNL     1      12.694  16.644   0.895  1.00  0.00     0.060 A 
BRANCH  93  94
ATOM     94  S   UNL     1      13.377  18.314   0.842  1.00  0.00     0.124 S 
ATOM     95  O   UNL     1      13.257  18.634  -0.577  1.00  0.00    -0.237 OA
ATOM     96  O   UNL     1      12.487  19.049   1.735  1.00  0.00    -0.237 OA
ATOM     97  O   UNL     1      14.740  18.137   1.334  1.00  0.00    -0.744 OA
ENDBRANCH  93  94
ENDBRANCH  61  86
ENDBRANCH  35  36
ENDBRANCH  27  30
ENDBRANCH  25  26
ENDBRANCH   1  25
TORSDOF 16
