REMARK SMILES Cc1cc(Cl)cc2c1O[C@H](C(F)(F)F)C(C(=O)NCCCCNC(=O)c1ccc(-c3c4nc(c(-c5c(F)cc(S(=O)(=O)[O-])cc5F)c5ccc([nH]5)c(-c5c(F)cc(S(=O)(=O)[O-])cc5F)c5nc(c(-c6c(F)cc(S(=O)(=O)[O-])cc6F)c6ccc3[nH]6)C=C5)C=C4)cc1)=C2
REMARK SMILES IDX 21 1 20 2 19 3 18 4 16 5 17 6 15 8 1 9 2 10 3 11 8 12 4 13
REMARK SMILES IDX 7 14 9 15 5 16 6 17 92 18 10 19 11 20 12 21 13 22 14 23
REMARK SMILES IDX 22 24 23 25 24 26 25 28 26 29 27 30 91 31 28 32 90 33 29 34
REMARK SMILES IDX 30 35 31 36 84 37 32 38 89 39 83 40 85 41 33 42 88 43 82 44
REMARK SMILES IDX 81 45 34 47 68 48 47 49 67 50 48 51 51 52 66 53 86 54 49 55
REMARK SMILES IDX 50 56 65 58 87 59 52 60 35 61 36 62 45 63 37 64 38 65 44 66
REMARK SMILES IDX 46 67 39 68 40 69 41 70 42 71 43 72 69 73 70 74 79 75 71 76
REMARK SMILES IDX 72 77 78 78 80 79 73 80 74 81 75 82 76 83 77 84 53 85 54 86
REMARK SMILES IDX 63 87 55 88 56 89 62 90 64 91 57 92 58 93 59 94 60 95 61 96
REMARK H PARENT 18 7 23 27 85 46 51 57
REMARK Flexibility Score: inf
ROOT
ATOM      1  C   UNL     1       2.645  -8.328   2.156  1.00  0.00     0.023 C 
ENDROOT
BRANCH   1   2
ATOM      2  C   UNL     1       2.296  -6.894   1.751  1.00  0.00     0.023 C 
BRANCH   2   3
ATOM      3  C   UNL     1       0.805  -6.573   1.813  1.00  0.00     0.116 C 
BRANCH   3   4
ATOM      4  N   UNL     1       0.393  -6.159   3.142  1.00  0.00    -0.352 N 
ATOM      5  C   UNL     1       0.110  -4.995   3.770  1.00  0.00     0.251 C 
ATOM      6  O   UNL     1      -0.212  -5.101   4.958  1.00  0.00    -0.270 OA
ATOM      7  H   UNL     1       0.292  -6.930   3.746  1.00  0.00     0.163 HD
BRANCH   5   8
ATOM      8  C   UNL     1       0.157  -3.640   3.143  1.00  0.00     0.067 C 
ATOM      9  C   UNL     1       0.914   0.502   0.193  1.00  0.00     0.048 C 
ATOM     10  C   UNL     1       0.423   0.264   1.592  1.00  0.00    -0.007 A 
ATOM     11  C   UNL     1       0.014   1.340   2.391  1.00  0.00     0.027 A 
ATOM     12  C   UNL     1       0.390  -1.028   2.135  1.00  0.00     0.131 A 
ATOM     13  C   UNL     1      -0.422   1.119   3.698  1.00  0.00     0.042 A 
ATOM     14  C   UNL     1      -0.043  -1.250   3.447  1.00  0.00     0.019 A 
ATOM     15  O   UNL     1       0.844  -2.053   1.350  1.00  0.00    -0.475 OA
ATOM     16  Cl  UNL     1      -0.920   2.454   4.664  1.00  0.00    -0.084 Cl
ATOM     17  C   UNL     1      -0.452  -0.169   4.230  1.00  0.00     0.032 A 
ATOM     18  C   UNL     1      -0.030  -2.605   3.985  1.00  0.00     0.025 C 
ATOM     19  C   UNL     1       0.348  -3.382   1.676  1.00  0.00     0.314 C 
BRANCH  19  20
ATOM     20  C   UNL     1      -0.921  -3.666   0.851  1.00  0.00     0.429 C 
ATOM     21  F   UNL     1      -0.624  -3.713  -0.473  1.00  0.00    -0.167 F 
ATOM     22  F   UNL     1      -1.489  -4.855   1.159  1.00  0.00    -0.167 F 
ATOM     23  F   UNL     1      -1.873  -2.720   1.016  1.00  0.00    -0.167 F 
ENDBRANCH  19  20
ENDBRANCH   5   8
ENDBRANCH   3   4
ENDBRANCH   2   3
ENDBRANCH   1   2
BRANCH   1  24
ATOM     24  C   UNL     1       1.924  -9.427   1.377  1.00  0.00     0.116 C 
BRANCH  24  25
ATOM     25  N   UNL     1       2.013  -9.280  -0.070  1.00  0.00    -0.352 N 
ATOM     26  C   UNL     1       2.033 -10.277  -1.018  1.00  0.00     0.251 C 
ATOM     27  H   UNL     1       2.066  -8.358  -0.410  1.00  0.00     0.163 HD
ATOM     28  O   UNL     1       2.178 -10.011  -2.206  1.00  0.00    -0.269 OA
BRANCH  26  29
ATOM     29  C   UNL     1       1.923 -11.675  -0.564  1.00  0.00     0.039 A 
ATOM     30  C   UNL     1       2.966 -12.558  -0.851  1.00  0.00     0.014 A 
ATOM     31  C   UNL     1       0.844 -12.071   0.231  1.00  0.00     0.014 A 
ATOM     32  C   UNL     1       2.967 -13.824  -0.268  1.00  0.00     0.010 A 
ATOM     33  C   UNL     1       0.875 -13.314   0.854  1.00  0.00     0.010 A 
ATOM     34  C   UNL     1       1.944 -14.193   0.622  1.00  0.00    -0.014 A 
BRANCH  34  35
ATOM     35  C   UNL     1       1.988 -15.490   1.337  1.00  0.00     0.031 A 
ATOM     36  C   UNL     1       0.967 -16.547   1.036  1.00  0.00     0.074 A 
ATOM     37  C   UNL     1       2.913 -15.689   2.296  1.00  0.00     0.049 A 
ATOM     38  N   UNL     1       0.804 -17.718   1.594  1.00  0.00    -0.248 NA
ATOM     39  C   UNL     1      -0.015 -16.238  -0.016  1.00  0.00     0.031 C 
ATOM     40  C   UNL     1       3.931 -14.717   2.705  1.00  0.00     0.029 A 
ATOM     41  N   UNL     1       3.148 -16.773   3.102  1.00  0.00    -0.354 N 
ATOM     42  C   UNL     1      -0.299 -18.283   0.968  1.00  0.00     0.074 A 
ATOM     43  C   UNL     1      -0.797 -17.306   0.023  1.00  0.00     0.031 C 
ATOM     44  C   UNL     1       4.701 -15.263   3.661  1.00  0.00     0.029 A 
ATOM     45  C   UNL     1       4.215 -16.608   3.954  1.00  0.00     0.049 A 
ATOM     46  H   UNL     1       2.604 -17.593   3.074  1.00  0.00     0.167 HD
ATOM     47  C   UNL     1      -0.832 -19.515   1.145  1.00  0.00     0.037 A 
ATOM     48  C   UNL     1       4.743 -17.449   4.864  1.00  0.00     0.037 A 
ATOM     49  C   UNL     1      -0.319 -20.491   2.068  1.00  0.00     0.049 A 
ATOM     50  C   UNL     1       4.132 -18.810   5.045  1.00  0.00     0.074 A 
ATOM     51  C   UNL     1      -0.767 -21.780   2.296  1.00  0.00     0.029 A 
ATOM     52  N   UNL     1       0.763 -20.287   2.911  1.00  0.00    -0.354 N 
ATOM     53  N   UNL     1       3.107 -19.341   4.422  1.00  0.00    -0.248 NA
ATOM     54  C   UNL     1       4.747 -19.686   6.053  1.00  0.00     0.031 C 
ATOM     55  C   UNL     1       0.032 -22.348   3.295  1.00  0.00     0.029 A 
ATOM     56  C   UNL     1       0.994 -21.423   3.668  1.00  0.00     0.049 A 
ATOM     57  H   UNL     1       1.289 -19.456   2.964  1.00  0.00     0.167 HD
ATOM     58  C   UNL     1       2.962 -20.618   4.950  1.00  0.00     0.074 A 
ATOM     59  C   UNL     1       4.011 -20.784   5.937  1.00  0.00     0.031 C 
ATOM     60  C   UNL     1       2.044 -21.567   4.645  1.00  0.00     0.037 A 
BRANCH  47  61
ATOM     61  C   UNL     1      -2.023 -19.873   0.304  1.00  0.00     0.058 A 
ATOM     62  C   UNL     1      -1.889 -20.146  -1.067  1.00  0.00     0.135 A 
ATOM     63  C   UNL     1      -3.305 -19.948   0.868  1.00  0.00     0.135 A 
ATOM     64  F   UNL     1      -0.686 -20.068  -1.657  1.00  0.00    -0.206 F 
ATOM     65  C   UNL     1      -2.991 -20.451  -1.857  1.00  0.00     0.059 A 
ATOM     66  C   UNL     1      -4.420 -20.273   0.100  1.00  0.00     0.059 A 
ATOM     67  F   UNL     1      -3.487 -19.692   2.173  1.00  0.00    -0.206 F 
ATOM     68  C   UNL     1      -4.254 -20.506  -1.266  1.00  0.00     0.060 A 
BRANCH  68  69
ATOM     69  S   UNL     1      -5.678 -20.888  -2.307  1.00  0.00     0.124 S 
ATOM     70  O   UNL     1      -5.866 -19.625  -3.015  1.00  0.00    -0.237 OA
ATOM     71  O   UNL     1      -5.186 -21.999  -3.116  1.00  0.00    -0.237 OA
ATOM     72  O   UNL     1      -6.720 -21.231  -1.345  1.00  0.00    -0.744 OA
ENDBRANCH  68  69
ENDBRANCH  47  61
BRANCH  48  73
ATOM     73  C   UNL     1       5.942 -17.040   5.638  1.00  0.00     0.058 A 
ATOM     74  C   UNL     1       7.204 -17.566   5.326  1.00  0.00     0.135 A 
ATOM     75  C   UNL     1       5.862 -16.095   6.671  1.00  0.00     0.135 A 
ATOM     76  F   UNL     1       7.327 -18.477   4.349  1.00  0.00    -0.206 F 
ATOM     77  C   UNL     1       8.347 -17.172   6.013  1.00  0.00     0.059 A 
ATOM     78  C   UNL     1       6.993 -15.672   7.362  1.00  0.00     0.059 A 
ATOM     79  F   UNL     1       4.678 -15.552   6.995  1.00  0.00    -0.206 F 
ATOM     80  C   UNL     1       8.232 -16.219   7.027  1.00  0.00     0.060 A 
BRANCH  80  81
ATOM     81  S   UNL     1       9.732 -15.662   7.864  1.00  0.00     0.124 S 
ATOM     82  O   UNL     1      10.039 -16.808   8.713  1.00  0.00    -0.237 OA
ATOM     83  O   UNL     1      10.641 -15.434   6.745  1.00  0.00    -0.237 OA
ATOM     84  O   UNL     1       9.297 -14.456   8.562  1.00  0.00    -0.744 OA
ENDBRANCH  80  81
ENDBRANCH  48  73
BRANCH  60  85
ATOM     85  C   UNL     1       2.133 -22.874   5.376  1.00  0.00     0.058 A 
ATOM     86  C   UNL     1       1.667 -23.006   6.692  1.00  0.00     0.135 A 
ATOM     87  C   UNL     1       2.619 -24.021   4.728  1.00  0.00     0.135 A 
ATOM     88  F   UNL     1       1.200 -21.935   7.354  1.00  0.00    -0.206 F 
ATOM     89  C   UNL     1       1.683 -24.233   7.346  1.00  0.00     0.059 A 
ATOM     90  C   UNL     1       2.629 -25.262   5.357  1.00  0.00     0.059 A 
ATOM     91  F   UNL     1       3.071 -23.945   3.466  1.00  0.00    -0.206 F 
ATOM     92  C   UNL     1       2.163 -25.356   6.668  1.00  0.00     0.060 A 
BRANCH  92  93
ATOM     93  S   UNL     1       2.126 -26.954   7.508  1.00  0.00     0.124 S 
ATOM     94  O   UNL     1       3.251 -26.828   8.428  1.00  0.00    -0.237 OA
ATOM     95  O   UNL     1       0.802 -26.955   8.123  1.00  0.00    -0.237 OA
ATOM     96  O   UNL     1       2.305 -27.912   6.421  1.00  0.00    -0.744 OA
ENDBRANCH  92  93
ENDBRANCH  60  85
ENDBRANCH  34  35
ENDBRANCH  26  29
ENDBRANCH  24  25
ENDBRANCH   1  24
TORSDOF 15
