REMARK SMILES C[NH+]1CCN(C(=O)c2ccc3c(c2)N(CC(=O)NCCCCNC(=O)c2ccc(-c4c5nc(c(-c6c(F)cc(S(=O)(=O)[O-])cc6F)c6ccc([nH]6)c(-c6c(F)cc(S(=O)(=O)[O-])cc6F)c6nc(c(-c7c(F)cc(S(=O)(=O)[O-])cc7F)c7ccc4[nH]7)C=C6)C=C5)cc2)C(=O)CO3)CC1
REMARK SMILES IDX 21 1 20 2 19 3 18 4 16 5 17 6 15 8 14 9 8 10 9 11 13 12
REMARK SMILES IDX 10 13 12 14 11 15 95 16 92 17 94 18 93 19 6 20 1 21 2 22
REMARK SMILES IDX 3 23 97 24 4 26 96 27 5 28 7 29 22 30 23 31 24 32 25 34
REMARK SMILES IDX 26 35 27 36 91 37 28 38 90 39 29 40 30 41 31 42 84 43 32 44
REMARK SMILES IDX 89 45 83 46 85 47 33 48 88 49 82 50 81 51 34 53 68 54 47 55
REMARK SMILES IDX 67 56 48 57 51 58 66 59 86 60 49 61 50 62 65 64 87 65 52 66
REMARK SMILES IDX 35 67 36 68 45 69 37 70 38 71 44 72 46 73 39 74 40 75 41 76
REMARK SMILES IDX 42 77 43 78 69 79 70 80 79 81 71 82 72 83 78 84 80 85 73 86
REMARK SMILES IDX 74 87 75 88 76 89 77 90 53 91 54 92 63 93 55 94 56 95 62 96
REMARK SMILES IDX 64 97 57 98 58 99 59 100 60 101 61 102
REMARK H PARENT 18 7 2 25 23 33 85 52 51 63
REMARK Flexibility Score: inf
ROOT
ATOM      1  C   UNL     1      -2.050  -6.730  -0.924  1.00  0.00     0.023 C 
ENDROOT
BRANCH   1   2
ATOM      2  C   UNL     1      -2.613  -6.675   0.499  1.00  0.00     0.023 C 
BRANCH   2   3
ATOM      3  C   UNL     1      -1.561  -6.636   1.605  1.00  0.00     0.116 C 
BRANCH   3   4
ATOM      4  N   UNL     1      -0.818  -5.393   1.612  1.00  0.00    -0.355 N 
ATOM      5  C   UNL     1      -0.916  -4.338   2.469  1.00  0.00     0.240 C 
ATOM      6  O   UNL     1      -0.087  -3.430   2.359  1.00  0.00    -0.273 OA
ATOM      7  H   UNL     1      -0.148  -5.297   0.898  1.00  0.00     0.163 HD
BRANCH   5   8
ATOM      8  C   UNL     1      -1.965  -4.303   3.590  1.00  0.00     0.225 C 
BRANCH   8   9
ATOM      9  N   UNL     1      -3.355  -4.376   3.138  1.00  0.00    -0.296 N 
ATOM     10  C   UNL     1      -3.777  -1.287   1.055  1.00  0.00     0.042 A 
ATOM     11  C   UNL     1      -5.001  -1.546   0.438  1.00  0.00     0.018 A 
ATOM     12  C   UNL     1      -3.241  -2.185   1.988  1.00  0.00     0.044 A 
ATOM     13  C   UNL     1      -5.677  -2.727   0.730  1.00  0.00     0.049 A 
ATOM     14  C   UNL     1      -3.904  -3.387   2.273  1.00  0.00     0.087 A 
ATOM     15  C   UNL     1      -5.138  -3.632   1.648  1.00  0.00     0.143 A 
ATOM     16  O   UNL     1      -5.859  -4.781   1.823  1.00  0.00    -0.482 OA
ATOM     17  C   UNL     1      -4.138  -5.445   3.549  1.00  0.00     0.265 C 
ATOM     18  C   UNL     1      -5.574  -5.437   3.041  1.00  0.00     0.330 C 
ATOM     19  O   UNL     1      -3.747  -6.322   4.321  1.00  0.00    -0.270 OA
BRANCH  10  20
ATOM     20  C   UNL     1      -3.096  -0.009   0.756  1.00  0.00     0.254 C 
ATOM     21  C   UNL     1       2.449   0.095   0.053  1.00  0.00     0.332 C 
ATOM     22  N   UNL     1       1.042   0.085  -0.341  1.00  0.00    -0.334 N 
ATOM     23  C   UNL     1       0.329   1.246   0.232  1.00  0.00     0.283 C 
ATOM     24  C   UNL     1       0.391  -1.163   0.109  1.00  0.00     0.283 C 
ATOM     25  H   UNL     1       0.999   0.141  -1.358  1.00  0.00     0.347 HD
ATOM     26  C   UNL     1      -1.173   1.246  -0.116  1.00  0.00     0.181 C 
ATOM     27  C   UNL     1      -1.098  -1.205  -0.286  1.00  0.00     0.181 C 
ATOM     28  N   UNL     1      -1.817  -0.027   0.217  1.00  0.00    -0.327 N 
ATOM     29  O   UNL     1      -3.722   1.020   1.001  1.00  0.00    -0.269 OA
ENDBRANCH  10  20
ENDBRANCH   8   9
ENDBRANCH   5   8
ENDBRANCH   3   4
ENDBRANCH   2   3
ENDBRANCH   1   2
BRANCH   1  30
ATOM     30  C   UNL     1      -1.096  -7.886  -1.212  1.00  0.00     0.116 C 
BRANCH  30  31
ATOM     31  N   UNL     1      -1.684  -9.192  -0.960  1.00  0.00    -0.352 N 
ATOM     32  C   UNL     1      -1.539 -10.355  -1.680  1.00  0.00     0.251 C 
ATOM     33  H   UNL     1      -2.264  -9.252  -0.168  1.00  0.00     0.163 HD
ATOM     34  O   UNL     1      -2.202 -11.345  -1.384  1.00  0.00    -0.269 OA
BRANCH  32  35
ATOM     35  C   UNL     1      -0.612 -10.396  -2.832  1.00  0.00     0.039 A 
ATOM     36  C   UNL     1      -1.059 -10.944  -4.037  1.00  0.00     0.014 A 
ATOM     37  C   UNL     1       0.682  -9.878  -2.733  1.00  0.00     0.014 A 
ATOM     38  C   UNL     1      -0.233 -10.907  -5.163  1.00  0.00     0.010 A 
ATOM     39  C   UNL     1       1.478  -9.781  -3.872  1.00  0.00     0.010 A 
ATOM     40  C   UNL     1       1.027 -10.290  -5.099  1.00  0.00    -0.014 A 
BRANCH  40  41
ATOM     41  C   UNL     1       1.883 -10.155  -6.306  1.00  0.00     0.031 A 
ATOM     42  C   UNL     1       3.213 -10.853  -6.373  1.00  0.00     0.074 A 
ATOM     43  C   UNL     1       1.492  -9.350  -7.314  1.00  0.00     0.049 A 
ATOM     44  N   UNL     1       4.131 -10.796  -7.304  1.00  0.00    -0.248 NA
ATOM     45  C   UNL     1       3.571 -11.707  -5.229  1.00  0.00     0.031 C 
ATOM     46  C   UNL     1       0.242  -8.586  -7.351  1.00  0.00     0.029 A 
ATOM     47  N   UNL     1       2.108  -9.032  -8.498  1.00  0.00    -0.354 N 
ATOM     48  C   UNL     1       5.175 -11.596  -6.856  1.00  0.00     0.074 A 
ATOM     49  C   UNL     1       4.801 -12.081  -5.545  1.00  0.00     0.031 C 
ATOM     50  C   UNL     1       0.173  -7.911  -8.510  1.00  0.00     0.029 A 
ATOM     51  C   UNL     1       1.388  -8.160  -9.280  1.00  0.00     0.049 A 
ATOM     52  H   UNL     1       2.985  -9.393  -8.762  1.00  0.00     0.167 HD
ATOM     53  C   UNL     1       6.330 -11.916  -7.489  1.00  0.00     0.037 A 
ATOM     54  C   UNL     1       1.674  -7.620 -10.481  1.00  0.00     0.037 A 
ATOM     55  C   UNL     1       6.690 -11.445  -8.801  1.00  0.00     0.049 A 
ATOM     56  C   UNL     1       2.968  -7.979 -11.158  1.00  0.00     0.074 A 
ATOM     57  C   UNL     1       7.816 -11.747  -9.546  1.00  0.00     0.029 A 
ATOM     58  N   UNL     1       5.929 -10.571  -9.565  1.00  0.00    -0.354 N 
ATOM     59  N   UNL     1       3.923  -8.775 -10.742  1.00  0.00    -0.248 NA
ATOM     60  C   UNL     1       3.223  -7.367 -12.470  1.00  0.00     0.031 C 
ATOM     61  C   UNL     1       7.754 -11.027 -10.745  1.00  0.00     0.029 A 
ATOM     62  C   UNL     1       6.568 -10.310 -10.765  1.00  0.00     0.049 A 
ATOM     63  H   UNL     1       5.062 -10.192  -9.293  1.00  0.00     0.167 HD
ATOM     64  C   UNL     1       4.879  -8.784 -11.752  1.00  0.00     0.074 A 
ATOM     65  C   UNL     1       4.383  -7.918 -12.802  1.00  0.00     0.031 C 
ATOM     66  C   UNL     1       6.058  -9.451 -11.805  1.00  0.00     0.037 A 
BRANCH  53  67
ATOM     67  C   UNL     1       7.284 -12.825  -6.763  1.00  0.00     0.058 A 
ATOM     68  C   UNL     1       6.989 -14.182  -6.551  1.00  0.00     0.135 A 
ATOM     69  C   UNL     1       8.510 -12.339  -6.279  1.00  0.00     0.135 A 
ATOM     70  F   UNL     1       5.826 -14.696  -6.981  1.00  0.00    -0.206 F 
ATOM     71  C   UNL     1       7.854 -15.014  -5.849  1.00  0.00     0.059 A 
ATOM     72  C   UNL     1       9.404 -13.162  -5.599  1.00  0.00     0.059 A 
ATOM     73  F   UNL     1       8.844 -11.052  -6.455  1.00  0.00    -0.206 F 
ATOM     74  C   UNL     1       9.057 -14.493  -5.370  1.00  0.00     0.060 A 
BRANCH  74  75
ATOM     75  S   UNL     1      10.159 -15.579  -4.441  1.00  0.00     0.124 S 
ATOM     76  O   UNL     1       9.464 -15.668  -3.160  1.00  0.00    -0.237 OA
ATOM     77  O   UNL     1      10.157 -16.794  -5.248  1.00  0.00    -0.237 OA
ATOM     78  O   UNL     1      11.421 -14.845  -4.420  1.00  0.00    -0.744 OA
ENDBRANCH  74  75
ENDBRANCH  53  67
BRANCH  54  79
ATOM     79  C   UNL     1       0.697  -6.711 -11.136  1.00  0.00     0.058 A 
ATOM     80  C   UNL     1      -0.031  -7.131 -12.259  1.00  0.00     0.135 A 
ATOM     81  C   UNL     1       0.455  -5.419 -10.645  1.00  0.00     0.135 A 
ATOM     82  F   UNL     1       0.171  -8.356 -12.768  1.00  0.00    -0.206 F 
ATOM     83  C   UNL     1      -0.958  -6.301 -12.880  1.00  0.00     0.059 A 
ATOM     84  C   UNL     1      -0.483  -4.577 -11.235  1.00  0.00     0.059 A 
ATOM     85  F   UNL     1       1.115  -4.975  -9.564  1.00  0.00    -0.206 F 
ATOM     86  C   UNL     1      -1.179  -5.025 -12.358  1.00  0.00     0.060 A 
BRANCH  86  87
ATOM     87  S   UNL     1      -2.427  -3.977 -13.137  1.00  0.00     0.124 S 
ATOM     88  O   UNL     1      -1.749  -3.576 -14.364  1.00  0.00    -0.237 OA
ATOM     89  O   UNL     1      -3.546  -4.899 -13.296  1.00  0.00    -0.237 OA
ATOM     90  O   UNL     1      -2.634  -2.917 -12.154  1.00  0.00    -0.744 OA
ENDBRANCH  86  87
ENDBRANCH  54  79
BRANCH  66  91
ATOM     91  C   UNL     1       6.882  -9.300 -13.054  1.00  0.00     0.058 A 
ATOM     92  C   UNL     1       7.590  -8.121 -13.333  1.00  0.00     0.135 A 
ATOM     93  C   UNL     1       7.003 -10.369 -13.957  1.00  0.00     0.135 A 
ATOM     94  F   UNL     1       7.501  -7.068 -12.506  1.00  0.00    -0.206 F 
ATOM     95  C   UNL     1       8.375  -8.000 -14.475  1.00  0.00     0.059 A 
ATOM     96  C   UNL     1       7.803 -10.278 -15.092  1.00  0.00     0.059 A 
ATOM     97  F   UNL     1       6.353 -11.522 -13.732  1.00  0.00    -0.206 F 
ATOM     98  C   UNL     1       8.477  -9.085 -15.348  1.00  0.00     0.060 A 
BRANCH  98  99
ATOM     99  S   UNL     1       9.530  -8.929 -16.806  1.00  0.00     0.124 S 
ATOM    100  O   UNL     1       8.712  -8.083 -17.670  1.00  0.00    -0.237 OA
ATOM    101  O   UNL     1      10.731  -8.304 -16.261  1.00  0.00    -0.237 OA
ATOM    102  O   UNL     1       9.697 -10.308 -17.254  1.00  0.00    -0.744 OA
ENDBRANCH  98  99
ENDBRANCH  66  91
ENDBRANCH  40  41
ENDBRANCH  32  35
ENDBRANCH  30  31
ENDBRANCH   1  30
TORSDOF 16
