REMARK SMILES CCC(CC)Oc1cc(C(=O)NCCCCNC(=O)c2ccc(-c3c4nc(c(-c5c(F)cc(S(=O)(=O)[O-])cc5F)c5ccc([nH]5)c(-c5c(F)cc(S(=O)(=O)[O-])cc5F)c5nc(c(-c6c(F)cc(S(=O)(=O)[O-])cc6F)c6ccc3[nH]6)C=C5)C=C4)cc2)c(N)cc1OC
REMARK SMILES IDX 14 1 13 2 12 3 10 4 11 5 9 7 7 8 8 9 89 10 88 11 86 12 6 13
REMARK SMILES IDX 3 14 2 15 1 16 4 17 5 18 90 19 91 20 87 21 15 24 16 25 17 26
REMARK SMILES IDX 18 27 19 29 20 30 21 31 85 32 22 33 84 34 23 35 24 36 25 37
REMARK SMILES IDX 78 38 26 39 83 40 77 41 79 42 27 43 82 44 76 45 75 46 28 48
REMARK SMILES IDX 62 49 41 50 61 51 42 52 45 53 60 54 80 55 43 56 44 57 59 59
REMARK SMILES IDX 81 60 46 61 29 62 30 63 39 64 31 65 32 66 38 67 40 68 33 69
REMARK SMILES IDX 34 70 35 71 36 72 37 73 63 74 64 75 73 76 65 77 66 78 72 79
REMARK SMILES IDX 74 80 67 81 68 82 69 83 70 84 71 85 47 86 48 87 57 88 49 89
REMARK SMILES IDX 50 90 56 91 58 92 51 93 52 94 53 95 54 96 55 97
REMARK H PARENT 12 6 87 22 87 23 17 28 79 47 45 58
REMARK Flexibility Score: inf
ROOT
ATOM      1  C   UNL     1      -7.095   0.870   2.764  1.00  0.00     0.023 C 
ENDROOT
BRANCH   1   2
ATOM      2  C   UNL     1      -5.982   0.133   3.503  1.00  0.00     0.116 C 
BRANCH   2   3
ATOM      3  N   UNL     1      -5.307  -0.896   2.731  1.00  0.00    -0.352 N 
ATOM      4  C   UNL     1      -4.037  -1.409   2.872  1.00  0.00     0.253 C 
ATOM      5  O   UNL     1      -3.689  -2.329   2.132  1.00  0.00    -0.269 OA
ATOM      6  H   UNL     1      -5.837  -1.283   1.997  1.00  0.00     0.163 HD
BRANCH   4   7
ATOM      7  C   UNL     1      -3.042  -0.826   3.814  1.00  0.00     0.066 A 
ATOM      8  C   UNL     1      -0.741   0.012   4.000  1.00  0.00     0.162 A 
ATOM      9  C   UNL     1      -1.752  -0.628   3.278  1.00  0.00     0.066 A 
ATOM     10  C   UNL     1      -1.028   0.452   5.298  1.00  0.00     0.162 A 
ATOM     11  C   UNL     1      -2.294   0.189   5.849  1.00  0.00     0.076 A 
ATOM     12  C   UNL     1      -3.277  -0.532   5.162  1.00  0.00     0.048 A 
BRANCH   8  13
ATOM     13  O   UNL     1       0.531   0.098   3.521  1.00  0.00    -0.487 OA
BRANCH  13  14
ATOM     14  C   UNL     1       0.838   0.685   2.243  1.00  0.00     0.173 C 
BRANCH  14  15
ATOM     15  C   UNL     1       0.577  -0.240   1.042  1.00  0.00     0.042 C 
ATOM     16  C   UNL     1       1.365   0.148  -0.202  1.00  0.00     0.008 C 
ENDBRANCH  14  15
BRANCH  14  17
ATOM     17  C   UNL     1       0.400   2.154   2.087  1.00  0.00     0.042 C 
ATOM     18  C   UNL     1      -1.076   2.403   1.820  1.00  0.00     0.008 C 
ENDBRANCH  14  17
ENDBRANCH  13  14
ENDBRANCH   8  13
BRANCH  10  19
ATOM     19  O   UNL     1      -0.225   1.141   6.169  1.00  0.00    -0.493 OA
ATOM     20  C   UNL     1       1.168   1.199   5.913  1.00  0.00     0.278 C 
ENDBRANCH  10  19
BRANCH  12  21
ATOM     21  N   UNL     1      -4.450  -0.855   5.837  1.00  0.00    -0.398 N 
ATOM     22  H   UNL     1      -5.159  -1.362   5.378  1.00  0.00     0.156 HD
ATOM     23  H   UNL     1      -4.572  -0.577   6.773  1.00  0.00     0.156 HD
ENDBRANCH  12  21
ENDBRANCH   4   7
ENDBRANCH   2   3
ENDBRANCH   1   2
BRANCH   1  24
ATOM     24  C   UNL     1      -8.188   0.008   2.130  1.00  0.00     0.023 C 
BRANCH  24  25
ATOM     25  C   UNL     1      -8.724  -1.149   2.968  1.00  0.00     0.116 C 
BRANCH  25  26
ATOM     26  N   UNL     1      -9.379  -0.733   4.200  1.00  0.00    -0.352 N 
ATOM     27  C   UNL     1     -10.688  -0.874   4.601  1.00  0.00     0.251 C 
ATOM     28  H   UNL     1      -8.793  -0.279   4.848  1.00  0.00     0.163 HD
ATOM     29  O   UNL     1     -11.057  -0.377   5.662  1.00  0.00    -0.269 OA
BRANCH  27  30
ATOM     30  C   UNL     1     -11.663  -1.578   3.739  1.00  0.00     0.039 A 
ATOM     31  C   UNL     1     -12.894  -0.969   3.474  1.00  0.00     0.014 A 
ATOM     32  C   UNL     1     -11.361  -2.816   3.168  1.00  0.00     0.014 A 
ATOM     33  C   UNL     1     -13.773  -1.548   2.554  1.00  0.00     0.010 A 
ATOM     34  C   UNL     1     -12.198  -3.347   2.191  1.00  0.00     0.010 A 
ATOM     35  C   UNL     1     -13.406  -2.712   1.861  1.00  0.00    -0.014 A 
BRANCH  35  36
ATOM     36  C   UNL     1     -14.248  -3.279   0.773  1.00  0.00     0.031 A 
ATOM     37  C   UNL     1     -14.796  -4.674   0.896  1.00  0.00     0.074 A 
ATOM     38  C   UNL     1     -14.421  -2.588  -0.372  1.00  0.00     0.049 A 
ATOM     39  N   UNL     1     -15.400  -5.409  -0.002  1.00  0.00    -0.248 NA
ATOM     40  C   UNL     1     -14.607  -5.342   2.193  1.00  0.00     0.031 C 
ATOM     41  C   UNL     1     -13.898  -1.246  -0.639  1.00  0.00     0.029 A 
ATOM     42  N   UNL     1     -15.062  -2.931  -1.538  1.00  0.00    -0.354 N 
ATOM     43  C   UNL     1     -15.636  -6.634   0.610  1.00  0.00     0.074 A 
ATOM     44  C   UNL     1     -15.069  -6.557   1.940  1.00  0.00     0.031 C 
ATOM     45  C   UNL     1     -14.238  -0.881  -1.886  1.00  0.00     0.029 A 
ATOM     46  C   UNL     1     -14.966  -1.975  -2.522  1.00  0.00     0.049 A 
ATOM     47  H   UNL     1     -15.544  -3.780  -1.657  1.00  0.00     0.167 HD
ATOM     48  C   UNL     1     -16.283  -7.718   0.118  1.00  0.00     0.037 A 
ATOM     49  C   UNL     1     -15.393  -1.984  -3.800  1.00  0.00     0.037 A 
ATOM     50  C   UNL     1     -16.870  -7.779  -1.195  1.00  0.00     0.049 A 
ATOM     51  C   UNL     1     -16.128  -3.186  -4.324  1.00  0.00     0.074 A 
ATOM     52  C   UNL     1     -17.591  -8.812  -1.768  1.00  0.00     0.029 A 
ATOM     53  N   UNL     1     -16.805  -6.764  -2.139  1.00  0.00    -0.354 N 
ATOM     54  N   UNL     1     -16.388  -4.319  -3.715  1.00  0.00    -0.248 NA
ATOM     55  C   UNL     1     -16.634  -3.115  -5.702  1.00  0.00     0.031 C 
ATOM     56  C   UNL     1     -17.937  -8.433  -3.070  1.00  0.00     0.029 A 
ATOM     57  C   UNL     1     -17.465  -7.148  -3.294  1.00  0.00     0.049 A 
ATOM     58  H   UNL     1     -16.355  -5.899  -2.007  1.00  0.00     0.167 HD
ATOM     59  C   UNL     1     -17.107  -5.085  -4.625  1.00  0.00     0.074 A 
ATOM     60  C   UNL     1     -17.245  -4.286  -5.826  1.00  0.00     0.031 C 
ATOM     61  C   UNL     1     -17.608  -6.335  -4.477  1.00  0.00     0.037 A 
BRANCH  48  62
ATOM     62  C   UNL     1     -16.383  -8.922   1.013  1.00  0.00     0.058 A 
ATOM     63  C   UNL     1     -17.192  -8.919   2.161  1.00  0.00     0.135 A 
ATOM     64  C   UNL     1     -15.654 -10.088   0.729  1.00  0.00     0.135 A 
ATOM     65  F   UNL     1     -17.900  -7.825   2.486  1.00  0.00    -0.206 F 
ATOM     66  C   UNL     1     -17.233 -10.008   3.025  1.00  0.00     0.059 A 
ATOM     67  C   UNL     1     -15.704 -11.201   1.564  1.00  0.00     0.059 A 
ATOM     68  F   UNL     1     -14.870 -10.149  -0.359  1.00  0.00    -0.206 F 
ATOM     69  C   UNL     1     -16.476 -11.141   2.724  1.00  0.00     0.060 A 
BRANCH  69  70
ATOM     70  S   UNL     1     -16.504 -12.531   3.874  1.00  0.00     0.124 S 
ATOM     71  O   UNL     1     -15.632 -12.042   4.938  1.00  0.00    -0.237 OA
ATOM     72  O   UNL     1     -17.920 -12.631   4.213  1.00  0.00    -0.237 OA
ATOM     73  O   UNL     1     -15.973 -13.636   3.084  1.00  0.00    -0.744 OA
ENDBRANCH  69  70
ENDBRANCH  48  62
BRANCH  49  74
ATOM     74  C   UNL     1     -15.143  -0.799  -4.663  1.00  0.00     0.058 A 
ATOM     75  C   UNL     1     -16.181   0.085  -4.992  1.00  0.00     0.135 A 
ATOM     76  C   UNL     1     -13.854  -0.498  -5.130  1.00  0.00     0.135 A 
ATOM     77  F   UNL     1     -17.431  -0.165  -4.575  1.00  0.00    -0.206 F 
ATOM     78  C   UNL     1     -15.951   1.227  -5.753  1.00  0.00     0.059 A 
ATOM     79  C   UNL     1     -13.596   0.649  -5.875  1.00  0.00     0.059 A 
ATOM     80  F   UNL     1     -12.825  -1.304  -4.828  1.00  0.00    -0.206 F 
ATOM     81  C   UNL     1     -14.653   1.505  -6.183  1.00  0.00     0.060 A 
BRANCH  81  82
ATOM     82  S   UNL     1     -14.351   3.033  -7.098  1.00  0.00     0.124 S 
ATOM     83  O   UNL     1     -14.906   2.708  -8.406  1.00  0.00    -0.237 OA
ATOM     84  O   UNL     1     -15.096   4.013  -6.313  1.00  0.00    -0.237 OA
ATOM     85  O   UNL     1     -12.898   3.174  -7.044  1.00  0.00    -0.744 OA
ENDBRANCH  81  82
ENDBRANCH  49  74
BRANCH  61  86
ATOM     86  C   UNL     1     -18.388  -6.917  -5.621  1.00  0.00     0.058 A 
ATOM     87  C   UNL     1     -17.752  -7.420  -6.766  1.00  0.00     0.135 A 
ATOM     88  C   UNL     1     -19.782  -7.058  -5.527  1.00  0.00     0.135 A 
ATOM     89  F   UNL     1     -16.422  -7.301  -6.907  1.00  0.00    -0.206 F 
ATOM     90  C   UNL     1     -18.472  -8.044  -7.780  1.00  0.00     0.059 A 
ATOM     91  C   UNL     1     -20.519  -7.697  -6.519  1.00  0.00     0.059 A 
ATOM     92  F   UNL     1     -20.437  -6.598  -4.449  1.00  0.00    -0.206 F 
ATOM     93  C   UNL     1     -19.855  -8.185  -7.644  1.00  0.00     0.060 A 
BRANCH  93  94
ATOM     94  S   UNL     1     -20.768  -9.063  -8.931  1.00  0.00     0.124 S 
ATOM     95  O   UNL     1     -20.800  -8.070  -9.999  1.00  0.00    -0.237 OA
ATOM     96  O   UNL     1     -19.924 -10.229  -9.174  1.00  0.00    -0.237 OA
ATOM     97  O   UNL     1     -22.053  -9.349  -8.300  1.00  0.00    -0.744 OA
ENDBRANCH  93  94
ENDBRANCH  61  86
ENDBRANCH  35  36
ENDBRANCH  27  30
ENDBRANCH  25  26
ENDBRANCH  24  25
ENDBRANCH   1  24
TORSDOF 20
