REMARK SMILES CC(=O)c1nnn(-c2ccc(C(=O)NCCCCNC(=O)c3ccc(-c4c5nc(c(-c6c(F)cc(S(=O)(=O)[O-])cc6F)c6ccc([nH]6)c(-c6c(F)cc(S(=O)(=O)[O-])cc6F)c6nc(c(-c7c(F)cc(S(=O)(=O)[O-])cc7F)c7ccc4[nH]7)C=C6)C=C5)cc3)cc2)c1C
REMARK SMILES IDX 17 1 16 2 15 3 14 4 12 5 13 6 11 8 8 9 9 10 89 11 10 12
REMARK SMILES IDX 88 13 7 14 4 15 5 16 90 17 6 18 91 19 2 20 1 21 3 22 18 23
REMARK SMILES IDX 19 24 20 25 21 27 22 28 23 29 87 30 24 31 86 32 25 33 26 34
REMARK SMILES IDX 27 35 80 36 28 37 85 38 79 39 81 40 29 41 84 42 78 43 77 44
REMARK SMILES IDX 30 46 64 47 43 48 63 49 44 50 47 51 62 52 82 53 45 54 46 55
REMARK SMILES IDX 61 57 83 58 48 59 31 60 32 61 41 62 33 63 34 64 40 65 42 66
REMARK SMILES IDX 35 67 36 68 37 69 38 70 39 71 65 72 66 73 75 74 67 75 68 76
REMARK SMILES IDX 74 77 76 78 69 79 70 80 71 81 72 82 73 83 49 84 50 85 59 86
REMARK SMILES IDX 51 87 52 88 58 89 60 90 53 91 54 92 55 93 56 94 57 95
REMARK H PARENT 14 7 19 26 81 45 47 56
REMARK Flexibility Score: inf
ROOT
ATOM      1  C   UNL     1       9.905   1.123  -7.770  1.00  0.00     0.023 C 
ENDROOT
BRANCH   1   2
ATOM      2  C   UNL     1       8.654   0.950  -6.895  1.00  0.00     0.023 C 
BRANCH   2   3
ATOM      3  C   UNL     1       8.514   1.969  -5.756  1.00  0.00     0.116 C 
BRANCH   3   4
ATOM      4  N   UNL     1       8.091   3.264  -6.261  1.00  0.00    -0.352 N 
ATOM      5  C   UNL     1       6.869   3.882  -6.370  1.00  0.00     0.251 C 
ATOM      6  O   UNL     1       6.844   5.008  -6.867  1.00  0.00    -0.269 OA
ATOM      7  H   UNL     1       8.837   3.814  -6.595  1.00  0.00     0.163 HD
BRANCH   5   8
ATOM      8  C   UNL     1       5.592   3.293  -5.872  1.00  0.00     0.039 A 
ATOM      9  C   UNL     1       3.240   2.367  -4.675  1.00  0.00     0.067 A 
ATOM     10  C   UNL     1       3.357   3.724  -4.965  1.00  0.00     0.029 A 
ATOM     11  C   UNL     1       4.223   1.460  -5.079  1.00  0.00     0.029 A 
ATOM     12  C   UNL     1       4.551   4.183  -5.535  1.00  0.00     0.016 A 
ATOM     13  C   UNL     1       5.370   1.924  -5.719  1.00  0.00     0.016 A 
BRANCH   9  14
ATOM     14  N   UNL     1       2.165   1.895  -3.904  1.00  0.00    -0.217 N 
ATOM     15  C   UNL     1       0.955   0.676  -2.567  1.00  0.00     0.151 A 
ATOM     16  N   UNL     1       0.164   1.167  -3.582  1.00  0.00    -0.126 NA
ATOM     17  C   UNL     1       2.236   1.182  -2.718  1.00  0.00     0.073 A 
ATOM     18  N   UNL     1       0.893   1.985  -4.329  1.00  0.00    -0.061 NA
ATOM     19  C   UNL     1       3.486   1.109  -1.921  1.00  0.00     0.069 C 
BRANCH  15  20
ATOM     20  C   UNL     1       0.407  -0.219  -1.553  1.00  0.00     0.181 C 
ATOM     21  C   UNL     1       0.861  -0.068  -0.124  1.00  0.00     0.095 C 
ATOM     22  O   UNL     1      -0.417  -1.088  -1.841  1.00  0.00    -0.293 OA
ENDBRANCH  15  20
ENDBRANCH   9  14
ENDBRANCH   5   8
ENDBRANCH   3   4
ENDBRANCH   2   3
ENDBRANCH   1   2
BRANCH   1  23
ATOM     23  C   UNL     1      11.223   0.820  -7.065  1.00  0.00     0.116 C 
BRANCH  23  24
ATOM     24  N   UNL     1      11.325  -0.572  -6.626  1.00  0.00    -0.352 N 
ATOM     25  C   UNL     1      12.276  -1.124  -5.793  1.00  0.00     0.251 C 
ATOM     26  H   UNL     1      10.634  -1.187  -6.965  1.00  0.00     0.163 HD
ATOM     27  O   UNL     1      12.515  -2.333  -5.825  1.00  0.00    -0.269 OA
BRANCH  25  28
ATOM     28  C   UNL     1      12.987  -0.249  -4.849  1.00  0.00     0.039 A 
ATOM     29  C   UNL     1      14.367  -0.347  -4.650  1.00  0.00     0.014 A 
ATOM     30  C   UNL     1      12.235   0.717  -4.184  1.00  0.00     0.014 A 
ATOM     31  C   UNL     1      14.997   0.594  -3.838  1.00  0.00     0.010 A 
ATOM     32  C   UNL     1      12.872   1.719  -3.496  1.00  0.00     0.010 A 
ATOM     33  C   UNL     1      14.246   1.641  -3.280  1.00  0.00    -0.014 A 
BRANCH  33  34
ATOM     34  C   UNL     1      14.901   2.768  -2.614  1.00  0.00     0.031 A 
ATOM     35  C   UNL     1      15.909   3.464  -3.470  1.00  0.00     0.074 A 
ATOM     36  C   UNL     1      14.438   3.291  -1.454  1.00  0.00     0.049 A 
ATOM     37  N   UNL     1      17.184   3.558  -3.284  1.00  0.00    -0.248 NA
ATOM     38  C   UNL     1      15.471   3.974  -4.785  1.00  0.00     0.031 C 
ATOM     39  C   UNL     1      13.250   2.873  -0.697  1.00  0.00     0.029 A 
ATOM     40  N   UNL     1      14.845   4.391  -0.761  1.00  0.00    -0.354 N 
ATOM     41  C   UNL     1      17.657   4.372  -4.313  1.00  0.00     0.074 A 
ATOM     42  C   UNL     1      16.623   4.394  -5.311  1.00  0.00     0.031 C 
ATOM     43  C   UNL     1      12.895   3.846   0.171  1.00  0.00     0.029 A 
ATOM     44  C   UNL     1      13.913   4.878   0.159  1.00  0.00     0.049 A 
ATOM     45  H   UNL     1      15.725   4.810  -0.898  1.00  0.00     0.167 HD
ATOM     46  C   UNL     1      18.728   5.194  -4.123  1.00  0.00     0.037 A 
ATOM     47  C   UNL     1      13.959   6.058   0.835  1.00  0.00     0.037 A 
ATOM     48  C   UNL     1      19.476   4.797  -2.954  1.00  0.00     0.049 A 
ATOM     49  C   UNL     1      15.365   6.533   0.779  1.00  0.00     0.074 A 
ATOM     50  C   UNL     1      20.108   3.638  -2.549  1.00  0.00     0.029 A 
ATOM     51  N   UNL     1      19.314   5.551  -1.818  1.00  0.00    -0.354 N 
ATOM     52  N   UNL     1      16.359   5.924   1.363  1.00  0.00    -0.248 NA
ATOM     53  C   UNL     1      15.731   7.412  -0.320  1.00  0.00     0.031 C 
ATOM     54  C   UNL     1      19.845   3.545  -1.149  1.00  0.00     0.029 A 
ATOM     55  C   UNL     1      19.149   4.691  -0.763  1.00  0.00     0.049 A 
ATOM     56  H   UNL     1      19.315   6.534  -1.769  1.00  0.00     0.167 HD
ATOM     57  C   UNL     1      17.394   5.977   0.441  1.00  0.00     0.074 A 
ATOM     58  C   UNL     1      16.975   6.979  -0.538  1.00  0.00     0.031 C 
ATOM     59  C   UNL     1      18.348   4.998   0.401  1.00  0.00     0.037 A 
BRANCH  46  60
ATOM     60  C   UNL     1      18.859   6.582  -4.723  1.00  0.00     0.058 A 
ATOM     61  C   UNL     1      20.058   7.302  -4.528  1.00  0.00     0.135 A 
ATOM     62  C   UNL     1      17.775   7.343  -5.217  1.00  0.00     0.135 A 
ATOM     63  F   UNL     1      21.155   6.688  -4.058  1.00  0.00    -0.206 F 
ATOM     64  C   UNL     1      20.147   8.681  -4.727  1.00  0.00     0.059 A 
ATOM     65  C   UNL     1      17.858   8.707  -5.474  1.00  0.00     0.059 A 
ATOM     66  F   UNL     1      16.551   6.832  -5.387  1.00  0.00    -0.206 F 
ATOM     67  C   UNL     1      19.034   9.377  -5.187  1.00  0.00     0.060 A 
BRANCH  67  68
ATOM     68  S   UNL     1      19.116  11.167  -5.362  1.00  0.00     0.124 S 
ATOM     69  O   UNL     1      19.204  11.591  -3.970  1.00  0.00    -0.237 OA
ATOM     70  O   UNL     1      20.325  11.335  -6.162  1.00  0.00    -0.237 OA
ATOM     71  O   UNL     1      17.868  11.493  -6.046  1.00  0.00    -0.744 OA
ENDBRANCH  67  68
ENDBRANCH  46  60
BRANCH  47  72
ATOM     72  C   UNL     1      12.838   6.960   1.227  1.00  0.00     0.058 A 
ATOM     73  C   UNL     1      13.042   8.035   2.115  1.00  0.00     0.135 A 
ATOM     74  C   UNL     1      11.623   6.974   0.514  1.00  0.00     0.135 A 
ATOM     75  F   UNL     1      14.177   8.116   2.827  1.00  0.00    -0.206 F 
ATOM     76  C   UNL     1      12.127   9.088   2.243  1.00  0.00     0.059 A 
ATOM     77  C   UNL     1      10.693   8.008   0.631  1.00  0.00     0.059 A 
ATOM     78  F   UNL     1      11.344   6.027  -0.394  1.00  0.00    -0.206 F 
ATOM     79  C   UNL     1      10.963   9.078   1.476  1.00  0.00     0.060 A 
BRANCH  79  80
ATOM     80  S   UNL     1       9.866  10.518   1.492  1.00  0.00     0.124 S 
ATOM     81  O   UNL     1       9.296  10.449   2.833  1.00  0.00    -0.237 OA
ATOM     82  O   UNL     1      10.794  11.617   1.249  1.00  0.00    -0.237 OA
ATOM     83  O   UNL     1       8.932  10.243   0.403  1.00  0.00    -0.744 OA
ENDBRANCH  79  80
ENDBRANCH  47  72
BRANCH  59  84
ATOM     84  C   UNL     1      18.451   4.057   1.576  1.00  0.00     0.058 A 
ATOM     85  C   UNL     1      17.433   3.195   2.023  1.00  0.00     0.135 A 
ATOM     86  C   UNL     1      19.695   3.958   2.219  1.00  0.00     0.135 A 
ATOM     87  F   UNL     1      16.250   3.137   1.395  1.00  0.00    -0.206 F 
ATOM     88  C   UNL     1      17.622   2.330   3.104  1.00  0.00     0.059 A 
ATOM     89  C   UNL     1      19.918   3.077   3.272  1.00  0.00     0.059 A 
ATOM     90  F   UNL     1      20.731   4.703   1.799  1.00  0.00    -0.206 F 
ATOM     91  C   UNL     1      18.868   2.284   3.728  1.00  0.00     0.060 A 
BRANCH  91  92
ATOM     92  S   UNL     1      19.122   1.163   5.119  1.00  0.00     0.124 S 
ATOM     93  O   UNL     1      18.303   1.775   6.160  1.00  0.00    -0.237 OA
ATOM     94  O   UNL     1      18.635  -0.110   4.595  1.00  0.00    -0.237 OA
ATOM     95  O   UNL     1      20.565   1.221   5.346  1.00  0.00    -0.744 OA
ENDBRANCH  91  92
ENDBRANCH  59  84
ENDBRANCH  33  34
ENDBRANCH  25  28
ENDBRANCH  23  24
ENDBRANCH   1  23
TORSDOF 16
