REMARK SMILES Cc1ccnc(C(=O)c2[nH]c3ccc(F)cc3c2CC(=O)NCCCCNC(=O)c2ccc(-c3c4nc(c(-c5c(F)cc(S(=O)(=O)[O-])cc5F)c5ccc([nH]5)c(-c5c(F)cc(S(=O)(=O)[O-])cc5F)c5nc(c(-c6c(F)cc(S(=O)(=O)[O-])cc6F)c6ccc3[nH]6)C=C5)C=C4)cc2)c1
REMARK SMILES IDX 24 1 23 2 22 3 20 4 21 5 19 7 18 8 9 9 10 10 11 11 17 13
REMARK SMILES IDX 12 14 16 15 13 16 14 17 15 18 7 19 8 20 6 21 1 22 2 23 3 24
REMARK SMILES IDX 96 25 4 26 5 27 25 28 26 29 27 30 28 31 29 33 30 34 31 35
REMARK SMILES IDX 95 36 32 37 94 38 33 39 34 40 35 41 88 42 36 43 93 44 87 45
REMARK SMILES IDX 89 46 37 47 92 48 86 49 85 50 38 52 72 53 51 54 71 55 52 56
REMARK SMILES IDX 55 57 70 58 90 59 53 60 54 61 69 63 91 64 56 65 39 66 40 67
REMARK SMILES IDX 49 68 41 69 42 70 48 71 50 72 43 73 44 74 45 75 46 76 47 77
REMARK SMILES IDX 73 78 74 79 83 80 75 81 76 82 82 83 84 84 77 85 78 86 79 87
REMARK SMILES IDX 80 88 81 89 57 90 58 91 67 92 59 93 60 94 66 95 68 96 61 97
REMARK SMILES IDX 62 98 63 99 64 100 65 101
REMARK H PARENT 22 6 10 12 27 32 89 51 55 62
REMARK Flexibility Score: inf
ROOT
ATOM      1  C   UNL     1      -2.842  -3.876   0.695  1.00  0.00     0.023 C 
ENDROOT
BRANCH   1   2
ATOM      2  C   UNL     1      -3.078  -3.724  -0.810  1.00  0.00     0.116 C 
BRANCH   2   3
ATOM      3  N   UNL     1      -2.466  -2.553  -1.405  1.00  0.00    -0.356 N 
ATOM      4  C   UNL     1      -1.293  -2.409  -2.085  1.00  0.00     0.224 C 
ATOM      5  O   UNL     1      -1.117  -1.336  -2.671  1.00  0.00    -0.275 OA
ATOM      6  H   UNL     1      -2.984  -1.722  -1.301  1.00  0.00     0.163 HD
BRANCH   4   7
ATOM      7  C   UNL     1      -0.259  -3.515  -2.199  1.00  0.00     0.138 C 
BRANCH   7   8
ATOM      8  C   UNL     1       0.220  -4.132  -0.915  1.00  0.00    -0.002 A 
ATOM      9  C   UNL     1       1.085  -3.615   0.055  1.00  0.00     0.093 A 
ATOM     10  N   UNL     1       1.281  -4.618   0.986  1.00  0.00    -0.352 N 
ATOM     11  C   UNL     1       0.540  -5.732   0.698  1.00  0.00     0.046 A 
ATOM     12  H   UNL     1       1.881  -4.540   1.762  1.00  0.00     0.167 HD
ATOM     13  C   UNL     1      -0.078  -5.494  -0.525  1.00  0.00     0.007 A 
ATOM     14  C   UNL     1       0.393  -6.927   1.415  1.00  0.00     0.030 A 
ATOM     15  C   UNL     1      -0.843  -6.537  -1.094  1.00  0.00     0.049 A 
ATOM     16  C   UNL     1      -0.414  -7.920   0.855  1.00  0.00     0.041 A 
ATOM     17  C   UNL     1      -1.008  -7.725  -0.383  1.00  0.00     0.123 A 
ATOM     18  F   UNL     1      -1.772  -8.695  -0.905  1.00  0.00    -0.207 F 
BRANCH   9  19
ATOM     19  C   UNL     1       1.847  -2.379   0.208  1.00  0.00     0.227 C 
ATOM     20  O   UNL     1       3.023  -2.445   0.571  1.00  0.00    -0.285 OA
BRANCH  19  21
ATOM     21  C   UNL     1       1.220  -1.020   0.076  1.00  0.00     0.113 A 
ATOM     22  C   UNL     1      -2.119   0.769   0.350  1.00  0.00     0.044 C 
ATOM     23  C   UNL     1      -0.655   0.486   0.191  1.00  0.00    -0.047 A 
ATOM     24  C   UNL     1       0.225   1.533  -0.074  1.00  0.00     0.023 A 
ATOM     25  C   UNL     1      -0.133  -0.807   0.322  1.00  0.00     0.036 A 
ATOM     26  C   UNL     1       1.567   1.243  -0.247  1.00  0.00     0.112 A 
ATOM     27  N   UNL     1       2.081  -0.004  -0.192  1.00  0.00    -0.253 NA
ENDBRANCH  19  21
ENDBRANCH   9  19
ENDBRANCH   7   8
ENDBRANCH   4   7
ENDBRANCH   2   3
ENDBRANCH   1   2
BRANCH   1  28
ATOM     28  C   UNL     1      -3.415  -2.793   1.611  1.00  0.00     0.023 C 
BRANCH  28  29
ATOM     29  C   UNL     1      -4.874  -2.431   1.392  1.00  0.00     0.116 C 
BRANCH  29  30
ATOM     30  N   UNL     1      -5.758  -3.564   1.585  1.00  0.00    -0.352 N 
ATOM     31  C   UNL     1      -6.983  -3.609   2.204  1.00  0.00     0.251 C 
ATOM     32  H   UNL     1      -5.435  -4.420   1.222  1.00  0.00     0.163 HD
ATOM     33  O   UNL     1      -7.515  -4.696   2.408  1.00  0.00    -0.269 OA
BRANCH  31  34
ATOM     34  C   UNL     1      -7.645  -2.361   2.651  1.00  0.00     0.039 A 
ATOM     35  C   UNL     1      -8.253  -2.346   3.909  1.00  0.00     0.014 A 
ATOM     36  C   UNL     1      -7.693  -1.224   1.838  1.00  0.00     0.014 A 
ATOM     37  C   UNL     1      -8.866  -1.179   4.372  1.00  0.00     0.010 A 
ATOM     38  C   UNL     1      -8.257  -0.043   2.324  1.00  0.00     0.010 A 
ATOM     39  C   UNL     1      -8.851  -0.010   3.594  1.00  0.00    -0.014 A 
BRANCH  39  40
ATOM     40  C   UNL     1      -9.440   1.252   4.111  1.00  0.00     0.031 A 
ATOM     41  C   UNL     1     -10.668   1.842   3.473  1.00  0.00     0.074 A 
ATOM     42  C   UNL     1      -8.840   1.889   5.135  1.00  0.00     0.049 A 
ATOM     43  N   UNL     1     -11.311   2.939   3.782  1.00  0.00    -0.248 NA
ATOM     44  C   UNL     1     -11.235   1.117   2.326  1.00  0.00     0.031 C 
ATOM     45  C   UNL     1      -7.615   1.446   5.804  1.00  0.00     0.029 A 
ATOM     46  N   UNL     1      -9.176   3.046   5.791  1.00  0.00    -0.354 N 
ATOM     47  C   UNL     1     -12.352   3.041   2.868  1.00  0.00     0.074 A 
ATOM     48  C   UNL     1     -12.227   1.918   1.962  1.00  0.00     0.031 C 
ATOM     49  C   UNL     1      -7.314   2.309   6.787  1.00  0.00     0.029 A 
ATOM     50  C   UNL     1      -8.308   3.378   6.804  1.00  0.00     0.049 A 
ATOM     51  H   UNL     1      -9.964   3.588   5.558  1.00  0.00     0.167 HD
ATOM     52  C   UNL     1     -13.335   3.972   2.801  1.00  0.00     0.037 A 
ATOM     53  C   UNL     1      -8.312   4.424   7.652  1.00  0.00     0.037 A 
ATOM     54  C   UNL     1     -13.469   5.076   3.717  1.00  0.00     0.049 A 
ATOM     55  C   UNL     1      -9.422   5.435   7.569  1.00  0.00     0.074 A 
ATOM     56  C   UNL     1     -14.465   6.037   3.768  1.00  0.00     0.029 A 
ATOM     57  N   UNL     1     -12.580   5.370   4.741  1.00  0.00    -0.354 N 
ATOM     58  N   UNL     1     -10.436   5.478   6.738  1.00  0.00    -0.248 NA
ATOM     59  C   UNL     1      -9.394   6.532   8.545  1.00  0.00     0.031 C 
ATOM     60  C   UNL     1     -14.159   6.932   4.801  1.00  0.00     0.029 A 
ATOM     61  C   UNL     1     -12.994   6.506   5.418  1.00  0.00     0.049 A 
ATOM     62  H   UNL     1     -11.774   4.847   4.955  1.00  0.00     0.167 HD
ATOM     63  C   UNL     1     -11.175   6.598   7.101  1.00  0.00     0.074 A 
ATOM     64  C   UNL     1     -10.502   7.192   8.239  1.00  0.00     0.031 C 
ATOM     65  C   UNL     1     -12.308   7.091   6.542  1.00  0.00     0.037 A 
BRANCH  52  66
ATOM     66  C   UNL     1     -14.350   3.833   1.700  1.00  0.00     0.058 A 
ATOM     67  C   UNL     1     -15.323   2.821   1.723  1.00  0.00     0.135 A 
ATOM     68  C   UNL     1     -14.373   4.739   0.629  1.00  0.00     0.135 A 
ATOM     69  F   UNL     1     -15.337   1.919   2.717  1.00  0.00    -0.206 F 
ATOM     70  C   UNL     1     -16.266   2.695   0.708  1.00  0.00     0.059 A 
ATOM     71  C   UNL     1     -15.323   4.647  -0.386  1.00  0.00     0.059 A 
ATOM     72  F   UNL     1     -13.466   5.726   0.558  1.00  0.00    -0.206 F 
ATOM     73  C   UNL     1     -16.255   3.611  -0.345  1.00  0.00     0.060 A 
BRANCH  73  74
ATOM     74  S   UNL     1     -17.484   3.436  -1.656  1.00  0.00     0.124 S 
ATOM     75  O   UNL     1     -16.953   2.297  -2.399  1.00  0.00    -0.237 OA
ATOM     76  O   UNL     1     -18.711   3.186  -0.906  1.00  0.00    -0.237 OA
ATOM     77  O   UNL     1     -17.427   4.719  -2.349  1.00  0.00    -0.744 OA
ENDBRANCH  73  74
ENDBRANCH  52  66
BRANCH  53  78
ATOM     78  C   UNL     1      -7.241   4.551   8.673  1.00  0.00     0.058 A 
ATOM     79  C   UNL     1      -7.506   4.310  10.029  1.00  0.00     0.135 A 
ATOM     80  C   UNL     1      -5.929   4.895   8.312  1.00  0.00     0.135 A 
ATOM     81  F   UNL     1      -8.747   3.984  10.421  1.00  0.00    -0.206 F 
ATOM     82  C   UNL     1      -6.512   4.418  10.996  1.00  0.00     0.059 A 
ATOM     83  C   UNL     1      -4.913   4.988   9.258  1.00  0.00     0.059 A 
ATOM     84  F   UNL     1      -5.622   5.117   7.025  1.00  0.00    -0.206 F 
ATOM     85  C   UNL     1      -5.217   4.756  10.599  1.00  0.00     0.060 A 
BRANCH  85  86
ATOM     86  S   UNL     1      -3.918   4.836  11.851  1.00  0.00     0.124 S 
ATOM     87  O   UNL     1      -4.212   6.110  12.496  1.00  0.00    -0.237 OA
ATOM     88  O   UNL     1      -4.183   3.641  12.646  1.00  0.00    -0.237 OA
ATOM     89  O   UNL     1      -2.692   4.794  11.061  1.00  0.00    -0.744 OA
ENDBRANCH  85  86
ENDBRANCH  53  78
BRANCH  65  90
ATOM     90  C   UNL     1     -12.894   8.328   7.165  1.00  0.00     0.058 A 
ATOM     91  C   UNL     1     -12.296   9.587   6.999  1.00  0.00     0.135 A 
ATOM     92  C   UNL     1     -14.074   8.255   7.923  1.00  0.00     0.135 A 
ATOM     93  F   UNL     1     -11.164   9.708   6.288  1.00  0.00    -0.206 F 
ATOM     94  C   UNL     1     -12.828  10.727   7.592  1.00  0.00     0.059 A 
ATOM     95  C   UNL     1     -14.637   9.387   8.505  1.00  0.00     0.059 A 
ATOM     96  F   UNL     1     -14.691   7.077   8.103  1.00  0.00    -0.206 F 
ATOM     97  C   UNL     1     -13.996  10.616   8.348  1.00  0.00     0.060 A 
BRANCH  97  98
ATOM     98  S   UNL     1     -14.683  12.101   9.111  1.00  0.00     0.124 S 
ATOM     99  O   UNL     1     -13.800  12.275  10.259  1.00  0.00    -0.237 OA
ATOM    100  O   UNL     1     -14.544  13.094   8.049  1.00  0.00    -0.237 OA
ATOM    101  O   UNL     1     -16.055  11.717   9.424  1.00  0.00    -0.744 OA
ENDBRANCH  97  98
ENDBRANCH  65  90
ENDBRANCH  39  40
ENDBRANCH  31  34
ENDBRANCH  29  30
ENDBRANCH  28  29
ENDBRANCH   1  28
TORSDOF 17
