REMARK SMILES C[C@@H]1CCc2nc(NC(=O)[C@H]3CC=CC[C@@H]3C(=O)NCCCCNC(=O)c3ccc(-c4c5nc(c(-c6c(F)cc(S(=O)(=O)[O-])cc6F)c6ccc([nH]6)c(-c6c(F)cc(S(=O)(=O)[O-])cc6F)c6nc(c(-c7c(F)cc(S(=O)(=O)[O-])cc7F)c7ccc4[nH]7)C=C6)C=C5)cc3)sc2C1
REMARK SMILES IDX 22 1 21 2 20 3 19 4 17 5 18 6 16 8 11 9 12 10 13 11 15 12
REMARK SMILES IDX 14 13 9 14 8 15 10 17 7 18 1 19 2 20 3 21 95 22 4 23 94 24
REMARK SMILES IDX 5 25 93 26 6 27 23 28 24 29 25 30 26 32 27 33 28 34 92 35
REMARK SMILES IDX 29 36 91 37 30 38 31 39 32 40 85 41 33 42 90 43 84 44 86 45
REMARK SMILES IDX 34 46 89 47 83 48 82 49 35 51 69 52 48 53 68 54 49 55 52 56
REMARK SMILES IDX 67 57 87 58 50 59 51 60 66 62 88 63 53 64 36 65 37 66 46 67
REMARK SMILES IDX 38 68 39 69 45 70 47 71 40 72 41 73 42 74 43 75 44 76 70 77
REMARK SMILES IDX 71 78 80 79 72 80 73 81 79 82 81 83 74 84 75 85 76 86 77 87
REMARK SMILES IDX 78 88 54 89 55 90 64 91 56 92 57 93 63 94 65 95 58 96 59 97
REMARK SMILES IDX 60 98 61 99 62 100
REMARK H PARENT 19 7 8 16 24 31 86 50 52 61
REMARK Flexibility Score: inf
ROOT
ATOM      1  C   UNL     1      -3.351   4.679  -3.260  1.00  0.00     0.023 C 
ENDROOT
BRANCH   1   2
ATOM      2  C   UNL     1      -4.400   3.567  -3.193  1.00  0.00     0.023 C 
BRANCH   2   3
ATOM      3  C   UNL     1      -5.168   3.159  -4.456  1.00  0.00     0.116 C 
BRANCH   3   4
ATOM      4  N   UNL     1      -4.312   2.625  -5.501  1.00  0.00    -0.356 N 
ATOM      5  C   UNL     1      -4.125   1.352  -5.965  1.00  0.00     0.224 C 
ATOM      6  O   UNL     1      -3.346   1.224  -6.910  1.00  0.00    -0.275 OA
ATOM      7  H   UNL     1      -3.767   3.304  -5.960  1.00  0.00     0.163 HD
BRANCH   5   8
ATOM      8  C   UNL     1      -4.804   0.141  -5.295  1.00  0.00     0.095 C 
ATOM      9  C   UNL     1      -4.135  -0.130  -3.931  1.00  0.00     0.095 C 
ATOM     10  C   UNL     1      -2.698  -0.658  -4.109  1.00  0.00     0.041 C 
ATOM     11  C   UNL     1      -2.574  -1.727  -5.144  1.00  0.00    -0.030 C 
ATOM     12  C   UNL     1      -4.753  -1.105  -6.210  1.00  0.00     0.041 C 
ATOM     13  C   UNL     1      -3.511  -1.942  -6.075  1.00  0.00    -0.030 C 
BRANCH   9  14
ATOM     14  C   UNL     1      -4.959  -1.003  -2.970  1.00  0.00     0.230 C 
ATOM     15  N   UNL     1      -4.577  -1.227  -1.670  1.00  0.00    -0.302 N 
ATOM     16  H   UNL     1      -5.082  -1.940  -1.217  1.00  0.00     0.172 HD
ATOM     17  O   UNL     1      -5.989  -1.567  -3.355  1.00  0.00    -0.274 OA
BRANCH  15  18
ATOM     18  C   UNL     1      -3.616  -0.635  -0.889  1.00  0.00     0.189 A 
ATOM     19  C   UNL     1       1.359   0.068  -0.082  1.00  0.00     0.008 C 
ATOM     20  C   UNL     1       0.496   1.030   0.751  1.00  0.00    -0.009 C 
ATOM     21  C   UNL     1      -0.090   0.342   2.013  1.00  0.00     0.010 C 
ATOM     22  C   UNL     1      -0.639   1.663  -0.085  1.00  0.00     0.052 C 
ATOM     23  C   UNL     1      -1.087  -0.800   1.695  1.00  0.00     0.058 C 
ATOM     24  C   UNL     1      -1.790   0.727  -0.163  1.00  0.00     0.030 A 
ATOM     25  C   UNL     1      -2.001  -0.408   0.588  1.00  0.00     0.057 A 
ATOM     26  S   UNL     1      -3.110   0.964  -1.165  1.00  0.00    -0.101 S 
ATOM     27  N   UNL     1      -3.075  -1.190   0.176  1.00  0.00    -0.225 NA
ENDBRANCH  15  18
ENDBRANCH   9  14
ENDBRANCH   5   8
ENDBRANCH   3   4
ENDBRANCH   2   3
ENDBRANCH   1   2
BRANCH   1  28
ATOM     28  C   UNL     1      -3.904   6.050  -3.578  1.00  0.00     0.116 C 
BRANCH  28  29
ATOM     29  N   UNL     1      -4.848   6.556  -2.573  1.00  0.00    -0.352 N 
ATOM     30  C   UNL     1      -5.647   7.695  -2.659  1.00  0.00     0.251 C 
ATOM     31  H   UNL     1      -4.925   6.031  -1.744  1.00  0.00     0.163 HD
ATOM     32  O   UNL     1      -6.102   8.233  -1.671  1.00  0.00    -0.269 OA
BRANCH  30  33
ATOM     33  C   UNL     1      -5.925   8.210  -4.014  1.00  0.00     0.039 A 
ATOM     34  C   UNL     1      -5.810   9.556  -4.365  1.00  0.00     0.014 A 
ATOM     35  C   UNL     1      -6.160   7.239  -4.973  1.00  0.00     0.014 A 
ATOM     36  C   UNL     1      -5.828   9.888  -5.722  1.00  0.00     0.010 A 
ATOM     37  C   UNL     1      -5.877   7.533  -6.273  1.00  0.00     0.010 A 
ATOM     38  C   UNL     1      -5.831   8.858  -6.675  1.00  0.00    -0.014 A 
BRANCH  38  39
ATOM     39  C   UNL     1      -5.778   9.099  -8.110  1.00  0.00     0.031 A 
ATOM     40  C   UNL     1      -4.714  10.015  -8.589  1.00  0.00     0.074 A 
ATOM     41  C   UNL     1      -6.535   8.392  -8.980  1.00  0.00     0.049 A 
ATOM     42  N   UNL     1      -4.870  11.226  -9.007  1.00  0.00    -0.248 NA
ATOM     43  C   UNL     1      -3.308   9.599  -8.491  1.00  0.00     0.031 C 
ATOM     44  C   UNL     1      -7.450   7.266  -8.727  1.00  0.00     0.029 A 
ATOM     45  N   UNL     1      -6.566   8.489 -10.332  1.00  0.00    -0.354 N 
ATOM     46  C   UNL     1      -3.618  11.663  -9.424  1.00  0.00     0.074 A 
ATOM     47  C   UNL     1      -2.674  10.692  -8.928  1.00  0.00     0.031 C 
ATOM     48  C   UNL     1      -7.744   6.644  -9.887  1.00  0.00     0.029 A 
ATOM     49  C   UNL     1      -7.213   7.442 -10.973  1.00  0.00     0.049 A 
ATOM     50  H   UNL     1      -6.162   9.242 -10.821  1.00  0.00     0.167 HD
ATOM     51  C   UNL     1      -3.484  12.683 -10.318  1.00  0.00     0.037 A 
ATOM     52  C   UNL     1      -7.317   7.247 -12.308  1.00  0.00     0.037 A 
ATOM     53  C   UNL     1      -4.746  13.341 -10.554  1.00  0.00     0.049 A 
ATOM     54  C   UNL     1      -7.140   8.582 -12.940  1.00  0.00     0.074 A 
ATOM     55  C   UNL     1      -5.636  14.038  -9.759  1.00  0.00     0.029 A 
ATOM     56  N   UNL     1      -5.454  12.974 -11.676  1.00  0.00    -0.354 N 
ATOM     57  N   UNL     1      -7.987   9.566 -12.780  1.00  0.00    -0.248 NA
ATOM     58  C   UNL     1      -5.795   8.983 -13.325  1.00  0.00     0.031 C 
ATOM     59  C   UNL     1      -6.927  13.626 -10.205  1.00  0.00     0.029 A 
ATOM     60  C   UNL     1      -6.754  12.761 -11.288  1.00  0.00     0.049 A 
ATOM     61  H   UNL     1      -5.095  12.882 -12.588  1.00  0.00     0.167 HD
ATOM     62  C   UNL     1      -7.198  10.697 -12.616  1.00  0.00     0.074 A 
ATOM     63  C   UNL     1      -5.863  10.290 -13.054  1.00  0.00     0.031 C 
ATOM     64  C   UNL     1      -7.627  11.766 -11.879  1.00  0.00     0.037 A 
BRANCH  51  65
ATOM     65  C   UNL     1      -2.307  12.895 -11.230  1.00  0.00     0.058 A 
ATOM     66  C   UNL     1      -2.141  14.140 -11.871  1.00  0.00     0.135 A 
ATOM     67  C   UNL     1      -1.496  11.844 -11.705  1.00  0.00     0.135 A 
ATOM     68  F   UNL     1      -2.869  15.204 -11.496  1.00  0.00    -0.206 F 
ATOM     69  C   UNL     1      -1.278  14.311 -12.954  1.00  0.00     0.059 A 
ATOM     70  C   UNL     1      -0.590  12.006 -12.749  1.00  0.00     0.059 A 
ATOM     71  F   UNL     1      -1.619  10.593 -11.244  1.00  0.00    -0.206 F 
ATOM     72  C   UNL     1      -0.520  13.230 -13.395  1.00  0.00     0.060 A 
BRANCH  72  73
ATOM     73  S   UNL     1       0.504  13.419 -14.866  1.00  0.00     0.124 S 
ATOM     74  O   UNL     1      -0.507  13.554 -15.908  1.00  0.00    -0.237 OA
ATOM     75  O   UNL     1       1.266  14.623 -14.553  1.00  0.00    -0.237 OA
ATOM     76  O   UNL     1       1.280  12.183 -14.896  1.00  0.00    -0.744 OA
ENDBRANCH  72  73
ENDBRANCH  51  65
BRANCH  52  77
ATOM     77  C   UNL     1      -7.205   5.952 -13.027  1.00  0.00     0.058 A 
ATOM     78  C   UNL     1      -7.530   5.842 -14.388  1.00  0.00     0.135 A 
ATOM     79  C   UNL     1      -6.520   4.854 -12.461  1.00  0.00     0.135 A 
ATOM     80  F   UNL     1      -8.168   6.845 -15.011  1.00  0.00    -0.206 F 
ATOM     81  C   UNL     1      -7.150   4.737 -15.158  1.00  0.00     0.059 A 
ATOM     82  C   UNL     1      -6.139   3.739 -13.205  1.00  0.00     0.059 A 
ATOM     83  F   UNL     1      -6.117   4.872 -11.181  1.00  0.00    -0.206 F 
ATOM     84  C   UNL     1      -6.433   3.700 -14.562  1.00  0.00     0.060 A 
BRANCH  84  85
ATOM     85  S   UNL     1      -5.771   2.367 -15.590  1.00  0.00     0.124 S 
ATOM     86  O   UNL     1      -6.982   1.641 -15.959  1.00  0.00    -0.237 OA
ATOM     87  O   UNL     1      -5.117   3.104 -16.666  1.00  0.00    -0.237 OA
ATOM     88  O   UNL     1      -4.868   1.658 -14.688  1.00  0.00    -0.744 OA
ENDBRANCH  84  85
ENDBRANCH  52  77
BRANCH  64  89
ATOM     89  C   UNL     1      -9.075  11.799 -11.450  1.00  0.00     0.058 A 
ATOM     90  C   UNL     1      -9.656  10.882 -10.555  1.00  0.00     0.135 A 
ATOM     91  C   UNL     1      -9.865  12.891 -11.835  1.00  0.00     0.135 A 
ATOM     92  F   UNL     1      -8.942   9.872 -10.044  1.00  0.00    -0.206 F 
ATOM     93  C   UNL     1     -10.970  11.014 -10.104  1.00  0.00     0.059 A 
ATOM     94  C   UNL     1     -11.170  13.061 -11.375  1.00  0.00     0.059 A 
ATOM     95  F   UNL     1      -9.351  13.843 -12.631  1.00  0.00    -0.206 F 
ATOM     96  C   UNL     1     -11.723  12.108 -10.522  1.00  0.00     0.060 A 
BRANCH  96  97
ATOM     97  S   UNL     1     -13.402  12.312  -9.888  1.00  0.00     0.124 S 
ATOM     98  O   UNL     1     -14.130  11.278 -10.614  1.00  0.00    -0.237 OA
ATOM     99  O   UNL     1     -13.234  12.082  -8.456  1.00  0.00    -0.237 OA
ATOM    100  O   UNL     1     -13.739  13.686 -10.253  1.00  0.00    -0.744 OA
ENDBRANCH  96  97
ENDBRANCH  64  89
ENDBRANCH  38  39
ENDBRANCH  30  33
ENDBRANCH  28  29
ENDBRANCH   1  28
TORSDOF 16
