REMARK SMILES Cc1cc(C(=O)NCCCCNC(=O)c2ccc(-c3c4nc(c(-c5c(F)cc(S(=O)(=O)[O-])cc5F)c5ccc([nH]5)c(-c5c(F)cc(S(=O)(=O)[O-])cc5F)c5nc(c(-c6c(F)cc(S(=O)(=O)[O-])cc6F)c6ccc3[nH]6)C=C5)C=C4)cc2)ccc1NC(=O)N1C[C@@H](C)[C@H](C)C1
REMARK SMILES IDX 10 1 9 2 8 3 7 4 5 5 6 6 4 8 1 9 2 10 3 11 83 12 82 13 81 14
REMARK SMILES IDX 84 15 85 16 86 18 87 19 88 20 93 21 89 22 91 23 90 24 92 25
REMARK SMILES IDX 11 26 12 27 13 28 14 30 15 31 16 32 80 33 17 34 79 35 18 36
REMARK SMILES IDX 19 37 20 38 73 39 21 40 78 41 72 42 74 43 22 44 77 45 71 46
REMARK SMILES IDX 70 47 23 49 57 50 36 51 56 52 37 53 40 54 55 55 75 56 38 57
REMARK SMILES IDX 39 58 54 60 76 61 41 62 24 63 25 64 34 65 26 66 27 67 33 68
REMARK SMILES IDX 35 69 28 70 29 71 30 72 31 73 32 74 58 75 59 76 68 77 60 78
REMARK SMILES IDX 61 79 67 80 69 81 62 82 63 83 64 84 65 85 66 86 42 87 43 88
REMARK SMILES IDX 52 89 44 90 45 91 51 92 53 93 46 94 47 95 48 96 49 97 50 98
REMARK H PARENT 7 7 84 17 12 29 74 48 40 59
REMARK Flexibility Score: inf
ROOT
ATOM      1  C   UNL     1      -5.701  -2.063  -2.016  1.00  0.00     0.023 C 
ENDROOT
BRANCH   1   2
ATOM      2  C   UNL     1      -4.888  -0.971  -1.325  1.00  0.00     0.023 C 
BRANCH   2   3
ATOM      3  C   UNL     1      -4.099  -1.425  -0.084  1.00  0.00     0.116 C 
BRANCH   3   4
ATOM      4  N   UNL     1      -3.120  -2.478  -0.356  1.00  0.00    -0.352 N 
ATOM      5  C   UNL     1      -1.745  -2.447  -0.452  1.00  0.00     0.251 C 
ATOM      6  O   UNL     1      -1.118  -3.505  -0.480  1.00  0.00    -0.269 OA
ATOM      7  H   UNL     1      -3.514  -3.369  -0.496  1.00  0.00     0.163 HD
BRANCH   5   8
ATOM      8  C   UNL     1      -0.996  -1.167  -0.496  1.00  0.00     0.040 A 
ATOM      9  C   UNL     1       2.380   0.141   0.655  1.00  0.00     0.046 C 
ATOM     10  C   UNL     1       0.969   0.160   0.136  1.00  0.00    -0.027 A 
ATOM     11  C   UNL     1       0.272  -1.071   0.092  1.00  0.00     0.019 A 
ATOM     12  C   UNL     1       0.331   1.310  -0.360  1.00  0.00     0.045 A 
ATOM     13  C   UNL     1      -0.847   1.157  -1.098  1.00  0.00     0.027 A 
ATOM     14  C   UNL     1      -1.485  -0.071  -1.185  1.00  0.00     0.016 A 
BRANCH  12  15
ATOM     15  N   UNL     1       0.870   2.599  -0.172  1.00  0.00    -0.308 N 
ATOM     16  C   UNL     1       0.250   3.806  -0.365  1.00  0.00     0.321 C 
ATOM     17  H   UNL     1       1.805   2.637   0.134  1.00  0.00     0.171 HD
ATOM     18  O   UNL     1       0.911   4.755  -0.788  1.00  0.00    -0.248 OA
ATOM     19  N   UNL     1      -1.084   3.916  -0.056  1.00  0.00    -0.324 N 
ATOM     20  C   UNL     1      -1.931   4.908  -0.691  1.00  0.00     0.125 C 
ATOM     21  C   UNL     1      -1.724   3.363   1.136  1.00  0.00     0.125 C 
ATOM     22  C   UNL     1      -3.082   5.149   0.283  1.00  0.00     0.010 C 
ATOM     23  C   UNL     1      -3.183   3.819   1.052  1.00  0.00     0.010 C 
ATOM     24  C   UNL     1      -4.378   5.521  -0.426  1.00  0.00     0.010 C 
ATOM     25  C   UNL     1      -3.854   3.960   2.416  1.00  0.00     0.010 C 
ENDBRANCH  12  15
ENDBRANCH   5   8
ENDBRANCH   3   4
ENDBRANCH   2   3
ENDBRANCH   1   2
BRANCH   1  26
ATOM     26  C   UNL     1      -6.965  -2.425  -1.252  1.00  0.00     0.116 C 
BRANCH  26  27
ATOM     27  N   UNL     1      -8.194  -2.107  -1.968  1.00  0.00    -0.352 N 
ATOM     28  C   UNL     1      -9.498  -2.371  -1.580  1.00  0.00     0.251 C 
ATOM     29  H   UNL     1      -8.084  -1.649  -2.832  1.00  0.00     0.163 HD
ATOM     30  O   UNL     1     -10.440  -2.215  -2.337  1.00  0.00    -0.269 OA
BRANCH  28  31
ATOM     31  C   UNL     1      -9.713  -2.764  -0.171  1.00  0.00     0.039 A 
ATOM     32  C   UNL     1     -10.396  -1.864   0.655  1.00  0.00     0.014 A 
ATOM     33  C   UNL     1      -8.995  -3.829   0.365  1.00  0.00     0.014 A 
ATOM     34  C   UNL     1     -10.188  -1.909   2.031  1.00  0.00     0.010 A 
ATOM     35  C   UNL     1      -8.707  -3.807   1.714  1.00  0.00     0.010 A 
ATOM     36  C   UNL     1      -9.261  -2.816   2.542  1.00  0.00    -0.014 A 
BRANCH  36  37
ATOM     37  C   UNL     1      -8.715  -2.749   3.894  1.00  0.00     0.031 A 
ATOM     38  C   UNL     1      -8.996  -3.830   4.869  1.00  0.00     0.074 A 
ATOM     39  C   UNL     1      -7.839  -1.772   4.215  1.00  0.00     0.049 A 
ATOM     40  N   UNL     1      -8.765  -3.765   6.137  1.00  0.00    -0.248 NA
ATOM     41  C   UNL     1      -9.637  -5.078   4.475  1.00  0.00     0.031 C 
ATOM     42  C   UNL     1      -6.888  -1.774   5.323  1.00  0.00     0.029 A 
ATOM     43  N   UNL     1      -7.751  -0.484   3.701  1.00  0.00    -0.354 N 
ATOM     44  C   UNL     1      -8.931  -5.028   6.667  1.00  0.00     0.074 A 
ATOM     45  C   UNL     1      -9.560  -5.779   5.609  1.00  0.00     0.031 C 
ATOM     46  C   UNL     1      -6.476  -0.517   5.550  1.00  0.00     0.029 A 
ATOM     47  C   UNL     1      -7.274   0.361   4.713  1.00  0.00     0.049 A 
ATOM     48  H   UNL     1      -7.983  -0.212   2.784  1.00  0.00     0.167 HD
ATOM     49  C   UNL     1      -8.383  -5.312   7.887  1.00  0.00     0.037 A 
ATOM     50  C   UNL     1      -8.039   1.387   5.198  1.00  0.00     0.037 A 
ATOM     51  C   UNL     1      -7.885  -4.089   8.528  1.00  0.00     0.049 A 
ATOM     52  C   UNL     1      -8.425   1.245   6.654  1.00  0.00     0.074 A 
ATOM     53  C   UNL     1      -6.620  -3.538   8.658  1.00  0.00     0.029 A 
ATOM     54  N   UNL     1      -8.783  -3.091   8.898  1.00  0.00    -0.354 N 
ATOM     55  N   UNL     1      -8.294   0.143   7.340  1.00  0.00    -0.248 NA
ATOM     56  C   UNL     1      -9.008   2.324   7.449  1.00  0.00     0.031 C 
ATOM     57  C   UNL     1      -6.767  -2.177   9.028  1.00  0.00     0.029 A 
ATOM     58  C   UNL     1      -8.119  -1.905   9.149  1.00  0.00     0.049 A 
ATOM     59  H   UNL     1      -9.758  -3.214   8.971  1.00  0.00     0.167 HD
ATOM     60  C   UNL     1      -8.796   0.320   8.602  1.00  0.00     0.074 A 
ATOM     61  C   UNL     1      -9.198   1.714   8.633  1.00  0.00     0.031 C 
ATOM     62  C   UNL     1      -8.854  -0.700   9.509  1.00  0.00     0.037 A 
BRANCH  49  63
ATOM     63  C   UNL     1      -8.011  -6.718   8.359  1.00  0.00     0.058 A 
ATOM     64  C   UNL     1      -6.983  -6.910   9.313  1.00  0.00     0.135 A 
ATOM     65  C   UNL     1      -8.543  -7.921   7.852  1.00  0.00     0.135 A 
ATOM     66  F   UNL     1      -6.451  -5.881   9.986  1.00  0.00    -0.206 F 
ATOM     67  C   UNL     1      -6.443  -8.164   9.623  1.00  0.00     0.059 A 
ATOM     68  C   UNL     1      -7.992  -9.182   8.108  1.00  0.00     0.059 A 
ATOM     69  F   UNL     1      -9.666  -7.949   7.131  1.00  0.00    -0.206 F 
ATOM     70  C   UNL     1      -6.926  -9.294   8.982  1.00  0.00     0.060 A 
BRANCH  70  71
ATOM     71  S   UNL     1      -6.168 -10.894   9.315  1.00  0.00     0.124 S 
ATOM     72  O   UNL     1      -4.774 -10.655   8.954  1.00  0.00    -0.237 OA
ATOM     73  O   UNL     1      -6.436 -11.069  10.739  1.00  0.00    -0.237 OA
ATOM     74  O   UNL     1      -6.889 -11.804   8.429  1.00  0.00    -0.744 OA
ENDBRANCH  70  71
ENDBRANCH  49  63
BRANCH  50  75
ATOM     75  C   UNL     1      -8.851   2.059   4.148  1.00  0.00     0.058 A 
ATOM     76  C   UNL     1      -8.155   2.827   3.197  1.00  0.00     0.135 A 
ATOM     77  C   UNL     1     -10.124   1.585   3.798  1.00  0.00     0.135 A 
ATOM     78  F   UNL     1      -6.947   3.330   3.498  1.00  0.00    -0.206 F 
ATOM     79  C   UNL     1      -8.607   2.953   1.891  1.00  0.00     0.059 A 
ATOM     80  C   UNL     1     -10.604   1.710   2.493  1.00  0.00     0.059 A 
ATOM     81  F   UNL     1     -10.837   0.856   4.669  1.00  0.00    -0.206 F 
ATOM     82  C   UNL     1      -9.796   2.321   1.533  1.00  0.00     0.060 A 
BRANCH  82  83
ATOM     83  S   UNL     1     -10.138   2.126  -0.232  1.00  0.00     0.124 S 
ATOM     84  O   UNL     1     -10.133   3.507  -0.699  1.00  0.00    -0.237 OA
ATOM     85  O   UNL     1      -8.998   1.311  -0.651  1.00  0.00    -0.237 OA
ATOM     86  O   UNL     1     -11.433   1.456  -0.248  1.00  0.00    -0.744 OA
ENDBRANCH  82  83
ENDBRANCH  50  75
BRANCH  62  87
ATOM     87  C   UNL     1      -9.541  -0.637  10.851  1.00  0.00     0.058 A 
ATOM     88  C   UNL     1     -10.709   0.101  11.101  1.00  0.00     0.135 A 
ATOM     89  C   UNL     1      -9.096  -1.459  11.914  1.00  0.00     0.135 A 
ATOM     90  F   UNL     1     -11.286   0.837  10.139  1.00  0.00    -0.206 F 
ATOM     91  C   UNL     1     -11.359   0.077  12.338  1.00  0.00     0.059 A 
ATOM     92  C   UNL     1      -9.757  -1.539  13.137  1.00  0.00     0.059 A 
ATOM     93  F   UNL     1      -8.000  -2.224  11.792  1.00  0.00    -0.206 F 
ATOM     94  C   UNL     1     -10.876  -0.747  13.350  1.00  0.00     0.060 A 
BRANCH  94  95
ATOM     95  S   UNL     1     -11.740  -0.839  14.930  1.00  0.00     0.124 S 
ATOM     96  O   UNL     1     -11.009   0.147  15.719  1.00  0.00    -0.237 OA
ATOM     97  O   UNL     1     -13.109  -0.473  14.577  1.00  0.00    -0.237 OA
ATOM     98  O   UNL     1     -11.555  -2.231  15.325  1.00  0.00    -0.744 OA
ENDBRANCH  94  95
ENDBRANCH  62  87
ENDBRANCH  36  37
ENDBRANCH  28  31
ENDBRANCH  26  27
ENDBRANCH   1  26
TORSDOF 15
