REMARK SMILES Cc1nc(-c2ccco2)nc(S)c1C(=O)NCCCCNC(=O)c1ccc(-c2c3nc(c(-c4c(F)cc(S(=O)(=O)[O-])cc4F)c4ccc([nH]4)c(-c4c(F)cc(S(=O)(=O)[O-])cc4F)c4nc(c(-c5c(F)cc(S(=O)(=O)[O-])cc5F)c5ccc2[nH]5)C=C4)C=C3)cc1
REMARK SMILES IDX 19 1 18 2 17 3 16 4 14 5 15 6 13 8 1 9 2 10 3 11 4 12 11 13
REMARK SMILES IDX 10 14 5 15 6 16 9 17 7 18 8 19 12 20 20 22 21 23 22 24 23 26
REMARK SMILES IDX 24 27 25 28 89 29 26 30 88 31 27 32 28 33 29 34 82 35 30 36
REMARK SMILES IDX 87 37 81 38 83 39 31 40 86 41 80 42 79 43 32 45 66 46 45 47
REMARK SMILES IDX 65 48 46 49 49 50 64 51 84 52 47 53 48 54 63 56 85 57 50 58
REMARK SMILES IDX 33 59 34 60 43 61 35 62 36 63 42 64 44 65 37 66 38 67 39 68
REMARK SMILES IDX 40 69 41 70 67 71 68 72 77 73 69 74 70 75 76 76 78 77 71 78
REMARK SMILES IDX 72 79 73 80 74 81 75 82 51 83 52 84 61 85 53 86 54 87 60 88
REMARK SMILES IDX 62 89 55 90 56 91 57 92 58 93 59 94
REMARK H PARENT 16 7 12 21 21 25 83 44 49 55
REMARK Flexibility Score: inf
ROOT
ATOM      1  C   UNL     1       0.206   2.685  -2.582  1.00  0.00     0.023 C 
ENDROOT
BRANCH   1   2
ATOM      2  C   UNL     1       0.527   1.569  -1.597  1.00  0.00     0.023 C 
BRANCH   2   3
ATOM      3  C   UNL     1       1.273   1.993  -0.325  1.00  0.00     0.116 C 
BRANCH   3   4
ATOM      4  N   UNL     1       0.308   2.412   0.670  1.00  0.00    -0.352 N 
ATOM      5  C   UNL     1      -0.329   1.764   1.694  1.00  0.00     0.255 C 
ATOM      6  O   UNL     1      -1.284   2.357   2.202  1.00  0.00    -0.269 OA
ATOM      7  H   UNL     1       0.058   3.361   0.595  1.00  0.00     0.163 HD
BRANCH   5   8
ATOM      8  C   UNL     1       0.056   0.458   2.284  1.00  0.00     0.093 A 
ATOM      9  C   UNL     1       0.061  -0.977   0.147  1.00  0.00     0.068 C 
ATOM     10  C   UNL     1       0.182  -0.753   1.613  1.00  0.00     0.055 A 
ATOM     11  N   UNL     1       0.347  -1.930   2.261  1.00  0.00    -0.230 NA
ATOM     12  C   UNL     1       0.293  -1.926   3.594  1.00  0.00     0.196 A 
ATOM     13  C   UNL     1       0.065   0.341   3.685  1.00  0.00     0.110 A 
ATOM     14  N   UNL     1       0.149  -0.840   4.350  1.00  0.00    -0.218 NA
BRANCH  12  15
ATOM     15  C   UNL     1       0.099  -3.226   4.196  1.00  0.00     0.171 A 
ATOM     16  C   UNL     1      -0.977  -3.832   4.816  1.00  0.00     0.054 A 
ATOM     17  O   UNL     1       1.117  -4.127   4.047  1.00  0.00    -0.461 OA
ATOM     18  C   UNL     1      -0.604  -5.180   5.037  1.00  0.00     0.043 A 
ATOM     19  C   UNL     1       0.682  -5.304   4.566  1.00  0.00     0.196 A 
ENDBRANCH  12  15
BRANCH  13  20
ATOM     20  S   UNL     1      -0.004   1.732   4.818  1.00  0.00    -0.123 SA
ATOM     21  H   UNL     1       0.023   1.274   6.099  1.00  0.00     0.110 HD
ENDBRANCH  13  20
ENDBRANCH   5   8
ENDBRANCH   3   4
ENDBRANCH   2   3
ENDBRANCH   1   2
BRANCH   1  22
ATOM     22  C   UNL     1       1.408   3.181  -3.363  1.00  0.00     0.116 C 
BRANCH  22  23
ATOM     23  N   UNL     1       2.055   2.149  -4.165  1.00  0.00    -0.352 N 
ATOM     24  C   UNL     1       2.718   2.306  -5.362  1.00  0.00     0.251 C 
ATOM     25  H   UNL     1       2.013   1.232  -3.809  1.00  0.00     0.163 HD
ATOM     26  O   UNL     1       3.167   1.338  -5.965  1.00  0.00    -0.269 OA
BRANCH  24  27
ATOM     27  C   UNL     1       2.815   3.666  -5.925  1.00  0.00     0.039 A 
ATOM     28  C   UNL     1       3.255   4.718  -5.119  1.00  0.00     0.014 A 
ATOM     29  C   UNL     1       2.324   3.905  -7.210  1.00  0.00     0.014 A 
ATOM     30  C   UNL     1       3.025   6.023  -5.525  1.00  0.00     0.010 A 
ATOM     31  C   UNL     1       2.186   5.220  -7.654  1.00  0.00     0.010 A 
ATOM     32  C   UNL     1       2.485   6.289  -6.795  1.00  0.00    -0.014 A 
BRANCH  32  33
ATOM     33  C   UNL     1       2.247   7.696  -7.198  1.00  0.00     0.031 A 
ATOM     34  C   UNL     1       0.854   8.203  -7.455  1.00  0.00     0.074 A 
ATOM     35  C   UNL     1       3.300   8.532  -7.270  1.00  0.00     0.049 A 
ATOM     36  N   UNL     1       0.472   9.393  -7.843  1.00  0.00    -0.248 NA
ATOM     37  C   UNL     1      -0.255   7.256  -7.252  1.00  0.00     0.031 C 
ATOM     38  C   UNL     1       4.693   8.154  -7.014  1.00  0.00     0.029 A 
ATOM     39  N   UNL     1       3.366   9.872  -7.545  1.00  0.00    -0.354 N 
ATOM     40  C   UNL     1      -0.912   9.332  -7.960  1.00  0.00     0.074 A 
ATOM     41  C   UNL     1      -1.305   7.984  -7.611  1.00  0.00     0.031 C 
ATOM     42  C   UNL     1       5.465   9.248  -7.081  1.00  0.00     0.029 A 
ATOM     43  C   UNL     1       4.637  10.386  -7.460  1.00  0.00     0.049 A 
ATOM     44  H   UNL     1       2.578  10.414  -7.781  1.00  0.00     0.167 HD
ATOM     45  C   UNL     1      -1.772  10.314  -8.323  1.00  0.00     0.037 A 
ATOM     46  C   UNL     1       5.091  11.633  -7.681  1.00  0.00     0.037 A 
ATOM     47  C   UNL     1      -1.371  11.661  -8.644  1.00  0.00     0.049 A 
ATOM     48  C   UNL     1       4.122  12.695  -8.101  1.00  0.00     0.074 A 
ATOM     49  C   UNL     1      -2.162  12.726  -9.039  1.00  0.00     0.029 A 
ATOM     50  N   UNL     1      -0.066  12.132  -8.594  1.00  0.00    -0.354 N 
ATOM     51  N   UNL     1       2.824  12.604  -8.263  1.00  0.00    -0.248 NA
ATOM     52  C   UNL     1       4.678  14.023  -8.386  1.00  0.00     0.031 C 
ATOM     53  C   UNL     1      -1.333  13.834  -9.249  1.00  0.00     0.029 A 
ATOM     54  C   UNL     1      -0.030  13.469  -8.953  1.00  0.00     0.049 A 
ATOM     55  H   UNL     1       0.718  11.594  -8.340  1.00  0.00     0.167 HD
ATOM     56  C   UNL     1       2.405  13.863  -8.671  1.00  0.00     0.074 A 
ATOM     57  C   UNL     1       3.586  14.704  -8.708  1.00  0.00     0.031 C 
ATOM     58  C   UNL     1       1.158  14.283  -8.992  1.00  0.00     0.037 A 
BRANCH  45  59
ATOM     59  C   UNL     1      -3.233   9.971  -8.413  1.00  0.00     0.058 A 
ATOM     60  C   UNL     1      -4.026   9.817  -7.265  1.00  0.00     0.135 A 
ATOM     61  C   UNL     1      -3.860   9.847  -9.664  1.00  0.00     0.135 A 
ATOM     62  F   UNL     1      -3.473   9.907  -6.045  1.00  0.00    -0.206 F 
ATOM     63  C   UNL     1      -5.387   9.540  -7.354  1.00  0.00     0.059 A 
ATOM     64  C   UNL     1      -5.223   9.588  -9.776  1.00  0.00     0.059 A 
ATOM     65  F   UNL     1      -3.147   9.981 -10.793  1.00  0.00    -0.206 F 
ATOM     66  C   UNL     1      -5.977   9.427  -8.614  1.00  0.00     0.060 A 
BRANCH  66  67
ATOM     67  S   UNL     1      -7.746   9.079  -8.713  1.00  0.00     0.124 S 
ATOM     68  O   UNL     1      -7.786   7.670  -8.330  1.00  0.00    -0.237 OA
ATOM     69  O   UNL     1      -8.304  10.015  -7.742  1.00  0.00    -0.237 OA
ATOM     70  O   UNL     1      -8.071   9.358 -10.108  1.00  0.00    -0.744 OA
ENDBRANCH  66  67
ENDBRANCH  45  59
BRANCH  46  71
ATOM     71  C   UNL     1       6.537  11.921  -7.511  1.00  0.00     0.058 A 
ATOM     72  C   UNL     1       6.998  12.659  -6.413  1.00  0.00     0.135 A 
ATOM     73  C   UNL     1       7.489  11.404  -8.403  1.00  0.00     0.135 A 
ATOM     74  F   UNL     1       6.122  13.175  -5.537  1.00  0.00    -0.206 F 
ATOM     75  C   UNL     1       8.355  12.871  -6.200  1.00  0.00     0.059 A 
ATOM     76  C   UNL     1       8.852  11.582  -8.199  1.00  0.00     0.059 A 
ATOM     77  F   UNL     1       7.095  10.674  -9.459  1.00  0.00    -0.206 F 
ATOM     78  C   UNL     1       9.275  12.321  -7.095  1.00  0.00     0.060 A 
BRANCH  78  79
ATOM     79  S   UNL     1      11.038  12.522  -6.761  1.00  0.00     0.124 S 
ATOM     80  O   UNL     1      11.258  13.904  -7.169  1.00  0.00    -0.237 OA
ATOM     81  O   UNL     1      11.113  12.259  -5.327  1.00  0.00    -0.237 OA
ATOM     82  O   UNL     1      11.656  11.505  -7.607  1.00  0.00    -0.744 OA
ENDBRANCH  78  79
ENDBRANCH  46  71
BRANCH  58  83
ATOM     83  C   UNL     1       1.011  15.719  -9.402  1.00  0.00     0.058 A 
ATOM     84  C   UNL     1       1.403  16.157 -10.676  1.00  0.00     0.135 A 
ATOM     85  C   UNL     1       0.450  16.657  -8.523  1.00  0.00     0.135 A 
ATOM     86  F   UNL     1       1.952  15.296 -11.548  1.00  0.00    -0.206 F 
ATOM     87  C   UNL     1       1.264  17.486 -11.058  1.00  0.00     0.059 A 
ATOM     88  C   UNL     1       0.284  17.988  -8.891  1.00  0.00     0.059 A 
ATOM     89  F   UNL     1       0.055  16.283  -7.296  1.00  0.00    -0.206 F 
ATOM     90  C   UNL     1       0.706  18.395 -10.157  1.00  0.00     0.060 A 
BRANCH  90  91
ATOM     91  S   UNL     1       0.516  20.116 -10.668  1.00  0.00     0.124 S 
ATOM     92  O   UNL     1       1.886  20.607 -10.558  1.00  0.00    -0.237 OA
ATOM     93  O   UNL     1      -0.003  19.985 -12.026  1.00  0.00    -0.237 OA
ATOM     94  O   UNL     1      -0.426  20.657  -9.693  1.00  0.00    -0.744 OA
ENDBRANCH  90  91
ENDBRANCH  58  83
ENDBRANCH  32  33
ENDBRANCH  24  27
ENDBRANCH  22  23
ENDBRANCH   1  22
TORSDOF 16
