REMARK SMILES CCC[N@H+]1CCC[C@H]([C@@H](C)Nc2cccc(C(=O)NCCCCNC(=O)c3ccc(-c4c5nc(c(-c6c(F)cc(S(=O)(=O)[O-])cc6F)c6ccc([nH]6)c(-c6c(F)cc(S(=O)(=O)[O-])cc6F)c6nc(c(-c7c(F)cc(S(=O)(=O)[O-])cc7F)c7ccc4[nH]7)C=C6)C=C5)cc3)c2)C1
REMARK SMILES IDX 20 1 19 2 17 3 18 4 16 6 12 7 13 8 93 9 14 10 15 11 11 12
REMARK SMILES IDX 9 14 10 15 8 16 4 17 5 18 94 19 6 21 7 22 3 23 2 24 1 25
REMARK SMILES IDX 21 26 22 27 23 28 24 29 25 30 26 32 27 33 28 34 92 35 29 36
REMARK SMILES IDX 91 37 30 38 31 39 32 40 85 41 33 42 90 43 84 44 86 45 34 46
REMARK SMILES IDX 89 47 83 48 82 49 35 51 69 52 48 53 68 54 49 55 52 56 67 57
REMARK SMILES IDX 87 58 50 59 51 60 66 62 88 63 53 64 36 65 37 66 46 67 38 68
REMARK SMILES IDX 39 69 45 70 47 71 40 72 41 73 42 74 43 75 44 76 70 77 71 78
REMARK SMILES IDX 80 79 72 80 73 81 79 82 81 83 74 84 75 85 76 86 77 87 78 88
REMARK SMILES IDX 54 89 55 90 64 91 56 92 57 93 63 94 65 95 58 96 59 97 60 98
REMARK SMILES IDX 61 99 62 100
REMARK H PARENT 19 5 11 13 4 20 24 31 86 50 52 61
REMARK Flexibility Score: inf
ROOT
ATOM      1  C   UNL     1       1.656  -3.459   4.126  1.00  0.00     0.116 C 
ENDROOT
BRANCH   1   2
ATOM      2  N   UNL     1       2.244  -2.165   4.446  1.00  0.00    -0.352 N 
ATOM      3  C   UNL     1       3.094  -1.353   3.715  1.00  0.00     0.251 C 
ATOM      4  O   UNL     1       3.458  -0.281   4.195  1.00  0.00    -0.269 OA
ATOM      5  H   UNL     1       1.996  -1.809   5.329  1.00  0.00     0.163 HD
BRANCH   3   6
ATOM      6  C   UNL     1       3.642  -1.782   2.400  1.00  0.00     0.041 A 
ATOM      7  C   UNL     1       3.489  -3.288   0.497  1.00  0.00     0.035 A 
ATOM      8  C   UNL     1       4.814  -2.970   0.183  1.00  0.00     0.026 A 
ATOM      9  C   UNL     1       2.889  -2.553   1.517  1.00  0.00     0.039 A 
ATOM     10  C   UNL     1       5.533  -2.030   0.932  1.00  0.00     0.003 A 
ATOM     11  C   UNL     1       4.960  -1.467   2.070  1.00  0.00     0.014 A 
BRANCH   7  12
ATOM     12  N   UNL     1       2.841  -4.301  -0.185  1.00  0.00    -0.382 N 
ATOM     13  H   UNL     1       3.352  -4.787  -0.872  1.00  0.00     0.160 HD
BRANCH  12  14
ATOM     14  C   UNL     1       1.449  -4.706   0.041  1.00  0.00     0.084 C 
ATOM     15  C   UNL     1       1.444  -5.993   0.871  1.00  0.00     0.031 C 
BRANCH  14  16
ATOM     16  C   UNL     1       0.724  -4.861  -1.323  1.00  0.00     0.066 C 
ATOM     17  N   UNL     1       0.295  -2.433  -1.572  1.00  0.00    -0.335 N 
ATOM     18  C   UNL     1      -1.160  -2.603  -1.506  1.00  0.00     0.262 C 
ATOM     19  C   UNL     1       0.917  -3.609  -2.201  1.00  0.00     0.267 C 
ATOM     20  H   UNL     1       0.615  -2.345  -0.607  1.00  0.00     0.348 HD
ATOM     21  C   UNL     1      -1.531  -3.851  -0.695  1.00  0.00     0.062 C 
ATOM     22  C   UNL     1      -0.791  -5.103  -1.173  1.00  0.00     0.017 C 
BRANCH  17  23
ATOM     23  C   UNL     1       0.720  -1.203  -2.251  1.00  0.00     0.261 C 
BRANCH  23  24
ATOM     24  C   UNL     1       0.358   0.094  -1.516  1.00  0.00     0.058 C 
ATOM     25  C   UNL     1       0.908   0.162  -0.098  1.00  0.00     0.010 C 
ENDBRANCH  23  24
ENDBRANCH  17  23
ENDBRANCH  14  16
ENDBRANCH  12  14
ENDBRANCH   7  12
ENDBRANCH   3   6
ENDBRANCH   1   2
BRANCH   1  26
ATOM     26  C   UNL     1       1.783  -4.523   5.206  1.00  0.00     0.023 C 
BRANCH  26  27
ATOM     27  C   UNL     1       1.019  -4.276   6.497  1.00  0.00     0.023 C 
BRANCH  27  28
ATOM     28  C   UNL     1      -0.454  -3.913   6.350  1.00  0.00     0.116 C 
BRANCH  28  29
ATOM     29  N   UNL     1      -1.235  -4.877   5.589  1.00  0.00    -0.352 N 
ATOM     30  C   UNL     1      -2.452  -5.454   5.884  1.00  0.00     0.251 C 
ATOM     31  H   UNL     1      -0.834  -5.159   4.735  1.00  0.00     0.163 HD
ATOM     32  O   UNL     1      -2.923  -6.295   5.133  1.00  0.00    -0.269 OA
BRANCH  30  33
ATOM     33  C   UNL     1      -3.162  -5.088   7.134  1.00  0.00     0.039 A 
ATOM     34  C   UNL     1      -3.690  -6.110   7.928  1.00  0.00     0.014 A 
ATOM     35  C   UNL     1      -3.280  -3.757   7.540  1.00  0.00     0.014 A 
ATOM     36  C   UNL     1      -4.254  -5.801   9.169  1.00  0.00     0.010 A 
ATOM     37  C   UNL     1      -3.763  -3.460   8.812  1.00  0.00     0.010 A 
ATOM     38  C   UNL     1      -4.252  -4.478   9.643  1.00  0.00    -0.014 A 
BRANCH  38  39
ATOM     39  C   UNL     1      -4.749  -4.148  11.006  1.00  0.00     0.031 A 
ATOM     40  C   UNL     1      -5.938  -3.241  11.181  1.00  0.00     0.074 A 
ATOM     41  C   UNL     1      -4.097  -4.621  12.087  1.00  0.00     0.049 A 
ATOM     42  N   UNL     1      -6.491  -2.808  12.286  1.00  0.00    -0.248 NA
ATOM     43  C   UNL     1      -6.573  -2.731   9.955  1.00  0.00     0.031 C 
ATOM     44  C   UNL     1      -2.895  -5.460  12.053  1.00  0.00     0.029 A 
ATOM     45  N   UNL     1      -4.348  -4.463  13.428  1.00  0.00    -0.354 N 
ATOM     46  C   UNL     1      -7.529  -1.973  11.889  1.00  0.00     0.074 A 
ATOM     47  C   UNL     1      -7.490  -1.909  10.445  1.00  0.00     0.031 C 
ATOM     48  C   UNL     1      -2.536  -5.769  13.310  1.00  0.00     0.029 A 
ATOM     49  C   UNL     1      -3.458  -5.126  14.241  1.00  0.00     0.049 A 
ATOM     50  H   UNL     1      -5.096  -3.924  13.775  1.00  0.00     0.167 HD
ATOM     51  C   UNL     1      -8.450  -1.341  12.655  1.00  0.00     0.037 A 
ATOM     52  C   UNL     1      -3.394  -5.209  15.584  1.00  0.00     0.037 A 
ATOM     53  C   UNL     1      -8.502  -1.427  14.091  1.00  0.00     0.049 A 
ATOM     54  C   UNL     1      -4.435  -4.505  16.413  1.00  0.00     0.074 A 
ATOM     55  C   UNL     1      -9.424  -0.861  14.955  1.00  0.00     0.029 A 
ATOM     56  N   UNL     1      -7.598  -2.128  14.876  1.00  0.00    -0.354 N 
ATOM     57  N   UNL     1      -5.445  -3.768  16.016  1.00  0.00    -0.248 NA
ATOM     58  C   UNL     1      -4.333  -4.651  17.871  1.00  0.00     0.031 C 
ATOM     59  C   UNL     1      -9.058  -1.193  16.264  1.00  0.00     0.029 A 
ATOM     60  C   UNL     1      -7.934  -2.001  16.213  1.00  0.00     0.049 A 
ATOM     61  H   UNL     1      -6.831  -2.640  14.532  1.00  0.00     0.167 HD
ATOM     62  C   UNL     1      -6.115  -3.388  17.173  1.00  0.00     0.074 A 
ATOM     63  C   UNL     1      -5.404  -3.987  18.284  1.00  0.00     0.031 C 
ATOM     64  C   UNL     1      -7.221  -2.614  17.306  1.00  0.00     0.037 A 
BRANCH  51  65
ATOM     65  C   UNL     1      -9.492  -0.516  11.949  1.00  0.00     0.058 A 
ATOM     66  C   UNL     1     -10.508  -1.116  11.187  1.00  0.00     0.135 A 
ATOM     67  C   UNL     1      -9.498   0.884  12.059  1.00  0.00     0.135 A 
ATOM     68  F   UNL     1     -10.540  -2.450  11.035  1.00  0.00    -0.206 F 
ATOM     69  C   UNL     1     -11.474  -0.358  10.536  1.00  0.00     0.059 A 
ATOM     70  C   UNL     1     -10.472   1.661  11.439  1.00  0.00     0.059 A 
ATOM     71  F   UNL     1      -8.550   1.510  12.775  1.00  0.00    -0.206 F 
ATOM     72  C   UNL     1     -11.448   1.031  10.667  1.00  0.00     0.060 A 
BRANCH  72  73
ATOM     73  S   UNL     1     -12.714   2.000   9.821  1.00  0.00     0.124 S 
ATOM     74  O   UNL     1     -12.271   1.907   8.433  1.00  0.00    -0.237 OA
ATOM     75  O   UNL     1     -13.935   1.269  10.145  1.00  0.00    -0.237 OA
ATOM     76  O   UNL     1     -12.597   3.320  10.430  1.00  0.00    -0.744 OA
ENDBRANCH  72  73
ENDBRANCH  51  65
BRANCH  52  77
ATOM     77  C   UNL     1      -2.329  -6.019  16.235  1.00  0.00     0.058 A 
ATOM     78  C   UNL     1      -2.638  -7.224  16.884  1.00  0.00     0.135 A 
ATOM     79  C   UNL     1      -0.988  -5.606  16.228  1.00  0.00     0.135 A 
ATOM     80  F   UNL     1      -3.907  -7.658  16.922  1.00  0.00    -0.206 F 
ATOM     81  C   UNL     1      -1.662  -7.979  17.526  1.00  0.00     0.059 A 
ATOM     82  C   UNL     1       0.011  -6.357  16.841  1.00  0.00     0.059 A 
ATOM     83  F   UNL     1      -0.636  -4.471  15.605  1.00  0.00    -0.206 F 
ATOM     84  C   UNL     1      -0.339  -7.536  17.500  1.00  0.00     0.060 A 
BRANCH  84  85
ATOM     85  S   UNL     1       0.928  -8.539  18.308  1.00  0.00     0.124 S 
ATOM     86  O   UNL     1       0.669  -8.258  19.716  1.00  0.00    -0.237 OA
ATOM     87  O   UNL     1       0.592  -9.884  17.853  1.00  0.00    -0.237 OA
ATOM     88  O   UNL     1       2.174  -7.997  17.774  1.00  0.00    -0.744 OA
ENDBRANCH  84  85
ENDBRANCH  52  77
BRANCH  64  89
ATOM     89  C   UNL     1      -7.751  -2.402  18.696  1.00  0.00     0.058 A 
ATOM     90  C   UNL     1      -7.095  -1.573  19.619  1.00  0.00     0.135 A 
ATOM     91  C   UNL     1      -8.951  -3.011  19.098  1.00  0.00     0.135 A 
ATOM     92  F   UNL     1      -5.942  -0.972  19.286  1.00  0.00    -0.206 F 
ATOM     93  C   UNL     1      -7.595  -1.378  20.902  1.00  0.00     0.059 A 
ATOM     94  C   UNL     1      -9.483  -2.809  20.368  1.00  0.00     0.059 A 
ATOM     95  F   UNL     1      -9.624  -3.805  18.250  1.00  0.00    -0.206 F 
ATOM     96  C   UNL     1      -8.789  -2.002  21.268  1.00  0.00     0.060 A 
BRANCH  96  97
ATOM     97  S   UNL     1      -9.438  -1.725  22.930  1.00  0.00     0.124 S 
ATOM     98  O   UNL     1      -8.558  -2.567  23.733  1.00  0.00    -0.237 OA
ATOM     99  O   UNL     1      -9.266  -0.286  23.099  1.00  0.00    -0.237 OA
ATOM    100  O   UNL     1     -10.823  -2.177  22.832  1.00  0.00    -0.744 OA
ENDBRANCH  96  97
ENDBRANCH  64  89
ENDBRANCH  38  39
ENDBRANCH  30  33
ENDBRANCH  28  29
ENDBRANCH  27  28
ENDBRANCH  26  27
ENDBRANCH   1  26
TORSDOF 19
