REMARK SMILES Cc1ccc(-c2nn(-c3ccccc3)cc2[C@@H]2[NH2+][C@H](C(=O)NCCCCNC(=O)c3ccc(-c4c5nc(c(-c6c(F)cc(S(=O)(=O)[O-])cc6F)c6ccc([nH]6)c(-c6c(F)cc(S(=O)(=O)[O-])cc6F)c6nc(c(-c7c(F)cc(S(=O)(=O)[O-])cc7F)c7ccc4[nH]7)C=C6)C=C5)cc3)CS2)cc1
REMARK SMILES IDX 25 1 24 2 23 3 22 4 20 5 21 6 19 8 17 9 18 10 97 11 96 14
REMARK SMILES IDX 16 15 6 16 7 17 8 18 15 19 5 20 1 21 2 22 3 23 99 24 4 25
REMARK SMILES IDX 98 26 9 27 10 28 14 29 11 30 13 31 12 32 26 33 27 34 28 35
REMARK SMILES IDX 29 37 30 38 31 39 95 40 32 41 94 42 33 43 34 44 35 45 88 46
REMARK SMILES IDX 36 47 93 48 87 49 89 50 37 51 92 52 86 53 85 54 38 56 72 57
REMARK SMILES IDX 51 58 71 59 52 60 55 61 70 62 90 63 53 64 54 65 69 67 91 68
REMARK SMILES IDX 56 69 39 70 40 71 49 72 41 73 42 74 48 75 50 76 43 77 44 78
REMARK SMILES IDX 45 79 46 80 47 81 73 82 74 83 83 84 75 85 76 86 82 87 84 88
REMARK SMILES IDX 77 89 78 90 79 91 80 92 81 93 57 94 58 95 67 96 59 97 60 98
REMARK SMILES IDX 66 99 68 100 61 101 62 102 63 103 64 104 65 105
REMARK H PARENT 22 7 18 12 18 13 27 36 89 55 55 66
REMARK Flexibility Score: inf
ROOT
ATOM      1  C   UNL     1      -3.775  -1.387  -3.378  1.00  0.00     0.023 C 
ENDROOT
BRANCH   1   2
ATOM      2  C   UNL     1      -4.330  -2.501  -2.419  1.00  0.00     0.023 C 
BRANCH   2   3
ATOM      3  C   UNL     1      -4.800  -2.165  -0.992  1.00  0.00     0.116 C 
BRANCH   3   4
ATOM      4  N   UNL     1      -5.569  -3.205  -0.308  1.00  0.00    -0.351 N 
ATOM      5  C   UNL     1      -5.960  -3.325   0.998  1.00  0.00     0.279 C 
ATOM      6  O   UNL     1      -6.980  -4.015   1.176  1.00  0.00    -0.268 OA
ATOM      7  H   UNL     1      -5.855  -3.947  -0.888  1.00  0.00     0.163 HD
BRANCH   5   8
ATOM      8  C   UNL     1      -5.231  -2.812   2.270  1.00  0.00     0.283 C 
ATOM      9  C   UNL     1      -3.938  -0.798   2.722  1.00  0.00     0.278 C 
ATOM     10  N   UNL     1      -3.919  -2.138   2.098  1.00  0.00    -0.320 N 
ATOM     11  S   UNL     1      -5.050  -0.960   4.137  1.00  0.00    -0.087 SA
ATOM     12  H   UNL     1      -3.192  -2.702   2.538  1.00  0.00     0.348 HD
ATOM     13  H   UNL     1      -3.729  -2.035   1.101  1.00  0.00     0.348 HD
ATOM     14  C   UNL     1      -6.170  -2.033   3.200  1.00  0.00     0.151 C 
BRANCH   9  15
ATOM     15  C   UNL     1      -4.404   0.153   1.676  1.00  0.00     0.067 A 
ATOM     16  C   UNL     1      -3.728   0.521   0.470  1.00  0.00     0.103 A 
ATOM     17  N   UNL     1      -4.641   0.960  -0.429  1.00  0.00    -0.167 NA
ATOM     18  N   UNL     1      -5.840   0.938   0.242  1.00  0.00    -0.240 N 
ATOM     19  C   UNL     1      -5.608   0.832   1.595  1.00  0.00     0.126 A 
BRANCH  16  20
ATOM     20  C   UNL     1      -2.281   0.345   0.183  1.00  0.00     0.003 A 
ATOM     21  C   UNL     1       2.051  -0.025  -0.097  1.00  0.00     0.044 C 
ATOM     22  C   UNL     1       0.560   0.110  -0.022  1.00  0.00    -0.051 A 
ATOM     23  C   UNL     1      -0.236  -1.022   0.129  1.00  0.00     0.004 A 
ATOM     24  C   UNL     1      -0.071   1.353  -0.115  1.00  0.00     0.004 A 
ATOM     25  C   UNL     1      -1.629  -0.899   0.241  1.00  0.00     0.011 A 
ATOM     26  C   UNL     1      -1.470   1.463  -0.018  1.00  0.00     0.011 A 
ENDBRANCH  16  20
BRANCH  18  27
ATOM     27  C   UNL     1      -7.123   0.656  -0.349  1.00  0.00     0.065 A 
ATOM     28  C   UNL     1      -7.211   0.164  -1.647  1.00  0.00     0.028 A 
ATOM     29  C   UNL     1      -8.302   0.702   0.405  1.00  0.00     0.028 A 
ATOM     30  C   UNL     1      -8.407  -0.363  -2.153  1.00  0.00     0.002 A 
ATOM     31  C   UNL     1      -9.526   0.288  -0.141  1.00  0.00     0.002 A 
ATOM     32  C   UNL     1      -9.578  -0.265  -1.414  1.00  0.00     0.000 A 
ENDBRANCH  18  27
ENDBRANCH   9  15
ENDBRANCH   5   8
ENDBRANCH   3   4
ENDBRANCH   2   3
ENDBRANCH   1   2
BRANCH   1  33
ATOM     33  C   UNL     1      -4.692  -0.414  -4.161  1.00  0.00     0.116 C 
BRANCH  33  34
ATOM     34  N   UNL     1      -4.534   1.012  -3.871  1.00  0.00    -0.352 N 
ATOM     35  C   UNL     1      -4.814   2.008  -4.798  1.00  0.00     0.251 C 
ATOM     36  H   UNL     1      -4.215   1.277  -2.978  1.00  0.00     0.163 HD
ATOM     37  O   UNL     1      -4.116   2.279  -5.775  1.00  0.00    -0.269 OA
BRANCH  35  38
ATOM     38  C   UNL     1      -6.112   2.688  -4.595  1.00  0.00     0.039 A 
ATOM     39  C   UNL     1      -6.213   4.064  -4.347  1.00  0.00     0.014 A 
ATOM     40  C   UNL     1      -7.237   1.876  -4.525  1.00  0.00     0.014 A 
ATOM     41  C   UNL     1      -7.393   4.572  -3.789  1.00  0.00     0.010 A 
ATOM     42  C   UNL     1      -8.389   2.371  -3.957  1.00  0.00     0.010 A 
ATOM     43  C   UNL     1      -8.426   3.684  -3.487  1.00  0.00    -0.014 A 
BRANCH  43  44
ATOM     44  C   UNL     1      -9.470   3.916  -2.491  1.00  0.00     0.031 A 
ATOM     45  C   UNL     1     -10.882   4.044  -2.887  1.00  0.00     0.074 A 
ATOM     46  C   UNL     1      -9.135   3.714  -1.196  1.00  0.00     0.049 A 
ATOM     47  N   UNL     1     -11.831   4.455  -2.120  1.00  0.00    -0.248 NA
ATOM     48  C   UNL     1     -11.334   3.739  -4.236  1.00  0.00     0.031 C 
ATOM     49  C   UNL     1     -10.020   3.537  -0.047  1.00  0.00     0.029 A 
ATOM     50  N   UNL     1      -7.864   3.773  -0.624  1.00  0.00    -0.354 N 
ATOM     51  C   UNL     1     -13.031   4.176  -2.740  1.00  0.00     0.074 A 
ATOM     52  C   UNL     1     -12.656   3.864  -4.096  1.00  0.00     0.031 C 
ATOM     53  C   UNL     1      -9.326   3.795   1.075  1.00  0.00     0.029 A 
ATOM     54  C   UNL     1      -8.021   4.292   0.661  1.00  0.00     0.049 A 
ATOM     55  H   UNL     1      -7.018   3.500  -1.046  1.00  0.00     0.167 HD
ATOM     56  C   UNL     1     -14.162   4.109  -1.971  1.00  0.00     0.037 A 
ATOM     57  C   UNL     1      -7.515   5.510   1.007  1.00  0.00     0.037 A 
ATOM     58  C   UNL     1     -13.867   4.608  -0.611  1.00  0.00     0.049 A 
ATOM     59  C   UNL     1      -8.648   6.478   1.279  1.00  0.00     0.074 A 
ATOM     60  C   UNL     1     -13.690   3.981   0.612  1.00  0.00     0.029 A 
ATOM     61  N   UNL     1     -13.371   5.909  -0.447  1.00  0.00    -0.354 N 
ATOM     62  N   UNL     1      -9.865   6.316   0.823  1.00  0.00    -0.248 NA
ATOM     63  C   UNL     1      -8.534   7.640   2.151  1.00  0.00     0.031 C 
ATOM     64  C   UNL     1     -12.938   4.859   1.449  1.00  0.00     0.029 A 
ATOM     65  C   UNL     1     -12.698   6.038   0.759  1.00  0.00     0.049 A 
ATOM     66  H   UNL     1     -13.485   6.635  -1.102  1.00  0.00     0.167 HD
ATOM     67  C   UNL     1     -10.692   7.257   1.361  1.00  0.00     0.074 A 
ATOM     68  C   UNL     1      -9.805   8.083   2.168  1.00  0.00     0.031 C 
ATOM     69  C   UNL     1     -12.042   7.291   1.140  1.00  0.00     0.037 A 
BRANCH  56  70
ATOM     70  C   UNL     1     -15.449   3.356  -2.353  1.00  0.00     0.058 A 
ATOM     71  C   UNL     1     -16.432   3.051  -1.379  1.00  0.00     0.135 A 
ATOM     72  C   UNL     1     -15.754   2.828  -3.629  1.00  0.00     0.135 A 
ATOM     73  F   UNL     1     -16.331   3.508  -0.123  1.00  0.00    -0.206 F 
ATOM     74  C   UNL     1     -17.564   2.255  -1.638  1.00  0.00     0.059 A 
ATOM     75  C   UNL     1     -16.863   2.022  -3.909  1.00  0.00     0.059 A 
ATOM     76  F   UNL     1     -15.013   3.071  -4.708  1.00  0.00    -0.206 F 
ATOM     77  C   UNL     1     -17.764   1.729  -2.906  1.00  0.00     0.060 A 
BRANCH  77  78
ATOM     78  S   UNL     1     -19.200   0.694  -3.249  1.00  0.00     0.124 S 
ATOM     79  O   UNL     1     -18.994  -0.428  -2.340  1.00  0.00    -0.237 OA
ATOM     80  O   UNL     1     -20.307   1.587  -2.922  1.00  0.00    -0.237 OA
ATOM     81  O   UNL     1     -19.061   0.374  -4.668  1.00  0.00    -0.744 OA
ENDBRANCH  77  78
ENDBRANCH  56  70
BRANCH  57  82
ATOM     82  C   UNL     1      -6.170   5.783   0.425  1.00  0.00     0.058 A 
ATOM     83  C   UNL     1      -5.092   5.039   0.948  1.00  0.00     0.135 A 
ATOM     84  C   UNL     1      -5.991   6.349  -0.846  1.00  0.00     0.135 A 
ATOM     85  F   UNL     1      -5.194   4.484   2.167  1.00  0.00    -0.206 F 
ATOM     86  C   UNL     1      -3.955   4.751   0.197  1.00  0.00     0.059 A 
ATOM     87  C   UNL     1      -4.856   6.067  -1.619  1.00  0.00     0.059 A 
ATOM     88  F   UNL     1      -6.984   7.042  -1.420  1.00  0.00    -0.206 F 
ATOM     89  C   UNL     1      -3.873   5.216  -1.112  1.00  0.00     0.060 A 
BRANCH  89  90
ATOM     90  S   UNL     1      -2.507   4.648  -2.162  1.00  0.00     0.124 S 
ATOM     91  O   UNL     1      -1.355   4.802  -1.278  1.00  0.00    -0.237 OA
ATOM     92  O   UNL     1      -2.901   3.274  -2.454  1.00  0.00    -0.237 OA
ATOM     93  O   UNL     1      -2.555   5.571  -3.291  1.00  0.00    -0.744 OA
ENDBRANCH  89  90
ENDBRANCH  57  82
BRANCH  69  94
ATOM     94  C   UNL     1     -12.875   8.521   1.389  1.00  0.00     0.058 A 
ATOM     95  C   UNL     1     -12.361   9.826   1.265  1.00  0.00     0.135 A 
ATOM     96  C   UNL     1     -14.267   8.427   1.606  1.00  0.00     0.135 A 
ATOM     97  F   UNL     1     -11.081  10.045   0.931  1.00  0.00    -0.206 F 
ATOM     98  C   UNL     1     -13.150  10.958   1.439  1.00  0.00     0.059 A 
ATOM     99  C   UNL     1     -15.086   9.547   1.721  1.00  0.00     0.059 A 
ATOM    100  F   UNL     1     -14.883   7.239   1.696  1.00  0.00    -0.206 F 
ATOM    101  C   UNL     1     -14.512  10.809   1.671  1.00  0.00     0.060 A 
BRANCH 101 102
ATOM    102  S   UNL     1     -15.539  12.275   1.855  1.00  0.00     0.124 S 
ATOM    103  O   UNL     1     -15.421  12.530   3.287  1.00  0.00    -0.237 OA
ATOM    104  O   UNL     1     -14.878  13.244   0.986  1.00  0.00    -0.237 OA
ATOM    105  O   UNL     1     -16.849  11.825   1.397  1.00  0.00    -0.744 OA
ENDBRANCH 101 102
ENDBRANCH  69  94
ENDBRANCH  43  44
ENDBRANCH  35  38
ENDBRANCH  33  34
ENDBRANCH   1  33
TORSDOF 17
