REMARK SMILES O=C(NCCCCNC(=O)c1cc(SC[C@H]2CCOC2)ccn1)c1ccc(-c2c3nc(c(-c4c(F)cc(S(=O)(=O)[O-])cc4F)c4ccc([nH]4)c(-c4c(F)cc(S(=O)(=O)[O-])cc4F)c4nc(c(-c5c(F)cc(S(=O)(=O)[O-])cc5F)c5ccc2[nH]5)C=C4)C=C3)cc1
REMARK SMILES IDX 5 1 4 2 3 3 1 4 2 5 24 7 25 8 89 9 26 10 88 11 27 12 28 13
REMARK SMILES IDX 29 14 82 15 30 16 87 17 81 18 83 19 31 20 86 21 80 22 79 23
REMARK SMILES IDX 32 25 66 26 45 27 65 28 46 29 49 30 64 31 84 32 47 33 48 34
REMARK SMILES IDX 63 36 85 37 50 38 33 39 34 40 43 41 35 42 36 43 42 44 44 45
REMARK SMILES IDX 37 46 38 47 39 48 40 49 41 50 67 51 68 52 77 53 69 54 70 55
REMARK SMILES IDX 76 56 78 57 71 58 72 59 73 60 74 61 75 62 51 63 52 64 61 65
REMARK SMILES IDX 53 66 54 67 60 68 62 69 55 70 56 71 57 72 58 73 59 74 6 75
REMARK SMILES IDX 7 76 8 77 9 78 10 80 11 81 12 82 23 83 13 84 22 85 21 86
REMARK SMILES IDX 14 87 15 88 16 89 17 90 20 91 18 92 19 93
REMARK H PARENT 3 6 83 24 49 35 8 79
REMARK Flexibility Score: inf
ROOT
ATOM      1  C   UNL     1      -0.859  -1.296   9.016  1.00  0.00     0.023 C 
ENDROOT
BRANCH   1   2
ATOM      2  C   UNL     1      -0.507  -2.776   9.148  1.00  0.00     0.116 C 
BRANCH   2   3
ATOM      3  N   UNL     1       0.886  -3.028   9.487  1.00  0.00    -0.352 N 
ATOM      4  O   UNL     1       2.639  -3.595  10.799  1.00  0.00    -0.269 OA
ATOM      5  C   UNL     1       1.426  -3.578  10.633  1.00  0.00     0.251 C 
ATOM      6  H   UNL     1       1.540  -2.768   8.799  1.00  0.00     0.163 HD
BRANCH   5   7
ATOM      7  C   UNL     1       0.534  -4.130  11.684  1.00  0.00     0.039 A 
ATOM      8  C   UNL     1      -0.536  -4.964  11.352  1.00  0.00     0.014 A 
ATOM      9  C   UNL     1       0.778  -3.817  13.025  1.00  0.00     0.014 A 
ATOM     10  C   UNL     1      -1.457  -5.335  12.329  1.00  0.00     0.010 A 
ATOM     11  C   UNL     1      -0.100  -4.269  14.019  1.00  0.00     0.010 A 
ATOM     12  C   UNL     1      -1.250  -4.995  13.675  1.00  0.00    -0.014 A 
BRANCH  12  13
ATOM     13  C   UNL     1      -2.223  -5.449  14.706  1.00  0.00     0.031 A 
ATOM     14  C   UNL     1      -3.024  -4.462  15.513  1.00  0.00     0.074 A 
ATOM     15  C   UNL     1      -2.394  -6.771  14.906  1.00  0.00     0.049 A 
ATOM     16  N   UNL     1      -3.909  -4.690  16.451  1.00  0.00    -0.248 NA
ATOM     17  C   UNL     1      -2.796  -3.034  15.241  1.00  0.00     0.031 C 
ATOM     18  C   UNL     1      -1.663  -7.828  14.203  1.00  0.00     0.029 A 
ATOM     19  N   UNL     1      -3.232  -7.453  15.752  1.00  0.00    -0.354 N 
ATOM     20  C   UNL     1      -4.328  -3.441  16.897  1.00  0.00     0.074 A 
ATOM     21  C   UNL     1      -3.581  -2.457  16.141  1.00  0.00     0.031 C 
ATOM     22  C   UNL     1      -2.099  -9.022  14.629  1.00  0.00     0.029 A 
ATOM     23  C   UNL     1      -3.097  -8.818  15.674  1.00  0.00     0.049 A 
ATOM     24  H   UNL     1      -3.868  -7.007  16.357  1.00  0.00     0.167 HD
ATOM     25  C   UNL     1      -5.252  -3.143  17.844  1.00  0.00     0.037 A 
ATOM     26  C   UNL     1      -3.685  -9.803  16.380  1.00  0.00     0.037 A 
ATOM     27  C   UNL     1      -6.003  -4.128  18.581  1.00  0.00     0.049 A 
ATOM     28  C   UNL     1      -4.699  -9.451  17.427  1.00  0.00     0.074 A 
ATOM     29  C   UNL     1      -7.001  -3.923  19.519  1.00  0.00     0.029 A 
ATOM     30  N   UNL     1      -5.834  -5.501  18.475  1.00  0.00    -0.354 N 
ATOM     31  N   UNL     1      -5.119  -8.265  17.798  1.00  0.00    -0.248 NA
ATOM     32  C   UNL     1      -5.322 -10.566  18.152  1.00  0.00     0.031 C 
ATOM     33  C   UNL     1      -7.402  -5.170  20.014  1.00  0.00     0.029 A 
ATOM     34  C   UNL     1      -6.688  -6.155  19.350  1.00  0.00     0.049 A 
ATOM     35  H   UNL     1      -5.200  -5.946  17.867  1.00  0.00     0.167 HD
ATOM     36  C   UNL     1      -6.061  -8.490  18.794  1.00  0.00     0.074 A 
ATOM     37  C   UNL     1      -6.162  -9.927  18.956  1.00  0.00     0.031 C 
ATOM     38  C   UNL     1      -6.775  -7.586  19.509  1.00  0.00     0.037 A 
BRANCH  25  39
ATOM     39  C   UNL     1      -5.485  -1.689  18.157  1.00  0.00     0.058 A 
ATOM     40  C   UNL     1      -6.147  -0.833  17.262  1.00  0.00     0.135 A 
ATOM     41  C   UNL     1      -5.060  -1.149  19.383  1.00  0.00     0.135 A 
ATOM     42  F   UNL     1      -6.567  -1.292  16.073  1.00  0.00    -0.206 F 
ATOM     43  C   UNL     1      -6.343   0.514  17.553  1.00  0.00     0.059 A 
ATOM     44  C   UNL     1      -5.269   0.189  19.706  1.00  0.00     0.059 A 
ATOM     45  F   UNL     1      -4.429  -1.923  20.279  1.00  0.00    -0.206 F 
ATOM     46  C   UNL     1      -5.893   1.018  18.775  1.00  0.00     0.060 A 
BRANCH  46  47
ATOM     47  S   UNL     1      -6.128   2.773  19.128  1.00  0.00     0.124 S 
ATOM     48  O   UNL     1      -5.104   3.378  18.282  1.00  0.00    -0.237 OA
ATOM     49  O   UNL     1      -7.508   2.997  18.709  1.00  0.00    -0.237 OA
ATOM     50  O   UNL     1      -5.890   2.866  20.565  1.00  0.00    -0.744 OA
ENDBRANCH  46  47
ENDBRANCH  25  39
BRANCH  26  51
ATOM     51  C   UNL     1      -3.298 -11.212  16.112  1.00  0.00     0.058 A 
ATOM     52  C   UNL     1      -4.159 -12.087  15.437  1.00  0.00     0.135 A 
ATOM     53  C   UNL     1      -2.023 -11.685  16.463  1.00  0.00     0.135 A 
ATOM     54  F   UNL     1      -5.389 -11.681  15.086  1.00  0.00    -0.206 F 
ATOM     55  C   UNL     1      -3.769 -13.382  15.112  1.00  0.00     0.059 A 
ATOM     56  C   UNL     1      -1.601 -12.966  16.127  1.00  0.00     0.059 A 
ATOM     57  F   UNL     1      -1.157 -10.877  17.095  1.00  0.00    -0.206 F 
ATOM     58  C   UNL     1      -2.483 -13.809  15.452  1.00  0.00     0.060 A 
BRANCH  58  59
ATOM     59  S   UNL     1      -1.952 -15.457  14.942  1.00  0.00     0.124 S 
ATOM     60  O   UNL     1      -2.663 -16.302  15.894  1.00  0.00    -0.237 OA
ATOM     61  O   UNL     1      -2.418 -15.518  13.560  1.00  0.00    -0.237 OA
ATOM     62  O   UNL     1      -0.501 -15.406  15.102  1.00  0.00    -0.744 OA
ENDBRANCH  58  59
ENDBRANCH  26  51
BRANCH  38  63
ATOM     63  C   UNL     1      -7.744  -8.120  20.527  1.00  0.00     0.058 A 
ATOM     64  C   UNL     1      -7.305  -8.653  21.749  1.00  0.00     0.135 A 
ATOM     65  C   UNL     1      -9.127  -8.046  20.302  1.00  0.00     0.135 A 
ATOM     66  F   UNL     1      -5.992  -8.757  22.009  1.00  0.00    -0.206 F 
ATOM     67  C   UNL     1      -8.205  -9.106  22.708  1.00  0.00     0.059 A 
ATOM     68  C   UNL     1     -10.046  -8.471  21.256  1.00  0.00     0.059 A 
ATOM     69  F   UNL     1      -9.599  -7.539  19.151  1.00  0.00    -0.206 F 
ATOM     70  C   UNL     1      -9.575  -9.007  22.454  1.00  0.00     0.060 A 
BRANCH  70  71
ATOM     71  S   UNL     1     -10.734  -9.553  23.726  1.00  0.00     0.124 S 
ATOM     72  O   UNL     1     -10.635 -11.005  23.610  1.00  0.00    -0.237 OA
ATOM     73  O   UNL     1     -10.166  -8.973  24.939  1.00  0.00    -0.237 OA
ATOM     74  O   UNL     1     -12.005  -8.975  23.298  1.00  0.00    -0.744 OA
ENDBRANCH  70  71
ENDBRANCH  38  63
ENDBRANCH  12  13
ENDBRANCH   5   7
ENDBRANCH   2   3
ENDBRANCH   1   2
BRANCH   1  75
ATOM     75  C   UNL     1      -0.179  -0.539   7.878  1.00  0.00     0.023 C 
BRANCH  75  76
ATOM     76  C   UNL     1      -0.301  -1.184   6.506  1.00  0.00     0.116 C 
BRANCH  76  77
ATOM     77  N   UNL     1      -1.634  -1.237   5.942  1.00  0.00    -0.351 N 
ATOM     78  C   UNL     1      -1.945  -1.273   4.594  1.00  0.00     0.269 C 
ATOM     79  H   UNL     1      -2.388  -1.247   6.576  1.00  0.00     0.163 HD
ATOM     80  O   UNL     1      -3.079  -1.546   4.214  1.00  0.00    -0.268 OA
BRANCH  78  81
ATOM     81  C   UNL     1      -0.872  -0.964   3.607  1.00  0.00     0.129 A 
ATOM     82  C   UNL     1       0.062  -1.936   3.249  1.00  0.00     0.049 A 
ATOM     83  N   UNL     1      -0.830   0.328   3.196  1.00  0.00    -0.251 NA
ATOM     84  C   UNL     1       1.153  -1.538   2.481  1.00  0.00     0.011 A 
ATOM     85  C   UNL     1       0.187   0.664   2.387  1.00  0.00     0.113 A 
ATOM     86  C   UNL     1       1.192  -0.215   2.021  1.00  0.00     0.035 A 
BRANCH  84  87
ATOM     87  S   UNL     1       2.519  -2.575   1.971  1.00  0.00    -0.126 SA
BRANCH  87  88
ATOM     88  C   UNL     1       2.713  -3.873   3.255  1.00  0.00     0.081 C 
BRANCH  88  89
ATOM     89  C   UNL     1       3.288  -3.529   4.640  1.00  0.00     0.027 C 
ATOM     90  C   UNL     1       4.024  -2.224   4.859  1.00  0.00     0.035 C 
ATOM     91  C   UNL     1       2.206  -3.475   5.694  1.00  0.00     0.164 C 
ATOM     92  C   UNL     1       3.809  -1.925   6.335  1.00  0.00     0.160 C 
ATOM     93  O   UNL     1       2.686  -2.692   6.784  1.00  0.00    -0.381 OA
ENDBRANCH  88  89
ENDBRANCH  87  88
ENDBRANCH  84  87
ENDBRANCH  78  81
ENDBRANCH  76  77
ENDBRANCH  75  76
ENDBRANCH   1  75
TORSDOF 17
