REMARK SMILES CO[C@H]1C[C@@H](C(=O)NCCCCNC(=O)c2ccc(-c3c4nc(c(-c5c(F)cc(S(=O)(=O)[O-])cc5F)c5ccc([nH]5)c(-c5c(F)cc(S(=O)(=O)[O-])cc5F)c5nc(c(-c6c(F)cc(S(=O)(=O)[O-])cc6F)c6ccc3[nH]6)C=C5)C=C4)cc2)N(C(=O)Nc2cc(C)cc(F)c2)C1
REMARK SMILES IDX 11 1 10 2 9 3 8 4 6 5 7 6 5 8 3 9 4 10 94 11 82 12 2 13 1 14
REMARK SMILES IDX 83 15 84 16 85 17 86 19 87 20 93 21 88 22 91 23 89 24 90 25
REMARK SMILES IDX 92 26 12 27 13 28 14 29 15 31 16 32 17 33 81 34 18 35 80 36
REMARK SMILES IDX 19 37 20 38 21 39 74 40 22 41 79 42 73 43 75 44 23 45 78 46
REMARK SMILES IDX 72 47 71 48 24 50 58 51 37 52 57 53 38 54 41 55 56 56 76 57
REMARK SMILES IDX 39 58 40 59 55 61 77 62 42 63 25 64 26 65 35 66 27 67 28 68
REMARK SMILES IDX 34 69 36 70 29 71 30 72 31 73 32 74 33 75 59 76 60 77 69 78
REMARK SMILES IDX 61 79 62 80 68 81 70 82 63 83 64 84 65 85 66 86 67 87 43 88
REMARK SMILES IDX 44 89 53 90 45 91 46 92 52 93 54 94 47 95 48 96 49 97 50 98
REMARK SMILES IDX 51 99
REMARK H PARENT 8 7 85 18 13 30 75 49 41 60
REMARK Flexibility Score: inf
ROOT
ATOM      1  C   UNL     1       2.836   7.194  -1.932  1.00  0.00     0.023 C 
ENDROOT
BRANCH   1   2
ATOM      2  C   UNL     1       1.896   6.144  -2.513  1.00  0.00     0.023 C 
BRANCH   2   3
ATOM      3  C   UNL     1       2.497   4.803  -2.940  1.00  0.00     0.116 C 
BRANCH   3   4
ATOM      4  N   UNL     1       3.370   4.151  -1.986  1.00  0.00    -0.354 N 
ATOM      5  C   UNL     1       3.169   3.115  -1.131  1.00  0.00     0.242 C 
ATOM      6  O   UNL     1       4.188   2.565  -0.691  1.00  0.00    -0.273 OA
ATOM      7  H   UNL     1       4.278   4.529  -1.952  1.00  0.00     0.163 HD
BRANCH   5   8
ATOM      8  C   UNL     1       1.784   2.652  -0.613  1.00  0.00     0.179 C 
ATOM      9  C   UNL     1       0.713   1.268  -2.281  1.00  0.00     0.140 C 
ATOM     10  C   UNL     1       1.598   1.191  -1.043  1.00  0.00     0.069 C 
ATOM     11  C   UNL     1      -0.127   2.527  -2.041  1.00  0.00     0.154 C 
ATOM     12  N   UNL     1       0.562   3.327  -1.019  1.00  0.00    -0.310 N 
BRANCH   9  13
ATOM     13  O   UNL     1       1.446   1.411  -3.498  1.00  0.00    -0.380 OA
ATOM     14  C   UNL     1       2.311   0.319  -3.791  1.00  0.00     0.195 C 
ENDBRANCH   9  13
BRANCH  12  15
ATOM     15  C   UNL     1      -0.116   4.379  -0.494  1.00  0.00     0.322 C 
ATOM     16  O   UNL     1      -1.195   4.719  -1.007  1.00  0.00    -0.248 OA
ATOM     17  N   UNL     1       0.204   5.080   0.612  1.00  0.00    -0.308 N 
ATOM     18  H   UNL     1      -0.554   5.657   0.862  1.00  0.00     0.171 HD
BRANCH  17  19
ATOM     19  C   UNL     1       1.252   5.267   1.526  1.00  0.00     0.046 A 
ATOM     20  C   UNL     1       0.921   5.828   2.770  1.00  0.00     0.029 A 
ATOM     21  C   UNL     1       2.590   5.036   1.282  1.00  0.00     0.065 A 
ATOM     22  C   UNL     1       1.886   6.008   3.780  1.00  0.00    -0.046 A 
ATOM     23  C   UNL     1       3.546   5.157   2.285  1.00  0.00     0.125 A 
ATOM     24  C   UNL     1       1.535   6.707   5.058  1.00  0.00     0.044 C 
ATOM     25  C   UNL     1       3.203   5.618   3.541  1.00  0.00     0.042 A 
ATOM     26  F   UNL     1       4.825   4.865   2.014  1.00  0.00    -0.207 F 
ENDBRANCH  17  19
ENDBRANCH  12  15
ENDBRANCH   5   8
ENDBRANCH   3   4
ENDBRANCH   2   3
ENDBRANCH   1   2
BRANCH   1  27
ATOM     27  C   UNL     1       4.115   7.429  -2.712  1.00  0.00     0.116 C 
BRANCH  27  28
ATOM     28  N   UNL     1       3.870   7.698  -4.117  1.00  0.00    -0.352 N 
ATOM     29  C   UNL     1       4.436   8.639  -4.939  1.00  0.00     0.251 C 
ATOM     30  H   UNL     1       3.199   7.118  -4.544  1.00  0.00     0.163 HD
ATOM     31  O   UNL     1       3.996   8.793  -6.072  1.00  0.00    -0.269 OA
BRANCH  29  32
ATOM     32  C   UNL     1       5.547   9.479  -4.446  1.00  0.00     0.039 A 
ATOM     33  C   UNL     1       5.562  10.832  -4.793  1.00  0.00     0.014 A 
ATOM     34  C   UNL     1       6.569   8.945  -3.656  1.00  0.00     0.014 A 
ATOM     35  C   UNL     1       6.584  11.654  -4.318  1.00  0.00     0.010 A 
ATOM     36  C   UNL     1       7.529   9.784  -3.104  1.00  0.00     0.010 A 
ATOM     37  C   UNL     1       7.561  11.142  -3.450  1.00  0.00    -0.014 A 
BRANCH  37  38
ATOM     38  C   UNL     1       8.654  12.001  -2.933  1.00  0.00     0.031 A 
ATOM     39  C   UNL     1      10.082  11.689  -3.294  1.00  0.00     0.074 A 
ATOM     40  C   UNL     1       8.363  13.029  -2.113  1.00  0.00     0.049 A 
ATOM     41  N   UNL     1      11.181  12.286  -2.910  1.00  0.00    -0.248 NA
ATOM     42  C   UNL     1      10.309  10.534  -4.180  1.00  0.00     0.031 C 
ATOM     43  C   UNL     1       7.019  13.395  -1.659  1.00  0.00     0.029 A 
ATOM     44  N   UNL     1       9.178  13.954  -1.514  1.00  0.00    -0.354 N 
ATOM     45  C   UNL     1      12.222  11.576  -3.497  1.00  0.00     0.074 A 
ATOM     46  C   UNL     1      11.631  10.463  -4.205  1.00  0.00     0.031 C 
ATOM     47  C   UNL     1       7.100  14.486  -0.880  1.00  0.00     0.029 A 
ATOM     48  C   UNL     1       8.501  14.873  -0.748  1.00  0.00     0.049 A 
ATOM     49  H   UNL     1      10.157  13.960  -1.623  1.00  0.00     0.167 HD
ATOM     50  C   UNL     1      13.549  11.846  -3.474  1.00  0.00     0.037 A 
ATOM     51  C   UNL     1       8.961  15.909  -0.020  1.00  0.00     0.037 A 
ATOM     52  C   UNL     1      14.123  12.972  -2.786  1.00  0.00     0.049 A 
ATOM     53  C   UNL     1      10.441  16.186  -0.008  1.00  0.00     0.074 A 
ATOM     54  C   UNL     1      15.449  13.363  -2.730  1.00  0.00     0.029 A 
ATOM     55  N   UNL     1      13.403  13.891  -2.035  1.00  0.00    -0.354 N 
ATOM     56  N   UNL     1      11.408  15.536  -0.612  1.00  0.00    -0.248 NA
ATOM     57  C   UNL     1      10.891  17.345   0.773  1.00  0.00     0.031 C 
ATOM     58  C   UNL     1      15.536  14.493  -1.911  1.00  0.00     0.029 A 
ATOM     59  C   UNL     1      14.258  14.841  -1.502  1.00  0.00     0.049 A 
ATOM     60  H   UNL     1      12.428  13.871  -1.902  1.00  0.00     0.167 HD
ATOM     61  C   UNL     1      12.576  16.228  -0.312  1.00  0.00     0.074 A 
ATOM     62  C   UNL     1      12.192  17.352   0.517  1.00  0.00     0.031 C 
ATOM     63  C   UNL     1      13.852  15.961  -0.690  1.00  0.00     0.037 A 
BRANCH  50  64
ATOM     64  C   UNL     1      14.463  10.915  -4.224  1.00  0.00     0.058 A 
ATOM     65  C   UNL     1      14.457  10.847  -5.627  1.00  0.00     0.135 A 
ATOM     66  C   UNL     1      15.378  10.101  -3.537  1.00  0.00     0.135 A 
ATOM     67  F   UNL     1      13.591  11.588  -6.337  1.00  0.00    -0.206 F 
ATOM     68  C   UNL     1      15.300   9.984  -6.320  1.00  0.00     0.059 A 
ATOM     69  C   UNL     1      16.254   9.254  -4.210  1.00  0.00     0.059 A 
ATOM     70  F   UNL     1      15.428  10.122  -2.195  1.00  0.00    -0.206 F 
ATOM     71  C   UNL     1      16.197   9.192  -5.602  1.00  0.00     0.060 A 
BRANCH  71  72
ATOM     72  S   UNL     1      17.292   8.087  -6.517  1.00  0.00     0.124 S 
ATOM     73  O   UNL     1      16.358   7.061  -6.971  1.00  0.00    -0.237 OA
ATOM     74  O   UNL     1      17.822   8.965  -7.556  1.00  0.00    -0.237 OA
ATOM     75  O   UNL     1      18.259   7.655  -5.512  1.00  0.00    -0.744 OA
ENDBRANCH  71  72
ENDBRANCH  50  64
BRANCH  51  76
ATOM     76  C   UNL     1       8.012  16.777   0.727  1.00  0.00     0.058 A 
ATOM     77  C   UNL     1       7.786  18.105   0.334  1.00  0.00     0.135 A 
ATOM     78  C   UNL     1       7.311  16.300   1.845  1.00  0.00     0.135 A 
ATOM     79  F   UNL     1       8.434  18.609  -0.728  1.00  0.00    -0.206 F 
ATOM     80  C   UNL     1       6.921  18.937   1.036  1.00  0.00     0.059 A 
ATOM     81  C   UNL     1       6.418  17.104   2.547  1.00  0.00     0.059 A 
ATOM     82  F   UNL     1       7.475  15.032   2.252  1.00  0.00    -0.206 F 
ATOM     83  C   UNL     1       6.240  18.427   2.143  1.00  0.00     0.060 A 
BRANCH  83  84
ATOM     84  S   UNL     1       5.096  19.506   3.029  1.00  0.00     0.124 S 
ATOM     85  O   UNL     1       6.015  20.409   3.713  1.00  0.00    -0.237 OA
ATOM     86  O   UNL     1       4.319  20.090   1.940  1.00  0.00    -0.237 OA
ATOM     87  O   UNL     1       4.361  18.583   3.888  1.00  0.00    -0.744 OA
ENDBRANCH  83  84
ENDBRANCH  51  76
BRANCH  63  88
ATOM     88  C   UNL     1      14.917  16.929  -0.255  1.00  0.00     0.058 A 
ATOM     89  C   UNL     1      15.338  17.019   1.081  1.00  0.00     0.135 A 
ATOM     90  C   UNL     1      15.553  17.751  -1.200  1.00  0.00     0.135 A 
ATOM     91  F   UNL     1      14.761  16.259   2.025  1.00  0.00    -0.206 F 
ATOM     92  C   UNL     1      16.328  17.915   1.470  1.00  0.00     0.059 A 
ATOM     93  C   UNL     1      16.567  18.630  -0.839  1.00  0.00     0.059 A 
ATOM     94  F   UNL     1      15.197  17.695  -2.494  1.00  0.00    -0.206 F 
ATOM     95  C   UNL     1      16.937  18.717   0.503  1.00  0.00     0.060 A 
BRANCH  95  96
ATOM     96  S   UNL     1      18.234  19.861   1.018  1.00  0.00     0.124 S 
ATOM     97  O   UNL     1      17.460  20.896   1.696  1.00  0.00    -0.237 OA
ATOM     98  O   UNL     1      19.064  19.024   1.879  1.00  0.00    -0.237 OA
ATOM     99  O   UNL     1      18.853  20.263  -0.241  1.00  0.00    -0.744 OA
ENDBRANCH  95  96
ENDBRANCH  63  88
ENDBRANCH  37  38
ENDBRANCH  29  32
ENDBRANCH  27  28
ENDBRANCH   1  27
TORSDOF 17
