REMARK SMILES O=C(NCCCCNC(=O)c1ccc(-c2c3nc(c(-c4c(F)cc(S(=O)(=O)[O-])cc4F)c4ccc([nH]4)c(-c4c(F)cc(S(=O)(=O)[O-])cc4F)c4nc(c(-c5c(F)cc(S(=O)(=O)[O-])cc5F)c5ccc2[nH]5)C=C4)C=C3)cc1)C1=Cc2c(cc(Cl)c(Cl)c2Cl)O[C@H]1C(F)(F)F
REMARK SMILES IDX 6 1 5 2 4 3 3 4 1 5 2 6 77 8 78 9 89 10 79 11 88 12 80 13
REMARK SMILES IDX 86 14 81 15 84 16 87 17 82 18 85 19 83 20 90 21 91 22 92 23
REMARK SMILES IDX 93 24 7 25 8 26 9 27 10 29 11 30 12 31 76 32 13 33 75 34
REMARK SMILES IDX 14 35 15 36 16 37 69 38 17 39 74 40 68 41 70 42 18 43 73 44
REMARK SMILES IDX 67 45 66 46 19 48 53 49 32 50 52 51 33 52 36 53 51 54 71 55
REMARK SMILES IDX 34 56 35 57 50 59 72 60 37 61 20 62 21 63 30 64 22 65 23 66
REMARK SMILES IDX 29 67 31 68 24 69 25 70 26 71 27 72 28 73 54 74 55 75 64 76
REMARK SMILES IDX 56 77 57 78 63 79 65 80 58 81 59 82 60 83 61 84 62 85 38 86
REMARK SMILES IDX 39 87 48 88 40 89 41 90 47 91 49 92 42 93 43 94 44 95 45 96
REMARK SMILES IDX 46 97
REMARK H PARENT 3 7 8 28 70 47 36 58
REMARK Flexibility Score: inf
ROOT
ATOM      1  C   UNL     1       3.796   1.265  -3.998  1.00  0.00     0.023 C 
ENDROOT
BRANCH   1   2
ATOM      2  C   UNL     1       4.128   0.067  -3.115  1.00  0.00     0.023 C 
BRANCH   2   3
ATOM      3  C   UNL     1       3.884   0.247  -1.623  1.00  0.00     0.116 C 
BRANCH   3   4
ATOM      4  N   UNL     1       2.509   0.100  -1.181  1.00  0.00    -0.352 N 
ATOM      5  O   UNL     1       0.843  -0.312   0.294  1.00  0.00    -0.270 OA
ATOM      6  C   UNL     1       2.041  -0.155   0.084  1.00  0.00     0.251 C 
ATOM      7  H   UNL     1       1.823   0.196  -1.880  1.00  0.00     0.163 HD
BRANCH   6   8
ATOM      8  C   UNL     1       2.997  -0.282   1.218  1.00  0.00     0.067 C 
ATOM      9  C   UNL     1       3.529   0.870   1.658  1.00  0.00     0.027 C 
ATOM     10  C   UNL     1       3.745  -1.585   1.291  1.00  0.00     0.314 C 
ATOM     11  C   UNL     1       4.973   0.996   1.372  1.00  0.00     0.037 A 
ATOM     12  O   UNL     1       5.195  -1.433   1.259  1.00  0.00    -0.475 OA
ATOM     13  C   UNL     1       5.706  -0.170   1.119  1.00  0.00     0.131 A 
ATOM     14  C   UNL     1       5.559   2.259   1.143  1.00  0.00     0.072 A 
ATOM     15  C   UNL     1       6.993  -0.086   0.598  1.00  0.00     0.069 A 
ATOM     16  C   UNL     1       6.846   2.344   0.584  1.00  0.00     0.079 A 
ATOM     17  Cl  UNL     1       4.634   3.695   1.477  1.00  0.00    -0.082 Cl
ATOM     18  C   UNL     1       7.548   1.162   0.300  1.00  0.00     0.064 A 
ATOM     19  Cl  UNL     1       7.534   3.888   0.191  1.00  0.00    -0.081 Cl
ATOM     20  Cl  UNL     1       9.093   1.162  -0.476  1.00  0.00    -0.083 Cl
BRANCH  10  21
ATOM     21  C   UNL     1       3.320  -2.419   2.520  1.00  0.00     0.429 C 
ATOM     22  F   UNL     1       2.368  -1.818   3.270  1.00  0.00    -0.167 F 
ATOM     23  F   UNL     1       2.831  -3.625   2.143  1.00  0.00    -0.167 F 
ATOM     24  F   UNL     1       4.365  -2.661   3.351  1.00  0.00    -0.167 F 
ENDBRANCH  10  21
ENDBRANCH   6   8
ENDBRANCH   3   4
ENDBRANCH   2   3
ENDBRANCH   1   2
BRANCH   1  25
ATOM     25  C   UNL     1       4.428   2.603  -3.614  1.00  0.00     0.116 C 
BRANCH  25  26
ATOM     26  N   UNL     1       5.882   2.588  -3.509  1.00  0.00    -0.352 N 
ATOM     27  C   UNL     1       6.815   3.455  -4.046  1.00  0.00     0.251 C 
ATOM     28  H   UNL     1       6.256   1.849  -2.976  1.00  0.00     0.163 HD
ATOM     29  O   UNL     1       8.008   3.259  -3.863  1.00  0.00    -0.269 OA
BRANCH  27  30
ATOM     30  C   UNL     1       6.367   4.570  -4.914  1.00  0.00     0.039 A 
ATOM     31  C   UNL     1       6.938   4.691  -6.185  1.00  0.00     0.014 A 
ATOM     32  C   UNL     1       5.326   5.415  -4.529  1.00  0.00     0.014 A 
ATOM     33  C   UNL     1       6.359   5.550  -7.122  1.00  0.00     0.010 A 
ATOM     34  C   UNL     1       4.703   6.214  -5.485  1.00  0.00     0.010 A 
ATOM     35  C   UNL     1       5.185   6.250  -6.803  1.00  0.00    -0.014 A 
BRANCH  35  36
ATOM     36  C   UNL     1       4.377   6.917  -7.858  1.00  0.00     0.031 A 
ATOM     37  C   UNL     1       4.132   8.396  -7.823  1.00  0.00     0.074 A 
ATOM     38  C   UNL     1       3.759   6.153  -8.784  1.00  0.00     0.049 A 
ATOM     39  N   UNL     1       3.366   9.123  -8.595  1.00  0.00    -0.248 NA
ATOM     40  C   UNL     1       4.815   9.153  -6.764  1.00  0.00     0.031 C 
ATOM     41  C   UNL     1       3.855   4.694  -8.877  1.00  0.00     0.029 A 
ATOM     42  N   UNL     1       2.908   6.491  -9.807  1.00  0.00    -0.354 N 
ATOM     43  C   UNL     1       3.461  10.420  -8.109  1.00  0.00     0.074 A 
ATOM     44  C   UNL     1       4.327  10.371  -6.948  1.00  0.00     0.031 C 
ATOM     45  C   UNL     1       3.099   4.264  -9.899  1.00  0.00     0.029 A 
ATOM     46  C   UNL     1       2.435   5.410 -10.513  1.00  0.00     0.049 A 
ATOM     47  H   UNL     1       2.658   7.421 -10.015  1.00  0.00     0.167 HD
ATOM     48  C   UNL     1       2.892  11.550  -8.595  1.00  0.00     0.037 A 
ATOM     49  C   UNL     1       1.553   5.339 -11.528  1.00  0.00     0.037 A 
ATOM     50  C   UNL     1       2.042  11.594  -9.756  1.00  0.00     0.049 A 
ATOM     51  C   UNL     1       0.945   6.603 -12.062  1.00  0.00     0.074 A 
ATOM     52  C   UNL     1       1.480  12.699 -10.372  1.00  0.00     0.029 A 
ATOM     53  N   UNL     1       1.619  10.481 -10.470  1.00  0.00    -0.354 N 
ATOM     54  N   UNL     1       1.116   7.835 -11.644  1.00  0.00    -0.248 NA
ATOM     55  C   UNL     1       0.029   6.474 -13.203  1.00  0.00     0.031 C 
ATOM     56  C   UNL     1       0.689  12.251 -11.437  1.00  0.00     0.029 A 
ATOM     57  C   UNL     1       0.784  10.870 -11.505  1.00  0.00     0.049 A 
ATOM     58  H   UNL     1       1.875   9.552 -10.271  1.00  0.00     0.167 HD
ATOM     59  C   UNL     1       0.334   8.629 -12.473  1.00  0.00     0.074 A 
ATOM     60  C   UNL     1      -0.297   7.740 -13.429  1.00  0.00     0.031 C 
ATOM     61  C   UNL     1       0.153   9.972 -12.442  1.00  0.00     0.037 A 
BRANCH  48  62
ATOM     62  C   UNL     1       3.177  12.830  -7.859  1.00  0.00     0.058 A 
ATOM     63  C   UNL     1       4.444  13.433  -7.902  1.00  0.00     0.135 A 
ATOM     64  C   UNL     1       2.179  13.455  -7.096  1.00  0.00     0.135 A 
ATOM     65  F   UNL     1       5.438  12.870  -8.608  1.00  0.00    -0.206 F 
ATOM     66  C   UNL     1       4.726  14.584  -7.174  1.00  0.00     0.059 A 
ATOM     67  C   UNL     1       2.431  14.621  -6.379  1.00  0.00     0.059 A 
ATOM     68  F   UNL     1       0.949  12.922  -7.024  1.00  0.00    -0.206 F 
ATOM     69  C   UNL     1       3.715  15.165  -6.406  1.00  0.00     0.060 A 
BRANCH  69  70
ATOM     70  S   UNL     1       4.104  16.634  -5.432  1.00  0.00     0.124 S 
ATOM     71  O   UNL     1       4.825  16.051  -4.304  1.00  0.00    -0.237 OA
ATOM     72  O   UNL     1       4.910  17.423  -6.358  1.00  0.00    -0.237 OA
ATOM     73  O   UNL     1       2.791  17.190  -5.119  1.00  0.00    -0.744 OA
ENDBRANCH  69  70
ENDBRANCH  48  62
BRANCH  49  74
ATOM     74  C   UNL     1       1.205   4.012 -12.101  1.00  0.00     0.058 A 
ATOM     75  C   UNL     1       1.716   3.606 -13.341  1.00  0.00     0.135 A 
ATOM     76  C   UNL     1       0.406   3.102 -11.391  1.00  0.00     0.135 A 
ATOM     77  F   UNL     1       2.479   4.444 -14.059  1.00  0.00    -0.206 F 
ATOM     78  C   UNL     1       1.455   2.340 -13.857  1.00  0.00     0.059 A 
ATOM     79  C   UNL     1       0.146   1.825 -11.876  1.00  0.00     0.059 A 
ATOM     80  F   UNL     1      -0.092   3.439 -10.191  1.00  0.00    -0.206 F 
ATOM     81  C   UNL     1       0.675   1.453 -13.112  1.00  0.00     0.060 A 
BRANCH  81  82
ATOM     82  S   UNL     1       0.421  -0.221 -13.742  1.00  0.00     0.124 S 
ATOM     83  O   UNL     1      -0.574   0.004 -14.783  1.00  0.00    -0.237 OA
ATOM     84  O   UNL     1       1.758  -0.583 -14.204  1.00  0.00    -0.237 OA
ATOM     85  O   UNL     1      -0.044  -0.953 -12.567  1.00  0.00    -0.744 OA
ENDBRANCH  81  82
ENDBRANCH  49  74
BRANCH  61  86
ATOM     86  C   UNL     1      -0.767  10.567 -13.469  1.00  0.00     0.058 A 
ATOM     87  C   UNL     1      -2.161  10.456 -13.351  1.00  0.00     0.135 A 
ATOM     88  C   UNL     1      -0.254  11.306 -14.547  1.00  0.00     0.135 A 
ATOM     89  F   UNL     1      -2.699   9.751 -12.344  1.00  0.00    -0.206 F 
ATOM     90  C   UNL     1      -3.017  11.052 -14.272  1.00  0.00     0.059 A 
ATOM     91  C   UNL     1      -1.092  11.927 -15.468  1.00  0.00     0.059 A 
ATOM     92  F   UNL     1       1.072  11.445 -14.701  1.00  0.00    -0.206 F 
ATOM     93  C   UNL     1      -2.472  11.788 -15.326  1.00  0.00     0.060 A 
BRANCH  93  94
ATOM     94  S   UNL     1      -3.593  12.600 -16.486  1.00  0.00     0.124 S 
ATOM     95  O   UNL     1      -4.036  11.475 -17.302  1.00  0.00    -0.237 OA
ATOM     96  O   UNL     1      -4.599  13.176 -15.600  1.00  0.00    -0.237 OA
ATOM     97  O   UNL     1      -2.736  13.568 -17.163  1.00  0.00    -0.744 OA
ENDBRANCH  93  94
ENDBRANCH  61  86
ENDBRANCH  35  36
ENDBRANCH  27  30
ENDBRANCH  25  26
ENDBRANCH   1  25
TORSDOF 15
