REMARK SMILES CC(C)=C1[C@H]2CC[C@@H]1[C@@H](C(=O)Nc1cc(C)cc(C)c1)[C@@H]2C(=O)NCCCCNC(=O)c1ccc(-c2c3nc(c(-c4c(F)cc(S(=O)(=O)[O-])cc4F)c4ccc([nH]4)c(-c4c(F)cc(S(=O)(=O)[O-])cc4F)c4nc(c(-c5c(F)cc(S(=O)(=O)[O-])cc5F)c5ccc2[nH]5)C=C4)C=C3)cc1
REMARK SMILES IDX 27 1 26 2 25 3 24 4 22 5 23 6 21 8 1 9 2 10 3 11 4 12 5 13
REMARK SMILES IDX 8 14 6 15 7 16 9 17 10 18 11 19 12 20 13 22 14 23 20 24
REMARK SMILES IDX 15 25 18 26 16 27 17 28 19 29 28 30 29 31 30 32 31 34 32 35
REMARK SMILES IDX 33 36 97 37 34 38 96 39 35 40 36 41 37 42 90 43 38 44 95 45
REMARK SMILES IDX 89 46 91 47 39 48 94 49 88 50 87 51 40 53 74 54 53 55 73 56
REMARK SMILES IDX 54 57 57 58 72 59 92 60 55 61 56 62 71 64 93 65 58 66 41 67
REMARK SMILES IDX 42 68 51 69 43 70 44 71 50 72 52 73 45 74 46 75 47 76 48 77
REMARK SMILES IDX 49 78 75 79 76 80 85 81 77 82 78 83 84 84 86 85 79 86 80 87
REMARK SMILES IDX 81 88 82 89 83 90 59 91 60 92 69 93 61 94 62 95 68 96 70 97
REMARK SMILES IDX 63 98 64 99 65 100 66 101 67 102
REMARK H PARENT 24 7 12 21 29 33 91 52 57 63
REMARK Flexibility Score: inf
ROOT
ATOM      1  C   UNL     1      -1.435   6.753   4.513  1.00  0.00     0.023 C 
ENDROOT
BRANCH   1   2
ATOM      2  C   UNL     1      -0.856   5.705   3.579  1.00  0.00     0.023 C 
BRANCH   2   3
ATOM      3  C   UNL     1      -0.521   6.176   2.163  1.00  0.00     0.116 C 
BRANCH   3   4
ATOM      4  N   UNL     1       0.915   6.256   1.993  1.00  0.00    -0.356 N 
ATOM      5  C   UNL     1       1.855   5.348   1.643  1.00  0.00     0.224 C 
ATOM      6  O   UNL     1       3.024   5.728   1.781  1.00  0.00    -0.275 OA
ATOM      7  H   UNL     1       1.281   7.154   2.167  1.00  0.00     0.163 HD
BRANCH   5   8
ATOM      8  C   UNL     1       1.571   4.014   0.945  1.00  0.00     0.098 C 
ATOM      9  C   UNL     1       0.530  -0.527  -0.097  1.00  0.00     0.039 C 
ATOM     10  C   UNL     1       0.060   0.899   0.018  1.00  0.00    -0.077 C 
ATOM     11  C   UNL     1      -1.262   1.187  -0.637  1.00  0.00     0.039 C 
ATOM     12  C   UNL     1       0.735   1.810   0.741  1.00  0.00    -0.064 C 
ATOM     13  C   UNL     1       0.326   3.169   1.258  1.00  0.00     0.028 C 
ATOM     14  C   UNL     1       2.011   1.673   1.521  1.00  0.00     0.028 C 
ATOM     15  C   UNL     1       0.253   2.759   2.736  1.00  0.00     0.009 C 
ATOM     16  C   UNL     1       1.375   1.725   2.914  1.00  0.00     0.009 C 
ATOM     17  C   UNL     1       2.724   3.018   1.234  1.00  0.00     0.099 C 
BRANCH  17  18
ATOM     18  C   UNL     1       3.913   2.839   0.280  1.00  0.00     0.228 C 
ATOM     19  O   UNL     1       5.061   2.927   0.743  1.00  0.00    -0.274 OA
ATOM     20  N   UNL     1       3.834   2.364  -0.992  1.00  0.00    -0.326 N 
ATOM     21  H   UNL     1       4.681   1.998  -1.336  1.00  0.00     0.169 HD
BRANCH  20  22
ATOM     22  C   UNL     1       2.779   2.299  -1.899  1.00  0.00     0.041 A 
ATOM     23  C   UNL     1       2.057   3.430  -2.261  1.00  0.00     0.029 A 
ATOM     24  C   UNL     1       2.519   1.081  -2.526  1.00  0.00     0.029 A 
ATOM     25  C   UNL     1       0.958   3.329  -3.119  1.00  0.00    -0.049 A 
ATOM     26  C   UNL     1       1.430   0.957  -3.399  1.00  0.00    -0.049 A 
ATOM     27  C   UNL     1       0.086   4.520  -3.383  1.00  0.00     0.044 C 
ATOM     28  C   UNL     1       0.641   2.083  -3.671  1.00  0.00     0.007 A 
ATOM     29  C   UNL     1       1.048  -0.379  -3.962  1.00  0.00     0.044 C 
ENDBRANCH  20  22
ENDBRANCH  17  18
ENDBRANCH   5   8
ENDBRANCH   3   4
ENDBRANCH   2   3
ENDBRANCH   1   2
BRANCH   1  30
ATOM     30  C   UNL     1      -2.758   7.341   4.073  1.00  0.00     0.116 C 
BRANCH  30  31
ATOM     31  N   UNL     1      -3.814   6.363   3.839  1.00  0.00    -0.352 N 
ATOM     32  C   UNL     1      -5.161   6.520   4.091  1.00  0.00     0.251 C 
ATOM     33  H   UNL     1      -3.535   5.498   3.461  1.00  0.00     0.163 HD
ATOM     34  O   UNL     1      -5.959   5.613   3.880  1.00  0.00    -0.269 OA
BRANCH  32  35
ATOM     35  C   UNL     1      -5.597   7.798   4.686  1.00  0.00     0.039 A 
ATOM     36  C   UNL     1      -6.206   7.785   5.941  1.00  0.00     0.014 A 
ATOM     37  C   UNL     1      -5.200   8.998   4.090  1.00  0.00     0.014 A 
ATOM     38  C   UNL     1      -6.321   8.980   6.652  1.00  0.00     0.010 A 
ATOM     39  C   UNL     1      -5.211  10.159   4.847  1.00  0.00     0.010 A 
ATOM     40  C   UNL     1      -5.767  10.164   6.136  1.00  0.00    -0.014 A 
BRANCH  40  41
ATOM     41  C   UNL     1      -5.765  11.430   6.913  1.00  0.00     0.031 A 
ATOM     42  C   UNL     1      -6.449  12.642   6.341  1.00  0.00     0.074 A 
ATOM     43  C   UNL     1      -5.078  11.518   8.070  1.00  0.00     0.049 A 
ATOM     44  N   UNL     1      -6.456  13.873   6.781  1.00  0.00    -0.248 NA
ATOM     45  C   UNL     1      -7.179  12.453   5.076  1.00  0.00     0.031 C 
ATOM     46  C   UNL     1      -4.314  10.435   8.694  1.00  0.00     0.029 A 
ATOM     47  N   UNL     1      -4.905  12.576   8.927  1.00  0.00    -0.354 N 
ATOM     48  C   UNL     1      -7.154  14.606   5.830  1.00  0.00     0.074 A 
ATOM     49  C   UNL     1      -7.497  13.697   4.759  1.00  0.00     0.031 C 
ATOM     50  C   UNL     1      -3.790  10.873   9.851  1.00  0.00     0.029 A 
ATOM     51  C   UNL     1      -4.149  12.275  10.036  1.00  0.00     0.049 A 
ATOM     52  H   UNL     1      -5.288  13.469   8.763  1.00  0.00     0.167 HD
ATOM     53  C   UNL     1      -7.513  15.911   5.860  1.00  0.00     0.037 A 
ATOM     54  C   UNL     1      -3.792  13.044  11.083  1.00  0.00     0.037 A 
ATOM     55  C   UNL     1      -7.229  16.791   6.958  1.00  0.00     0.049 A 
ATOM     56  C   UNL     1      -4.253  14.476  11.127  1.00  0.00     0.074 A 
ATOM     57  C   UNL     1      -7.607  18.111   7.125  1.00  0.00     0.029 A 
ATOM     58  N   UNL     1      -6.512  16.431   8.090  1.00  0.00    -0.354 N 
ATOM     59  N   UNL     1      -4.957  15.141  10.242  1.00  0.00    -0.248 NA
ATOM     60  C   UNL     1      -3.877  15.260  12.311  1.00  0.00     0.031 C 
ATOM     61  C   UNL     1      -7.104  18.555   8.354  1.00  0.00     0.029 A 
ATOM     62  C   UNL     1      -6.436  17.503   8.962  1.00  0.00     0.049 A 
ATOM     63  H   UNL     1      -6.115  15.544   8.249  1.00  0.00     0.167 HD
ATOM     64  C   UNL     1      -5.130  16.414  10.773  1.00  0.00     0.074 A 
ATOM     65  C   UNL     1      -4.463  16.424  12.059  1.00  0.00     0.031 C 
ATOM     66  C   UNL     1      -5.781  17.479  10.245  1.00  0.00     0.037 A 
BRANCH  53  67
ATOM     67  C   UNL     1      -8.270  16.439   4.675  1.00  0.00     0.058 A 
ATOM     68  C   UNL     1      -9.593  16.045   4.416  1.00  0.00     0.135 A 
ATOM     69  C   UNL     1      -7.661  17.325   3.773  1.00  0.00     0.135 A 
ATOM     70  F   UNL     1     -10.214  15.182   5.236  1.00  0.00    -0.206 F 
ATOM     71  C   UNL     1     -10.270  16.471   3.279  1.00  0.00     0.059 A 
ATOM     72  C   UNL     1      -8.330  17.788   2.643  1.00  0.00     0.059 A 
ATOM     73  F   UNL     1      -6.397  17.731   3.971  1.00  0.00    -0.206 F 
ATOM     74  C   UNL     1      -9.626  17.336   2.393  1.00  0.00     0.060 A 
BRANCH  74  75
ATOM     75  S   UNL     1     -10.502  17.858   0.904  1.00  0.00     0.124 S 
ATOM     76  O   UNL     1     -10.356  16.679   0.056  1.00  0.00    -0.237 OA
ATOM     77  O   UNL     1     -11.849  18.114   1.404  1.00  0.00    -0.237 OA
ATOM     78  O   UNL     1      -9.761  19.039   0.474  1.00  0.00    -0.744 OA
ENDBRANCH  74  75
ENDBRANCH  53  67
BRANCH  54  79
ATOM     79  C   UNL     1      -3.005  12.462  12.202  1.00  0.00     0.058 A 
ATOM     80  C   UNL     1      -3.615  12.184  13.434  1.00  0.00     0.135 A 
ATOM     81  C   UNL     1      -1.643  12.157  12.063  1.00  0.00     0.135 A 
ATOM     82  F   UNL     1      -4.915  12.464  13.616  1.00  0.00    -0.206 F 
ATOM     83  C   UNL     1      -2.902  11.636  14.495  1.00  0.00     0.059 A 
ATOM     84  C   UNL     1      -0.912  11.590  13.104  1.00  0.00     0.059 A 
ATOM     85  F   UNL     1      -1.017  12.389  10.899  1.00  0.00    -0.206 F 
ATOM     86  C   UNL     1      -1.549  11.341  14.320  1.00  0.00     0.060 A 
BRANCH  86  87
ATOM     87  S   UNL     1      -0.645  10.577  15.685  1.00  0.00     0.124 S 
ATOM     88  O   UNL     1      -0.445  11.714  16.576  1.00  0.00    -0.237 OA
ATOM     89  O   UNL     1      -1.585   9.561  16.148  1.00  0.00    -0.237 OA
ATOM     90  O   UNL     1       0.557  10.059  15.040  1.00  0.00    -0.744 OA
ENDBRANCH  86  87
ENDBRANCH  54  79
BRANCH  66  91
ATOM     91  C   UNL     1      -5.835  18.732  11.069  1.00  0.00     0.058 A 
ATOM     92  C   UNL     1      -4.728  19.586  11.178  1.00  0.00     0.135 A 
ATOM     93  C   UNL     1      -7.031  19.115  11.697  1.00  0.00     0.135 A 
ATOM     94  F   UNL     1      -3.562  19.258  10.599  1.00  0.00    -0.206 F 
ATOM     95  C   UNL     1      -4.801  20.775  11.895  1.00  0.00     0.059 A 
ATOM     96  C   UNL     1      -7.131  20.309  12.402  1.00  0.00     0.059 A 
ATOM     97  F   UNL     1      -8.120  18.334  11.612  1.00  0.00    -0.206 F 
ATOM     98  C   UNL     1      -6.008  21.129  12.501  1.00  0.00     0.060 A 
BRANCH  98  99
ATOM     99  S   UNL     1      -6.106  22.700  13.386  1.00  0.00     0.124 S 
ATOM    100  O   UNL     1      -5.430  22.375  14.637  1.00  0.00    -0.237 OA
ATOM    101  O   UNL     1      -5.391  23.609  12.495  1.00  0.00    -0.237 OA
ATOM    102  O   UNL     1      -7.543  22.939  13.491  1.00  0.00    -0.744 OA
ENDBRANCH  98  99
ENDBRANCH  66  91
ENDBRANCH  40  41
ENDBRANCH  32  35
ENDBRANCH  30  31
ENDBRANCH   1  30
TORSDOF 16
