REMARK SMILES C/C(=N/OCc1ccccc1Nc1c(Cl)cccc1Cl)C(=O)NCCCCNC(=O)c1ccc(-c2c3nc(c(-c4c(F)cc(S(=O)(=O)[O-])cc4F)c4ccc([nH]4)c(-c4c(F)cc(S(=O)(=O)[O-])cc4F)c4nc(c(-c5c(F)cc(S(=O)(=O)[O-])cc5F)c5ccc2[nH]5)C=C4)C=C3)cc1
REMARK SMILES IDX 24 1 23 2 21 3 22 4 2 6 1 7 3 8 4 9 5 10 6 11 7 12 11 13
REMARK SMILES IDX 8 14 10 15 9 16 12 17 13 19 14 20 19 21 15 22 16 23 18 24
REMARK SMILES IDX 20 25 17 26 25 27 26 28 27 29 28 30 29 31 30 33 31 34 32 35
REMARK SMILES IDX 96 36 33 37 95 38 34 39 35 40 36 41 89 42 37 43 94 44 88 45
REMARK SMILES IDX 90 46 38 47 93 48 87 49 86 50 39 52 73 53 52 54 72 55 53 56
REMARK SMILES IDX 56 57 71 58 91 59 54 60 55 61 70 63 92 64 57 65 40 66 41 67
REMARK SMILES IDX 50 68 42 69 43 70 49 71 51 72 44 73 45 74 46 75 47 76 48 77
REMARK SMILES IDX 74 78 75 79 84 80 76 81 77 82 83 83 85 84 78 85 79 86 80 87
REMARK SMILES IDX 81 88 82 89 58 90 59 91 68 92 60 93 61 94 67 95 69 96 62 97
REMARK SMILES IDX 63 98 64 99 65 100 66 101
REMARK H PARENT 23 5 12 18 28 32 90 51 56 62
REMARK Flexibility Score: inf
ROOT
ATOM      1  C   UNL     1      -0.009  -2.484   4.122  1.00  0.00     0.116 C 
ENDROOT
BRANCH   1   2
ATOM      2  N   UNL     1       0.743  -2.686   2.903  1.00  0.00    -0.351 N 
ATOM      3  C   UNL     1       0.958  -1.924   1.785  1.00  0.00     0.268 C 
ATOM      4  O   UNL     1       1.899  -2.266   1.062  1.00  0.00    -0.268 OA
ATOM      5  H   UNL     1       1.198  -3.559   2.869  1.00  0.00     0.163 HD
BRANCH   3   6
ATOM      6  C   UNL     1       0.095  -0.788   1.248  1.00  0.00     0.141 C 
ATOM      7  C   UNL     1       0.263  -0.569  -0.247  1.00  0.00     0.077 C 
ATOM      8  N   UNL     1      -0.699   0.065   1.829  1.00  0.00    -0.086 NA
BRANCH   8   9
ATOM      9  O   UNL     1      -0.723   0.002   3.212  1.00  0.00    -0.390 OA
BRANCH   9  10
ATOM     10  C   UNL     1      -1.635   0.975   3.741  1.00  0.00     0.302 C 
BRANCH  10  11
ATOM     11  C   UNL     1      -0.881   2.097   4.421  1.00  0.00     0.016 A 
ATOM     12  C   UNL     1      -1.164   2.376   5.771  1.00  0.00     0.009 A 
ATOM     13  C   UNL     1       0.066   2.886   3.726  1.00  0.00     0.045 A 
ATOM     14  C   UNL     1      -0.528   3.426   6.429  1.00  0.00     0.001 A 
ATOM     15  C   UNL     1       0.677   3.951   4.403  1.00  0.00     0.026 A 
ATOM     16  C   UNL     1       0.389   4.216   5.744  1.00  0.00     0.002 A 
BRANCH  13  17
ATOM     17  N   UNL     1       0.341   2.619   2.372  1.00  0.00    -0.353 N 
ATOM     18  H   UNL     1      -0.359   2.084   1.933  1.00  0.00     0.167 HD
BRANCH  17  19
ATOM     19  C   UNL     1       1.407   2.956   1.509  1.00  0.00     0.076 A 
ATOM     20  C   UNL     1       1.103   3.348   0.186  1.00  0.00     0.066 A 
ATOM     21  C   UNL     1       2.767   2.789   1.833  1.00  0.00     0.066 A 
ATOM     22  Cl  UNL     1      -0.542   3.511  -0.341  1.00  0.00    -0.082 Cl
ATOM     23  C   UNL     1       2.104   3.604  -0.757  1.00  0.00     0.023 A 
ATOM     24  C   UNL     1       3.770   3.054   0.887  1.00  0.00     0.023 A 
ATOM     25  Cl  UNL     1       3.300   2.139   3.347  1.00  0.00    -0.082 Cl
ATOM     26  C   UNL     1       3.440   3.463  -0.403  1.00  0.00     0.003 A 
ENDBRANCH  17  19
ENDBRANCH  13  17
ENDBRANCH  10  11
ENDBRANCH   9  10
ENDBRANCH   8   9
ENDBRANCH   3   6
ENDBRANCH   1   2
BRANCH   1  27
ATOM     27  C   UNL     1      -1.502  -2.775   3.990  1.00  0.00     0.023 C 
BRANCH  27  28
ATOM     28  C   UNL     1      -1.928  -4.156   4.505  1.00  0.00     0.023 C 
BRANCH  28  29
ATOM     29  C   UNL     1      -1.568  -4.461   5.959  1.00  0.00     0.116 C 
BRANCH  29  30
ATOM     30  N   UNL     1      -2.029  -3.464   6.913  1.00  0.00    -0.352 N 
ATOM     31  C   UNL     1      -2.176  -3.615   8.274  1.00  0.00     0.251 C 
ATOM     32  H   UNL     1      -2.263  -2.581   6.544  1.00  0.00     0.163 HD
ATOM     33  O   UNL     1      -2.663  -2.716   8.954  1.00  0.00    -0.269 OA
BRANCH  31  34
ATOM     34  C   UNL     1      -1.791  -4.902   8.890  1.00  0.00     0.039 A 
ATOM     35  C   UNL     1      -2.746  -5.613   9.618  1.00  0.00     0.014 A 
ATOM     36  C   UNL     1      -0.519  -5.438   8.673  1.00  0.00     0.014 A 
ATOM     37  C   UNL     1      -2.451  -6.905  10.057  1.00  0.00     0.010 A 
ATOM     38  C   UNL     1      -0.252  -6.750   9.052  1.00  0.00     0.010 A 
ATOM     39  C   UNL     1      -1.218  -7.501   9.737  1.00  0.00    -0.014 A 
BRANCH  39  40
ATOM     40  C   UNL     1      -0.948  -8.921  10.079  1.00  0.00     0.031 A 
ATOM     41  C   UNL     1       0.142  -9.280  11.049  1.00  0.00     0.074 A 
ATOM     42  C   UNL     1      -1.649  -9.893   9.460  1.00  0.00     0.049 A 
ATOM     43  N   UNL     1       0.525 -10.462  11.459  1.00  0.00    -0.248 NA
ATOM     44  C   UNL     1       0.927  -8.168  11.608  1.00  0.00     0.031 C 
ATOM     45  C   UNL     1      -2.676  -9.675   8.438  1.00  0.00     0.029 A 
ATOM     46  N   UNL     1      -1.601 -11.258   9.594  1.00  0.00    -0.354 N 
ATOM     47  C   UNL     1       1.598 -10.239  12.313  1.00  0.00     0.074 A 
ATOM     48  C   UNL     1       1.841  -8.812  12.318  1.00  0.00     0.031 C 
ATOM     49  C   UNL     1      -3.181 -10.861   8.061  1.00  0.00     0.029 A 
ATOM     50  C   UNL     1      -2.501 -11.923   8.795  1.00  0.00     0.049 A 
ATOM     51  H   UNL     1      -0.981 -11.717  10.205  1.00  0.00     0.167 HD
ATOM     52  C   UNL     1       2.300 -11.137  13.045  1.00  0.00     0.037 A 
ATOM     53  C   UNL     1      -2.757 -13.240   8.675  1.00  0.00     0.037 A 
ATOM     54  C   UNL     1       2.034 -12.552  13.056  1.00  0.00     0.049 A 
ATOM     55  C   UNL     1      -2.002 -14.214   9.536  1.00  0.00     0.074 A 
ATOM     56  C   UNL     1       2.641 -13.537  13.815  1.00  0.00     0.029 A 
ATOM     57  N   UNL     1       1.083 -13.184  12.269  1.00  0.00    -0.354 N 
ATOM     58  N   UNL     1      -1.046 -13.977  10.403  1.00  0.00    -0.248 NA
ATOM     59  C   UNL     1      -2.370 -15.631   9.416  1.00  0.00     0.031 C 
ATOM     60  C   UNL     1       2.078 -14.770  13.464  1.00  0.00     0.029 A 
ATOM     61  C   UNL     1       1.093 -14.548  12.515  1.00  0.00     0.049 A 
ATOM     62  H   UNL     1       0.488 -12.731  11.629  1.00  0.00     0.167 HD
ATOM     63  C   UNL     1      -0.714 -15.212  10.949  1.00  0.00     0.074 A 
ATOM     64  C   UNL     1      -1.581 -16.190  10.324  1.00  0.00     0.031 C 
ATOM     65  C   UNL     1       0.222 -15.508  11.884  1.00  0.00     0.037 A 
BRANCH  52  66
ATOM     66  C   UNL     1       3.415 -10.607  13.904  1.00  0.00     0.058 A 
ATOM     67  C   UNL     1       3.158  -9.841  15.052  1.00  0.00     0.135 A 
ATOM     68  C   UNL     1       4.755 -10.879  13.586  1.00  0.00     0.135 A 
ATOM     69  F   UNL     1       1.895  -9.539  15.394  1.00  0.00    -0.206 F 
ATOM     70  C   UNL     1       4.189  -9.331  15.834  1.00  0.00     0.059 A 
ATOM     71  C   UNL     1       5.803 -10.401  14.369  1.00  0.00     0.059 A 
ATOM     72  F   UNL     1       5.059 -11.607  12.500  1.00  0.00    -0.206 F 
ATOM     73  C   UNL     1       5.509  -9.612  15.481  1.00  0.00     0.060 A 
BRANCH  73  74
ATOM     74  S   UNL     1       6.838  -8.936  16.498  1.00  0.00     0.124 S 
ATOM     75  O   UNL     1       6.840  -7.537  16.079  1.00  0.00    -0.237 OA
ATOM     76  O   UNL     1       6.357  -9.190  17.853  1.00  0.00    -0.237 OA
ATOM     77  O   UNL     1       8.004  -9.714  16.094  1.00  0.00    -0.744 OA
ENDBRANCH  73  74
ENDBRANCH  52  66
BRANCH  53  78
ATOM     78  C   UNL     1      -3.814 -13.704   7.738  1.00  0.00     0.058 A 
ATOM     79  C   UNL     1      -5.046 -14.171   8.218  1.00  0.00     0.135 A 
ATOM     80  C   UNL     1      -3.626 -13.661   6.348  1.00  0.00     0.135 A 
ATOM     81  F   UNL     1      -5.270 -14.235   9.539  1.00  0.00    -0.206 F 
ATOM     82  C   UNL     1      -6.053 -14.590   7.355  1.00  0.00     0.059 A 
ATOM     83  C   UNL     1      -4.626 -14.053   5.464  1.00  0.00     0.059 A 
ATOM     84  F   UNL     1      -2.471 -13.204   5.840  1.00  0.00    -0.206 F 
ATOM     85  C   UNL     1      -5.835 -14.523   5.978  1.00  0.00     0.060 A 
BRANCH  85  86
ATOM     86  S   UNL     1      -7.172 -15.005   4.863  1.00  0.00     0.124 S 
ATOM     87  O   UNL     1      -7.131 -16.459   4.965  1.00  0.00    -0.237 OA
ATOM     88  O   UNL     1      -8.329 -14.354   5.470  1.00  0.00    -0.237 OA
ATOM     89  O   UNL     1      -6.753 -14.449   3.579  1.00  0.00    -0.744 OA
ENDBRANCH  85  86
ENDBRANCH  53  78
BRANCH  65  90
ATOM     90  C   UNL     1       0.338 -16.945  12.307  1.00  0.00     0.058 A 
ATOM     91  C   UNL     1       0.916 -17.914  11.472  1.00  0.00     0.135 A 
ATOM     92  C   UNL     1      -0.108 -17.351  13.575  1.00  0.00     0.135 A 
ATOM     93  F   UNL     1       1.354 -17.578  10.248  1.00  0.00    -0.206 F 
ATOM     94  C   UNL     1       1.021 -19.244  11.868  1.00  0.00     0.059 A 
ATOM     95  C   UNL     1       0.009 -18.670  14.001  1.00  0.00     0.059 A 
ATOM     96  F   UNL     1      -0.658 -16.460  14.415  1.00  0.00    -0.206 F 
ATOM     97  C   UNL     1       0.560 -19.613  13.134  1.00  0.00     0.060 A 
BRANCH  97  98
ATOM     98  S   UNL     1       0.712 -21.337  13.645  1.00  0.00     0.124 S 
ATOM     99  O   UNL     1      -0.387 -21.957  12.914  1.00  0.00    -0.237 OA
ATOM    100  O   UNL     1       2.054 -21.685  13.187  1.00  0.00    -0.237 OA
ATOM    101  O   UNL     1       0.549 -21.276  15.094  1.00  0.00    -0.744 OA
ENDBRANCH  97  98
ENDBRANCH  65  90
ENDBRANCH  39  40
ENDBRANCH  31  34
ENDBRANCH  29  30
ENDBRANCH  28  29
ENDBRANCH  27  28
ENDBRANCH   1  27
TORSDOF 19
