REMARK SMILES COC(=O)[C@H]1CCN(C(=O)Nc2sccc2C(=O)NCCCCNC(=O)c2ccc(-c3c4nc(c(-c5c(F)cc(S(=O)(=O)[O-])cc5F)c5ccc([nH]5)c(-c5c(F)cc(S(=O)(=O)[O-])cc5F)c5nc(c(-c6c(F)cc(S(=O)(=O)[O-])cc6F)c6ccc3[nH]6)C=C5)C=C4)cc2)C1
REMARK SMILES IDX 21 1 20 2 19 3 17 4 18 5 16 7 12 8 13 9 14 10 15 11 11 12
REMARK SMILES IDX 9 13 10 14 8 16 5 17 6 18 93 19 7 20 3 21 4 22 2 23 1 24
REMARK SMILES IDX 22 25 23 26 24 27 25 28 26 30 27 31 28 32 92 33 29 34 91 35
REMARK SMILES IDX 30 36 31 37 32 38 85 39 33 40 90 41 84 42 86 43 34 44 89 45
REMARK SMILES IDX 83 46 82 47 35 49 69 50 48 51 68 52 49 53 52 54 67 55 87 56
REMARK SMILES IDX 50 57 51 58 66 60 88 61 53 62 36 63 37 64 46 65 38 66 39 67
REMARK SMILES IDX 45 68 47 69 40 70 41 71 42 72 43 73 44 74 70 75 71 76 80 77
REMARK SMILES IDX 72 78 73 79 79 80 81 81 74 82 75 83 76 84 77 85 78 86 54 87
REMARK SMILES IDX 55 88 64 89 56 90 57 91 63 92 65 93 58 94 59 95 60 96 61 97
REMARK SMILES IDX 62 98
REMARK H PARENT 19 6 11 15 24 29 86 48 52 59
REMARK Flexibility Score: inf
ROOT
ATOM      1  C   UNL     1      -2.724   5.292   6.540  1.00  0.00     0.023 C 
ENDROOT
BRANCH   1   2
ATOM      2  C   UNL     1      -2.753   4.326   5.361  1.00  0.00     0.116 C 
BRANCH   2   3
ATOM      3  N   UNL     1      -2.852   2.932   5.734  1.00  0.00    -0.352 N 
ATOM      4  C   UNL     1      -3.467   1.886   5.092  1.00  0.00     0.254 C 
ATOM      5  O   UNL     1      -3.449   0.789   5.653  1.00  0.00    -0.269 OA
ATOM      6  H   UNL     1      -2.408   2.696   6.581  1.00  0.00     0.163 HD
BRANCH   4   7
ATOM      7  C   UNL     1      -4.221   2.057   3.846  1.00  0.00     0.074 A 
ATOM      8  C   UNL     1      -3.953   2.816   2.718  1.00  0.00     0.109 A 
ATOM      9  S   UNL     1      -5.271   2.873   1.628  1.00  0.00    -0.126 S 
ATOM     10  C   UNL     1      -6.059   1.594   2.428  1.00  0.00     0.068 A 
ATOM     11  C   UNL     1      -5.415   1.269   3.598  1.00  0.00     0.028 A 
BRANCH   8  12
ATOM     12  N   UNL     1      -2.899   3.547   2.225  1.00  0.00    -0.299 N 
ATOM     13  C   UNL     1      -1.579   3.471   2.522  1.00  0.00     0.322 C 
ATOM     14  O   UNL     1      -0.909   4.503   2.430  1.00  0.00    -0.248 OA
ATOM     15  H   UNL     1      -3.139   4.228   1.555  1.00  0.00     0.172 HD
BRANCH  13  16
ATOM     16  N   UNL     1      -1.013   2.282   2.871  1.00  0.00    -0.324 N 
ATOM     17  C   UNL     1       0.670   0.759   3.570  1.00  0.00     0.120 C 
ATOM     18  C   UNL     1      -0.689   0.064   3.474  1.00  0.00     0.039 C 
ATOM     19  C   UNL     1       0.334   2.241   3.429  1.00  0.00     0.136 C 
ATOM     20  C   UNL     1      -1.426   0.943   2.486  1.00  0.00     0.122 C 
BRANCH  17  21
ATOM     21  C   UNL     1       1.389   0.477   4.862  1.00  0.00     0.310 C 
ATOM     22  O   UNL     1       0.879  -0.010   5.862  1.00  0.00    -0.252 OA
BRANCH  21  23
ATOM     23  O   UNL     1       2.702   0.814   4.739  1.00  0.00    -0.469 OA
ATOM     24  C   UNL     1       3.500   0.451   5.868  1.00  0.00     0.282 C 
ENDBRANCH  21  23
ENDBRANCH  17  21
ENDBRANCH  13  16
ENDBRANCH   8  12
ENDBRANCH   4   7
ENDBRANCH   2   3
ENDBRANCH   1   2
BRANCH   1  25
ATOM     25  C   UNL     1      -1.460   5.249   7.402  1.00  0.00     0.023 C 
BRANCH  25  26
ATOM     26  C   UNL     1      -0.128   5.389   6.665  1.00  0.00     0.116 C 
BRANCH  26  27
ATOM     27  N   UNL     1      -0.004   6.621   5.899  1.00  0.00    -0.352 N 
ATOM     28  C   UNL     1       0.906   7.648   6.023  1.00  0.00     0.251 C 
ATOM     29  H   UNL     1      -0.671   6.738   5.184  1.00  0.00     0.163 HD
ATOM     30  O   UNL     1       0.774   8.675   5.363  1.00  0.00    -0.269 OA
BRANCH  28  31
ATOM     31  C   UNL     1       2.027   7.525   6.981  1.00  0.00     0.039 A 
ATOM     32  C   UNL     1       2.285   8.575   7.864  1.00  0.00     0.014 A 
ATOM     33  C   UNL     1       2.800   6.363   7.028  1.00  0.00     0.014 A 
ATOM     34  C   UNL     1       3.255   8.419   8.859  1.00  0.00     0.010 A 
ATOM     35  C   UNL     1       3.702   6.176   8.072  1.00  0.00     0.010 A 
ATOM     36  C   UNL     1       3.935   7.197   9.006  1.00  0.00    -0.014 A 
BRANCH  36  37
ATOM     37  C   UNL     1       4.872   6.965  10.138  1.00  0.00     0.031 A 
ATOM     38  C   UNL     1       6.322   6.660   9.875  1.00  0.00     0.074 A 
ATOM     39  C   UNL     1       4.402   6.962  11.403  1.00  0.00     0.049 A 
ATOM     40  N   UNL     1       7.273   6.371  10.727  1.00  0.00    -0.248 NA
ATOM     41  C   UNL     1       6.756   6.647   8.469  1.00  0.00     0.031 C 
ATOM     42  C   UNL     1       3.006   7.186  11.789  1.00  0.00     0.029 A 
ATOM     43  N   UNL     1       5.044   6.756  12.600  1.00  0.00    -0.354 N 
ATOM     44  C   UNL     1       8.410   6.134   9.962  1.00  0.00     0.074 A 
ATOM     45  C   UNL     1       8.015   6.251   8.575  1.00  0.00     0.031 C 
ATOM     46  C   UNL     1       2.904   7.133  13.127  1.00  0.00     0.029 A 
ATOM     47  C   UNL     1       4.214   6.832  13.695  1.00  0.00     0.049 A 
ATOM     48  H   UNL     1       6.008   6.571  12.668  1.00  0.00     0.167 HD
ATOM     49  C   UNL     1       9.672   5.870  10.377  1.00  0.00     0.037 A 
ATOM     50  C   UNL     1       4.474   6.671  15.008  1.00  0.00     0.037 A 
ATOM     51  C   UNL     1      10.064   5.778  11.759  1.00  0.00     0.049 A 
ATOM     52  C   UNL     1       5.885   6.375  15.444  1.00  0.00     0.074 A 
ATOM     53  C   UNL     1      11.329   5.574  12.283  1.00  0.00     0.029 A 
ATOM     54  N   UNL     1       9.198   5.881  12.839  1.00  0.00    -0.354 N 
ATOM     55  N   UNL     1       6.961   6.225  14.708  1.00  0.00    -0.248 NA
ATOM     56  C   UNL     1       6.119   6.235  16.887  1.00  0.00     0.031 C 
ATOM     57  C   UNL     1      11.220   5.502  13.675  1.00  0.00     0.029 A 
ATOM     58  C   UNL     1       9.897   5.721  14.024  1.00  0.00     0.049 A 
ATOM     59  H   UNL     1       8.229   6.044  12.772  1.00  0.00     0.167 HD
ATOM     60  C   UNL     1       8.004   6.003  15.601  1.00  0.00     0.074 A 
ATOM     61  C   UNL     1       7.432   6.051  16.931  1.00  0.00     0.031 C 
ATOM     62  C   UNL     1       9.317   5.779  15.343  1.00  0.00     0.037 A 
BRANCH  49  63
ATOM     63  C   UNL     1      10.726   5.668   9.321  1.00  0.00     0.058 A 
ATOM     64  C   UNL     1      11.176   6.726   8.515  1.00  0.00     0.135 A 
ATOM     65  C   UNL     1      11.324   4.410   9.139  1.00  0.00     0.135 A 
ATOM     66  F   UNL     1      10.631   7.947   8.635  1.00  0.00    -0.206 F 
ATOM     67  C   UNL     1      12.156   6.538   7.546  1.00  0.00     0.059 A 
ATOM     68  C   UNL     1      12.329   4.206   8.197  1.00  0.00     0.059 A 
ATOM     69  F   UNL     1      10.933   3.362   9.881  1.00  0.00    -0.206 F 
ATOM     70  C   UNL     1      12.727   5.274   7.395  1.00  0.00     0.060 A 
BRANCH  70  71
ATOM     71  S   UNL     1      14.003   5.050   6.138  1.00  0.00     0.124 S 
ATOM     72  O   UNL     1      13.216   5.122   4.910  1.00  0.00    -0.237 OA
ATOM     73  O   UNL     1      14.890   6.181   6.389  1.00  0.00    -0.237 OA
ATOM     74  O   UNL     1      14.561   3.738   6.448  1.00  0.00    -0.744 OA
ENDBRANCH  70  71
ENDBRANCH  49  63
BRANCH  50  75
ATOM     75  C   UNL     1       3.381   6.808  16.009  1.00  0.00     0.058 A 
ATOM     76  C   UNL     1       3.346   7.893  16.898  1.00  0.00     0.135 A 
ATOM     77  C   UNL     1       2.347   5.863  16.094  1.00  0.00     0.135 A 
ATOM     78  F   UNL     1       4.316   8.820  16.862  1.00  0.00    -0.206 F 
ATOM     79  C   UNL     1       2.340   8.026  17.849  1.00  0.00     0.059 A 
ATOM     80  C   UNL     1       1.313   5.989  17.018  1.00  0.00     0.059 A 
ATOM     81  F   UNL     1       2.322   4.815  15.257  1.00  0.00    -0.206 F 
ATOM     82  C   UNL     1       1.325   7.069  17.900  1.00  0.00     0.060 A 
BRANCH  82  83
ATOM     83  S   UNL     1       0.001   7.274  19.110  1.00  0.00     0.124 S 
ATOM     84  O   UNL     1       0.689   6.957  20.356  1.00  0.00    -0.237 OA
ATOM     85  O   UNL     1      -0.370   8.674  18.923  1.00  0.00    -0.237 OA
ATOM     86  O   UNL     1      -1.002   6.306  18.678  1.00  0.00    -0.744 OA
ENDBRANCH  82  83
ENDBRANCH  50  75
BRANCH  62  87
ATOM     87  C   UNL     1      10.237   5.609  16.521  1.00  0.00     0.058 A 
ATOM     88  C   UNL     1      10.210   4.457  17.323  1.00  0.00     0.135 A 
ATOM     89  C   UNL     1      11.195   6.592  16.821  1.00  0.00     0.135 A 
ATOM     90  F   UNL     1       9.312   3.489  17.084  1.00  0.00    -0.206 F 
ATOM     91  C   UNL     1      11.081   4.298  18.396  1.00  0.00     0.059 A 
ATOM     92  C   UNL     1      12.096   6.440  17.869  1.00  0.00     0.059 A 
ATOM     93  F   UNL     1      11.272   7.709  16.080  1.00  0.00    -0.206 F 
ATOM     94  C   UNL     1      12.023   5.294  18.660  1.00  0.00     0.060 A 
BRANCH  94  95
ATOM     95  S   UNL     1      13.168   5.060  20.036  1.00  0.00     0.124 S 
ATOM     96  O   UNL     1      12.293   5.267  21.185  1.00  0.00    -0.237 OA
ATOM     97  O   UNL     1      13.629   3.691  19.828  1.00  0.00    -0.237 OA
ATOM     98  O   UNL     1      14.176   6.094  19.820  1.00  0.00    -0.744 OA
ENDBRANCH  94  95
ENDBRANCH  62  87
ENDBRANCH  36  37
ENDBRANCH  28  31
ENDBRANCH  26  27
ENDBRANCH  25  26
ENDBRANCH   1  25
TORSDOF 18
