REMARK SMILES O=C(NCCCCNC(=O)c1ccc(O[C@@H]2CCCCNC2=O)cn1)c1ccc(-c2c3nc(c(-c4c(F)cc(S(=O)(=O)[O-])cc4F)c4ccc([nH]4)c(-c4c(F)cc(S(=O)(=O)[O-])cc4F)c4nc(c(-c5c(F)cc(S(=O)(=O)[O-])cc5F)c5ccc2[nH]5)C=C4)C=C3)cc1
REMARK SMILES IDX 6 1 5 2 4 3 3 4 1 5 2 6 26 8 27 9 91 10 28 11 90 12 29 13
REMARK SMILES IDX 30 14 31 15 84 16 32 17 89 18 83 19 85 20 33 21 88 22 82 23
REMARK SMILES IDX 81 24 34 26 68 27 47 28 67 29 48 30 51 31 66 32 86 33 49 34
REMARK SMILES IDX 50 35 65 37 87 38 52 39 35 40 36 41 45 42 37 43 38 44 44 45
REMARK SMILES IDX 46 46 39 47 40 48 41 49 42 50 43 51 69 52 70 53 79 54 71 55
REMARK SMILES IDX 72 56 78 57 80 58 73 59 74 60 75 61 76 62 77 63 53 64 54 65
REMARK SMILES IDX 63 66 55 67 56 68 62 69 64 70 57 71 58 72 59 73 60 74 61 75
REMARK SMILES IDX 7 76 8 77 9 78 10 80 11 81 12 82 25 83 13 84 24 85 14 86
REMARK SMILES IDX 15 87 16 88 17 89 18 90 22 92 21 93 23 94 20 96 19 97
REMARK H PARENT 3 7 85 25 51 36 8 79 21 95
REMARK Flexibility Score: 80.00
ROOT
ATOM      1  C   UNL     1       0.072  13.487  -7.782  1.00  0.00     0.023 C 
ENDROOT
BRANCH   1   2
ATOM      2  C   UNL     1      -0.718  14.792  -7.702  1.00  0.00     0.023 C 
BRANCH   2   3
ATOM      3  C   UNL     1      -1.625  14.918  -6.487  1.00  0.00     0.116 C 
BRANCH   3   4
ATOM      4  N   UNL     1      -0.888  15.065  -5.239  1.00  0.00    -0.352 N 
ATOM      5  O   UNL     1      -0.211  16.097  -3.348  1.00  0.00    -0.269 OA
ATOM      6  C   UNL     1      -1.015  16.041  -4.276  1.00  0.00     0.251 C 
ATOM      7  H   UNL     1      -0.209  14.376  -5.061  1.00  0.00     0.163 HD
BRANCH   6   8
ATOM      8  C   UNL     1      -2.105  17.037  -4.384  1.00  0.00     0.039 A 
ATOM      9  C   UNL     1      -3.398  16.628  -4.713  1.00  0.00     0.014 A 
ATOM     10  C   UNL     1      -1.828  18.394  -4.190  1.00  0.00     0.014 A 
ATOM     11  C   UNL     1      -4.362  17.580  -5.019  1.00  0.00     0.010 A 
ATOM     12  C   UNL     1      -2.833  19.347  -4.396  1.00  0.00     0.010 A 
ATOM     13  C   UNL     1      -4.100  18.951  -4.849  1.00  0.00    -0.014 A 
BRANCH  13  14
ATOM     14  C   UNL     1      -5.204  19.918  -5.096  1.00  0.00     0.031 A 
ATOM     15  C   UNL     1      -5.128  20.945  -6.193  1.00  0.00     0.074 A 
ATOM     16  C   UNL     1      -6.325  19.801  -4.356  1.00  0.00     0.049 A 
ATOM     17  N   UNL     1      -6.047  21.793  -6.586  1.00  0.00    -0.248 NA
ATOM     18  C   UNL     1      -3.865  21.047  -6.941  1.00  0.00     0.031 C 
ATOM     19  C   UNL     1      -6.501  18.863  -3.242  1.00  0.00     0.029 A 
ATOM     20  N   UNL     1      -7.535  20.438  -4.443  1.00  0.00    -0.354 N 
ATOM     21  C   UNL     1      -5.476  22.530  -7.618  1.00  0.00     0.074 A 
ATOM     22  C   UNL     1      -4.118  22.053  -7.769  1.00  0.00     0.031 C 
ATOM     23  C   UNL     1      -7.762  18.940  -2.795  1.00  0.00     0.029 A 
ATOM     24  C   UNL     1      -8.466  19.973  -3.545  1.00  0.00     0.049 A 
ATOM     25  H   UNL     1      -7.720  21.160  -5.087  1.00  0.00     0.167 HD
ATOM     26  C   UNL     1      -6.038  23.505  -8.375  1.00  0.00     0.037 A 
ATOM     27  C   UNL     1      -9.744  20.338  -3.336  1.00  0.00     0.037 A 
ATOM     28  C   UNL     1      -7.396  23.969  -8.224  1.00  0.00     0.049 A 
ATOM     29  C   UNL     1     -10.343  21.409  -4.199  1.00  0.00     0.074 A 
ATOM     30  C   UNL     1      -8.058  24.948  -8.946  1.00  0.00     0.029 A 
ATOM     31  N   UNL     1      -8.302  23.485  -7.291  1.00  0.00    -0.354 N 
ATOM     32  N   UNL     1      -9.788  22.082  -5.179  1.00  0.00    -0.248 NA
ATOM     33  C   UNL     1     -11.740  21.772  -3.930  1.00  0.00     0.031 C 
ATOM     34  C   UNL     1      -9.352  25.077  -8.430  1.00  0.00     0.029 A 
ATOM     35  C   UNL     1      -9.512  24.150  -7.414  1.00  0.00     0.049 A 
ATOM     36  H   UNL     1      -8.114  22.773  -6.638  1.00  0.00     0.167 HD
ATOM     37  C   UNL     1     -10.768  22.950  -5.642  1.00  0.00     0.074 A 
ATOM     38  C   UNL     1     -11.960  22.689  -4.861  1.00  0.00     0.031 C 
ATOM     39  C   UNL     1     -10.685  23.888  -6.618  1.00  0.00     0.037 A 
BRANCH  26  40
ATOM     40  C   UNL     1      -5.190  24.143  -9.443  1.00  0.00     0.058 A 
ATOM     41  C   UNL     1      -4.868  23.465 -10.629  1.00  0.00     0.135 A 
ATOM     42  C   UNL     1      -4.752  25.472  -9.312  1.00  0.00     0.135 A 
ATOM     43  F   UNL     1      -5.248  22.189 -10.801  1.00  0.00    -0.206 F 
ATOM     44  C   UNL     1      -4.130  24.074 -11.639  1.00  0.00     0.059 A 
ATOM     45  C   UNL     1      -4.032  26.109 -10.319  1.00  0.00     0.059 A 
ATOM     46  F   UNL     1      -5.033  26.169  -8.199  1.00  0.00    -0.206 F 
ATOM     47  C   UNL     1      -3.718  25.398 -11.477  1.00  0.00     0.060 A 
BRANCH  47  48
ATOM     48  S   UNL     1      -2.781  26.181 -12.808  1.00  0.00     0.124 S 
ATOM     49  O   UNL     1      -1.484  25.524 -12.675  1.00  0.00    -0.237 OA
ATOM     50  O   UNL     1      -3.556  25.819 -13.990  1.00  0.00    -0.237 OA
ATOM     51  O   UNL     1      -2.806  27.597 -12.455  1.00  0.00    -0.744 OA
ENDBRANCH  47  48
ENDBRANCH  26  40
BRANCH  27  52
ATOM     52  C   UNL     1     -10.527  19.693  -2.251  1.00  0.00     0.058 A 
ATOM     53  C   UNL     1     -11.595  18.831  -2.534  1.00  0.00     0.135 A 
ATOM     54  C   UNL     1     -10.200  19.911  -0.903  1.00  0.00     0.135 A 
ATOM     55  F   UNL     1     -11.946  18.592  -3.807  1.00  0.00    -0.206 F 
ATOM     56  C   UNL     1     -12.326  18.221  -1.519  1.00  0.00     0.059 A 
ATOM     57  C   UNL     1     -10.895  19.290   0.128  1.00  0.00     0.059 A 
ATOM     58  F   UNL     1      -9.170  20.710  -0.581  1.00  0.00    -0.206 F 
ATOM     59  C   UNL     1     -11.967  18.457  -0.190  1.00  0.00     0.060 A 
BRANCH  59  60
ATOM     60  S   UNL     1     -12.886  17.628   1.124  1.00  0.00     0.124 S 
ATOM     61  O   UNL     1     -14.098  18.436   1.185  1.00  0.00    -0.237 OA
ATOM     62  O   UNL     1     -13.043  16.279   0.589  1.00  0.00    -0.237 OA
ATOM     63  O   UNL     1     -11.993  17.736   2.274  1.00  0.00    -0.744 OA
ENDBRANCH  59  60
ENDBRANCH  27  52
BRANCH  39  64
ATOM     64  C   UNL     1     -11.925  24.692  -6.889  1.00  0.00     0.058 A 
ATOM     65  C   UNL     1     -12.370  25.675  -5.990  1.00  0.00     0.135 A 
ATOM     66  C   UNL     1     -12.676  24.478  -8.054  1.00  0.00     0.135 A 
ATOM     67  F   UNL     1     -11.690  25.913  -4.857  1.00  0.00    -0.206 F 
ATOM     68  C   UNL     1     -13.541  26.390  -6.218  1.00  0.00     0.059 A 
ATOM     69  C   UNL     1     -13.836  25.200  -8.316  1.00  0.00     0.059 A 
ATOM     70  F   UNL     1     -12.288  23.556  -8.950  1.00  0.00    -0.206 F 
ATOM     71  C   UNL     1     -14.271  26.140  -7.381  1.00  0.00     0.060 A 
BRANCH  71  72
ATOM     72  S   UNL     1     -15.793  27.068  -7.666  1.00  0.00     0.124 S 
ATOM     73  O   UNL     1     -16.719  26.395  -6.761  1.00  0.00    -0.237 OA
ATOM     74  O   UNL     1     -15.410  28.425  -7.287  1.00  0.00    -0.237 OA
ATOM     75  O   UNL     1     -16.049  26.870  -9.089  1.00  0.00    -0.744 OA
ENDBRANCH  71  72
ENDBRANCH  39  64
ENDBRANCH  13  14
ENDBRANCH   6   8
ENDBRANCH   3   4
ENDBRANCH   2   3
ENDBRANCH   1   2
BRANCH   1  76
ATOM     76  C   UNL     1      -0.793  12.231  -7.795  1.00  0.00     0.116 C 
BRANCH  76  77
ATOM     77  N   UNL     1      -1.695  12.205  -8.932  1.00  0.00    -0.351 N 
ATOM     78  C   UNL     1      -1.694  11.315  -9.981  1.00  0.00     0.269 C 
ATOM     79  H   UNL     1      -2.388  12.904  -8.955  1.00  0.00     0.163 HD
ATOM     80  O   UNL     1      -2.536  11.380 -10.871  1.00  0.00    -0.268 OA
BRANCH  78  81
ATOM     81  C   UNL     1      -0.735  10.188  -9.933  1.00  0.00     0.128 A 
ATOM     82  C   UNL     1      -1.193   8.996  -9.395  1.00  0.00     0.038 A 
ATOM     83  N   UNL     1       0.554  10.428 -10.292  1.00  0.00    -0.247 NA
ATOM     84  C   UNL     1      -0.269   7.978  -9.212  1.00  0.00     0.050 A 
ATOM     85  C   UNL     1       1.424   9.406 -10.100  1.00  0.00     0.158 A 
ATOM     86  C   UNL     1       1.072   8.200  -9.507  1.00  0.00     0.138 A 
BRANCH  86  87
ATOM     87  O   UNL     1       1.946   7.177  -9.351  1.00  0.00    -0.479 OA
BRANCH  87  88
ATOM     88  C   UNL     1       2.733   7.162  -8.164  1.00  0.00     0.262 C 
BRANCH  88  89
ATOM     89  C   UNL     1       2.228   6.131  -7.135  1.00  0.00     0.055 C 
BRANCH  89  90
ATOM     90  C   UNL     1       0.964   6.435  -6.333  1.00  0.00     0.006 CG0
ATOM     91  G   UNL     1       0.982   7.667  -5.435  1.00  0.00     0.000 G0
ENDBRANCH  89  90
ENDBRANCH  88  89
BRANCH  88  92
ATOM     92  C   UNL     1       3.385   8.397  -7.492  1.00  0.00     0.261 C 
ATOM     93  N   UNL     1       2.752   9.054  -6.485  1.00  0.00    -0.353 N 
ATOM     94  O   UNL     1       4.510   8.783  -7.820  1.00  0.00    -0.271 OA
ATOM     95  H   UNL     1       3.311   9.662  -5.949  1.00  0.00     0.163 HD
BRANCH  93  96
ATOM     96  C   UNL     1       1.366   8.973  -6.103  1.00  0.00     0.116 C 
BRANCH  96  97
ATOM     97  C   UNL     1       0.982   7.667  -5.435  1.00  0.00     0.021 CG0
ATOM     98  G   UNL     1       0.964   6.435  -6.333  1.00  0.00     0.000 G0
ENDBRANCH  96  97
ENDBRANCH  93  96
ENDBRANCH  88  92
ENDBRANCH  87  88
ENDBRANCH  86  87
ENDBRANCH  78  81
ENDBRANCH  76  77
ENDBRANCH   1  76
TORSDOF 16
