REMARK SMILES O=C(CCCC[C@@H]1CCSS1)NCCCCNC(=O)c1ccc(-c2c3nc(c(-c4c(F)cc(S(=O)(=O)[O-])cc4F)c4ccc([nH]4)c(-c4c(F)cc(S(=O)(=O)[O-])cc4F)c4nc(c(-c5c(F)cc(S(=O)(=O)[O-])cc5F)c5ccc2[nH]5)C=C4)C=C3)cc1
REMARK SMILES IDX 14 1 13 2 12 3 1 4 2 5 3 7 4 8 5 9 6 10 7 11 8 12 11 13 9 14
REMARK SMILES IDX 10 15 15 16 16 17 17 18 18 19 19 21 20 22 21 23 85 24 22 25
REMARK SMILES IDX 84 26 23 27 24 28 25 29 78 30 26 31 83 32 77 33 79 34 27 35
REMARK SMILES IDX 82 36 76 37 75 38 28 40 62 41 41 42 61 43 42 44 45 45 60 46
REMARK SMILES IDX 80 47 43 48 44 49 59 51 81 52 46 53 29 54 30 55 39 56 31 57
REMARK SMILES IDX 32 58 38 59 40 60 33 61 34 62 35 63 36 64 37 65 63 66 64 67
REMARK SMILES IDX 73 68 65 69 66 70 72 71 74 72 67 73 68 74 69 75 70 76 71 77
REMARK SMILES IDX 47 78 48 79 57 80 49 81 50 82 56 83 58 84 51 85 52 86 53 87
REMARK SMILES IDX 54 88 55 89
REMARK H PARENT 12 6 17 20 79 39 45 50
REMARK Flexibility Score: inf
ROOT
ATOM      1  C   UNL     1       2.346   1.585   3.201  1.00  0.00     0.023 C 
ENDROOT
BRANCH   1   2
ATOM      2  C   UNL     1       1.921   1.671   1.736  1.00  0.00     0.116 C 
BRANCH   2   3
ATOM      3  N   UNL     1       2.579   0.666   0.926  1.00  0.00    -0.356 N 
ATOM      4  O   UNL     1       0.767   0.140  -0.384  1.00  0.00    -0.275 OA
ATOM      5  C   UNL     1       1.947  -0.011  -0.089  1.00  0.00     0.219 C 
ATOM      6  H   UNL     1       3.523   0.458   1.112  1.00  0.00     0.163 HD
BRANCH   5   7
ATOM      7  C   UNL     1       2.843  -0.991  -0.824  1.00  0.00     0.100 C 
BRANCH   7   8
ATOM      8  C   UNL     1       3.756  -0.329  -1.856  1.00  0.00     0.010 C 
BRANCH   8   9
ATOM      9  C   UNL     1       4.918   0.505  -1.307  1.00  0.00     0.002 C 
BRANCH   9  10
ATOM     10  C   UNL     1       5.891  -0.214  -0.361  1.00  0.00     0.015 C 
BRANCH  10  11
ATOM     11  C   UNL     1       6.709  -1.325  -1.042  1.00  0.00     0.059 C 
ATOM     12  C   UNL     1       6.292  -2.731  -0.589  1.00  0.00     0.027 C 
ATOM     13  S   UNL     1       8.478  -1.159  -0.615  1.00  0.00    -0.091 SA
ATOM     14  C   UNL     1       7.322  -3.762  -1.039  1.00  0.00     0.083 C 
ATOM     15  S   UNL     1       8.928  -3.151  -0.493  1.00  0.00    -0.094 SA
ENDBRANCH  10  11
ENDBRANCH   9  10
ENDBRANCH   8   9
ENDBRANCH   7   8
ENDBRANCH   5   7
ENDBRANCH   2   3
ENDBRANCH   1   2
BRANCH   1  16
ATOM     16  C   UNL     1       3.842   1.791   3.463  1.00  0.00     0.023 C 
BRANCH  16  17
ATOM     17  C   UNL     1       4.415   3.124   2.992  1.00  0.00     0.116 C 
BRANCH  17  18
ATOM     18  N   UNL     1       3.837   4.259   3.694  1.00  0.00    -0.352 N 
ATOM     19  C   UNL     1       4.453   5.255   4.412  1.00  0.00     0.251 C 
ATOM     20  H   UNL     1       2.856   4.323   3.647  1.00  0.00     0.163 HD
ATOM     21  O   UNL     1       3.768   6.031   5.077  1.00  0.00    -0.269 OA
BRANCH  19  22
ATOM     22  C   UNL     1       5.928   5.388   4.413  1.00  0.00     0.039 A 
ATOM     23  C   UNL     1       6.580   5.657   5.620  1.00  0.00     0.014 A 
ATOM     24  C   UNL     1       6.671   5.267   3.235  1.00  0.00     0.014 A 
ATOM     25  C   UNL     1       7.976   5.734   5.657  1.00  0.00     0.010 A 
ATOM     26  C   UNL     1       8.065   5.269   3.286  1.00  0.00     0.010 A 
ATOM     27  C   UNL     1       8.735   5.501   4.497  1.00  0.00    -0.014 A 
BRANCH  27  28
ATOM     28  C   UNL     1      10.223   5.480   4.539  1.00  0.00     0.031 A 
ATOM     29  C   UNL     1      11.023   6.485   3.752  1.00  0.00     0.074 A 
ATOM     30  C   UNL     1      10.856   4.516   5.237  1.00  0.00     0.049 A 
ATOM     31  N   UNL     1      12.321   6.583   3.615  1.00  0.00    -0.248 NA
ATOM     32  C   UNL     1      10.265   7.499   3.002  1.00  0.00     0.031 C 
ATOM     33  C   UNL     1      10.198   3.458   6.008  1.00  0.00     0.029 A 
ATOM     34  N   UNL     1      12.195   4.260   5.405  1.00  0.00    -0.354 N 
ATOM     35  C   UNL     1      12.535   7.654   2.755  1.00  0.00     0.074 A 
ATOM     36  C   UNL     1      11.231   8.144   2.363  1.00  0.00     0.031 C 
ATOM     37  C   UNL     1      11.132   2.685   6.584  1.00  0.00     0.029 A 
ATOM     38  C   UNL     1      12.454   3.159   6.190  1.00  0.00     0.049 A 
ATOM     39  H   UNL     1      12.903   4.811   5.002  1.00  0.00     0.167 HD
ATOM     40  C   UNL     1      13.709   8.193   2.346  1.00  0.00     0.037 A 
ATOM     41  C   UNL     1      13.623   2.589   6.545  1.00  0.00     0.037 A 
ATOM     42  C   UNL     1      15.004   7.713   2.757  1.00  0.00     0.049 A 
ATOM     43  C   UNL     1      14.913   3.196   6.062  1.00  0.00     0.074 A 
ATOM     44  C   UNL     1      16.250   8.232   2.447  1.00  0.00     0.029 A 
ATOM     45  N   UNL     1      15.224   6.602   3.558  1.00  0.00    -0.354 N 
ATOM     46  N   UNL     1      15.096   4.253   5.307  1.00  0.00    -0.248 NA
ATOM     47  C   UNL     1      16.157   2.537   6.484  1.00  0.00     0.031 C 
ATOM     48  C   UNL     1      17.223   7.402   3.012  1.00  0.00     0.029 A 
ATOM     49  C   UNL     1      16.585   6.402   3.728  1.00  0.00     0.049 A 
ATOM     50  H   UNL     1      14.517   6.039   3.948  1.00  0.00     0.167 HD
ATOM     51  C   UNL     1      16.474   4.404   5.191  1.00  0.00     0.074 A 
ATOM     52  C   UNL     1      17.077   3.337   5.963  1.00  0.00     0.031 C 
ATOM     53  C   UNL     1      17.176   5.342   4.508  1.00  0.00     0.037 A 
BRANCH  40  54
ATOM     54  C   UNL     1      13.653   9.363   1.399  1.00  0.00     0.058 A 
ATOM     55  C   UNL     1      13.191  10.625   1.808  1.00  0.00     0.135 A 
ATOM     56  C   UNL     1      14.116   9.234   0.079  1.00  0.00     0.135 A 
ATOM     57  F   UNL     1      12.725  10.804   3.054  1.00  0.00    -0.206 F 
ATOM     58  C   UNL     1      13.163  11.708   0.935  1.00  0.00     0.059 A 
ATOM     59  C   UNL     1      14.126  10.312  -0.802  1.00  0.00     0.059 A 
ATOM     60  F   UNL     1      14.571   8.052  -0.366  1.00  0.00    -0.206 F 
ATOM     61  C   UNL     1      13.634  11.542  -0.368  1.00  0.00     0.060 A 
BRANCH  61  62
ATOM     62  S   UNL     1      13.598  12.961  -1.484  1.00  0.00     0.124 S 
ATOM     63  O   UNL     1      12.166  13.097  -1.735  1.00  0.00    -0.237 OA
ATOM     64  O   UNL     1      14.201  14.011  -0.671  1.00  0.00    -0.237 OA
ATOM     65  O   UNL     1      14.395  12.518  -2.624  1.00  0.00    -0.744 OA
ENDBRANCH  61  62
ENDBRANCH  40  54
BRANCH  41  66
ATOM     66  C   UNL     1      13.630   1.383   7.419  1.00  0.00     0.058 A 
ATOM     67  C   UNL     1      14.115   1.448   8.734  1.00  0.00     0.135 A 
ATOM     68  C   UNL     1      13.153   0.145   6.961  1.00  0.00     0.135 A 
ATOM     69  F   UNL     1      14.590   2.606   9.217  1.00  0.00    -0.206 F 
ATOM     70  C   UNL     1      14.146   0.327   9.557  1.00  0.00     0.059 A 
ATOM     71  C   UNL     1      13.146  -0.984   7.774  1.00  0.00     0.059 A 
ATOM     72  F   UNL     1      12.663   0.031   5.716  1.00  0.00    -0.206 F 
ATOM     73  C   UNL     1      13.656  -0.886   9.068  1.00  0.00     0.060 A 
BRANCH  73  74
ATOM     74  S   UNL     1      13.662  -2.324  10.160  1.00  0.00     0.124 S 
ATOM     75  O   UNL     1      15.084  -2.640  10.223  1.00  0.00    -0.237 OA
ATOM     76  O   UNL     1      13.073  -1.783  11.381  1.00  0.00    -0.237 OA
ATOM     77  O   UNL     1      12.832  -3.290   9.447  1.00  0.00    -0.744 OA
ENDBRANCH  73  74
ENDBRANCH  41  66
BRANCH  53  78
ATOM     78  C   UNL     1      18.678   5.291   4.597  1.00  0.00     0.058 A 
ATOM     79  C   UNL     1      19.425   4.286   3.964  1.00  0.00     0.135 A 
ATOM     80  C   UNL     1      19.382   6.295   5.283  1.00  0.00     0.135 A 
ATOM     81  F   UNL     1      18.805   3.298   3.300  1.00  0.00    -0.206 F 
ATOM     82  C   UNL     1      20.815   4.263   4.029  1.00  0.00     0.059 A 
ATOM     83  C   UNL     1      20.772   6.311   5.334  1.00  0.00     0.059 A 
ATOM     84  F   UNL     1      18.718   7.287   5.898  1.00  0.00    -0.206 F 
ATOM     85  C   UNL     1      21.480   5.283   4.713  1.00  0.00     0.060 A 
BRANCH  85  86
ATOM     86  S   UNL     1      23.285   5.261   4.759  1.00  0.00     0.124 S 
ATOM     87  O   UNL     1      23.543   4.155   5.676  1.00  0.00    -0.237 OA
ATOM     88  O   UNL     1      23.629   5.020   3.361  1.00  0.00    -0.237 OA
ATOM     89  O   UNL     1      23.629   6.587   5.263  1.00  0.00    -0.744 OA
ENDBRANCH  85  86
ENDBRANCH  53  78
ENDBRANCH  27  28
ENDBRANCH  19  22
ENDBRANCH  17  18
ENDBRANCH  16  17
ENDBRANCH   1  16
TORSDOF 18
