REMARK SMILES O=C(NCCCCNC(=O)c1cc(-c2cc3ccccc3s2)ccn1)c1ccc(-c2c3nc(c(-c4c(F)cc(S(=O)(=O)[O-])cc4F)c4ccc([nH]4)c(-c4c(F)cc(S(=O)(=O)[O-])cc4F)c4nc(c(-c5c(F)cc(S(=O)(=O)[O-])cc5F)c5ccc2[nH]5)C=C4)C=C3)cc1
REMARK SMILES IDX 4 1 3 2 1 3 2 4 26 6 27 7 91 8 28 9 90 10 29 11 30 12 31 13
REMARK SMILES IDX 84 14 32 15 89 16 83 17 85 18 33 19 88 20 82 21 81 22 34 24
REMARK SMILES IDX 68 25 47 26 67 27 48 28 51 29 66 30 86 31 49 32 50 33 65 35
REMARK SMILES IDX 87 36 52 37 35 38 36 39 45 40 37 41 38 42 44 43 46 44 39 45
REMARK SMILES IDX 40 46 41 47 42 48 43 49 69 50 70 51 79 52 71 53 72 54 78 55
REMARK SMILES IDX 80 56 73 57 74 58 75 59 76 60 77 61 53 62 54 63 63 64 55 65
REMARK SMILES IDX 56 66 62 67 64 68 57 69 58 70 59 71 60 72 61 73 5 74 6 75
REMARK SMILES IDX 7 76 8 77 9 78 10 80 11 81 12 82 25 83 13 84 24 85 23 86
REMARK SMILES IDX 14 87 15 88 22 89 16 90 21 91 17 92 20 93 18 94 19 95
REMARK H PARENT 3 5 85 23 51 34 8 79
REMARK Flexibility Score: inf
ROOT
ATOM      1  C   UNL     1       4.688  -0.985   0.865  1.00  0.00     0.116 C 
ENDROOT
BRANCH   1   2
ATOM      2  N   UNL     1       3.255  -1.037   0.622  1.00  0.00    -0.352 N 
ATOM      3  O   UNL     1       1.228  -0.306  -0.024  1.00  0.00    -0.269 OA
ATOM      4  C   UNL     1       2.447  -0.163  -0.064  1.00  0.00     0.251 C 
ATOM      5  H   UNL     1       2.794  -1.817   1.007  1.00  0.00     0.163 HD
BRANCH   4   6
ATOM      6  C   UNL     1       3.037   0.962  -0.824  1.00  0.00     0.039 A 
ATOM      7  C   UNL     1       4.136   0.769  -1.665  1.00  0.00     0.014 A 
ATOM      8  C   UNL     1       2.463   2.231  -0.702  1.00  0.00     0.014 A 
ATOM      9  C   UNL     1       4.745   1.864  -2.275  1.00  0.00     0.010 A 
ATOM     10  C   UNL     1       3.032   3.317  -1.371  1.00  0.00     0.010 A 
ATOM     11  C   UNL     1       4.197   3.148  -2.137  1.00  0.00    -0.014 A 
BRANCH  11  12
ATOM     12  C   UNL     1       4.823   4.309  -2.819  1.00  0.00     0.031 A 
ATOM     13  C   UNL     1       5.430   5.430  -2.022  1.00  0.00     0.074 A 
ATOM     14  C   UNL     1       4.816   4.363  -4.165  1.00  0.00     0.049 A 
ATOM     15  N   UNL     1       5.940   6.559  -2.442  1.00  0.00    -0.248 NA
ATOM     16  C   UNL     1       5.461   5.263  -0.561  1.00  0.00     0.031 C 
ATOM     17  C   UNL     1       4.257   3.337  -5.045  1.00  0.00     0.029 A 
ATOM     18  N   UNL     1       5.282   5.324  -5.026  1.00  0.00    -0.354 N 
ATOM     19  C   UNL     1       6.327   7.251  -1.300  1.00  0.00     0.074 A 
ATOM     20  C   UNL     1       5.976   6.420  -0.167  1.00  0.00     0.031 C 
ATOM     21  C   UNL     1       4.416   3.718  -6.321  1.00  0.00     0.029 A 
ATOM     22  C   UNL     1       5.035   5.040  -6.347  1.00  0.00     0.049 A 
ATOM     23  H   UNL     1       5.747   6.138  -4.726  1.00  0.00     0.167 HD
ATOM     24  C   UNL     1       6.923   8.465  -1.207  1.00  0.00     0.037 A 
ATOM     25  C   UNL     1       5.250   5.771  -7.457  1.00  0.00     0.037 A 
ATOM     26  C   UNL     1       7.276   9.280  -2.341  1.00  0.00     0.049 A 
ATOM     27  C   UNL     1       5.889   7.124  -7.333  1.00  0.00     0.074 A 
ATOM     28  C   UNL     1       7.911  10.509  -2.354  1.00  0.00     0.029 A 
ATOM     29  N   UNL     1       7.018   8.951  -3.665  1.00  0.00    -0.354 N 
ATOM     30  N   UNL     1       6.273   7.753  -6.248  1.00  0.00    -0.248 NA
ATOM     31  C   UNL     1       6.126   7.867  -8.577  1.00  0.00     0.031 C 
ATOM     32  C   UNL     1       7.998  10.943  -3.682  1.00  0.00     0.029 A 
ATOM     33  C   UNL     1       7.462   9.962  -4.501  1.00  0.00     0.049 A 
ATOM     34  H   UNL     1       6.582   8.121  -3.966  1.00  0.00     0.167 HD
ATOM     35  C   UNL     1       6.820   8.956  -6.678  1.00  0.00     0.074 A 
ATOM     36  C   UNL     1       6.717   8.966  -8.124  1.00  0.00     0.031 C 
ATOM     37  C   UNL     1       7.364   9.954  -5.941  1.00  0.00     0.037 A 
BRANCH  24  38
ATOM     38  C   UNL     1       7.197   8.999   0.174  1.00  0.00     0.058 A 
ATOM     39  C   UNL     1       8.191   8.450   0.999  1.00  0.00     0.135 A 
ATOM     40  C   UNL     1       6.454  10.080   0.677  1.00  0.00     0.135 A 
ATOM     41  F   UNL     1       8.924   7.409   0.573  1.00  0.00    -0.206 F 
ATOM     42  C   UNL     1       8.409   8.922   2.290  1.00  0.00     0.059 A 
ATOM     43  C   UNL     1       6.672  10.586   1.955  1.00  0.00     0.059 A 
ATOM     44  F   UNL     1       5.495  10.648  -0.070  1.00  0.00    -0.206 F 
ATOM     45  C   UNL     1       7.636   9.985   2.763  1.00  0.00     0.060 A 
BRANCH  45  46
ATOM     46  S   UNL     1       7.897  10.560   4.454  1.00  0.00     0.124 S 
ATOM     47  O   UNL     1       7.245   9.504   5.222  1.00  0.00    -0.237 OA
ATOM     48  O   UNL     1       9.353  10.605   4.551  1.00  0.00    -0.237 OA
ATOM     49  O   UNL     1       7.230  11.858   4.479  1.00  0.00    -0.744 OA
ENDBRANCH  45  46
ENDBRANCH  24  38
BRANCH  25  50
ATOM     50  C   UNL     1       4.846   5.218  -8.775  1.00  0.00     0.058 A 
ATOM     51  C   UNL     1       5.800   4.737  -9.680  1.00  0.00     0.135 A 
ATOM     52  C   UNL     1       3.490   5.081  -9.114  1.00  0.00     0.135 A 
ATOM     53  F   UNL     1       7.107   4.852  -9.401  1.00  0.00    -0.206 F 
ATOM     54  C   UNL     1       5.427   4.130 -10.874  1.00  0.00     0.059 A 
ATOM     55  C   UNL     1       3.091   4.456 -10.291  1.00  0.00     0.059 A 
ATOM     56  F   UNL     1       2.539   5.510  -8.270  1.00  0.00    -0.206 F 
ATOM     57  C   UNL     1       4.069   3.983 -11.165  1.00  0.00     0.060 A 
BRANCH  57  58
ATOM     58  S   UNL     1       3.595   3.103 -12.670  1.00  0.00     0.124 S 
ATOM     59  O   UNL     1       3.905   4.090 -13.697  1.00  0.00    -0.237 OA
ATOM     60  O   UNL     1       4.464   1.931 -12.626  1.00  0.00    -0.237 OA
ATOM     61  O   UNL     1       2.176   2.828 -12.464  1.00  0.00    -0.744 OA
ENDBRANCH  57  58
ENDBRANCH  25  50
BRANCH  37  62
ATOM     62  C   UNL     1       7.934  11.133  -6.678  1.00  0.00     0.058 A 
ATOM     63  C   UNL     1       7.112  12.122  -7.239  1.00  0.00     0.135 A 
ATOM     64  C   UNL     1       9.325  11.317  -6.746  1.00  0.00     0.135 A 
ATOM     65  F   UNL     1       5.777  11.988  -7.210  1.00  0.00    -0.206 F 
ATOM     66  C   UNL     1       7.651  13.253  -7.845  1.00  0.00     0.059 A 
ATOM     67  C   UNL     1       9.884  12.450  -7.327  1.00  0.00     0.059 A 
ATOM     68  F   UNL     1      10.153  10.401  -6.218  1.00  0.00    -0.206 F 
ATOM     69  C   UNL     1       9.038  13.412  -7.877  1.00  0.00     0.060 A 
BRANCH  69  70
ATOM     70  S   UNL     1       9.723  14.917  -8.603  1.00  0.00     0.124 S 
ATOM     71  O   UNL     1       9.539  14.666 -10.028  1.00  0.00    -0.237 OA
ATOM     72  O   UNL     1       8.875  15.956  -8.027  1.00  0.00    -0.237 OA
ATOM     73  O   UNL     1      11.107  14.918  -8.139  1.00  0.00    -0.744 OA
ENDBRANCH  69  70
ENDBRANCH  37  62
ENDBRANCH  11  12
ENDBRANCH   4   6
ENDBRANCH   1   2
BRANCH   1  74
ATOM     74  C   UNL     1       5.035  -0.907   2.348  1.00  0.00     0.023 C 
BRANCH  74  75
ATOM     75  C   UNL     1       4.562  -2.086   3.197  1.00  0.00     0.023 C 
BRANCH  75  76
ATOM     76  C   UNL     1       4.963  -3.467   2.690  1.00  0.00     0.116 C 
BRANCH  76  77
ATOM     77  N   UNL     1       6.402  -3.655   2.603  1.00  0.00    -0.351 N 
ATOM     78  C   UNL     1       7.166  -4.716   3.049  1.00  0.00     0.269 C 
ATOM     79  H   UNL     1       6.900  -2.927   2.166  1.00  0.00     0.163 HD
ATOM     80  O   UNL     1       8.386  -4.687   2.920  1.00  0.00    -0.268 OA
BRANCH  78  81
ATOM     81  C   UNL     1       6.495  -5.888   3.678  1.00  0.00     0.128 A 
ATOM     82  C   UNL     1       5.489  -6.554   2.992  1.00  0.00     0.043 A 
ATOM     83  N   UNL     1       6.865  -6.181   4.949  1.00  0.00    -0.251 NA
ATOM     84  C   UNL     1       4.754  -7.522   3.676  1.00  0.00    -0.004 A 
ATOM     85  C   UNL     1       6.178  -7.161   5.567  1.00  0.00     0.112 A 
ATOM     86  C   UNL     1       5.116  -7.836   4.989  1.00  0.00     0.030 A 
BRANCH  84  87
ATOM     87  C   UNL     1       3.555  -8.111   3.078  1.00  0.00     0.036 A 
ATOM     88  C   UNL     1       2.280  -8.151   3.605  1.00  0.00     0.029 A 
ATOM     89  S   UNL     1       3.609  -8.840   1.535  1.00  0.00    -0.135 S 
ATOM     90  C   UNL     1       1.321  -8.756   2.728  1.00  0.00    -0.007 A 
ATOM     91  C   UNL     1       1.921  -9.181   1.541  1.00  0.00     0.035 A 
ATOM     92  C   UNL     1      -0.070  -8.958   2.888  1.00  0.00     0.009 A 
ATOM     93  C   UNL     1       1.174  -9.799   0.520  1.00  0.00     0.019 A 
ATOM     94  C   UNL     1      -0.816  -9.572   1.878  1.00  0.00     0.001 A 
ATOM     95  C   UNL     1      -0.197  -9.988   0.706  1.00  0.00     0.001 A 
ENDBRANCH  84  87
ENDBRANCH  78  81
ENDBRANCH  76  77
ENDBRANCH  75  76
ENDBRANCH  74  75
ENDBRANCH   1  74
TORSDOF 15
