REMARK SMILES CCCn1nc(C(=O)NCCCCNC(=O)c2ccc(-c3c4nc(c(-c5c(F)cc(S(=O)(=O)[O-])cc5F)c5ccc([nH]5)c(-c5c(F)cc(S(=O)(=O)[O-])cc5F)c5nc(c(-c6c(F)cc(S(=O)(=O)[O-])cc6F)c6ccc3[nH]6)C=C5)C=C4)cc2)c2c1CC[C@@H]([NH+]1CC[NH+](Cc3ccccn3)CC1)C2
REMARK SMILES IDX 11 1 10 2 9 3 7 4 8 5 6 7 4 8 5 9 84 10 83 11 85 12 101 13
REMARK SMILES IDX 86 14 87 15 3 16 2 17 1 18 88 19 89 20 100 21 90 23 99 24
REMARK SMILES IDX 91 25 92 27 93 28 94 29 98 30 95 31 97 32 96 33 12 34 13 35
REMARK SMILES IDX 14 36 15 37 16 39 17 40 18 41 82 42 19 43 81 44 20 45 21 46
REMARK SMILES IDX 22 47 75 48 23 49 80 50 74 51 76 52 24 53 79 54 73 55 72 56
REMARK SMILES IDX 25 58 59 59 38 60 58 61 39 62 42 63 57 64 77 65 40 66 41 67
REMARK SMILES IDX 56 69 78 70 43 71 26 72 27 73 36 74 28 75 29 76 35 77 37 78
REMARK SMILES IDX 30 79 31 80 32 81 33 82 34 83 60 84 61 85 70 86 62 87 63 88
REMARK SMILES IDX 69 89 71 90 64 91 65 92 66 93 67 94 68 95 44 96 45 97 54 98
REMARK SMILES IDX 46 99 47 100 53 101 55 102 48 103 49 104 50 105 51 106
REMARK SMILES IDX 52 107
REMARK H PARENT 9 6 88 22 91 26 14 38 76 57 42 68
REMARK Flexibility Score: inf
ROOT
ATOM      1  C   UNL     1      -1.459  -7.174  -3.917  1.00  0.00     0.023 C 
ENDROOT
BRANCH   1   2
ATOM      2  C   UNL     1      -0.769  -7.113  -2.535  1.00  0.00     0.116 C 
BRANCH   2   3
ATOM      3  N   UNL     1       0.614  -6.643  -2.601  1.00  0.00    -0.351 N 
ATOM      4  C   UNL     1       1.296  -5.447  -2.453  1.00  0.00     0.272 C 
ATOM      5  O   UNL     1       2.527  -5.582  -2.482  1.00  0.00    -0.267 OA
ATOM      6  H   UNL     1       1.232  -7.381  -2.809  1.00  0.00     0.163 HD
BRANCH   4   7
ATOM      7  C   UNL     1       0.685  -4.094  -2.291  1.00  0.00     0.153 A 
ATOM      8  N   UNL     1       0.694  -1.945  -2.003  1.00  0.00    -0.269 N 
ATOM      9  N   UNL     1       1.483  -3.037  -1.990  1.00  0.00    -0.167 NA
ATOM     10  C   UNL     1      -0.616  -2.259  -2.194  1.00  0.00     0.043 A 
ATOM     11  C   UNL     1      -0.629  -3.600  -2.503  1.00  0.00     0.012 A 
ATOM     12  C   UNL     1      -1.770  -1.331  -2.277  1.00  0.00     0.062 C 
ATOM     13  C   UNL     1      -1.821  -4.240  -3.070  1.00  0.00     0.105 C 
ATOM     14  C   UNL     1      -3.044  -2.078  -2.722  1.00  0.00     0.072 C 
ATOM     15  C   UNL     1      -2.852  -3.281  -3.672  1.00  0.00     0.189 C 
BRANCH   8  16
ATOM     16  C   UNL     1       1.309  -0.629  -2.090  1.00  0.00     0.144 C 
BRANCH  16  17
ATOM     17  C   UNL     1       0.874   0.383  -1.031  1.00  0.00     0.020 C 
ATOM     18  C   UNL     1       1.209  -0.064   0.380  1.00  0.00     0.006 C 
ENDBRANCH  16  17
ENDBRANCH   8  16
BRANCH  15  19
ATOM     19  N   UNL     1      -2.587  -3.054  -5.115  1.00  0.00    -0.323 N 
ATOM     20  C   UNL     1      -1.448  -2.200  -5.444  1.00  0.00     0.324 C 
ATOM     21  C   UNL     1      -3.821  -2.808  -5.871  1.00  0.00     0.324 C 
ATOM     22  H   UNL     1      -2.231  -3.946  -5.459  1.00  0.00     0.348 HD
ATOM     23  C   UNL     1      -1.366  -1.715  -6.901  1.00  0.00     0.324 C 
ATOM     24  C   UNL     1      -3.668  -2.210  -7.289  1.00  0.00     0.324 C 
ATOM     25  N   UNL     1      -2.619  -1.198  -7.451  1.00  0.00    -0.321 N 
ATOM     26  H   UNL     1      -2.474  -1.047  -8.450  1.00  0.00     0.348 HD
BRANCH  25  27
ATOM     27  C   UNL     1      -2.991   0.172  -7.047  1.00  0.00     0.319 C 
BRANCH  27  28
ATOM     28  C   UNL     1      -3.724   0.440  -5.738  1.00  0.00     0.095 A 
ATOM     29  C   UNL     1      -3.072   1.046  -4.664  1.00  0.00     0.030 A 
ATOM     30  N   UNL     1      -5.048   0.130  -5.680  1.00  0.00    -0.255 NA
ATOM     31  C   UNL     1      -3.781   1.293  -3.486  1.00  0.00     0.004 A 
ATOM     32  C   UNL     1      -5.702   0.352  -4.516  1.00  0.00     0.111 A 
ATOM     33  C   UNL     1      -5.118   0.924  -3.401  1.00  0.00     0.020 A 
ENDBRANCH  27  28
ENDBRANCH  25  27
ENDBRANCH  15  19
ENDBRANCH   4   7
ENDBRANCH   2   3
ENDBRANCH   1   2
BRANCH   1  34
ATOM     34  C   UNL     1      -1.794  -8.553  -4.487  1.00  0.00     0.023 C 
BRANCH  34  35
ATOM     35  C   UNL     1      -3.007  -9.205  -3.830  1.00  0.00     0.116 C 
BRANCH  35  36
ATOM     36  N   UNL     1      -4.288  -8.611  -4.234  1.00  0.00    -0.352 N 
ATOM     37  C   UNL     1      -5.520  -8.852  -3.651  1.00  0.00     0.251 C 
ATOM     38  H   UNL     1      -4.269  -7.981  -4.991  1.00  0.00     0.163 HD
ATOM     39  O   UNL     1      -6.572  -8.671  -4.257  1.00  0.00    -0.269 OA
BRANCH  37  40
ATOM     40  C   UNL     1      -5.522  -9.312  -2.256  1.00  0.00     0.039 A 
ATOM     41  C   UNL     1      -6.159 -10.496  -1.873  1.00  0.00     0.014 A 
ATOM     42  C   UNL     1      -4.732  -8.585  -1.366  1.00  0.00     0.014 A 
ATOM     43  C   UNL     1      -5.905 -11.006  -0.602  1.00  0.00     0.010 A 
ATOM     44  C   UNL     1      -4.396  -9.150  -0.161  1.00  0.00     0.010 A 
ATOM     45  C   UNL     1      -4.996 -10.345   0.241  1.00  0.00    -0.014 A 
BRANCH  45  46
ATOM     46  C   UNL     1      -4.536 -10.973   1.481  1.00  0.00     0.031 A 
ATOM     47  C   UNL     1      -3.929 -12.329   1.319  1.00  0.00     0.074 A 
ATOM     48  C   UNL     1      -4.408 -10.283   2.636  1.00  0.00     0.049 A 
ATOM     49  N   UNL     1      -4.363 -13.459   1.773  1.00  0.00    -0.248 NA
ATOM     50  C   UNL     1      -2.759 -12.464   0.433  1.00  0.00     0.031 C 
ATOM     51  C   UNL     1      -4.651  -8.851   2.859  1.00  0.00     0.029 A 
ATOM     52  N   UNL     1      -3.905 -10.687   3.834  1.00  0.00    -0.354 N 
ATOM     53  C   UNL     1      -3.393 -14.406   1.442  1.00  0.00     0.074 A 
ATOM     54  C   UNL     1      -2.554 -13.784   0.454  1.00  0.00     0.031 C 
ATOM     55  C   UNL     1      -4.069  -8.467   4.015  1.00  0.00     0.029 A 
ATOM     56  C   UNL     1      -3.576  -9.647   4.699  1.00  0.00     0.049 A 
ATOM     57  H   UNL     1      -3.784 -11.635   4.069  1.00  0.00     0.167 HD
ATOM     58  C   UNL     1      -3.207 -15.527   2.199  1.00  0.00     0.037 A 
ATOM     59  C   UNL     1      -2.927  -9.741   5.886  1.00  0.00     0.037 A 
ATOM     60  C   UNL     1      -4.326 -15.741   3.083  1.00  0.00     0.049 A 
ATOM     61  C   UNL     1      -3.061 -11.147   6.340  1.00  0.00     0.074 A 
ATOM     62  C   UNL     1      -5.684 -15.930   2.918  1.00  0.00     0.029 A 
ATOM     63  N   UNL     1      -4.153 -15.409   4.405  1.00  0.00    -0.354 N 
ATOM     64  N   UNL     1      -4.196 -11.698   6.674  1.00  0.00    -0.248 NA
ATOM     65  C   UNL     1      -1.993 -12.076   6.009  1.00  0.00     0.031 C 
ATOM     66  C   UNL     1      -6.288 -15.239   4.010  1.00  0.00     0.029 A 
ATOM     67  C   UNL     1      -5.268 -14.729   4.815  1.00  0.00     0.049 A 
ATOM     68  H   UNL     1      -3.367 -15.622   4.958  1.00  0.00     0.167 HD
ATOM     69  C   UNL     1      -4.121 -12.991   6.179  1.00  0.00     0.074 A 
ATOM     70  C   UNL     1      -2.705 -13.199   5.885  1.00  0.00     0.031 C 
ATOM     71  C   UNL     1      -5.246 -13.660   5.790  1.00  0.00     0.037 A 
BRANCH  58  72
ATOM     72  C   UNL     1      -1.867 -16.200   2.448  1.00  0.00     0.058 A 
ATOM     73  C   UNL     1      -1.833 -17.400   3.195  1.00  0.00     0.135 A 
ATOM     74  C   UNL     1      -0.614 -15.576   2.260  1.00  0.00     0.135 A 
ATOM     75  F   UNL     1      -2.959 -18.093   3.430  1.00  0.00    -0.206 F 
ATOM     76  C   UNL     1      -0.667 -17.879   3.797  1.00  0.00     0.059 A 
ATOM     77  C   UNL     1       0.568 -16.066   2.805  1.00  0.00     0.059 A 
ATOM     78  F   UNL     1      -0.480 -14.408   1.622  1.00  0.00    -0.206 F 
ATOM     79  C   UNL     1       0.525 -17.188   3.614  1.00  0.00     0.060 A 
BRANCH  79  80
ATOM     80  S   UNL     1       2.005 -17.725   4.490  1.00  0.00     0.124 S 
ATOM     81  O   UNL     1       1.665 -17.381   5.866  1.00  0.00    -0.237 OA
ATOM     82  O   UNL     1       2.043 -19.149   4.175  1.00  0.00    -0.237 OA
ATOM     83  O   UNL     1       3.062 -16.925   3.879  1.00  0.00    -0.744 OA
ENDBRANCH  79  80
ENDBRANCH  58  72
BRANCH  59  84
ATOM     84  C   UNL     1      -1.972  -8.785   6.505  1.00  0.00     0.058 A 
ATOM     85  C   UNL     1      -1.597  -8.905   7.855  1.00  0.00     0.135 A 
ATOM     86  C   UNL     1      -1.189  -7.917   5.717  1.00  0.00     0.135 A 
ATOM     87  F   UNL     1      -2.278  -9.720   8.674  1.00  0.00    -0.206 F 
ATOM     88  C   UNL     1      -0.477  -8.251   8.380  1.00  0.00     0.059 A 
ATOM     89  C   UNL     1      -0.073  -7.247   6.220  1.00  0.00     0.059 A 
ATOM     90  F   UNL     1      -1.431  -7.767   4.406  1.00  0.00    -0.206 F 
ATOM     91  C   UNL     1       0.294  -7.442   7.546  1.00  0.00     0.060 A 
BRANCH  91  92
ATOM     92  S   UNL     1       1.845  -6.749   8.171  1.00  0.00     0.124 S 
ATOM     93  O   UNL     1       1.368  -5.753   9.124  1.00  0.00    -0.237 OA
ATOM     94  O   UNL     1       2.497  -7.921   8.745  1.00  0.00    -0.237 OA
ATOM     95  O   UNL     1       2.482  -6.211   6.971  1.00  0.00    -0.744 OA
ENDBRANCH  91  92
ENDBRANCH  59  84
BRANCH  71  96
ATOM     96  C   UNL     1      -6.583 -13.122   6.232  1.00  0.00     0.058 A 
ATOM     97  C   UNL     1      -7.125 -11.888   5.834  1.00  0.00     0.135 A 
ATOM     98  C   UNL     1      -7.411 -13.971   6.982  1.00  0.00     0.135 A 
ATOM     99  F   UNL     1      -6.443 -11.059   5.033  1.00  0.00    -0.206 F 
ATOM    100  C   UNL     1      -8.416 -11.500   6.199  1.00  0.00     0.059 A 
ATOM    101  C   UNL     1      -8.711 -13.620   7.330  1.00  0.00     0.059 A 
ATOM    102  F   UNL     1      -6.974 -15.190   7.342  1.00  0.00    -0.206 F 
ATOM    103  C   UNL     1      -9.204 -12.375   6.946  1.00  0.00     0.060 A 
BRANCH 103 104
ATOM    104  S   UNL     1     -10.899 -11.906   7.354  1.00  0.00     0.124 S 
ATOM    105  O   UNL     1     -10.697 -10.864   8.355  1.00  0.00    -0.237 OA
ATOM    106  O   UNL     1     -11.423 -11.456   6.068  1.00  0.00    -0.237 OA
ATOM    107  O   UNL     1     -11.485 -13.147   7.856  1.00  0.00    -0.744 OA
ENDBRANCH 103 104
ENDBRANCH  71  96
ENDBRANCH  45  46
ENDBRANCH  37  40
ENDBRANCH  35  36
ENDBRANCH  34  35
ENDBRANCH   1  34
TORSDOF 19
