REMARK SMILES O=C(NCCCCNC(=O)[C@@H]1CCCC[C@H]1C(=O)Nc1sc2c(c1C(=O)NC1CCCC1)CCC2)c1ccc(-c2c3nc(c(-c4c(F)cc(S(=O)(=O)[O-])cc4F)c4ccc([nH]4)c(-c4c(F)cc(S(=O)(=O)[O-])cc4F)c4nc(c(-c5c(F)cc(S(=O)(=O)[O-])cc5F)c5ccc2[nH]5)C=C4)C=C3)cc1
REMARK SMILES IDX 6 1 5 2 4 3 3 4 1 5 2 6 36 8 37 9 101 10 38 11 100 12 39 13
REMARK SMILES IDX 40 14 41 15 94 16 42 17 99 18 93 19 95 20 43 21 98 22 92 23
REMARK SMILES IDX 91 24 44 26 78 27 57 28 77 29 58 30 61 31 76 32 96 33 59 34
REMARK SMILES IDX 60 35 75 37 97 38 62 39 45 40 46 41 55 42 47 43 48 44 54 45
REMARK SMILES IDX 56 46 49 47 50 48 51 49 52 50 53 51 79 52 80 53 89 54 81 55
REMARK SMILES IDX 82 56 88 57 90 58 83 59 84 60 85 61 86 62 87 63 63 64 64 65
REMARK SMILES IDX 73 66 65 67 66 68 72 69 74 70 67 71 68 72 69 73 70 74 71 75
REMARK SMILES IDX 7 76 8 77 9 78 10 80 11 81 12 82 16 83 13 84 15 85 14 86
REMARK SMILES IDX 17 87 18 88 19 89 20 91 21 92 24 93 22 94 23 95 35 96 33 97
REMARK SMILES IDX 34 98 25 99 26 100 27 101 28 103 29 104 32 105 30 106 31 107
REMARK H PARENT 3 7 95 25 61 36 8 79 19 90 27 102
REMARK Flexibility Score: inf
ROOT
ATOM      1  C   UNL     1       4.564  -3.309  -0.236  1.00  0.00     0.023 C 
ENDROOT
BRANCH   1   2
ATOM      2  C   UNL     1       5.100  -2.048   0.454  1.00  0.00     0.023 C 
BRANCH   2   3
ATOM      3  C   UNL     1       4.899  -0.755  -0.344  1.00  0.00     0.116 C 
BRANCH   3   4
ATOM      4  N   UNL     1       3.531  -0.520  -0.763  1.00  0.00    -0.352 N 
ATOM      5  O   UNL     1       1.420   0.124  -0.853  1.00  0.00    -0.269 OA
ATOM      6  C   UNL     1       2.414  -0.033  -0.139  1.00  0.00     0.251 C 
ATOM      7  H   UNL     1       3.370  -0.766  -1.703  1.00  0.00     0.163 HD
BRANCH   6   8
ATOM      8  C   UNL     1       2.315   0.249   1.318  1.00  0.00     0.039 A 
ATOM      9  C   UNL     1       3.393   0.294   2.202  1.00  0.00     0.014 A 
ATOM     10  C   UNL     1       1.020   0.463   1.825  1.00  0.00     0.014 A 
ATOM     11  C   UNL     1       3.187   0.442   3.565  1.00  0.00     0.010 A 
ATOM     12  C   UNL     1       0.807   0.647   3.186  1.00  0.00     0.010 A 
ATOM     13  C   UNL     1       1.894   0.605   4.056  1.00  0.00    -0.014 A 
BRANCH  13  14
ATOM     14  C   UNL     1       1.761   0.934   5.470  1.00  0.00     0.031 A 
ATOM     15  C   UNL     1       2.344   2.256   5.836  1.00  0.00     0.074 A 
ATOM     16  C   UNL     1       1.054   0.189   6.339  1.00  0.00     0.049 A 
ATOM     17  N   UNL     1       3.303   2.515   6.665  1.00  0.00    -0.248 NA
ATOM     18  C   UNL     1       1.892   3.427   5.065  1.00  0.00     0.031 C 
ATOM     19  C   UNL     1       0.209  -0.964   6.029  1.00  0.00     0.029 A 
ATOM     20  N   UNL     1       0.838   0.385   7.671  1.00  0.00    -0.354 N 
ATOM     21  C   UNL     1       3.409   3.906   6.693  1.00  0.00     0.074 A 
ATOM     22  C   UNL     1       2.672   4.388   5.558  1.00  0.00     0.031 C 
ATOM     23  C   UNL     1      -0.603  -1.209   7.080  1.00  0.00     0.029 A 
ATOM     24  C   UNL     1      -0.261  -0.305   8.167  1.00  0.00     0.049 A 
ATOM     25  H   UNL     1       1.408   0.961   8.229  1.00  0.00     0.167 HD
ATOM     26  C   UNL     1       3.855   4.561   7.801  1.00  0.00     0.037 A 
ATOM     27  C   UNL     1      -0.903  -0.078   9.342  1.00  0.00     0.037 A 
ATOM     28  C   UNL     1       4.621   3.683   8.652  1.00  0.00     0.049 A 
ATOM     29  C   UNL     1       0.029   0.672  10.224  1.00  0.00     0.074 A 
ATOM     30  C   UNL     1       5.746   2.897   8.490  1.00  0.00     0.029 A 
ATOM     31  N   UNL     1       4.042   3.261   9.824  1.00  0.00    -0.354 N 
ATOM     32  N   UNL     1       1.127   0.176  10.722  1.00  0.00    -0.248 NA
ATOM     33  C   UNL     1      -0.050   2.126  10.225  1.00  0.00     0.031 C 
ATOM     34  C   UNL     1       5.522   1.750   9.308  1.00  0.00     0.029 A 
ATOM     35  C   UNL     1       4.300   1.924   9.956  1.00  0.00     0.049 A 
ATOM     36  H   UNL     1       3.534   3.821  10.455  1.00  0.00     0.167 HD
ATOM     37  C   UNL     1       2.035   1.224  10.692  1.00  0.00     0.074 A 
ATOM     38  C   UNL     1       1.226   2.420  10.486  1.00  0.00     0.031 C 
ATOM     39  C   UNL     1       3.374   0.990  10.555  1.00  0.00     0.037 A 
BRANCH  26  40
ATOM     40  C   UNL     1       3.223   5.841   8.331  1.00  0.00     0.058 A 
ATOM     41  C   UNL     1       3.757   6.423   9.502  1.00  0.00     0.135 A 
ATOM     42  C   UNL     1       1.945   6.316   7.955  1.00  0.00     0.135 A 
ATOM     43  F   UNL     1       4.980   6.082   9.940  1.00  0.00    -0.206 F 
ATOM     44  C   UNL     1       3.017   7.280  10.318  1.00  0.00     0.059 A 
ATOM     45  C   UNL     1       1.213   7.211   8.726  1.00  0.00     0.059 A 
ATOM     46  F   UNL     1       1.293   5.877   6.875  1.00  0.00    -0.206 F 
ATOM     47  C   UNL     1       1.730   7.638   9.935  1.00  0.00     0.060 A 
BRANCH  47  48
ATOM     48  S   UNL     1       0.705   8.604  11.055  1.00  0.00     0.124 S 
ATOM     49  O   UNL     1       0.437   7.629  12.105  1.00  0.00    -0.237 OA
ATOM     50  O   UNL     1       1.597   9.702  11.409  1.00  0.00    -0.237 OA
ATOM     51  O   UNL     1      -0.438   8.973  10.225  1.00  0.00    -0.744 OA
ENDBRANCH  47  48
ENDBRANCH  26  40
BRANCH  27  52
ATOM     52  C   UNL     1      -2.362  -0.178   9.621  1.00  0.00     0.058 A 
ATOM     53  C   UNL     1      -2.860  -0.117  10.936  1.00  0.00     0.135 A 
ATOM     54  C   UNL     1      -3.322  -0.066   8.594  1.00  0.00     0.135 A 
ATOM     55  F   UNL     1      -2.020  -0.192  11.980  1.00  0.00    -0.206 F 
ATOM     56  C   UNL     1      -4.218   0.088  11.214  1.00  0.00     0.059 A 
ATOM     57  C   UNL     1      -4.680   0.119   8.846  1.00  0.00     0.059 A 
ATOM     58  F   UNL     1      -2.962  -0.039   7.303  1.00  0.00    -0.206 F 
ATOM     59  C   UNL     1      -5.119   0.223  10.159  1.00  0.00     0.060 A 
BRANCH  59  60
ATOM     60  S   UNL     1      -6.841   0.656  10.499  1.00  0.00     0.124 S 
ATOM     61  O   UNL     1      -7.346  -0.571  11.106  1.00  0.00    -0.237 OA
ATOM     62  O   UNL     1      -6.703   1.801  11.391  1.00  0.00    -0.237 OA
ATOM     63  O   UNL     1      -7.381   0.963   9.176  1.00  0.00    -0.744 OA
ENDBRANCH  59  60
ENDBRANCH  27  52
BRANCH  39  64
ATOM     64  C   UNL     1       3.888  -0.397  10.824  1.00  0.00     0.058 A 
ATOM     65  C   UNL     1       3.533  -1.539  10.086  1.00  0.00     0.135 A 
ATOM     66  C   UNL     1       4.889  -0.546  11.796  1.00  0.00     0.135 A 
ATOM     67  F   UNL     1       2.667  -1.461   9.065  1.00  0.00    -0.206 F 
ATOM     68  C   UNL     1       4.109  -2.783  10.342  1.00  0.00     0.059 A 
ATOM     69  C   UNL     1       5.503  -1.769  12.045  1.00  0.00     0.059 A 
ATOM     70  F   UNL     1       5.319   0.522  12.490  1.00  0.00    -0.206 F 
ATOM     71  C   UNL     1       5.094  -2.889  11.324  1.00  0.00     0.060 A 
BRANCH  71  72
ATOM     72  S   UNL     1       5.892  -4.483  11.609  1.00  0.00     0.124 S 
ATOM     73  O   UNL     1       4.827  -5.244  12.262  1.00  0.00    -0.237 OA
ATOM     74  O   UNL     1       6.230  -4.913  10.251  1.00  0.00    -0.237 OA
ATOM     75  O   UNL     1       7.030  -4.154  12.450  1.00  0.00    -0.744 OA
ENDBRANCH  71  72
ENDBRANCH  39  64
ENDBRANCH  13  14
ENDBRANCH   6   8
ENDBRANCH   3   4
ENDBRANCH   2   3
ENDBRANCH   1   2
BRANCH   1  76
ATOM     76  C   UNL     1       5.151  -3.536  -1.627  1.00  0.00     0.116 C 
BRANCH  76  77
ATOM     77  N   UNL     1       6.502  -4.036  -1.530  1.00  0.00    -0.356 N 
ATOM     78  C   UNL     1       7.028  -5.283  -1.623  1.00  0.00     0.223 C 
ATOM     79  H   UNL     1       7.173  -3.335  -1.364  1.00  0.00     0.163 HD
ATOM     80  O   UNL     1       8.197  -5.379  -1.241  1.00  0.00    -0.275 OA
BRANCH  78  81
ATOM     81  C   UNL     1       6.287  -6.470  -2.269  1.00  0.00     0.091 C 
ATOM     82  C   UNL     1       4.901  -6.782  -1.685  1.00  0.00     0.014 C 
ATOM     83  C   UNL     1       7.215  -7.712  -2.263  1.00  0.00     0.091 C 
ATOM     84  C   UNL     1       4.302  -8.067  -2.245  1.00  0.00     0.001 C 
ATOM     85  C   UNL     1       6.548  -9.048  -2.623  1.00  0.00     0.014 C 
ATOM     86  C   UNL     1       5.204  -9.243  -1.942  1.00  0.00     0.001 C 
BRANCH  83  87
ATOM     87  C   UNL     1       8.516  -7.558  -3.068  1.00  0.00     0.228 C 
ATOM     88  O   UNL     1       9.598  -7.808  -2.513  1.00  0.00    -0.274 OA
ATOM     89  N   UNL     1       8.591  -7.292  -4.406  1.00  0.00    -0.317 N 
ATOM     90  H   UNL     1       9.452  -6.941  -4.731  1.00  0.00     0.170 HD
BRANCH  89  91
ATOM     91  C   UNL     1       7.608  -7.457  -5.355  1.00  0.00     0.108 A 
ATOM     92  S   UNL     1       7.958  -8.780  -6.388  1.00  0.00    -0.122 S 
ATOM     93  C   UNL     1       6.547  -6.652  -5.809  1.00  0.00     0.078 A 
ATOM     94  C   UNL     1       6.520  -8.528  -7.180  1.00  0.00     0.011 A 
ATOM     95  C   UNL     1       5.791  -7.448  -6.736  1.00  0.00    -0.019 A 
ATOM     96  C   UNL     1       5.951  -9.251  -8.340  1.00  0.00     0.047 C 
ATOM     97  C   UNL     1       4.536  -7.383  -7.531  1.00  0.00     0.038 C 
ATOM     98  C   UNL     1       4.499  -8.741  -8.299  1.00  0.00     0.010 C 
BRANCH  93  99
ATOM     99  C   UNL     1       6.541  -5.231  -5.430  1.00  0.00     0.254 C 
ATOM    100  O   UNL     1       7.617  -4.624  -5.375  1.00  0.00    -0.269 OA
ATOM    101  N   UNL     1       5.502  -4.493  -4.935  1.00  0.00    -0.349 N 
ATOM    102  H   UNL     1       5.789  -4.008  -4.128  1.00  0.00     0.164 HD
BRANCH 101 103
ATOM    103  C   UNL     1       4.109  -4.198  -5.220  1.00  0.00     0.082 C 
ATOM    104  C   UNL     1       3.976  -3.323  -6.460  1.00  0.00     0.025 C 
ATOM    105  C   UNL     1       3.083  -5.308  -5.315  1.00  0.00     0.025 C 
ATOM    106  C   UNL     1       2.596  -3.606  -7.014  1.00  0.00     0.002 C 
ATOM    107  C   UNL     1       2.267  -5.026  -6.580  1.00  0.00     0.002 C 
ENDBRANCH 101 103
ENDBRANCH  93  99
ENDBRANCH  89  91
ENDBRANCH  83  87
ENDBRANCH  78  81
ENDBRANCH  76  77
ENDBRANCH   1  76
TORSDOF 18
