REMARK SMILES C[C@@H](C(=O)NCCCCNC(=O)c1ccc(-c2c3nc(c(-c4c(F)cc(S(=O)(=O)[O-])cc4F)c4ccc([nH]4)c(-c4c(F)cc(S(=O)(=O)[O-])cc4F)c4nc(c(-c5c(F)cc(S(=O)(=O)[O-])cc5F)c5ccc2[nH]5)C=C4)C=C3)cc1)c1ccc(C[C@H]2CCCC2=O)c(-c2ccc(F)cc2)c1
REMARK SMILES IDX 7 1 6 2 5 3 3 4 4 5 2 7 1 8 79 9 80 10 98 11 81 12 90 13
REMARK SMILES IDX 82 14 91 15 92 16 97 17 93 18 96 19 94 20 95 21 83 22 84 23
REMARK SMILES IDX 85 24 88 25 86 26 87 27 89 28 8 29 9 30 10 31 11 32 12 34
REMARK SMILES IDX 13 35 14 36 78 37 15 38 77 39 16 40 17 41 18 42 71 43 19 44
REMARK SMILES IDX 76 45 70 46 72 47 20 48 75 49 69 50 68 51 21 53 55 54 34 55
REMARK SMILES IDX 54 56 35 57 38 58 53 59 73 60 36 61 37 62 52 64 74 65 39 66
REMARK SMILES IDX 22 67 23 68 32 69 24 70 25 71 31 72 33 73 26 74 27 75 28 76
REMARK SMILES IDX 29 77 30 78 56 79 57 80 66 81 58 82 59 83 65 84 67 85 60 86
REMARK SMILES IDX 61 87 62 88 63 89 64 90 40 91 41 92 50 93 42 94 43 95 49 96
REMARK SMILES IDX 51 97 44 98 45 99 46 100 47 101 48 102
REMARK H PARENT 5 6 10 33 72 52 38 63
REMARK Flexibility Score: inf
ROOT
ATOM      1  C   UNL     1       4.255  -0.833   0.867  1.00  0.00     0.023 C 
ENDROOT
BRANCH   1   2
ATOM      2  C   UNL     1       3.446  -1.847   0.051  1.00  0.00     0.116 C 
BRANCH   2   3
ATOM      3  N   UNL     1       2.356  -2.386   0.840  1.00  0.00    -0.356 N 
ATOM      4  C   UNL     1       1.033  -2.043   0.862  1.00  0.00     0.227 C 
ATOM      5  O   UNL     1       0.359  -2.514   1.782  1.00  0.00    -0.274 OA
ATOM      6  H   UNL     1       2.607  -3.112   1.456  1.00  0.00     0.163 HD
BRANCH   4   7
ATOM      7  C   UNL     1       0.444  -1.144  -0.249  1.00  0.00     0.105 C 
ATOM      8  C   UNL     1       0.950   0.295  -0.061  1.00  0.00     0.023 C 
BRANCH   7   9
ATOM      9  C   UNL     1      -1.091  -1.213  -0.335  1.00  0.00    -0.035 A 
ATOM     10  C   UNL     1      -1.873  -0.069  -0.515  1.00  0.00     0.005 A 
ATOM     11  C   UNL     1      -1.768  -2.446  -0.254  1.00  0.00     0.013 A 
ATOM     12  C   UNL     1      -3.262  -0.138  -0.503  1.00  0.00     0.004 A 
ATOM     13  C   UNL     1      -3.180  -2.542  -0.201  1.00  0.00    -0.015 A 
ATOM     14  C   UNL     1      -3.934  -1.348  -0.276  1.00  0.00    -0.039 A 
BRANCH  13  15
ATOM     15  C   UNL     1      -3.798  -3.874  -0.029  1.00  0.00    -0.018 A 
ATOM     16  C   UNL     1      -4.720  -4.377  -0.966  1.00  0.00     0.012 A 
ATOM     17  C   UNL     1      -3.491  -4.670   1.090  1.00  0.00     0.012 A 
ATOM     18  C   UNL     1      -5.370  -5.595  -0.754  1.00  0.00     0.040 A 
ATOM     19  C   UNL     1      -4.127  -5.897   1.295  1.00  0.00     0.040 A 
ATOM     20  C   UNL     1      -5.073  -6.340   0.379  1.00  0.00     0.123 A 
ATOM     21  F   UNL     1      -5.711  -7.498   0.593  1.00  0.00    -0.207 F 
ENDBRANCH  13  15
BRANCH  14  22
ATOM     22  C   UNL     1      -5.435  -1.272  -0.068  1.00  0.00     0.047 C 
BRANCH  22  23
ATOM     23  C   UNL     1      -5.916  -0.711   1.280  1.00  0.00     0.060 C 
ATOM     24  C   UNL     1      -5.395  -1.405   2.541  1.00  0.00     0.012 C 
ATOM     25  C   UNL     1      -5.499   0.722   1.514  1.00  0.00     0.136 C 
ATOM     26  C   UNL     1      -4.235  -0.559   3.052  1.00  0.00     0.009 C 
ATOM     27  C   UNL     1      -4.590   0.879   2.704  1.00  0.00     0.076 C 
ATOM     28  O   UNL     1      -5.875   1.661   0.820  1.00  0.00    -0.299 OA
ENDBRANCH  22  23
ENDBRANCH  14  22
ENDBRANCH   7   9
ENDBRANCH   4   7
ENDBRANCH   2   3
ENDBRANCH   1   2
BRANCH   1  29
ATOM     29  C   UNL     1       5.054  -1.433   2.026  1.00  0.00     0.023 C 
BRANCH  29  30
ATOM     30  C   UNL     1       6.054  -2.511   1.630  1.00  0.00     0.116 C 
BRANCH  30  31
ATOM     31  N   UNL     1       7.002  -2.053   0.628  1.00  0.00    -0.352 N 
ATOM     32  C   UNL     1       8.353  -2.272   0.546  1.00  0.00     0.251 C 
ATOM     33  H   UNL     1       6.619  -1.506  -0.095  1.00  0.00     0.163 HD
ATOM     34  O   UNL     1       9.010  -1.668  -0.301  1.00  0.00    -0.269 OA
BRANCH  32  35
ATOM     35  C   UNL     1       9.018  -3.201   1.484  1.00  0.00     0.039 A 
ATOM     36  C   UNL     1      10.256  -2.835   2.016  1.00  0.00     0.014 A 
ATOM     37  C   UNL     1       8.440  -4.425   1.835  1.00  0.00     0.014 A 
ATOM     38  C   UNL     1      10.886  -3.672   2.937  1.00  0.00     0.010 A 
ATOM     39  C   UNL     1       9.030  -5.219   2.817  1.00  0.00     0.010 A 
ATOM     40  C   UNL     1      10.264  -4.855   3.373  1.00  0.00    -0.014 A 
BRANCH  40  41
ATOM     41  C   UNL     1      10.903  -5.696   4.417  1.00  0.00     0.031 A 
ATOM     42  C   UNL     1      11.347  -7.101   4.110  1.00  0.00     0.074 A 
ATOM     43  C   UNL     1      11.072  -5.189   5.654  1.00  0.00     0.049 A 
ATOM     44  N   UNL     1      11.963  -7.957   4.885  1.00  0.00    -0.248 NA
ATOM     45  C   UNL     1      11.043  -7.623   2.768  1.00  0.00     0.031 C 
ATOM     46  C   UNL     1      10.613  -3.868   6.095  1.00  0.00     0.029 A 
ATOM     47  N   UNL     1      11.678  -5.715   6.767  1.00  0.00    -0.354 N 
ATOM     48  C   UNL     1      12.129  -9.109   4.125  1.00  0.00     0.074 A 
ATOM     49  C   UNL     1      11.484  -8.870   2.853  1.00  0.00     0.031 C 
ATOM     50  C   UNL     1      10.987  -3.674   7.369  1.00  0.00     0.029 A 
ATOM     51  C   UNL     1      11.682  -4.864   7.847  1.00  0.00     0.049 A 
ATOM     52  H   UNL     1      12.073  -6.616   6.790  1.00  0.00     0.167 HD
ATOM     53  C   UNL     1      12.790 -10.248   4.444  1.00  0.00     0.037 A 
ATOM     54  C   UNL     1      12.190  -5.022   9.084  1.00  0.00     0.037 A 
ATOM     55  C   UNL     1      13.433 -10.479   5.713  1.00  0.00     0.049 A 
ATOM     56  C   UNL     1      12.928  -6.292   9.411  1.00  0.00     0.074 A 
ATOM     57  C   UNL     1      14.157 -11.585   6.123  1.00  0.00     0.029 A 
ATOM     58  N   UNL     1      13.432  -9.588   6.777  1.00  0.00    -0.354 N 
ATOM     59  N   UNL     1      13.137  -7.343   8.653  1.00  0.00    -0.248 NA
ATOM     60  C   UNL     1      13.513  -6.392  10.754  1.00  0.00     0.031 C 
ATOM     61  C   UNL     1      14.554 -11.382   7.450  1.00  0.00     0.029 A 
ATOM     62  C   UNL     1      14.127 -10.126   7.848  1.00  0.00     0.049 A 
ATOM     63  H   UNL     1      13.000  -8.703   6.771  1.00  0.00     0.167 HD
ATOM     64  C   UNL     1      13.892  -8.222   9.422  1.00  0.00     0.074 A 
ATOM     65  C   UNL     1      14.129  -7.564  10.691  1.00  0.00     0.031 C 
ATOM     66  C   UNL     1      14.345  -9.462   9.110  1.00  0.00     0.037 A 
BRANCH  53  67
ATOM     67  C   UNL     1      12.868 -11.327   3.396  1.00  0.00     0.058 A 
ATOM     68  C   UNL     1      13.636 -11.162   2.231  1.00  0.00     0.135 A 
ATOM     69  C   UNL     1      12.211 -12.555   3.574  1.00  0.00     0.135 A 
ATOM     70  F   UNL     1      14.273 -10.002   1.999  1.00  0.00    -0.206 F 
ATOM     71  C   UNL     1      13.731 -12.164   1.271  1.00  0.00     0.059 A 
ATOM     72  C   UNL     1      12.316 -13.584   2.640  1.00  0.00     0.059 A 
ATOM     73  F   UNL     1      11.460 -12.769   4.666  1.00  0.00    -0.206 F 
ATOM     74  C   UNL     1      13.070 -13.373   1.486  1.00  0.00     0.060 A 
BRANCH  74  75
ATOM     75  S   UNL     1      13.222 -14.669   0.239  1.00  0.00     0.124 S 
ATOM     76  O   UNL     1      12.425 -14.117  -0.853  1.00  0.00    -0.237 OA
ATOM     77  O   UNL     1      14.663 -14.714   0.011  1.00  0.00    -0.237 OA
ATOM     78  O   UNL     1      12.656 -15.843   0.896  1.00  0.00    -0.744 OA
ENDBRANCH  74  75
ENDBRANCH  53  67
BRANCH  54  79
ATOM     79  C   UNL     1      12.033  -3.944  10.097  1.00  0.00     0.058 A 
ATOM     80  C   UNL     1      13.134  -3.202  10.552  1.00  0.00     0.135 A 
ATOM     81  C   UNL     1      10.772  -3.631  10.629  1.00  0.00     0.135 A 
ATOM     82  F   UNL     1      14.361  -3.462  10.076  1.00  0.00    -0.206 F 
ATOM     83  C   UNL     1      12.996  -2.208  11.516  1.00  0.00     0.059 A 
ATOM     84  C   UNL     1      10.604  -2.622  11.571  1.00  0.00     0.059 A 
ATOM     85  F   UNL     1       9.683  -4.296  10.213  1.00  0.00    -0.206 F 
ATOM     86  C   UNL     1      11.725  -1.925  12.020  1.00  0.00     0.060 A 
BRANCH  86  87
ATOM     87  S   UNL     1      11.549  -0.611  13.245  1.00  0.00     0.124 S 
ATOM     88  O   UNL     1      12.119  -1.237  14.431  1.00  0.00    -0.237 OA
ATOM     89  O   UNL     1      12.333   0.468  12.651  1.00  0.00    -0.237 OA
ATOM     90  O   UNL     1      10.108  -0.379  13.282  1.00  0.00    -0.744 OA
ENDBRANCH  86  87
ENDBRANCH  54  79
BRANCH  66  91
ATOM     91  C   UNL     1      15.157 -10.176  10.158  1.00  0.00     0.058 A 
ATOM     92  C   UNL     1      14.578 -10.645  11.348  1.00  0.00     0.135 A 
ATOM     93  C   UNL     1      16.531 -10.396   9.967  1.00  0.00     0.135 A 
ATOM     94  F   UNL     1      13.269 -10.460  11.582  1.00  0.00    -0.206 F 
ATOM     95  C   UNL     1      15.342 -11.260  12.335  1.00  0.00     0.059 A 
ATOM     96  C   UNL     1      17.307 -11.040  10.926  1.00  0.00     0.059 A 
ATOM     97  F   UNL     1      17.134  -9.983   8.841  1.00  0.00    -0.206 F 
ATOM     98  C   UNL     1      16.708 -11.447  12.117  1.00  0.00     0.060 A 
BRANCH  98  99
ATOM     99  S   UNL     1      17.691 -12.233  13.410  1.00  0.00     0.124 S 
ATOM    100  O   UNL     1      17.782 -11.164  14.399  1.00  0.00    -0.237 OA
ATOM    101  O   UNL     1      16.860 -13.374  13.785  1.00  0.00    -0.237 OA
ATOM    102  O   UNL     1      18.939 -12.570  12.732  1.00  0.00    -0.744 OA
ENDBRANCH  98  99
ENDBRANCH  66  91
ENDBRANCH  40  41
ENDBRANCH  32  35
ENDBRANCH  30  31
ENDBRANCH  29  30
ENDBRANCH   1  29
TORSDOF 18
