REMARK SMILES C[NH+](C)CCNC(=O)NC1(CC(=O)NCCCCNC(=O)c2ccc(-c3c4nc(c(-c5c(F)cc(S(=O)(=O)[O-])cc5F)c5ccc([nH]5)c(-c5c(F)cc(S(=O)(=O)[O-])cc5F)c5nc(c(-c6c(F)cc(S(=O)(=O)[O-])cc6F)c6ccc3[nH]6)C=C5)C=C4)cc2)CCC1
REMARK SMILES IDX 15 1 14 2 12 3 13 4 11 6 10 7 88 8 90 9 89 10 9 11 6 12 7 13
REMARK SMILES IDX 8 15 5 17 4 18 2 19 1 20 3 21 16 23 17 24 18 25 19 26 20 27
REMARK SMILES IDX 21 29 22 30 23 31 87 32 24 33 86 34 25 35 26 36 27 37 80 38
REMARK SMILES IDX 28 39 85 40 79 41 81 42 29 43 84 44 78 45 77 46 30 48 64 49
REMARK SMILES IDX 43 50 63 51 44 52 47 53 62 54 82 55 45 56 46 57 61 59 83 60
REMARK SMILES IDX 48 61 31 62 32 63 41 64 33 65 34 66 40 67 42 68 35 69 36 70
REMARK SMILES IDX 37 71 38 72 39 73 65 74 66 75 75 76 67 77 68 78 74 79 76 80
REMARK SMILES IDX 69 81 70 82 71 83 72 84 73 85 49 86 50 87 59 88 51 89 52 90
REMARK SMILES IDX 58 91 60 92 53 93 54 94 55 95 56 96 57 97
REMARK H PARENT 14 5 6 14 9 16 2 22 19 28 81 47 47 58
REMARK Flexibility Score: inf
ROOT
ATOM      1  C   UNL     1       4.062   4.563   2.065  1.00  0.00     0.116 C 
ENDROOT
BRANCH   1   2
ATOM      2  N   UNL     1       3.695   3.232   1.659  1.00  0.00    -0.356 N 
ATOM      3  C   UNL     1       2.921   2.369   2.378  1.00  0.00     0.222 C 
ATOM      4  O   UNL     1       3.100   1.171   2.184  1.00  0.00    -0.275 OA
ATOM      5  H   UNL     1       4.032   2.917   0.789  1.00  0.00     0.163 HD
BRANCH   3   6
ATOM      6  C   UNL     1       1.829   2.949   3.265  1.00  0.00     0.128 C 
BRANCH   6   7
ATOM      7  C   UNL     1       1.529   2.258   4.595  1.00  0.00     0.051 C 
ATOM      8  C   UNL     1       0.291   2.768   5.412  1.00  0.00     0.029 C 
ATOM      9  C   UNL     1       2.381   2.922   5.746  1.00  0.00     0.029 C 
ATOM     10  C   UNL     1       1.190   3.864   6.011  1.00  0.00     0.005 C 
BRANCH   7  11
ATOM     11  N   UNL     1       1.641   0.791   4.606  1.00  0.00    -0.332 N 
ATOM     12  N   UNL     1       0.407  -0.167   2.797  1.00  0.00    -0.332 N 
ATOM     13  C   UNL     1       1.236  -0.236   3.843  1.00  0.00     0.315 C 
ATOM     14  H   UNL     1       0.416  -0.996   2.266  1.00  0.00     0.165 HD
ATOM     15  O   UNL     1       1.662  -1.355   4.151  1.00  0.00    -0.249 OA
ATOM     16  H   UNL     1       2.153   0.477   5.386  1.00  0.00     0.165 HD
BRANCH  12  17
ATOM     17  C   UNL     1      -0.502   0.820   2.247  1.00  0.00     0.179 C 
BRANCH  17  18
ATOM     18  C   UNL     1      -0.052   1.480   0.915  1.00  0.00     0.283 C 
BRANCH  18  19
ATOM     19  N   UNL     1      -0.239   0.812  -0.377  1.00  0.00    -0.338 N 
ATOM     20  C   UNL     1       0.514  -0.427  -0.506  1.00  0.00     0.332 C 
ATOM     21  C   UNL     1      -1.627   0.681  -0.777  1.00  0.00     0.332 C 
ATOM     22  H   UNL     1       0.172   1.452  -1.057  1.00  0.00     0.347 HD
ENDBRANCH  18  19
ENDBRANCH  17  18
ENDBRANCH  12  17
ENDBRANCH   7  11
ENDBRANCH   6   7
ENDBRANCH   3   6
ENDBRANCH   1   2
BRANCH   1  23
ATOM     23  C   UNL     1       5.066   4.467   3.215  1.00  0.00     0.023 C 
BRANCH  23  24
ATOM     24  C   UNL     1       6.475   4.086   2.764  1.00  0.00     0.023 C 
BRANCH  24  25
ATOM     25  C   UNL     1       7.024   4.970   1.658  1.00  0.00     0.116 C 
BRANCH  25  26
ATOM     26  N   UNL     1       6.777   6.390   1.887  1.00  0.00    -0.352 N 
ATOM     27  C   UNL     1       7.463   7.454   1.359  1.00  0.00     0.251 C 
ATOM     28  H   UNL     1       6.031   6.609   2.491  1.00  0.00     0.163 HD
ATOM     29  O   UNL     1       7.190   8.602   1.663  1.00  0.00    -0.269 OA
BRANCH  27  30
ATOM     30  C   UNL     1       8.577   7.137   0.456  1.00  0.00     0.039 A 
ATOM     31  C   UNL     1       9.869   7.459   0.864  1.00  0.00     0.014 A 
ATOM     32  C   UNL     1       8.335   6.370  -0.687  1.00  0.00     0.014 A 
ATOM     33  C   UNL     1      10.945   6.956   0.141  1.00  0.00     0.010 A 
ATOM     34  C   UNL     1       9.409   5.808  -1.357  1.00  0.00     0.010 A 
ATOM     35  C   UNL     1      10.721   6.099  -0.949  1.00  0.00    -0.014 A 
BRANCH  35  36
ATOM     36  C   UNL     1      11.853   5.515  -1.700  1.00  0.00     0.031 A 
ATOM     37  C   UNL     1      12.053   5.906  -3.136  1.00  0.00     0.074 A 
ATOM     38  C   UNL     1      12.653   4.610  -1.105  1.00  0.00     0.049 A 
ATOM     39  N   UNL     1      12.925   5.457  -3.997  1.00  0.00    -0.248 NA
ATOM     40  C   UNL     1      11.128   6.913  -3.686  1.00  0.00     0.031 C 
ATOM     41  C   UNL     1      12.513   4.123   0.271  1.00  0.00     0.029 A 
ATOM     42  N   UNL     1      13.742   3.929  -1.586  1.00  0.00    -0.354 N 
ATOM     43  C   UNL     1      12.652   6.120  -5.186  1.00  0.00     0.074 A 
ATOM     44  C   UNL     1      11.493   6.952  -4.958  1.00  0.00     0.031 C 
ATOM     45  C   UNL     1      13.491   3.239   0.527  1.00  0.00     0.029 A 
ATOM     46  C   UNL     1      14.307   3.072  -0.670  1.00  0.00     0.049 A 
ATOM     47  H   UNL     1      14.087   4.043  -2.501  1.00  0.00     0.167 HD
ATOM     48  C   UNL     1      13.332   6.066  -6.354  1.00  0.00     0.037 A 
ATOM     49  C   UNL     1      15.361   2.244  -0.794  1.00  0.00     0.037 A 
ATOM     50  C   UNL     1      14.505   5.261  -6.558  1.00  0.00     0.049 A 
ATOM     51  C   UNL     1      16.101   2.207  -2.106  1.00  0.00     0.074 A 
ATOM     52  C   UNL     1      15.292   5.157  -7.690  1.00  0.00     0.029 A 
ATOM     53  N   UNL     1      15.069   4.433  -5.598  1.00  0.00    -0.354 N 
ATOM     54  N   UNL     1      15.857   2.877  -3.208  1.00  0.00    -0.248 NA
ATOM     55  C   UNL     1      17.259   1.308  -2.192  1.00  0.00     0.031 C 
ATOM     56  C   UNL     1      16.319   4.246  -7.423  1.00  0.00     0.029 A 
ATOM     57  C   UNL     1      16.192   3.811  -6.113  1.00  0.00     0.049 A 
ATOM     58  H   UNL     1      14.721   4.307  -4.686  1.00  0.00     0.167 HD
ATOM     59  C   UNL     1      16.848   2.500  -4.107  1.00  0.00     0.074 A 
ATOM     60  C   UNL     1      17.702   1.556  -3.417  1.00  0.00     0.031 C 
ATOM     61  C   UNL     1      17.035   2.894  -5.391  1.00  0.00     0.037 A 
BRANCH  48  62
ATOM     62  C   UNL     1      12.845   6.926  -7.484  1.00  0.00     0.058 A 
ATOM     63  C   UNL     1      13.005   8.320  -7.457  1.00  0.00     0.135 A 
ATOM     64  C   UNL     1      12.256   6.354  -8.622  1.00  0.00     0.135 A 
ATOM     65  F   UNL     1      13.539   8.919  -6.380  1.00  0.00    -0.206 F 
ATOM     66  C   UNL     1      12.587   9.120  -8.514  1.00  0.00     0.059 A 
ATOM     67  C   UNL     1      11.853   7.133  -9.703  1.00  0.00     0.059 A 
ATOM     68  F   UNL     1      12.070   5.026  -8.693  1.00  0.00    -0.206 F 
ATOM     69  C   UNL     1      12.017   8.516  -9.636  1.00  0.00     0.060 A 
BRANCH  69  70
ATOM     70  S   UNL     1      11.517   9.567 -11.015  1.00  0.00     0.124 S 
ATOM     71  O   UNL     1      10.323  10.209 -10.474  1.00  0.00    -0.237 OA
ATOM     72  O   UNL     1      12.680  10.432 -11.185  1.00  0.00    -0.237 OA
ATOM     73  O   UNL     1      11.283   8.618 -12.098  1.00  0.00    -0.744 OA
ENDBRANCH  69  70
ENDBRANCH  48  62
BRANCH  49  74
ATOM     74  C   UNL     1      15.795   1.392   0.345  1.00  0.00     0.058 A 
ATOM     75  C   UNL     1      17.010   1.633   1.005  1.00  0.00     0.135 A 
ATOM     76  C   UNL     1      15.024   0.302   0.776  1.00  0.00     0.135 A 
ATOM     77  F   UNL     1      17.783   2.663   0.630  1.00  0.00    -0.206 F 
ATOM     78  C   UNL     1      17.466   0.800   2.021  1.00  0.00     0.059 A 
ATOM     79  C   UNL     1      15.446  -0.531   1.808  1.00  0.00     0.059 A 
ATOM     80  F   UNL     1      13.843   0.042   0.194  1.00  0.00    -0.206 F 
ATOM     81  C   UNL     1      16.680  -0.286   2.410  1.00  0.00     0.060 A 
BRANCH  81  82
ATOM     82  S   UNL     1      17.279  -1.365   3.728  1.00  0.00     0.124 S 
ATOM     83  O   UNL     1      18.287  -2.150   3.026  1.00  0.00    -0.237 OA
ATOM     84  O   UNL     1      17.783  -0.408   4.708  1.00  0.00    -0.237 OA
ATOM     85  O   UNL     1      16.080  -2.092   4.134  1.00  0.00    -0.744 OA
ENDBRANCH  81  82
ENDBRANCH  49  74
BRANCH  61  86
ATOM     86  C   UNL     1      18.226   2.337  -6.115  1.00  0.00     0.058 A 
ATOM     87  C   UNL     1      18.247   1.015  -6.583  1.00  0.00     0.135 A 
ATOM     88  C   UNL     1      19.329   3.157  -6.400  1.00  0.00     0.135 A 
ATOM     89  F   UNL     1      17.217   0.192  -6.330  1.00  0.00    -0.206 F 
ATOM     90  C   UNL     1      19.332   0.517  -7.294  1.00  0.00     0.059 A 
ATOM     91  C   UNL     1      20.414   2.687  -7.132  1.00  0.00     0.059 A 
ATOM     92  F   UNL     1      19.349   4.433  -5.983  1.00  0.00    -0.206 F 
ATOM     93  C   UNL     1      20.410   1.362  -7.566  1.00  0.00     0.060 A 
BRANCH  93  94
ATOM     94  S   UNL     1      21.792   0.718  -8.531  1.00  0.00     0.124 S 
ATOM     95  O   UNL     1      22.475  -0.113  -7.545  1.00  0.00    -0.237 OA
ATOM     96  O   UNL     1      21.116  -0.001  -9.607  1.00  0.00    -0.237 OA
ATOM     97  O   UNL     1      22.509   1.921  -8.943  1.00  0.00    -0.744 OA
ENDBRANCH  93  94
ENDBRANCH  61  86
ENDBRANCH  35  36
ENDBRANCH  27  30
ENDBRANCH  25  26
ENDBRANCH  24  25
ENDBRANCH  23  24
ENDBRANCH   1  23
TORSDOF 19
