REMARK SMILES CC[C@@](C)([NH3+])C(=O)Nc1cc(C(=O)NCCCCNC(=O)c2ccc(-c3c4nc(c(-c5c(F)cc(S(=O)(=O)[O-])cc5F)c5ccc([nH]5)c(-c5c(F)cc(S(=O)(=O)[O-])cc5F)c5nc(c(-c6c(F)cc(S(=O)(=O)[O-])cc6F)c6ccc3[nH]6)C=C5)C=C4)cc2)cc(C(F)(F)F)c1
REMARK SMILES IDX 16 1 15 2 14 3 12 4 13 5 11 7 9 8 10 9 94 10 89 11 88 12
REMARK SMILES IDX 8 13 6 14 7 15 3 17 4 18 2 19 1 20 5 21 90 25 91 26 92 27
REMARK SMILES IDX 93 28 17 29 18 30 19 31 20 32 21 34 22 35 23 36 87 37 24 38
REMARK SMILES IDX 86 39 25 40 26 41 27 42 80 43 28 44 85 45 79 46 81 47 29 48
REMARK SMILES IDX 84 49 78 50 77 51 30 53 64 54 43 55 63 56 44 57 47 58 62 59
REMARK SMILES IDX 82 60 45 61 46 62 61 64 83 65 48 66 31 67 32 68 41 69 33 70
REMARK SMILES IDX 34 71 40 72 42 73 35 74 36 75 37 76 38 77 39 78 65 79 66 80
REMARK SMILES IDX 75 81 67 82 68 83 74 84 76 85 69 86 70 87 71 88 72 89 73 90
REMARK SMILES IDX 49 91 50 92 59 93 51 94 52 95 58 96 60 97 53 98 54 99 55 100
REMARK SMILES IDX 56 101 57 102
REMARK H PARENT 14 6 8 16 5 22 5 23 5 24 19 33 81 52 47 63
REMARK Flexibility Score: inf
ROOT
ATOM      1  C   UNL     1       2.220  10.392  -3.824  1.00  0.00     0.023 C 
ENDROOT
BRANCH   1   2
ATOM      2  C   UNL     1       1.600   9.009  -3.928  1.00  0.00     0.116 C 
BRANCH   2   3
ATOM      3  N   UNL     1       2.402   8.004  -4.613  1.00  0.00    -0.352 N 
ATOM      4  C   UNL     1       2.639   6.682  -4.293  1.00  0.00     0.251 C 
ATOM      5  O   UNL     1       3.345   5.993  -5.024  1.00  0.00    -0.269 OA
ATOM      6  H   UNL     1       2.845   8.317  -5.434  1.00  0.00     0.163 HD
BRANCH   4   7
ATOM      7  C   UNL     1       2.107   6.091  -3.036  1.00  0.00     0.042 A 
ATOM      8  C   UNL     1       2.432   4.680  -1.107  1.00  0.00     0.042 A 
ATOM      9  C   UNL     1       2.875   5.142  -2.345  1.00  0.00     0.040 A 
ATOM     10  C   UNL     1       1.386   5.346  -0.477  1.00  0.00     0.039 A 
ATOM     11  C   UNL     1       0.553   6.206  -1.189  1.00  0.00     0.058 A 
ATOM     12  C   UNL     1       0.867   6.472  -2.520  1.00  0.00     0.027 A 
BRANCH   8  13
ATOM     13  N   UNL     1       3.052   3.579  -0.508  1.00  0.00    -0.321 N 
ATOM     14  C   UNL     1       2.502   2.537   0.212  1.00  0.00     0.285 C 
ATOM     15  O   UNL     1       3.300   1.818   0.828  1.00  0.00    -0.267 OA
ATOM     16  H   UNL     1       4.029   3.542  -0.615  1.00  0.00     0.170 HD
BRANCH  14  17
ATOM     17  C   UNL     1       0.955   2.175   0.153  1.00  0.00     0.171 C 
ATOM     18  C   UNL     1       0.436   2.142  -1.295  1.00  0.00     0.090 C 
BRANCH  17  19
ATOM     19  C   UNL     1       0.702   0.792   0.826  1.00  0.00     0.075 C 
ATOM     20  C   UNL     1       1.209  -0.422   0.056  1.00  0.00     0.011 C 
ENDBRANCH  17  19
BRANCH  17  21
ATOM     21  N   UNL     1       0.169   3.144   0.960  1.00  0.00    -0.345 N 
ATOM     22  H   UNL     1      -0.820   2.900   0.914  1.00  0.00     0.345 HD
ATOM     23  H   UNL     1       0.305   4.084   0.590  1.00  0.00     0.345 HD
ATOM     24  H   UNL     1       0.482   3.111   1.930  1.00  0.00     0.345 HD
ENDBRANCH  17  21
ENDBRANCH  14  17
ENDBRANCH   8  13
BRANCH  11  25
ATOM     25  C   UNL     1      -0.618   6.886  -0.535  1.00  0.00     0.416 C 
ATOM     26  F   UNL     1      -0.364   8.198  -0.276  1.00  0.00    -0.166 F 
ATOM     27  F   UNL     1      -1.731   6.866  -1.317  1.00  0.00    -0.166 F 
ATOM     28  F   UNL     1      -0.985   6.327   0.649  1.00  0.00    -0.166 F 
ENDBRANCH  11  25
ENDBRANCH   4   7
ENDBRANCH   2   3
ENDBRANCH   1   2
BRANCH   1  29
ATOM     29  C   UNL     1       2.501  11.108  -5.134  1.00  0.00     0.023 C 
BRANCH  29  30
ATOM     30  C   UNL     1       1.372  11.098  -6.155  1.00  0.00     0.116 C 
BRANCH  30  31
ATOM     31  N   UNL     1       0.125  11.677  -5.671  1.00  0.00    -0.352 N 
ATOM     32  C   UNL     1      -0.630  12.694  -6.213  1.00  0.00     0.251 C 
ATOM     33  H   UNL     1      -0.228  11.286  -4.840  1.00  0.00     0.163 HD
ATOM     34  O   UNL     1      -1.637  13.095  -5.636  1.00  0.00    -0.269 OA
BRANCH  32  35
ATOM     35  C   UNL     1      -0.185  13.333  -7.468  1.00  0.00     0.039 A 
ATOM     36  C   UNL     1      -0.020  14.720  -7.500  1.00  0.00     0.014 A 
ATOM     37  C   UNL     1       0.160  12.554  -8.574  1.00  0.00     0.014 A 
ATOM     38  C   UNL     1       0.600  15.314  -8.601  1.00  0.00     0.010 A 
ATOM     39  C   UNL     1       0.852  13.136  -9.630  1.00  0.00     0.010 A 
ATOM     40  C   UNL     1       1.097  14.518  -9.646  1.00  0.00    -0.014 A 
BRANCH  40  41
ATOM     41  C   UNL     1       1.897  15.092 -10.758  1.00  0.00     0.031 A 
ATOM     42  C   UNL     1       1.403  14.968 -12.172  1.00  0.00     0.074 A 
ATOM     43  C   UNL     1       3.115  15.617 -10.509  1.00  0.00     0.049 A 
ATOM     44  N   UNL     1       2.023  15.237 -13.291  1.00  0.00    -0.248 NA
ATOM     45  C   UNL     1       0.042  14.435 -12.351  1.00  0.00     0.031 C 
ATOM     46  C   UNL     1       3.732  15.746  -9.186  1.00  0.00     0.029 A 
ATOM     47  N   UNL     1       4.066  16.117 -11.365  1.00  0.00    -0.354 N 
ATOM     48  C   UNL     1       1.145  14.873 -14.305  1.00  0.00     0.074 A 
ATOM     49  C   UNL     1      -0.036  14.331 -13.669  1.00  0.00     0.031 C 
ATOM     50  C   UNL     1       4.949  16.298  -9.318  1.00  0.00     0.029 A 
ATOM     51  C   UNL     1       5.219  16.523 -10.735  1.00  0.00     0.049 A 
ATOM     52  H   UNL     1       3.934  16.178 -12.338  1.00  0.00     0.167 HD
ATOM     53  C   UNL     1       1.303  14.996 -15.644  1.00  0.00     0.037 A 
ATOM     54  C   UNL     1       6.371  17.006 -11.241  1.00  0.00     0.037 A 
ATOM     55  C   UNL     1       2.458  15.584 -16.269  1.00  0.00     0.049 A 
ATOM     56  C   UNL     1       6.508  17.167 -12.731  1.00  0.00     0.074 A 
ATOM     57  C   UNL     1       2.681  15.817 -17.614  1.00  0.00     0.029 A 
ATOM     58  N   UNL     1       3.578  16.040 -15.591  1.00  0.00    -0.354 N 
ATOM     59  N   UNL     1       5.648  16.862 -13.673  1.00  0.00    -0.248 NA
ATOM     60  C   UNL     1       7.768  17.737 -13.228  1.00  0.00     0.031 C 
ATOM     61  C   UNL     1       3.949  16.393 -17.752  1.00  0.00     0.029 A 
ATOM     62  C   UNL     1       4.500  16.547 -16.490  1.00  0.00     0.049 A 
ATOM     63  H   UNL     1       3.700  16.007 -14.614  1.00  0.00     0.167 HD
ATOM     64  C   UNL     1       6.252  17.227 -14.871  1.00  0.00     0.074 A 
ATOM     65  C   UNL     1       7.547  17.781 -14.535  1.00  0.00     0.031 C 
ATOM     66  C   UNL     1       5.776  17.114 -16.134  1.00  0.00     0.037 A 
BRANCH  53  67
ATOM     67  C   UNL     1       0.193  14.495 -16.522  1.00  0.00     0.058 A 
ATOM     68  C   UNL     1      -1.030  15.176 -16.620  1.00  0.00     0.135 A 
ATOM     69  C   UNL     1       0.364  13.337 -17.297  1.00  0.00     0.135 A 
ATOM     70  F   UNL     1      -1.251  16.279 -15.886  1.00  0.00    -0.206 F 
ATOM     71  C   UNL     1      -2.057  14.712 -17.434  1.00  0.00     0.059 A 
ATOM     72  C   UNL     1      -0.641  12.868 -18.138  1.00  0.00     0.059 A 
ATOM     73  F   UNL     1       1.514  12.647 -17.239  1.00  0.00    -0.206 F 
ATOM     74  C   UNL     1      -1.854  13.554 -18.188  1.00  0.00     0.060 A 
BRANCH  74  75
ATOM     75  S   UNL     1      -3.194  12.965 -19.243  1.00  0.00     0.124 S 
ATOM     76  O   UNL     1      -4.091  12.362 -18.262  1.00  0.00    -0.237 OA
ATOM     77  O   UNL     1      -3.671  14.196 -19.863  1.00  0.00    -0.237 OA
ATOM     78  O   UNL     1      -2.529  12.029 -20.144  1.00  0.00    -0.744 OA
ENDBRANCH  74  75
ENDBRANCH  53  67
BRANCH  54  79
ATOM     79  C   UNL     1       7.483  17.388 -10.332  1.00  0.00     0.058 A 
ATOM     80  C   UNL     1       7.799  18.736 -10.111  1.00  0.00     0.135 A 
ATOM     81  C   UNL     1       8.247  16.418  -9.664  1.00  0.00     0.135 A 
ATOM     82  F   UNL     1       7.101  19.698 -10.732  1.00  0.00    -0.206 F 
ATOM     83  C   UNL     1       8.844  19.112  -9.273  1.00  0.00     0.059 A 
ATOM     84  C   UNL     1       9.283  16.770  -8.805  1.00  0.00     0.059 A 
ATOM     85  F   UNL     1       7.973  15.115  -9.829  1.00  0.00    -0.206 F 
ATOM     86  C   UNL     1       9.582  18.120  -8.624  1.00  0.00     0.060 A 
BRANCH  86  87
ATOM     87  S   UNL     1      10.908  18.617  -7.504  1.00  0.00     0.124 S 
ATOM     88  O   UNL     1      11.963  18.983  -8.442  1.00  0.00    -0.237 OA
ATOM     89  O   UNL     1      10.296  19.720  -6.769  1.00  0.00    -0.237 OA
ATOM     90  O   UNL     1      11.150  17.411  -6.718  1.00  0.00    -0.744 OA
ENDBRANCH  86  87
ENDBRANCH  54  79
BRANCH  66  91
ATOM     91  C   UNL     1       6.635  17.634 -17.250  1.00  0.00     0.058 A 
ATOM     92  C   UNL     1       7.746  16.917 -17.716  1.00  0.00     0.135 A 
ATOM     93  C   UNL     1       6.294  18.825 -17.910  1.00  0.00     0.135 A 
ATOM     94  F   UNL     1       8.116  15.776 -17.112  1.00  0.00    -0.206 F 
ATOM     95  C   UNL     1       8.496  17.366 -18.797  1.00  0.00     0.059 A 
ATOM     96  C   UNL     1       7.017  19.283 -19.006  1.00  0.00     0.059 A 
ATOM     97  F   UNL     1       5.234  19.543 -17.505  1.00  0.00    -0.206 F 
ATOM     98  C   UNL     1       8.121  18.549 -19.439  1.00  0.00     0.060 A 
BRANCH  98  99
ATOM     99  S   UNL     1       9.064  19.092 -20.880  1.00  0.00     0.124 S 
ATOM    100  O   UNL     1      10.260  19.647 -20.255  1.00  0.00    -0.237 OA
ATOM    101  O   UNL     1       9.254  17.848 -21.619  1.00  0.00    -0.237 OA
ATOM    102  O   UNL     1       8.179  20.063 -21.517  1.00  0.00    -0.744 OA
ENDBRANCH  98  99
ENDBRANCH  66  91
ENDBRANCH  40  41
ENDBRANCH  32  35
ENDBRANCH  30  31
ENDBRANCH  29  30
ENDBRANCH   1  29
TORSDOF 19
