REMARK SMILES O=C(NCCCCNC(=O)c1cncc(Nc2ccc(Cl)cc2C(F)(F)F)n1)c1ccc(-c2c3nc(c(-c4c(F)cc(S(=O)(=O)[O-])cc4F)c4ccc([nH]4)c(-c4c(F)cc(S(=O)(=O)[O-])cc4F)c4nc(c(-c5c(F)cc(S(=O)(=O)[O-])cc5F)c5ccc2[nH]5)C=C4)C=C3)cc1
REMARK SMILES IDX 5 1 4 2 3 3 1 4 2 5 29 7 30 8 94 9 31 10 93 11 32 12 33 13
REMARK SMILES IDX 34 14 87 15 35 16 92 17 86 18 88 19 36 20 91 21 85 22 84 23
REMARK SMILES IDX 37 25 71 26 50 27 70 28 51 29 54 30 69 31 89 32 52 33 53 34
REMARK SMILES IDX 68 36 90 37 55 38 38 39 39 40 48 41 40 42 41 43 47 44 49 45
REMARK SMILES IDX 42 46 43 47 44 48 45 49 46 50 72 51 73 52 82 53 74 54 75 55
REMARK SMILES IDX 81 56 83 57 76 58 77 59 78 60 79 61 80 62 56 63 57 64 66 65
REMARK SMILES IDX 58 66 59 67 65 68 67 69 60 70 61 71 62 72 63 73 64 74 6 75
REMARK SMILES IDX 7 76 8 77 9 78 10 80 11 81 12 82 28 83 13 84 15 85 14 86
REMARK SMILES IDX 16 87 17 89 18 90 23 91 19 92 22 93 20 94 21 95 24 96 25 97
REMARK SMILES IDX 26 98 27 99
REMARK H PARENT 3 6 88 24 54 35 8 79 16 88
REMARK Flexibility Score: inf
ROOT
ATOM      1  C   UNL     1       4.953  -2.560  -0.748  1.00  0.00     0.023 C 
ENDROOT
BRANCH   1   2
ATOM      2  C   UNL     1       4.673  -1.065  -0.839  1.00  0.00     0.116 C 
BRANCH   2   3
ATOM      3  N   UNL     1       3.254  -0.744  -0.884  1.00  0.00    -0.352 N 
ATOM      4  O   UNL     1       1.296   0.137  -0.198  1.00  0.00    -0.269 OA
ATOM      5  C   UNL     1       2.516   0.084  -0.068  1.00  0.00     0.251 C 
ATOM      6  H   UNL     1       2.747  -1.184  -1.604  1.00  0.00     0.163 HD
BRANCH   5   7
ATOM      7  C   UNL     1       3.187   0.876   0.989  1.00  0.00     0.039 A 
ATOM      8  C   UNL     1       4.367   1.570   0.722  1.00  0.00     0.014 A 
ATOM      9  C   UNL     1       2.637   0.902   2.274  1.00  0.00     0.014 A 
ATOM     10  C   UNL     1       5.089   2.130   1.771  1.00  0.00     0.010 A 
ATOM     11  C   UNL     1       3.321   1.547   3.312  1.00  0.00     0.010 A 
ATOM     12  C   UNL     1       4.579   2.121   3.080  1.00  0.00    -0.014 A 
BRANCH  12  13
ATOM     13  C   UNL     1       5.383   2.728   4.175  1.00  0.00     0.031 A 
ATOM     14  C   UNL     1       5.919   1.889   5.306  1.00  0.00     0.074 A 
ATOM     15  C   UNL     1       5.681   4.041   4.114  1.00  0.00     0.049 A 
ATOM     16  N   UNL     1       6.694   2.245   6.301  1.00  0.00    -0.248 NA
ATOM     17  C   UNL     1       5.532   0.470   5.334  1.00  0.00     0.031 C 
ATOM     18  C   UNL     1       5.207   4.964   3.079  1.00  0.00     0.029 A 
ATOM     19  N   UNL     1       6.474   4.822   4.915  1.00  0.00    -0.354 N 
ATOM     20  C   UNL     1       6.862   1.109   7.085  1.00  0.00     0.074 A 
ATOM     21  C   UNL     1       6.093   0.054   6.461  1.00  0.00     0.031 C 
ATOM     22  C   UNL     1       5.768   6.166   3.271  1.00  0.00     0.029 A 
ATOM     23  C   UNL     1       6.598   6.117   4.469  1.00  0.00     0.049 A 
ATOM     24  H   UNL     1       6.913   4.487   5.730  1.00  0.00     0.167 HD
ATOM     25  C   UNL     1       7.595   0.958   8.215  1.00  0.00     0.037 A 
ATOM     26  C   UNL     1       7.302   7.151   4.966  1.00  0.00     0.037 A 
ATOM     27  C   UNL     1       8.389   2.002   8.813  1.00  0.00     0.049 A 
ATOM     28  C   UNL     1       8.125   6.951   6.205  1.00  0.00     0.074 A 
ATOM     29  C   UNL     1       9.202   1.932   9.932  1.00  0.00     0.029 A 
ATOM     30  N   UNL     1       8.473   3.304   8.342  1.00  0.00    -0.354 N 
ATOM     31  N   UNL     1       8.293   5.860   6.913  1.00  0.00    -0.248 NA
ATOM     32  C   UNL     1       8.852   8.121   6.713  1.00  0.00     0.031 C 
ATOM     33  C   UNL     1       9.752   3.200  10.156  1.00  0.00     0.029 A 
ATOM     34  C   UNL     1       9.311   4.050   9.155  1.00  0.00     0.049 A 
ATOM     35  H   UNL     1       8.005   3.647   7.547  1.00  0.00     0.167 HD
ATOM     36  C   UNL     1       9.158   6.209   7.944  1.00  0.00     0.074 A 
ATOM     37  C   UNL     1       9.490   7.607   7.756  1.00  0.00     0.031 C 
ATOM     38  C   UNL     1       9.632   5.440   8.955  1.00  0.00     0.037 A 
BRANCH  25  39
ATOM     39  C   UNL     1       7.563  -0.384   8.895  1.00  0.00     0.058 A 
ATOM     40  C   UNL     1       8.238  -1.497   8.370  1.00  0.00     0.135 A 
ATOM     41  C   UNL     1       6.877  -0.547  10.109  1.00  0.00     0.135 A 
ATOM     42  F   UNL     1       8.898  -1.399   7.205  1.00  0.00    -0.206 F 
ATOM     43  C   UNL     1       8.212  -2.732   9.011  1.00  0.00     0.059 A 
ATOM     44  C   UNL     1       6.855  -1.768  10.779  1.00  0.00     0.059 A 
ATOM     45  F   UNL     1       6.216   0.485  10.657  1.00  0.00    -0.206 F 
ATOM     46  C   UNL     1       7.514  -2.859  10.213  1.00  0.00     0.060 A 
BRANCH  46  47
ATOM     47  S   UNL     1       7.482  -4.468  11.034  1.00  0.00     0.124 S 
ATOM     48  O   UNL     1       6.519  -5.193  10.210  1.00  0.00    -0.237 OA
ATOM     49  O   UNL     1       8.869  -4.907  10.920  1.00  0.00    -0.237 OA
ATOM     50  O   UNL     1       7.038  -4.150  12.387  1.00  0.00    -0.744 OA
ENDBRANCH  46  47
ENDBRANCH  25  39
BRANCH  26  51
ATOM     51  C   UNL     1       7.268   8.464   4.271  1.00  0.00     0.058 A 
ATOM     52  C   UNL     1       8.383   8.931   3.562  1.00  0.00     0.135 A 
ATOM     53  C   UNL     1       6.111   9.257   4.274  1.00  0.00     0.135 A 
ATOM     54  F   UNL     1       9.513   8.208   3.534  1.00  0.00    -0.206 F 
ATOM     55  C   UNL     1       8.356  10.145   2.884  1.00  0.00     0.059 A 
ATOM     56  C   UNL     1       6.051  10.462   3.584  1.00  0.00     0.059 A 
ATOM     57  F   UNL     1       5.013   8.842   4.925  1.00  0.00    -0.206 F 
ATOM     58  C   UNL     1       7.183  10.902   2.898  1.00  0.00     0.060 A 
BRANCH  58  59
ATOM     59  S   UNL     1       7.131  12.446   1.962  1.00  0.00     0.124 S 
ATOM     60  O   UNL     1       7.861  13.348   2.845  1.00  0.00    -0.237 OA
ATOM     61  O   UNL     1       7.808  12.079   0.722  1.00  0.00    -0.237 OA
ATOM     62  O   UNL     1       5.701  12.707   1.831  1.00  0.00    -0.744 OA
ENDBRANCH  58  59
ENDBRANCH  26  51
BRANCH  38  63
ATOM     63  C   UNL     1      10.581   6.093   9.919  1.00  0.00     0.058 A 
ATOM     64  C   UNL     1      10.133   7.002  10.889  1.00  0.00     0.135 A 
ATOM     65  C   UNL     1      11.951   5.790   9.883  1.00  0.00     0.135 A 
ATOM     66  F   UNL     1       8.833   7.330  10.959  1.00  0.00    -0.206 F 
ATOM     67  C   UNL     1      11.016   7.614  11.773  1.00  0.00     0.059 A 
ATOM     68  C   UNL     1      12.849   6.373  10.771  1.00  0.00     0.059 A 
ATOM     69  F   UNL     1      12.428   4.919   8.980  1.00  0.00    -0.206 F 
ATOM     70  C   UNL     1      12.374   7.296  11.703  1.00  0.00     0.060 A 
BRANCH  70  71
ATOM     71  S   UNL     1      13.513   8.085  12.860  1.00  0.00     0.124 S 
ATOM     72  O   UNL     1      13.680   9.402  12.254  1.00  0.00    -0.237 OA
ATOM     73  O   UNL     1      12.765   8.054  14.112  1.00  0.00    -0.237 OA
ATOM     74  O   UNL     1      14.689   7.220  12.818  1.00  0.00    -0.744 OA
ENDBRANCH  70  71
ENDBRANCH  38  63
ENDBRANCH  12  13
ENDBRANCH   5   7
ENDBRANCH   2   3
ENDBRANCH   1   2
BRANCH   1  75
ATOM     75  C   UNL     1       4.478  -3.396  -1.935  1.00  0.00     0.023 C 
BRANCH  75  76
ATOM     76  C   UNL     1       4.925  -2.905  -3.310  1.00  0.00     0.116 C 
BRANCH  76  77
ATOM     77  N   UNL     1       6.370  -2.819  -3.442  1.00  0.00    -0.351 N 
ATOM     78  C   UNL     1       7.178  -3.322  -4.438  1.00  0.00     0.271 C 
ATOM     79  H   UNL     1       6.835  -2.337  -2.721  1.00  0.00     0.163 HD
ATOM     80  O   UNL     1       8.397  -3.193  -4.369  1.00  0.00    -0.267 OA
BRANCH  78  81
ATOM     81  C   UNL     1       6.567  -3.996  -5.603  1.00  0.00     0.148 A 
ATOM     82  C   UNL     1       5.716  -3.289  -6.436  1.00  0.00     0.145 A 
ATOM     83  N   UNL     1       6.865  -5.311  -5.790  1.00  0.00    -0.222 NA
ATOM     84  N   UNL     1       5.078  -3.879  -7.469  1.00  0.00    -0.258 NA
ATOM     85  C   UNL     1       6.269  -5.912  -6.838  1.00  0.00     0.149 A 
ATOM     86  C   UNL     1       5.369  -5.197  -7.636  1.00  0.00     0.158 A 
BRANCH  85  87
ATOM     87  N   UNL     1       6.572  -7.263  -7.016  1.00  0.00    -0.338 N 
ATOM     88  H   UNL     1       7.075  -7.655  -6.267  1.00  0.00     0.168 HD
BRANCH  87  89
ATOM     89  C   UNL     1       6.303  -8.174  -8.047  1.00  0.00     0.052 A 
ATOM     90  C   UNL     1       6.251  -7.750  -9.388  1.00  0.00     0.028 A 
ATOM     91  C   UNL     1       5.996  -9.520  -7.762  1.00  0.00     0.080 A 
ATOM     92  C   UNL     1       5.855  -8.609 -10.415  1.00  0.00     0.022 A 
ATOM     93  C   UNL     1       5.582 -10.377  -8.805  1.00  0.00     0.035 A 
ATOM     94  C   UNL     1       5.505  -9.917 -10.116  1.00  0.00     0.041 A 
ATOM     95  Cl  UNL     1       4.973 -10.971 -11.366  1.00  0.00    -0.084 Cl
BRANCH  91  96
ATOM     96  C   UNL     1       6.034 -10.086  -6.363  1.00  0.00     0.418 C 
ATOM     97  F   UNL     1       4.795 -10.180  -5.809  1.00  0.00    -0.166 F 
ATOM     98  F   UNL     1       6.551 -11.348  -6.332  1.00  0.00    -0.166 F 
ATOM     99  F   UNL     1       6.791  -9.365  -5.489  1.00  0.00    -0.166 F 
ENDBRANCH  91  96
ENDBRANCH  87  89
ENDBRANCH  85  87
ENDBRANCH  78  81
ENDBRANCH  76  77
ENDBRANCH  75  76
ENDBRANCH   1  75
TORSDOF 17
