REMARK SMILES O=C(NCCCCNC(=O)[C@H]1CC2(CCN(C(=O)c3cc4ccccc4[nH]3)CC2)CN1C(=O)C1CC1)c1ccc(-c2c3nc(c(-c4c(F)cc(S(=O)(=O)[O-])cc4F)c4ccc([nH]4)c(-c4c(F)cc(S(=O)(=O)[O-])cc4F)c4nc(c(-c5c(F)cc(S(=O)(=O)[O-])cc5F)c5ccc2[nH]5)C=C4)C=C3)cc1
REMARK SMILES IDX 5 1 4 2 3 3 1 4 2 5 37 7 38 8 102 9 39 10 101 11 40 12 41 13
REMARK SMILES IDX 42 14 95 15 43 16 100 17 94 18 96 19 44 20 99 21 93 22 92 23
REMARK SMILES IDX 45 25 79 26 58 27 78 28 59 29 62 30 77 31 97 32 60 33 61 34
REMARK SMILES IDX 76 36 98 37 63 38 46 39 47 40 56 41 48 42 49 43 55 44 57 45
REMARK SMILES IDX 50 46 51 47 52 48 53 49 54 50 80 51 81 52 90 53 82 54 83 55
REMARK SMILES IDX 89 56 91 57 84 58 85 59 86 60 87 61 88 62 64 63 65 64 74 65
REMARK SMILES IDX 66 66 67 67 73 68 75 69 68 70 69 71 70 72 71 73 72 74 6 75
REMARK SMILES IDX 7 76 8 77 9 78 10 80 11 81 12 82 31 83 13 84 30 85 14 86
REMARK SMILES IDX 29 87 15 88 28 89 16 90 17 91 18 92 32 93 33 94 34 95 35 96
REMARK SMILES IDX 36 97 19 98 20 99 27 100 21 101 26 102 22 104 25 105 23 106
REMARK SMILES IDX 24 107
REMARK H PARENT 3 6 96 24 62 35 8 79 27 103
REMARK Flexibility Score: inf
ROOT
ATOM      1  C   UNL     1       1.581   5.052   3.801  1.00  0.00     0.023 C 
ENDROOT
BRANCH   1   2
ATOM      2  C   UNL     1       0.745   5.808   4.826  1.00  0.00     0.116 C 
BRANCH   2   3
ATOM      3  N   UNL     1       1.106   7.213   4.963  1.00  0.00    -0.352 N 
ATOM      4  O   UNL     1       0.656   9.406   5.328  1.00  0.00    -0.269 OA
ATOM      5  C   UNL     1       0.266   8.246   5.303  1.00  0.00     0.251 C 
ATOM      6  H   UNL     1       2.048   7.446   4.794  1.00  0.00     0.163 HD
BRANCH   5   7
ATOM      7  C   UNL     1      -1.132   7.898   5.604  1.00  0.00     0.039 A 
ATOM      8  C   UNL     1      -1.396   6.967   6.612  1.00  0.00     0.014 A 
ATOM      9  C   UNL     1      -2.146   8.388   4.781  1.00  0.00     0.014 A 
ATOM     10  C   UNL     1      -2.671   6.436   6.724  1.00  0.00     0.010 A 
ATOM     11  C   UNL     1      -3.444   7.910   4.951  1.00  0.00     0.010 A 
ATOM     12  C   UNL     1      -3.709   6.920   5.911  1.00  0.00    -0.014 A 
BRANCH  12  13
ATOM     13  C   UNL     1      -5.094   6.468   6.169  1.00  0.00     0.031 A 
ATOM     14  C   UNL     1      -5.858   5.665   5.159  1.00  0.00     0.074 A 
ATOM     15  C   UNL     1      -5.650   6.826   7.342  1.00  0.00     0.049 A 
ATOM     16  N   UNL     1      -7.097   5.253   5.214  1.00  0.00    -0.248 NA
ATOM     17  C   UNL     1      -5.152   5.280   3.926  1.00  0.00     0.031 C 
ATOM     18  C   UNL     1      -4.986   7.628   8.376  1.00  0.00     0.029 A 
ATOM     19  N   UNL     1      -6.889   6.574   7.865  1.00  0.00    -0.354 N 
ATOM     20  C   UNL     1      -7.334   4.590   4.016  1.00  0.00     0.074 A 
ATOM     21  C   UNL     1      -6.108   4.651   3.250  1.00  0.00     0.031 C 
ATOM     22  C   UNL     1      -5.817   7.787   9.414  1.00  0.00     0.029 A 
ATOM     23  C   UNL     1      -7.092   7.162   9.091  1.00  0.00     0.049 A 
ATOM     24  H   UNL     1      -7.568   6.027   7.409  1.00  0.00     0.167 HD
ATOM     25  C   UNL     1      -8.478   3.993   3.605  1.00  0.00     0.037 A 
ATOM     26  C   UNL     1      -8.198   7.235   9.851  1.00  0.00     0.037 A 
ATOM     27  C   UNL     1      -9.675   3.918   4.404  1.00  0.00     0.049 A 
ATOM     28  C   UNL     1      -9.451   6.578   9.359  1.00  0.00     0.074 A 
ATOM     29  C   UNL     1     -10.856   3.253   4.122  1.00  0.00     0.029 A 
ATOM     30  N   UNL     1      -9.850   4.540   5.631  1.00  0.00    -0.354 N 
ATOM     31  N   UNL     1      -9.638   5.899   8.252  1.00  0.00    -0.248 NA
ATOM     32  C   UNL     1     -10.644   6.707  10.203  1.00  0.00     0.031 C 
ATOM     33  C   UNL     1     -11.761   3.513   5.157  1.00  0.00     0.029 A 
ATOM     34  C   UNL     1     -11.132   4.309   6.101  1.00  0.00     0.049 A 
ATOM     35  H   UNL     1      -9.164   5.069   6.100  1.00  0.00     0.167 HD
ATOM     36  C   UNL     1     -10.974   5.524   8.262  1.00  0.00     0.074 A 
ATOM     37  C   UNL     1     -11.539   6.027   9.499  1.00  0.00     0.031 C 
ATOM     38  C   UNL     1     -11.672   4.835   7.329  1.00  0.00     0.037 A 
BRANCH  25  39
ATOM     39  C   UNL     1      -8.515   3.383   2.232  1.00  0.00     0.058 A 
ATOM     40  C   UNL     1      -7.908   2.151   1.951  1.00  0.00     0.135 A 
ATOM     41  C   UNL     1      -9.259   3.995   1.209  1.00  0.00     0.135 A 
ATOM     42  F   UNL     1      -7.175   1.529   2.889  1.00  0.00    -0.206 F 
ATOM     43  C   UNL     1      -8.036   1.545   0.704  1.00  0.00     0.059 A 
ATOM     44  C   UNL     1      -9.415   3.400  -0.040  1.00  0.00     0.059 A 
ATOM     45  F   UNL     1      -9.858   5.177   1.425  1.00  0.00    -0.206 F 
ATOM     46  C   UNL     1      -8.796   2.175  -0.284  1.00  0.00     0.060 A 
BRANCH  46  47
ATOM     47  S   UNL     1      -8.989   1.356  -1.882  1.00  0.00     0.124 S 
ATOM     48  O   UNL     1      -7.668   1.555  -2.471  1.00  0.00    -0.237 OA
ATOM     49  O   UNL     1      -9.309  -0.014  -1.494  1.00  0.00    -0.237 OA
ATOM     50  O   UNL     1     -10.076   2.095  -2.516  1.00  0.00    -0.744 OA
ENDBRANCH  46  47
ENDBRANCH  25  39
BRANCH  26  51
ATOM     51  C   UNL     1      -8.168   8.007  11.118  1.00  0.00     0.058 A 
ATOM     52  C   UNL     1      -8.221   7.364  12.361  1.00  0.00     0.135 A 
ATOM     53  C   UNL     1      -8.043   9.406  11.104  1.00  0.00     0.135 A 
ATOM     54  F   UNL     1      -8.337   6.029  12.422  1.00  0.00    -0.206 F 
ATOM     55  C   UNL     1      -8.165   8.082  13.551  1.00  0.00     0.059 A 
ATOM     56  C   UNL     1      -7.959  10.143  12.279  1.00  0.00     0.059 A 
ATOM     57  F   UNL     1      -7.964  10.063   9.937  1.00  0.00    -0.206 F 
ATOM     58  C   UNL     1      -8.034   9.472  13.499  1.00  0.00     0.060 A 
BRANCH  58  59
ATOM     59  S   UNL     1      -7.915  10.396  15.045  1.00  0.00     0.124 S 
ATOM     60  O   UNL     1      -9.311  10.446  15.462  1.00  0.00    -0.237 OA
ATOM     61  O   UNL     1      -7.038   9.549  15.847  1.00  0.00    -0.237 OA
ATOM     62  O   UNL     1      -7.332  11.668  14.628  1.00  0.00    -0.744 OA
ENDBRANCH  58  59
ENDBRANCH  26  51
BRANCH  38  63
ATOM     63  C   UNL     1     -13.125   4.597   7.610  1.00  0.00     0.058 A 
ATOM     64  C   UNL     1     -14.070   5.622   7.453  1.00  0.00     0.135 A 
ATOM     65  C   UNL     1     -13.582   3.327   7.992  1.00  0.00     0.135 A 
ATOM     66  F   UNL     1     -13.676   6.857   7.103  1.00  0.00    -0.206 F 
ATOM     67  C   UNL     1     -15.423   5.399   7.678  1.00  0.00     0.059 A 
ATOM     68  C   UNL     1     -14.934   3.076   8.201  1.00  0.00     0.059 A 
ATOM     69  F   UNL     1     -12.715   2.315   8.150  1.00  0.00    -0.206 F 
ATOM     70  C   UNL     1     -15.845   4.120   8.049  1.00  0.00     0.060 A 
BRANCH  70  71
ATOM     71  S   UNL     1     -17.609   3.830   8.293  1.00  0.00     0.124 S 
ATOM     72  O   UNL     1     -17.832   4.452   9.593  1.00  0.00    -0.237 OA
ATOM     73  O   UNL     1     -18.202   4.519   7.150  1.00  0.00    -0.237 OA
ATOM     74  O   UNL     1     -17.719   2.374   8.265  1.00  0.00    -0.744 OA
ENDBRANCH  70  71
ENDBRANCH  38  63
ENDBRANCH  12  13
ENDBRANCH   5   7
ENDBRANCH   2   3
ENDBRANCH   1   2
BRANCH   1  75
ATOM     75  C   UNL     1       3.088   5.202   3.979  1.00  0.00     0.023 C 
BRANCH  75  76
ATOM     76  C   UNL     1       3.571   4.787   5.369  1.00  0.00     0.116 C 
BRANCH  76  77
ATOM     77  N   UNL     1       4.104   3.437   5.348  1.00  0.00    -0.354 N 
ATOM     78  C   UNL     1       5.348   2.913   5.206  1.00  0.00     0.242 C 
ATOM     79  H   UNL     1       3.409   2.748   5.462  1.00  0.00     0.163 HD
ATOM     80  O   UNL     1       5.388   1.737   4.815  1.00  0.00    -0.273 OA
BRANCH  78  81
ATOM     81  C   UNL     1       6.676   3.613   5.553  1.00  0.00     0.175 C 
ATOM     82  C   UNL     1       6.644   5.119   5.430  1.00  0.00     0.044 C 
ATOM     83  N   UNL     1       7.367   3.483   6.839  1.00  0.00    -0.330 N 
ATOM     84  C   UNL     1       8.016   5.614   5.896  1.00  0.00    -0.006 C 
ATOM     85  C   UNL     1       8.444   4.488   6.863  1.00  0.00     0.127 C 
ATOM     86  C   UNL     1       7.867   6.968   6.616  1.00  0.00     0.030 C 
ATOM     87  C   UNL     1       8.981   5.818   4.715  1.00  0.00     0.030 C 
ATOM     88  C   UNL     1       7.306   8.022   5.663  1.00  0.00     0.120 C 
ATOM     89  C   UNL     1       8.543   6.961   3.785  1.00  0.00     0.120 C 
ATOM     90  N   UNL     1       8.167   8.190   4.492  1.00  0.00    -0.337 N 
ATOM     91  C   UNL     1       8.251   9.387   3.758  1.00  0.00     0.270 C 
ATOM     92  O   UNL     1       8.604   9.376   2.579  1.00  0.00    -0.267 OA
BRANCH  83  93
ATOM     93  C   UNL     1       7.647   2.266   7.446  1.00  0.00     0.226 C 
ATOM     94  O   UNL     1       8.796   1.861   7.603  1.00  0.00    -0.275 OA
BRANCH  93  95
ATOM     95  C   UNL     1       6.569   1.633   8.266  1.00  0.00     0.079 C 
ATOM     96  C   UNL     1       5.259   1.020   7.861  1.00  0.00     0.014 C 
ATOM     97  C   UNL     1       6.424   0.126   8.125  1.00  0.00     0.014 C 
ENDBRANCH  93  95
ENDBRANCH  83  93
BRANCH  91  98
ATOM     98  C   UNL     1       7.907  10.633   4.414  1.00  0.00     0.105 A 
ATOM     99  C   UNL     1       7.282  11.738   3.858  1.00  0.00     0.042 A 
ATOM    100  N   UNL     1       8.243  10.992   5.699  1.00  0.00    -0.351 N 
ATOM    101  C   UNL     1       7.149  12.736   4.861  1.00  0.00     0.000 A 
ATOM    102  C   UNL     1       7.734  12.229   6.018  1.00  0.00     0.046 A 
ATOM    103  H   UNL     1       8.778  10.437   6.311  1.00  0.00     0.167 HD
ATOM    104  C   UNL     1       6.583  14.024   4.896  1.00  0.00     0.010 A 
ATOM    105  C   UNL     1       7.760  12.935   7.226  1.00  0.00     0.026 A 
ATOM    106  C   UNL     1       6.606  14.749   6.093  1.00  0.00     0.001 A 
ATOM    107  C   UNL     1       7.181  14.207   7.241  1.00  0.00     0.002 A 
ENDBRANCH  91  98
ENDBRANCH  78  81
ENDBRANCH  76  77
ENDBRANCH  75  76
ENDBRANCH   1  75
TORSDOF 17
