REMARK SMILES C[C@H](C(=O)NCCCCNC(=O)c1ccc(-c2c3nc(c(-c4c(F)cc(S(=O)(=O)[O-])cc4F)c4ccc([nH]4)c(-c4c(F)cc(S(=O)(=O)[O-])cc4F)c4nc(c(-c5c(F)cc(S(=O)(=O)[O-])cc5F)c5ccc2[nH]5)C=C4)C=C3)cc1)S(=O)(=O)Cc1ccc(O)cc1
REMARK SMILES IDX 7 1 6 2 5 3 3 4 4 5 2 7 1 8 79 9 80 10 81 11 82 12 83 13
REMARK SMILES IDX 84 14 89 15 85 16 88 17 86 18 87 19 8 21 9 22 10 23 11 24
REMARK SMILES IDX 12 26 13 27 14 28 78 29 15 30 77 31 16 32 17 33 18 34 71 35
REMARK SMILES IDX 19 36 76 37 70 38 72 39 20 40 75 41 69 42 68 43 21 45 55 46
REMARK SMILES IDX 34 47 54 48 35 49 38 50 53 51 73 52 36 53 37 54 52 56 74 57
REMARK SMILES IDX 39 58 22 59 23 60 32 61 24 62 25 63 31 64 33 65 26 66 27 67
REMARK SMILES IDX 28 68 29 69 30 70 56 71 57 72 66 73 58 74 59 75 65 76 67 77
REMARK SMILES IDX 60 78 61 79 62 80 63 81 64 82 40 83 41 84 50 85 42 86 43 87
REMARK SMILES IDX 49 88 51 89 44 90 45 91 46 92 47 93 48 94
REMARK H PARENT 5 6 87 20 10 25 72 44 38 55
REMARK Flexibility Score: inf
ROOT
ATOM      1  C   UNL     1      -2.045   1.664   1.258  1.00  0.00     0.023 C 
ENDROOT
BRANCH   1   2
ATOM      2  C   UNL     1      -1.327   1.327  -0.053  1.00  0.00     0.116 C 
BRANCH   2   3
ATOM      3  N   UNL     1       0.027   0.880   0.210  1.00  0.00    -0.355 N 
ATOM      4  C   UNL     1       0.731  -0.264   0.130  1.00  0.00     0.238 C 
ATOM      5  O   UNL     1       1.869  -0.127   0.618  1.00  0.00    -0.274 OA
ATOM      6  H   UNL     1       0.587   1.619   0.540  1.00  0.00     0.163 HD
BRANCH   4   7
ATOM      7  C   UNL     1       0.413  -1.580  -0.559  1.00  0.00     0.194 C 
ATOM      8  C   UNL     1       1.273  -2.679   0.091  1.00  0.00     0.035 C 
BRANCH   7   9
ATOM      9  S   UNL     1      -1.262  -2.131  -0.760  1.00  0.00     0.166 S 
ATOM     10  O   UNL     1      -1.901  -1.244  -1.719  1.00  0.00    -0.228 OA
ATOM     11  O   UNL     1      -1.240  -3.542  -1.115  1.00  0.00    -0.228 OA
BRANCH   9  12
ATOM     12  C   UNL     1      -2.111  -1.944   0.805  1.00  0.00     0.173 C 
BRANCH  12  13
ATOM     13  C   UNL     1      -1.697  -2.937   1.855  1.00  0.00    -0.033 A 
ATOM     14  C   UNL     1      -1.961  -4.305   1.701  1.00  0.00     0.008 A 
ATOM     15  C   UNL     1      -1.137  -2.492   3.064  1.00  0.00     0.008 A 
ATOM     16  C   UNL     1      -1.635  -5.211   2.710  1.00  0.00     0.046 A 
ATOM     17  C   UNL     1      -0.822  -3.397   4.081  1.00  0.00     0.046 A 
ATOM     18  C   UNL     1      -1.070  -4.752   3.892  1.00  0.00     0.115 A 
BRANCH  18  19
ATOM     19  O   UNL     1      -0.781  -5.671   4.856  1.00  0.00    -0.508 OA
ATOM     20  H   UNL     1      -0.957  -6.579   4.705  1.00  0.00     0.293 HD
ENDBRANCH  18  19
ENDBRANCH  12  13
ENDBRANCH   9  12
ENDBRANCH   7   9
ENDBRANCH   4   7
ENDBRANCH   2   3
ENDBRANCH   1   2
BRANCH   1  21
ATOM     21  C   UNL     1      -1.715   3.034   1.841  1.00  0.00     0.023 C 
BRANCH  21  22
ATOM     22  C   UNL     1      -1.988   4.209   0.915  1.00  0.00     0.116 C 
BRANCH  22  23
ATOM     23  N   UNL     1      -3.326   4.191   0.342  1.00  0.00    -0.352 N 
ATOM     24  C   UNL     1      -4.218   5.227   0.191  1.00  0.00     0.251 C 
ATOM     25  H   UNL     1      -3.635   3.316   0.016  1.00  0.00     0.163 HD
ATOM     26  O   UNL     1      -5.354   5.003  -0.203  1.00  0.00    -0.269 OA
BRANCH  24  27
ATOM     27  C   UNL     1      -3.800   6.598   0.548  1.00  0.00     0.039 A 
ATOM     28  C   UNL     1      -4.661   7.384   1.316  1.00  0.00     0.014 A 
ATOM     29  C   UNL     1      -2.547   7.087   0.167  1.00  0.00     0.014 A 
ATOM     30  C   UNL     1      -4.231   8.633   1.763  1.00  0.00     0.010 A 
ATOM     31  C   UNL     1      -2.085   8.287   0.694  1.00  0.00     0.010 A 
ATOM     32  C   UNL     1      -2.923   9.075   1.494  1.00  0.00    -0.014 A 
BRANCH  32  33
ATOM     33  C   UNL     1      -2.427  10.357   2.053  1.00  0.00     0.031 A 
ATOM     34  C   UNL     1      -2.012  11.476   1.137  1.00  0.00     0.074 A 
ATOM     35  C   UNL     1      -2.316  10.493   3.389  1.00  0.00     0.049 A 
ATOM     36  N   UNL     1      -1.560  12.665   1.442  1.00  0.00    -0.248 NA
ATOM     37  C   UNL     1      -2.085  11.219  -0.312  1.00  0.00     0.031 C 
ATOM     38  C   UNL     1      -2.605   9.447   4.375  1.00  0.00     0.029 A 
ATOM     39  N   UNL     1      -1.932  11.566   4.153  1.00  0.00    -0.354 N 
ATOM     40  C   UNL     1      -1.300  13.295   0.231  1.00  0.00     0.074 A 
ATOM     41  C   UNL     1      -1.571  12.332  -0.814  1.00  0.00     0.031 C 
ATOM     42  C   UNL     1      -2.423   9.941   5.610  1.00  0.00     0.029 A 
ATOM     43  C   UNL     1      -1.979  11.327   5.506  1.00  0.00     0.049 A 
ATOM     44  H   UNL     1      -1.650  12.427   3.768  1.00  0.00     0.167 HD
ATOM     45  C   UNL     1      -0.909  14.571   0.006  1.00  0.00     0.037 A 
ATOM     46  C   UNL     1      -1.701  12.136   6.546  1.00  0.00     0.037 A 
ATOM     47  C   UNL     1      -0.662  15.531   1.050  1.00  0.00     0.049 A 
ATOM     48  C   UNL     1      -1.300  13.559   6.270  1.00  0.00     0.074 A 
ATOM     49  C   UNL     1      -0.302  16.862   0.931  1.00  0.00     0.029 A 
ATOM     50  N   UNL     1      -0.756  15.263   2.409  1.00  0.00    -0.354 N 
ATOM     51  N   UNL     1      -1.127  14.158   5.115  1.00  0.00    -0.248 NA
ATOM     52  C   UNL     1      -1.073  14.423   7.436  1.00  0.00     0.031 C 
ATOM     53  C   UNL     1      -0.146  17.390   2.217  1.00  0.00     0.029 A 
ATOM     54  C   UNL     1      -0.452  16.401   3.138  1.00  0.00     0.049 A 
ATOM     55  H   UNL     1      -1.002  14.393   2.797  1.00  0.00     0.167 HD
ATOM     56  C   UNL     1      -0.785  15.471   5.416  1.00  0.00     0.074 A 
ATOM     57  C   UNL     1      -0.808  15.586   6.860  1.00  0.00     0.031 C 
ATOM     58  C   UNL     1      -0.473  16.490   4.576  1.00  0.00     0.037 A 
BRANCH  45  59
ATOM     59  C   UNL     1      -0.754  15.011  -1.424  1.00  0.00     0.058 A 
ATOM     60  C   UNL     1      -1.870  15.178  -2.261  1.00  0.00     0.135 A 
ATOM     61  C   UNL     1       0.510  15.312  -1.954  1.00  0.00     0.135 A 
ATOM     62  F   UNL     1      -3.102  14.886  -1.813  1.00  0.00    -0.206 F 
ATOM     63  C   UNL     1      -1.736  15.608  -3.576  1.00  0.00     0.059 A 
ATOM     64  C   UNL     1       0.665  15.771  -3.259  1.00  0.00     0.059 A 
ATOM     65  F   UNL     1       1.612  15.165  -1.200  1.00  0.00    -0.206 F 
ATOM     66  C   UNL     1      -0.464  15.906  -4.066  1.00  0.00     0.060 A 
BRANCH  66  67
ATOM     67  S   UNL     1      -0.313  16.490  -5.767  1.00  0.00     0.124 S 
ATOM     68  O   UNL     1      -0.581  15.267  -6.519  1.00  0.00    -0.237 OA
ATOM     69  O   UNL     1      -1.348  17.516  -5.837  1.00  0.00    -0.237 OA
ATOM     70  O   UNL     1       1.059  16.982  -5.838  1.00  0.00    -0.744 OA
ENDBRANCH  66  67
ENDBRANCH  45  59
BRANCH  46  71
ATOM     71  C   UNL     1      -1.816  11.629   7.940  1.00  0.00     0.058 A 
ATOM     72  C   UNL     1      -2.829  12.084   8.799  1.00  0.00     0.135 A 
ATOM     73  C   UNL     1      -0.913  10.680   8.443  1.00  0.00     0.135 A 
ATOM     74  F   UNL     1      -3.716  12.992   8.366  1.00  0.00    -0.206 F 
ATOM     75  C   UNL     1      -2.924  11.640  10.114  1.00  0.00     0.059 A 
ATOM     76  C   UNL     1      -1.004  10.200   9.745  1.00  0.00     0.059 A 
ATOM     77  F   UNL     1       0.060  10.195   7.656  1.00  0.00    -0.206 F 
ATOM     78  C   UNL     1      -2.005  10.698  10.578  1.00  0.00     0.060 A 
BRANCH  78  79
ATOM     79  S   UNL     1      -2.154  10.102  12.277  1.00  0.00     0.124 S 
ATOM     80  O   UNL     1      -1.640  11.238  13.032  1.00  0.00    -0.237 OA
ATOM     81  O   UNL     1      -3.587   9.853  12.392  1.00  0.00    -0.237 OA
ATOM     82  O   UNL     1      -1.316   8.906  12.285  1.00  0.00    -0.744 OA
ENDBRANCH  78  79
ENDBRANCH  46  71
BRANCH  58  83
ATOM     83  C   UNL     1      -0.147  17.815   5.207  1.00  0.00     0.058 A 
ATOM     84  C   UNL     1       1.048  18.017   5.917  1.00  0.00     0.135 A 
ATOM     85  C   UNL     1      -1.035  18.897   5.094  1.00  0.00     0.135 A 
ATOM     86  F   UNL     1       1.929  17.014   6.055  1.00  0.00    -0.206 F 
ATOM     87  C   UNL     1       1.329  19.231   6.533  1.00  0.00     0.059 A 
ATOM     88  C   UNL     1      -0.759  20.129   5.677  1.00  0.00     0.059 A 
ATOM     89  F   UNL     1      -2.184  18.762   4.413  1.00  0.00    -0.206 F 
ATOM     90  C   UNL     1       0.415  20.279   6.413  1.00  0.00     0.060 A 
BRANCH  90  91
ATOM     91  S   UNL     1       0.786  21.848   7.226  1.00  0.00     0.124 S 
ATOM     92  O   UNL     1       0.499  21.528   8.621  1.00  0.00    -0.237 OA
ATOM     93  O   UNL     1       2.194  22.047   6.898  1.00  0.00    -0.237 OA
ATOM     94  O   UNL     1      -0.137  22.784   6.593  1.00  0.00    -0.744 OA
ENDBRANCH  90  91
ENDBRANCH  58  83
ENDBRANCH  32  33
ENDBRANCH  24  27
ENDBRANCH  22  23
ENDBRANCH  21  22
ENDBRANCH   1  21
TORSDOF 18
