REMARK SMILES CCCCOC(=O)c1ccc(N2C[C@H](C(=O)NCCCCNC(=O)c3ccc(-c4c5nc(c(-c6c(F)cc(S(=O)(=O)[O-])cc6F)c6ccc([nH]6)c(-c6c(F)cc(S(=O)(=O)[O-])cc6F)c6nc(c(-c7c(F)cc(S(=O)(=O)[O-])cc7F)c7ccc4[nH]7)C=C6)C=C5)cc3)CC2=O)cc1
REMARK SMILES IDX 18 1 17 2 15 3 16 4 14 6 12 7 13 8 92 9 91 10 93 11 11 12
REMARK SMILES IDX 8 13 9 14 95 15 10 16 94 17 6 18 7 19 5 20 4 21 3 22 2 23
REMARK SMILES IDX 1 24 19 25 20 26 21 27 22 28 23 29 24 31 25 32 26 33 90 34
REMARK SMILES IDX 27 35 89 36 28 37 29 38 30 39 83 40 31 41 88 42 82 43 84 44
REMARK SMILES IDX 32 45 87 46 81 47 80 48 33 50 67 51 46 52 66 53 47 54 50 55
REMARK SMILES IDX 65 56 85 57 48 58 49 59 64 61 86 62 51 63 34 64 35 65 44 66
REMARK SMILES IDX 36 67 37 68 43 69 45 70 38 71 39 72 40 73 41 74 42 75 68 76
REMARK SMILES IDX 69 77 78 78 70 79 71 80 77 81 79 82 72 83 73 84 74 85 75 86
REMARK SMILES IDX 76 87 52 88 53 89 62 90 54 91 55 92 61 93 63 94 56 95 57 96
REMARK SMILES IDX 58 97 59 98 60 99
REMARK H PARENT 17 5 22 30 84 49 50 60
REMARK Flexibility Score: inf
ROOT
ATOM      1  C   UNL     1     -12.184   1.943   0.504  1.00  0.00     0.116 C 
ENDROOT
BRANCH   1   2
ATOM      2  N   UNL     1     -11.094   1.162   1.058  1.00  0.00    -0.356 N 
ATOM      3  C   UNL     1      -9.909   0.777   0.513  1.00  0.00     0.225 C 
ATOM      4  O   UNL     1      -9.140   0.113   1.208  1.00  0.00    -0.275 OA
ATOM      5  H   UNL     1     -11.236   0.859   1.984  1.00  0.00     0.163 HD
BRANCH   3   6
ATOM      6  C   UNL     1      -9.564   1.158  -0.911  1.00  0.00     0.107 C 
ATOM      7  N   UNL     1      -7.400   0.500  -1.603  1.00  0.00    -0.312 N 
ATOM      8  C   UNL     1      -8.111   1.590  -0.987  1.00  0.00     0.139 C 
ATOM      9  C   UNL     1      -8.267  -0.447  -2.148  1.00  0.00     0.227 C 
ATOM     10  C   UNL     1      -9.687  -0.043  -1.836  1.00  0.00     0.116 C 
ATOM     11  O   UNL     1      -7.996  -1.451  -2.793  1.00  0.00    -0.274 OA
BRANCH   7  12
ATOM     12  C   UNL     1      -5.986   0.464  -1.680  1.00  0.00     0.044 A 
ATOM     13  C   UNL     1      -3.185   0.321  -1.788  1.00  0.00     0.060 A 
ATOM     14  C   UNL     1      -3.797   1.011  -0.743  1.00  0.00     0.018 A 
ATOM     15  C   UNL     1      -3.949  -0.281  -2.785  1.00  0.00     0.018 A 
ATOM     16  C   UNL     1      -5.194   1.090  -0.701  1.00  0.00     0.027 A 
ATOM     17  C   UNL     1      -5.342  -0.211  -2.725  1.00  0.00     0.027 A 
BRANCH  13  18
ATOM     18  C   UNL     1      -1.730   0.145  -1.827  1.00  0.00     0.338 C 
ATOM     19  O   UNL     1      -1.181  -0.933  -1.664  1.00  0.00    -0.246 OA
BRANCH  18  20
ATOM     20  O   UNL     1      -1.161   1.326  -2.158  1.00  0.00    -0.462 OA
BRANCH  20  21
ATOM     21  C   UNL     1       0.256   1.292  -2.387  1.00  0.00     0.233 C 
BRANCH  21  22
ATOM     22  C   UNL     1       0.983   2.071  -1.295  1.00  0.00     0.041 C 
BRANCH  22  23
ATOM     23  C   UNL     1       0.789   1.513   0.117  1.00  0.00     0.000 C 
ATOM     24  C   UNL     1       1.474   0.173   0.336  1.00  0.00     0.004 C 
ENDBRANCH  22  23
ENDBRANCH  21  22
ENDBRANCH  20  21
ENDBRANCH  18  20
ENDBRANCH  13  18
ENDBRANCH   7  12
ENDBRANCH   3   6
ENDBRANCH   1   2
BRANCH   1  25
ATOM     25  C   UNL     1     -13.518   1.208   0.601  1.00  0.00     0.023 C 
BRANCH  25  26
ATOM     26  C   UNL     1     -13.979   0.876   2.023  1.00  0.00     0.023 C 
BRANCH  26  27
ATOM     27  C   UNL     1     -14.042   2.054   2.992  1.00  0.00     0.116 C 
BRANCH  27  28
ATOM     28  N   UNL     1     -14.924   3.117   2.538  1.00  0.00    -0.352 N 
ATOM     29  C   UNL     1     -15.885   3.808   3.238  1.00  0.00     0.251 C 
ATOM     30  H   UNL     1     -14.818   3.379   1.595  1.00  0.00     0.163 HD
ATOM     31  O   UNL     1     -16.617   4.596   2.646  1.00  0.00    -0.269 OA
BRANCH  29  32
ATOM     32  C   UNL     1     -16.058   3.578   4.689  1.00  0.00     0.039 A 
ATOM     33  C   UNL     1     -17.348   3.371   5.187  1.00  0.00     0.014 A 
ATOM     34  C   UNL     1     -14.960   3.557   5.555  1.00  0.00     0.014 A 
ATOM     35  C   UNL     1     -17.530   3.069   6.539  1.00  0.00     0.010 A 
ATOM     36  C   UNL     1     -15.138   3.201   6.891  1.00  0.00     0.010 A 
ATOM     37  C   UNL     1     -16.423   2.945   7.394  1.00  0.00    -0.014 A 
BRANCH  37  38
ATOM     38  C   UNL     1     -16.587   2.521   8.808  1.00  0.00     0.031 A 
ATOM     39  C   UNL     1     -16.255   3.466   9.929  1.00  0.00     0.074 A 
ATOM     40  C   UNL     1     -16.968   1.257   9.081  1.00  0.00     0.049 A 
ATOM     41  N   UNL     1     -16.255   3.248  11.219  1.00  0.00    -0.248 NA
ATOM     42  C   UNL     1     -15.846   4.827   9.549  1.00  0.00     0.031 C 
ATOM     43  C   UNL     1     -17.274   0.230   8.082  1.00  0.00     0.029 A 
ATOM     44  N   UNL     1     -17.149   0.616  10.281  1.00  0.00    -0.354 N 
ATOM     45  C   UNL     1     -15.831   4.434  11.804  1.00  0.00     0.074 A 
ATOM     46  C   UNL     1     -15.547   5.358  10.726  1.00  0.00     0.031 C 
ATOM     47  C   UNL     1     -17.618  -0.906   8.710  1.00  0.00     0.029 A 
ATOM     48  C   UNL     1     -17.528  -0.699  10.152  1.00  0.00     0.049 A 
ATOM     49  H   UNL     1     -17.019   1.056  11.152  1.00  0.00     0.167 HD
ATOM     50  C   UNL     1     -15.707   4.733  13.120  1.00  0.00     0.037 A 
ATOM     51  C   UNL     1     -17.768  -1.637  11.090  1.00  0.00     0.037 A 
ATOM     52  C   UNL     1     -16.019   3.823  14.191  1.00  0.00     0.049 A 
ATOM     53  C   UNL     1     -17.639  -1.276  12.543  1.00  0.00     0.074 A 
ATOM     54  C   UNL     1     -15.981   4.054  15.556  1.00  0.00     0.029 A 
ATOM     55  N   UNL     1     -16.427   2.509  14.020  1.00  0.00    -0.354 N 
ATOM     56  N   UNL     1     -17.287  -0.133  13.079  1.00  0.00    -0.248 NA
ATOM     57  C   UNL     1     -17.943  -2.332  13.519  1.00  0.00     0.031 C 
ATOM     58  C   UNL     1     -16.342   2.871  16.210  1.00  0.00     0.029 A 
ATOM     59  C   UNL     1     -16.634   1.913  15.253  1.00  0.00     0.049 A 
ATOM     60  H   UNL     1     -16.552   2.065  13.150  1.00  0.00     0.167 HD
ATOM     61  C   UNL     1     -17.346  -0.325  14.454  1.00  0.00     0.074 A 
ATOM     62  C   UNL     1     -17.777  -1.691  14.668  1.00  0.00     0.031 C 
ATOM     63  C   UNL     1     -17.067   0.552  15.450  1.00  0.00     0.037 A 
BRANCH  50  64
ATOM     64  C   UNL     1     -15.218   6.109  13.472  1.00  0.00     0.058 A 
ATOM     65  C   UNL     1     -16.037   7.239  13.320  1.00  0.00     0.135 A 
ATOM     66  C   UNL     1     -13.927   6.299  13.989  1.00  0.00     0.135 A 
ATOM     67  F   UNL     1     -17.275   7.113  12.816  1.00  0.00    -0.206 F 
ATOM     68  C   UNL     1     -15.582   8.514  13.639  1.00  0.00     0.059 A 
ATOM     69  C   UNL     1     -13.459   7.563  14.336  1.00  0.00     0.059 A 
ATOM     70  F   UNL     1     -13.103   5.251  14.154  1.00  0.00    -0.206 F 
ATOM     71  C   UNL     1     -14.289   8.666  14.142  1.00  0.00     0.060 A 
BRANCH  71  72
ATOM     72  S   UNL     1     -13.707  10.327  14.543  1.00  0.00     0.124 S 
ATOM     73  O   UNL     1     -13.409  10.858  13.217  1.00  0.00    -0.237 OA
ATOM     74  O   UNL     1     -14.863  10.914  15.214  1.00  0.00    -0.237 OA
ATOM     75  O   UNL     1     -12.549  10.083  15.397  1.00  0.00    -0.744 OA
ENDBRANCH  71  72
ENDBRANCH  50  64
BRANCH  51  76
ATOM     76  C   UNL     1     -18.181  -3.003  10.679  1.00  0.00     0.058 A 
ATOM     77  C   UNL     1     -19.508  -3.429  10.835  1.00  0.00     0.135 A 
ATOM     78  C   UNL     1     -17.267  -3.899  10.105  1.00  0.00     0.135 A 
ATOM     79  F   UNL     1     -20.415  -2.607  11.385  1.00  0.00    -0.206 F 
ATOM     80  C   UNL     1     -19.914  -4.700  10.447  1.00  0.00     0.059 A 
ATOM     81  C   UNL     1     -17.654  -5.169   9.690  1.00  0.00     0.059 A 
ATOM     82  F   UNL     1     -15.989  -3.530   9.920  1.00  0.00    -0.206 F 
ATOM     83  C   UNL     1     -18.979  -5.564   9.873  1.00  0.00     0.060 A 
BRANCH  83  84
ATOM     84  S   UNL     1     -19.528  -7.192   9.315  1.00  0.00     0.124 S 
ATOM     85  O   UNL     1     -19.608  -7.921  10.575  1.00  0.00    -0.237 OA
ATOM     86  O   UNL     1     -20.802  -6.885   8.672  1.00  0.00    -0.237 OA
ATOM     87  O   UNL     1     -18.463  -7.608   8.408  1.00  0.00    -0.744 OA
ENDBRANCH  83  84
ENDBRANCH  51  76
BRANCH  63  88
ATOM     88  C   UNL     1     -17.242   0.070  16.860  1.00  0.00     0.058 A 
ATOM     89  C   UNL     1     -16.308  -0.785  17.464  1.00  0.00     0.135 A 
ATOM     90  C   UNL     1     -18.334   0.502  17.631  1.00  0.00     0.135 A 
ATOM     91  F   UNL     1     -15.252  -1.232  16.766  1.00  0.00    -0.206 F 
ATOM     92  C   UNL     1     -16.457  -1.208  18.781  1.00  0.00     0.059 A 
ATOM     93  C   UNL     1     -18.492   0.107  18.955  1.00  0.00     0.059 A 
ATOM     94  F   UNL     1     -19.251   1.326  17.100  1.00  0.00    -0.206 F 
ATOM     95  C   UNL     1     -17.554  -0.757  19.518  1.00  0.00     0.060 A 
BRANCH  95  96
ATOM     96  S   UNL     1     -17.722  -1.283  21.237  1.00  0.00     0.124 S 
ATOM     97  O   UNL     1     -18.242  -2.637  21.080  1.00  0.00    -0.237 OA
ATOM     98  O   UNL     1     -16.352  -1.184  21.733  1.00  0.00    -0.237 OA
ATOM     99  O   UNL     1     -18.655  -0.311  21.798  1.00  0.00    -0.744 OA
ENDBRANCH  95  96
ENDBRANCH  63  88
ENDBRANCH  37  38
ENDBRANCH  29  32
ENDBRANCH  27  28
ENDBRANCH  26  27
ENDBRANCH  25  26
ENDBRANCH   1  25
TORSDOF 20
