REMARK SMILES C[C@@H](C(=O)NCCCCNC(=O)c1ccc(-c2c3nc(c(-c4c(F)cc(S(=O)(=O)[O-])cc4F)c4ccc([nH]4)c(-c4c(F)cc(S(=O)(=O)[O-])cc4F)c4nc(c(-c5c(F)cc(S(=O)(=O)[O-])cc5F)c5ccc2[nH]5)C=C4)C=C3)cc1)c1ccc(C[C@H]2CCC[C@H]2O)cc1
REMARK SMILES IDX 7 1 6 2 5 3 3 4 4 5 2 7 1 8 79 9 80 10 91 11 81 12 90 13
REMARK SMILES IDX 82 14 83 15 84 16 85 17 88 18 86 19 87 20 89 21 8 23 9 24
REMARK SMILES IDX 10 25 11 26 12 28 13 29 14 30 78 31 15 32 77 33 16 34 17 35
REMARK SMILES IDX 18 36 71 37 19 38 76 39 70 40 72 41 20 42 75 43 69 44 68 45
REMARK SMILES IDX 21 47 55 48 34 49 54 50 35 51 38 52 53 53 73 54 36 55 37 56
REMARK SMILES IDX 52 58 74 59 39 60 22 61 23 62 32 63 24 64 25 65 31 66 33 67
REMARK SMILES IDX 26 68 27 69 28 70 29 71 30 72 56 73 57 74 66 75 58 76 59 77
REMARK SMILES IDX 65 78 67 79 60 80 61 81 62 82 63 83 64 84 40 85 41 86 50 87
REMARK SMILES IDX 42 88 43 89 49 90 51 91 44 92 45 93 46 94 47 95 48 96
REMARK H PARENT 5 6 89 22 10 27 72 46 38 57
REMARK Flexibility Score: inf
ROOT
ATOM      1  C   UNL     1       4.392   0.936  -0.439  1.00  0.00     0.023 C 
ENDROOT
BRANCH   1   2
ATOM      2  C   UNL     1       3.516   1.518   0.677  1.00  0.00     0.116 C 
BRANCH   2   3
ATOM      3  N   UNL     1       2.515   2.410   0.129  1.00  0.00    -0.356 N 
ATOM      4  C   UNL     1       1.248   2.122  -0.295  1.00  0.00     0.227 C 
ATOM      5  O   UNL     1       0.780   2.873  -1.151  1.00  0.00    -0.274 OA
ATOM      6  H   UNL     1       2.784   3.353   0.051  1.00  0.00     0.163 HD
BRANCH   4   7
ATOM      7  C   UNL     1       0.509   0.901   0.283  1.00  0.00     0.105 C 
ATOM      8  C   UNL     1       0.865  -0.329  -0.560  1.00  0.00     0.023 C 
BRANCH   7   9
ATOM      9  C   UNL     1      -1.012   1.031   0.437  1.00  0.00    -0.036 A 
ATOM     10  C   UNL     1      -1.725   2.200   0.144  1.00  0.00     0.005 A 
ATOM     11  C   UNL     1      -1.750  -0.062   0.929  1.00  0.00     0.005 A 
ATOM     12  C   UNL     1      -3.111   2.266   0.296  1.00  0.00     0.004 A 
ATOM     13  C   UNL     1      -3.137   0.007   1.097  1.00  0.00     0.004 A 
ATOM     14  C   UNL     1      -3.830   1.184   0.804  1.00  0.00    -0.048 A 
BRANCH  14  15
ATOM     15  C   UNL     1      -5.310   1.300   1.057  1.00  0.00     0.041 C 
BRANCH  15  16
ATOM     16  C   UNL     1      -5.748   1.816   2.439  1.00  0.00     0.022 C 
ATOM     17  C   UNL     1      -5.158   1.084   3.656  1.00  0.00     0.007 C 
ATOM     18  C   UNL     1      -5.551   3.308   2.750  1.00  0.00     0.117 C 
ATOM     19  C   UNL     1      -5.106   2.115   4.787  1.00  0.00     0.003 C 
ATOM     20  C   UNL     1      -5.797   3.365   4.253  1.00  0.00     0.032 C 
BRANCH  18  21
ATOM     21  O   UNL     1      -4.254   3.809   2.487  1.00  0.00    -0.393 OA
ATOM     22  H   UNL     1      -3.604   3.316   3.012  1.00  0.00     0.210 HD
ENDBRANCH  18  21
ENDBRANCH  15  16
ENDBRANCH  14  15
ENDBRANCH   7   9
ENDBRANCH   4   7
ENDBRANCH   2   3
ENDBRANCH   1   2
BRANCH   1  23
ATOM     23  C   UNL     1       5.158   1.974  -1.263  1.00  0.00     0.023 C 
BRANCH  23  24
ATOM     24  C   UNL     1       6.122   2.838  -0.467  1.00  0.00     0.116 C 
BRANCH  24  25
ATOM     25  N   UNL     1       7.163   2.055   0.186  1.00  0.00    -0.352 N 
ATOM     26  C   UNL     1       8.505   2.332   0.283  1.00  0.00     0.251 C 
ATOM     27  H   UNL     1       6.866   1.219   0.613  1.00  0.00     0.163 HD
ATOM     28  O   UNL     1       9.277   1.506   0.741  1.00  0.00    -0.269 OA
BRANCH  26  29
ATOM     29  C   UNL     1       8.999   3.638  -0.206  1.00  0.00     0.039 A 
ATOM     30  C   UNL     1      10.080   3.667  -1.091  1.00  0.00     0.014 A 
ATOM     31  C   UNL     1       8.363   4.821   0.180  1.00  0.00     0.014 A 
ATOM     32  C   UNL     1      10.483   4.884  -1.643  1.00  0.00     0.010 A 
ATOM     33  C   UNL     1       8.724   6.019  -0.421  1.00  0.00     0.010 A 
ATOM     34  C   UNL     1       9.787   6.064  -1.337  1.00  0.00    -0.014 A 
BRANCH  34  35
ATOM     35  C   UNL     1      10.150   7.370  -1.939  1.00  0.00     0.031 A 
ATOM     36  C   UNL     1      10.638   8.480  -1.052  1.00  0.00     0.074 A 
ATOM     37  C   UNL     1       9.933   7.591  -3.249  1.00  0.00     0.049 A 
ATOM     38  N   UNL     1      10.832   9.741  -1.334  1.00  0.00    -0.248 NA
ATOM     39  C   UNL     1      10.906   8.127   0.352  1.00  0.00     0.031 C 
ATOM     40  C   UNL     1       9.425   6.604  -4.204  1.00  0.00     0.029 A 
ATOM     41  N   UNL     1      10.086   8.730  -3.999  1.00  0.00    -0.354 N 
ATOM     42  C   UNL     1      11.206  10.341  -0.138  1.00  0.00     0.074 A 
ATOM     43  C   UNL     1      11.179   9.311   0.879  1.00  0.00     0.031 C 
ATOM     44  C   UNL     1       9.310   7.179  -5.412  1.00  0.00     0.029 A 
ATOM     45  C   UNL     1       9.697   8.584  -5.309  1.00  0.00     0.049 A 
ATOM     46  H   UNL     1      10.441   9.572  -3.634  1.00  0.00     0.167 HD
ATOM     47  C   UNL     1      11.553  11.630   0.089  1.00  0.00     0.037 A 
ATOM     48  C   UNL     1       9.640   9.484  -6.310  1.00  0.00     0.037 A 
ATOM     49  C   UNL     1      11.615  12.637  -0.936  1.00  0.00     0.049 A 
ATOM     50  C   UNL     1      10.064  10.902  -6.047  1.00  0.00     0.074 A 
ATOM     51  C   UNL     1      12.011  13.958  -0.824  1.00  0.00     0.029 A 
ATOM     52  N   UNL     1      11.276  12.431  -2.266  1.00  0.00    -0.354 N 
ATOM     53  N   UNL     1      10.456  11.447  -4.919  1.00  0.00    -0.248 NA
ATOM     54  C   UNL     1      10.044  11.828  -7.188  1.00  0.00     0.031 C 
ATOM     55  C   UNL     1      11.887  14.558  -2.081  1.00  0.00     0.029 A 
ATOM     56  C   UNL     1      11.449  13.602  -2.984  1.00  0.00     0.049 A 
ATOM     57  H   UNL     1      10.960  11.579  -2.643  1.00  0.00     0.167 HD
ATOM     58  C   UNL     1      10.756  12.771  -5.220  1.00  0.00     0.074 A 
ATOM     59  C   UNL     1      10.500  12.945  -6.636  1.00  0.00     0.031 C 
ATOM     60  C   UNL     1      11.207  13.750  -4.399  1.00  0.00     0.037 A 
BRANCH  47  61
ATOM     61  C   UNL     1      11.880  12.014   1.505  1.00  0.00     0.058 A 
ATOM     62  C   UNL     1      13.053  11.571   2.137  1.00  0.00     0.135 A 
ATOM     63  C   UNL     1      11.002  12.822   2.244  1.00  0.00     0.135 A 
ATOM     64  F   UNL     1      13.918  10.782   1.480  1.00  0.00    -0.206 F 
ATOM     65  C   UNL     1      13.320  11.875   3.468  1.00  0.00     0.059 A 
ATOM     66  C   UNL     1      11.263  13.162   3.569  1.00  0.00     0.059 A 
ATOM     67  F   UNL     1       9.867  13.274   1.688  1.00  0.00    -0.206 F 
ATOM     68  C   UNL     1      12.414  12.663   4.178  1.00  0.00     0.060 A 
BRANCH  68  69
ATOM     69  S   UNL     1      12.752  13.021   5.915  1.00  0.00     0.124 S 
ATOM     70  O   UNL     1      12.360  11.766   6.550  1.00  0.00    -0.237 OA
ATOM     71  O   UNL     1      14.183  13.305   5.907  1.00  0.00    -0.237 OA
ATOM     72  O   UNL     1      11.891  14.164   6.199  1.00  0.00    -0.744 OA
ENDBRANCH  68  69
ENDBRANCH  47  61
BRANCH  48  73
ATOM     73  C   UNL     1       9.188   9.052  -7.658  1.00  0.00     0.058 A 
ATOM     74  C   UNL     1      10.109   8.876  -8.700  1.00  0.00     0.135 A 
ATOM     75  C   UNL     1       7.841   8.754  -7.915  1.00  0.00     0.135 A 
ATOM     76  F   UNL     1      11.406   9.155  -8.501  1.00  0.00    -0.206 F 
ATOM     77  C   UNL     1       9.713   8.418  -9.952  1.00  0.00     0.059 A 
ATOM     78  C   UNL     1       7.423   8.276  -9.154  1.00  0.00     0.059 A 
ATOM     79  F   UNL     1       6.924   8.891  -6.945  1.00  0.00    -0.206 F 
ATOM     80  C   UNL     1       8.368   8.113 -10.167  1.00  0.00     0.060 A 
BRANCH  80  81
ATOM     81  S   UNL     1       7.880   7.438 -11.770  1.00  0.00     0.124 S 
ATOM     82  O   UNL     1       7.926   8.626 -12.616  1.00  0.00    -0.237 OA
ATOM     83  O   UNL     1       8.918   6.441 -12.013  1.00  0.00    -0.237 OA
ATOM     84  O   UNL     1       6.549   6.896 -11.513  1.00  0.00    -0.744 OA
ENDBRANCH  80  81
ENDBRANCH  48  73
BRANCH  60  85
ATOM     85  C   UNL     1      11.501  15.090  -5.009  1.00  0.00     0.058 A 
ATOM     86  C   UNL     1      10.478  15.991  -5.339  1.00  0.00     0.135 A 
ATOM     87  C   UNL     1      12.830  15.508  -5.184  1.00  0.00     0.135 A 
ATOM     88  F   UNL     1       9.192  15.634  -5.196  1.00  0.00    -0.206 F 
ATOM     89  C   UNL     1      10.762  17.262  -5.827  1.00  0.00     0.059 A 
ATOM     90  C   UNL     1      13.138  16.781  -5.652  1.00  0.00     0.059 A 
ATOM     91  F   UNL     1      13.845  14.684  -4.876  1.00  0.00    -0.206 F 
ATOM     92  C   UNL     1      12.096  17.650  -5.974  1.00  0.00     0.060 A 
BRANCH  92  93
ATOM     93  S   UNL     1      12.455  19.325  -6.546  1.00  0.00     0.124 S 
ATOM     94  O   UNL     1      12.178  19.214  -7.974  1.00  0.00    -0.237 OA
ATOM     95  O   UNL     1      11.510  20.129  -5.778  1.00  0.00    -0.237 OA
ATOM     96  O   UNL     1      13.859  19.511  -6.190  1.00  0.00    -0.744 OA
ENDBRANCH  92  93
ENDBRANCH  60  85
ENDBRANCH  34  35
ENDBRANCH  26  29
ENDBRANCH  24  25
ENDBRANCH  23  24
ENDBRANCH   1  23
TORSDOF 18
