REMARK SMILES CC(C)c1nc(COc2c(F)cc(C(=O)NCCCCNC(=O)c3ccc(-c4c5nc(c(-c6c(F)cc(S(=O)(=O)[O-])cc6F)c6ccc([nH]6)c(-c6c(F)cc(S(=O)(=O)[O-])cc6F)c6nc(c(-c7c(F)cc(S(=O)(=O)[O-])cc7F)c7ccc4[nH]7)C=C6)C=C5)cc3)cc2F)no1
REMARK SMILES IDX 18 1 17 2 16 3 14 4 15 5 13 7 9 8 10 9 91 10 11 11 12 12
REMARK SMILES IDX 90 13 92 14 8 15 7 16 6 17 4 18 5 19 94 20 93 21 2 22 1 23
REMARK SMILES IDX 3 24 19 25 20 26 21 27 22 28 23 30 24 31 25 32 89 33 26 34
REMARK SMILES IDX 88 35 27 36 28 37 29 38 82 39 30 40 87 41 81 42 83 43 31 44
REMARK SMILES IDX 86 45 80 46 79 47 32 49 66 50 45 51 65 52 46 53 49 54 64 55
REMARK SMILES IDX 84 56 47 57 48 58 63 60 85 61 50 62 33 63 34 64 43 65 35 66
REMARK SMILES IDX 36 67 42 68 44 69 37 70 38 71 39 72 40 73 41 74 67 75 68 76
REMARK SMILES IDX 77 77 69 78 70 79 76 80 78 81 71 82 72 83 73 84 74 85 75 86
REMARK SMILES IDX 51 87 52 88 61 89 53 90 54 91 60 92 62 93 55 94 56 95 57 96
REMARK SMILES IDX 58 97 59 98
REMARK H PARENT 16 6 21 29 83 48 49 59
REMARK Flexibility Score: inf
ROOT
ATOM      1  C   UNL     1      -0.343   0.368  -7.320  1.00  0.00     0.023 C 
ENDROOT
BRANCH   1   2
ATOM      2  C   UNL     1      -0.542   1.869  -7.099  1.00  0.00     0.116 C 
BRANCH   2   3
ATOM      3  N   UNL     1      -1.672   2.380  -7.856  1.00  0.00    -0.352 N 
ATOM      4  C   UNL     1      -2.951   2.692  -7.470  1.00  0.00     0.251 C 
ATOM      5  O   UNL     1      -3.692   3.256  -8.273  1.00  0.00    -0.269 OA
ATOM      6  H   UNL     1      -1.488   2.526  -8.812  1.00  0.00     0.163 HD
BRANCH   4   7
ATOM      7  C   UNL     1      -3.471   2.409  -6.106  1.00  0.00     0.045 A 
ATOM      8  C   UNL     1      -4.547   1.965  -3.548  1.00  0.00     0.191 A 
ATOM      9  C   UNL     1      -3.663   1.055  -4.114  1.00  0.00     0.168 A 
ATOM     10  C   UNL     1      -4.948   3.064  -4.300  1.00  0.00     0.168 A 
ATOM     11  F   UNL     1      -3.304  -0.052  -3.450  1.00  0.00    -0.203 F 
ATOM     12  C   UNL     1      -3.129   1.268  -5.380  1.00  0.00     0.057 A 
ATOM     13  C   UNL     1      -4.419   3.293  -5.569  1.00  0.00     0.057 A 
ATOM     14  F   UNL     1      -5.849   3.924  -3.803  1.00  0.00    -0.203 F 
BRANCH   8  15
ATOM     15  O   UNL     1      -5.074   1.733  -2.307  1.00  0.00    -0.479 OA
BRANCH  15  16
ATOM     16  C   UNL     1      -4.261   2.333  -1.274  1.00  0.00     0.310 C 
BRANCH  16  17
ATOM     17  C   UNL     1      -3.023   1.567  -0.944  1.00  0.00     0.209 A 
ATOM     18  C   UNL     1      -1.009   0.997  -0.928  1.00  0.00     0.229 A 
ATOM     19  N   UNL     1      -1.773   1.986  -1.337  1.00  0.00    -0.192 NA
ATOM     20  O   UNL     1      -1.704   0.006  -0.295  1.00  0.00    -0.339 OA
ATOM     21  N   UNL     1      -3.043   0.400  -0.286  1.00  0.00    -0.059 NA
BRANCH  18  22
ATOM     22  C   UNL     1       0.465   0.826  -1.088  1.00  0.00     0.073 C 
ATOM     23  C   UNL     1       1.085  -0.000   0.039  1.00  0.00     0.018 C 
ATOM     24  C   UNL     1       0.786   0.209  -2.449  1.00  0.00     0.018 C 
ENDBRANCH  18  22
ENDBRANCH  16  17
ENDBRANCH  15  16
ENDBRANCH   8  15
ENDBRANCH   4   7
ENDBRANCH   2   3
ENDBRANCH   1   2
BRANCH   1  25
ATOM     25  C   UNL     1       0.364  -0.011  -8.621  1.00  0.00     0.023 C 
BRANCH  25  26
ATOM     26  C   UNL     1       1.803   0.472  -8.747  1.00  0.00     0.116 C 
BRANCH  26  27
ATOM     27  N   UNL     1       2.667   0.013  -7.669  1.00  0.00    -0.352 N 
ATOM     28  C   UNL     1       4.013  -0.271  -7.717  1.00  0.00     0.251 C 
ATOM     29  H   UNL     1       2.233  -0.110  -6.794  1.00  0.00     0.163 HD
ATOM     30  O   UNL     1       4.582  -0.732  -6.736  1.00  0.00    -0.269 OA
BRANCH  28  31
ATOM     31  C   UNL     1       4.748  -0.056  -8.982  1.00  0.00     0.039 A 
ATOM     32  C   UNL     1       5.519  -1.101  -9.497  1.00  0.00     0.014 A 
ATOM     33  C   UNL     1       4.632   1.149  -9.680  1.00  0.00     0.014 A 
ATOM     34  C   UNL     1       6.111  -0.965 -10.754  1.00  0.00     0.010 A 
ATOM     35  C   UNL     1       5.169   1.259 -10.958  1.00  0.00     0.010 A 
ATOM     36  C   UNL     1       5.906   0.200 -11.511  1.00  0.00    -0.014 A 
BRANCH  36  37
ATOM     37  C   UNL     1       6.434   0.327 -12.892  1.00  0.00     0.031 A 
ATOM     38  C   UNL     1       7.472   1.365 -13.210  1.00  0.00     0.074 A 
ATOM     39  C   UNL     1       5.913  -0.434 -13.874  1.00  0.00     0.049 A 
ATOM     40  N   UNL     1       7.983   1.693 -14.368  1.00  0.00    -0.248 NA
ATOM     41  C   UNL     1       7.981   2.161 -12.081  1.00  0.00     0.031 C 
ATOM     42  C   UNL     1       4.859  -1.436 -13.699  1.00  0.00     0.029 A 
ATOM     43  N   UNL     1       6.186  -0.473 -15.219  1.00  0.00    -0.354 N 
ATOM     44  C   UNL     1       8.854   2.745 -14.113  1.00  0.00     0.074 A 
ATOM     45  C   UNL     1       8.773   3.027 -12.696  1.00  0.00     0.031 C 
ATOM     46  C   UNL     1       4.586  -2.001 -14.887  1.00  0.00     0.029 A 
ATOM     47  C   UNL     1       5.420  -1.381 -15.912  1.00  0.00     0.049 A 
ATOM     48  H   UNL     1       6.867   0.095 -15.646  1.00  0.00     0.167 HD
ATOM     49  C   UNL     1       9.661   3.402 -14.979  1.00  0.00     0.037 A 
ATOM     50  C   UNL     1       5.387  -1.675 -17.226  1.00  0.00     0.037 A 
ATOM     51  C   UNL     1       9.765   3.089 -16.380  1.00  0.00     0.049 A 
ATOM     52  C   UNL     1       6.316  -0.956 -18.164  1.00  0.00     0.074 A 
ATOM     53  C   UNL     1      10.611   3.645 -17.324  1.00  0.00     0.029 A 
ATOM     54  N   UNL     1       9.002   2.136 -17.037  1.00  0.00    -0.354 N 
ATOM     55  N   UNL     1       7.180  -0.007 -17.895  1.00  0.00    -0.248 NA
ATOM     56  C   UNL     1       6.271  -1.347 -19.579  1.00  0.00     0.031 C 
ATOM     57  C   UNL     1      10.336   3.051 -18.560  1.00  0.00     0.029 A 
ATOM     58  C   UNL     1       9.345   2.099 -18.378  1.00  0.00     0.049 A 
ATOM     59  H   UNL     1       8.317   1.570 -16.613  1.00  0.00     0.167 HD
ATOM     60  C   UNL     1       7.793   0.302 -19.104  1.00  0.00     0.074 A 
ATOM     61  C   UNL     1       7.209  -0.569 -20.104  1.00  0.00     0.031 C 
ATOM     62  C   UNL     1       8.754   1.224 -19.360  1.00  0.00     0.037 A 
BRANCH  49  63
ATOM     63  C   UNL     1      10.502   4.521 -14.433  1.00  0.00     0.058 A 
ATOM     64  C   UNL     1      10.214   5.856 -14.761  1.00  0.00     0.135 A 
ATOM     65  C   UNL     1      11.610   4.273 -13.607  1.00  0.00     0.135 A 
ATOM     66  F   UNL     1       9.165   6.148 -15.546  1.00  0.00    -0.206 F 
ATOM     67  C   UNL     1      10.993   6.908 -14.288  1.00  0.00     0.059 A 
ATOM     68  C   UNL     1      12.386   5.310 -13.102  1.00  0.00     0.059 A 
ATOM     69  F   UNL     1      11.918   3.016 -13.249  1.00  0.00    -0.206 F 
ATOM     70  C   UNL     1      12.069   6.625 -13.447  1.00  0.00     0.060 A 
BRANCH  70  71
ATOM     71  S   UNL     1      13.085   7.959 -12.778  1.00  0.00     0.124 S 
ATOM     72  O   UNL     1      12.664   7.972 -11.381  1.00  0.00    -0.237 OA
ATOM     73  O   UNL     1      14.439   7.474 -13.028  1.00  0.00    -0.237 OA
ATOM     74  O   UNL     1      12.683   9.120 -13.565  1.00  0.00    -0.744 OA
ENDBRANCH  70  71
ENDBRANCH  49  63
BRANCH  50  75
ATOM     75  C   UNL     1       4.457  -2.724 -17.719  1.00  0.00     0.058 A 
ATOM     76  C   UNL     1       3.073  -2.500 -17.781  1.00  0.00     0.135 A 
ATOM     77  C   UNL     1       4.933  -3.990 -18.087  1.00  0.00     0.135 A 
ATOM     78  F   UNL     1       2.568  -1.309 -17.423  1.00  0.00    -0.206 F 
ATOM     79  C   UNL     1       2.188  -3.500 -18.172  1.00  0.00     0.059 A 
ATOM     80  C   UNL     1       4.071  -5.000 -18.500  1.00  0.00     0.059 A 
ATOM     81  F   UNL     1       6.249  -4.248 -18.050  1.00  0.00    -0.206 F 
ATOM     82  C   UNL     1       2.698  -4.748 -18.531  1.00  0.00     0.060 A 
BRANCH  82  83
ATOM     83  S   UNL     1       1.583  -6.093 -18.990  1.00  0.00     0.124 S 
ATOM     84  O   UNL     1       1.835  -6.208 -20.422  1.00  0.00    -0.237 OA
ATOM     85  O   UNL     1       2.075  -7.191 -18.164  1.00  0.00    -0.237 OA
ATOM     86  O   UNL     1       0.268  -5.580 -18.619  1.00  0.00    -0.744 OA
ENDBRANCH  82  83
ENDBRANCH  50  75
BRANCH  62  87
ATOM     87  C   UNL     1       9.250   1.335 -20.773  1.00  0.00     0.058 A 
ATOM     88  C   UNL     1      10.527   0.865 -21.117  1.00  0.00     0.135 A 
ATOM     89  C   UNL     1       8.496   1.981 -21.764  1.00  0.00     0.135 A 
ATOM     90  F   UNL     1      11.290   0.247 -20.201  1.00  0.00    -0.206 F 
ATOM     91  C   UNL     1      11.049   1.043 -22.394  1.00  0.00     0.059 A 
ATOM     92  C   UNL     1       8.990   2.152 -23.053  1.00  0.00     0.059 A 
ATOM     93  F   UNL     1       7.267   2.442 -21.485  1.00  0.00    -0.206 F 
ATOM     94  C   UNL     1      10.271   1.685 -23.357  1.00  0.00     0.060 A 
BRANCH  94  95
ATOM     95  S   UNL     1      10.921   1.965 -25.018  1.00  0.00     0.124 S 
ATOM     96  O   UNL     1      10.145   1.009 -25.802  1.00  0.00    -0.237 OA
ATOM     97  O   UNL     1      10.607   3.373 -25.242  1.00  0.00    -0.237 OA
ATOM     98  O   UNL     1      12.342   1.660 -24.883  1.00  0.00    -0.744 OA
ENDBRANCH  94  95
ENDBRANCH  62  87
ENDBRANCH  36  37
ENDBRANCH  28  31
ENDBRANCH  26  27
ENDBRANCH  25  26
ENDBRANCH   1  25
TORSDOF 18
