REMARK SMILES COC(=O)CCN(C)C(=O)NCc1ccc(C(=O)NCCCCNC(=O)c2ccc(-c3c4nc(c(-c5c(F)cc(S(=O)(=O)[O-])cc5F)c5ccc([nH]5)c(-c5c(F)cc(S(=O)(=O)[O-])cc5F)c5nc(c(-c6c(F)cc(S(=O)(=O)[O-])cc6F)c6ccc3[nH]6)C=C5)C=C4)cc2)o1
REMARK SMILES IDX 17 1 18 2 19 3 16 5 13 6 14 7 93 8 15 9 12 10 11 11 9 12
REMARK SMILES IDX 10 13 7 15 8 16 6 17 5 18 3 19 4 20 2 21 1 22 20 23 21 24
REMARK SMILES IDX 22 25 23 26 24 27 25 28 26 30 27 31 28 32 92 33 29 34 91 35
REMARK SMILES IDX 30 36 31 37 32 38 85 39 33 40 90 41 84 42 86 43 34 44 89 45
REMARK SMILES IDX 83 46 82 47 35 49 69 50 48 51 68 52 49 53 52 54 67 55 87 56
REMARK SMILES IDX 50 57 51 58 66 60 88 61 53 62 36 63 37 64 46 65 38 66 39 67
REMARK SMILES IDX 45 68 47 69 40 70 41 71 42 72 43 73 44 74 70 75 71 76 80 77
REMARK SMILES IDX 72 78 73 79 79 80 81 81 74 82 75 83 76 84 77 85 78 86 54 87
REMARK SMILES IDX 55 88 64 89 56 90 57 91 63 92 65 93 58 94 59 95 60 96 61 97
REMARK SMILES IDX 62 98
REMARK H PARENT 19 4 11 14 24 29 86 48 52 59
REMARK Flexibility Score: inf
ROOT
ATOM      1  C   UNL     1       2.062   7.605  -1.597  1.00  0.00     0.286 C 
ATOM      2  O   UNL     1       2.827   6.802  -2.134  1.00  0.00    -0.266 OA
ATOM      3  N   UNL     1       2.253   8.927  -1.920  1.00  0.00    -0.349 N 
ATOM      4  H   UNL     1       3.045   9.106  -2.477  1.00  0.00     0.163 HD
ENDROOT
BRANCH   1   5
ATOM      5  C   UNL     1       1.003   7.197  -0.692  1.00  0.00     0.191 A 
ATOM      6  C   UNL     1      -0.309   5.647   0.193  1.00  0.00     0.124 A 
ATOM      7  C   UNL     1      -0.624   6.821   0.835  1.00  0.00     0.048 A 
ATOM      8  O   UNL     1       0.638   5.878  -0.756  1.00  0.00    -0.454 OA
ATOM      9  C   UNL     1       0.249   7.803   0.300  1.00  0.00     0.056 A 
BRANCH   6  10
ATOM     10  C   UNL     1      -0.703   4.230   0.360  1.00  0.00     0.193 C 
BRANCH  10  11
ATOM     11  N   UNL     1       0.514   3.494   0.625  1.00  0.00    -0.331 N 
ATOM     12  C   UNL     1       1.067   2.867   1.671  1.00  0.00     0.317 C 
ATOM     13  O   UNL     1       2.111   2.252   1.436  1.00  0.00    -0.249 OA
ATOM     14  H   UNL     1       1.087   3.442  -0.173  1.00  0.00     0.165 HD
BRANCH  12  15
ATOM     15  N   UNL     1       0.486   2.838   2.909  1.00  0.00    -0.327 N 
ATOM     16  C   UNL     1      -0.510   3.765   3.414  1.00  0.00     0.148 C 
BRANCH  15  17
ATOM     17  C   UNL     1       0.937   1.789   3.834  1.00  0.00     0.132 C 
BRANCH  17  18
ATOM     18  C   UNL     1       0.207   0.466   3.633  1.00  0.00     0.144 C 
BRANCH  18  19
ATOM     19  C   UNL     1       0.762  -0.295   2.458  1.00  0.00     0.307 C 
ATOM     20  O   UNL     1       1.688  -1.091   2.537  1.00  0.00    -0.252 OA
BRANCH  19  21
ATOM     21  O   UNL     1       0.089   0.030   1.320  1.00  0.00    -0.469 OA
ATOM     22  C   UNL     1       0.731  -0.384   0.113  1.00  0.00     0.282 C 
ENDBRANCH  19  21
ENDBRANCH  18  19
ENDBRANCH  17  18
ENDBRANCH  15  17
ENDBRANCH  12  15
ENDBRANCH  10  11
ENDBRANCH   6  10
ENDBRANCH   1   5
BRANCH   3  23
ATOM     23  C   UNL     1       1.478  10.096  -1.573  1.00  0.00     0.116 C 
BRANCH  23  24
ATOM     24  C   UNL     1       2.164  10.900  -0.471  1.00  0.00     0.023 C 
BRANCH  24  25
ATOM     25  C   UNL     1       3.298  11.795  -0.979  1.00  0.00     0.023 C 
BRANCH  25  26
ATOM     26  C   UNL     1       2.882  12.832  -2.017  1.00  0.00     0.116 C 
BRANCH  26  27
ATOM     27  N   UNL     1       1.812  13.708  -1.560  1.00  0.00    -0.352 N 
ATOM     28  C   UNL     1       1.636  15.044  -1.833  1.00  0.00     0.251 C 
ATOM     29  H   UNL     1       1.131  13.292  -0.983  1.00  0.00     0.163 HD
ATOM     30  O   UNL     1       0.746  15.681  -1.281  1.00  0.00    -0.269 OA
BRANCH  28  31
ATOM     31  C   UNL     1       2.564  15.701  -2.775  1.00  0.00     0.039 A 
ATOM     32  C   UNL     1       3.232  16.859  -2.372  1.00  0.00     0.014 A 
ATOM     33  C   UNL     1       2.826  15.123  -4.019  1.00  0.00     0.014 A 
ATOM     34  C   UNL     1       4.223  17.398  -3.195  1.00  0.00     0.010 A 
ATOM     35  C   UNL     1       3.865  15.616  -4.799  1.00  0.00     0.010 A 
ATOM     36  C   UNL     1       4.576  16.757  -4.394  1.00  0.00    -0.014 A 
BRANCH  36  37
ATOM     37  C   UNL     1       5.687  17.256  -5.244  1.00  0.00     0.031 A 
ATOM     38  C   UNL     1       5.405  17.721  -6.646  1.00  0.00     0.074 A 
ATOM     39  C   UNL     1       6.954  17.219  -4.782  1.00  0.00     0.049 A 
ATOM     40  N   UNL     1       6.244  18.094  -7.577  1.00  0.00    -0.248 NA
ATOM     41  C   UNL     1       3.994  17.738  -7.068  1.00  0.00     0.031 C 
ATOM     42  C   UNL     1       7.359  16.748  -3.455  1.00  0.00     0.029 A 
ATOM     43  N   UNL     1       8.138  17.568  -5.383  1.00  0.00    -0.354 N 
ATOM     44  C   UNL     1       5.467  18.376  -8.695  1.00  0.00     0.074 A 
ATOM     45  C   UNL     1       4.097  18.076  -8.345  1.00  0.00     0.031 C 
ATOM     46  C   UNL     1       8.692  16.856  -3.337  1.00  0.00     0.029 A 
ATOM     47  C   UNL     1       9.243  17.360  -4.591  1.00  0.00     0.049 A 
ATOM     48  H   UNL     1       8.191  17.934  -6.295  1.00  0.00     0.167 HD
ATOM     49  C   UNL     1       5.858  18.866  -9.895  1.00  0.00     0.037 A 
ATOM     50  C   UNL     1      10.553  17.542  -4.851  1.00  0.00     0.037 A 
ATOM     51  C   UNL     1       7.222  19.185 -10.226  1.00  0.00     0.049 A 
ATOM     52  C   UNL     1      10.965  18.073  -6.199  1.00  0.00     0.074 A 
ATOM     53  C   UNL     1       7.716  19.736 -11.396  1.00  0.00     0.029 A 
ATOM     54  N   UNL     1       8.310  18.981  -9.390  1.00  0.00    -0.354 N 
ATOM     55  N   UNL     1      10.211  18.393  -7.224  1.00  0.00    -0.248 NA
ATOM     56  C   UNL     1      12.403  18.272  -6.426  1.00  0.00     0.031 C 
ATOM     57  C   UNL     1       9.107  19.818 -11.286  1.00  0.00     0.029 A 
ATOM     58  C   UNL     1       9.476  19.375 -10.026  1.00  0.00     0.049 A 
ATOM     59  H   UNL     1       8.261  18.611  -8.479  1.00  0.00     0.167 HD
ATOM     60  C   UNL     1      11.079  18.864  -8.203  1.00  0.00     0.074 A 
ATOM     61  C   UNL     1      12.414  18.793  -7.646  1.00  0.00     0.031 C 
ATOM     62  C   UNL     1      10.796  19.316  -9.450  1.00  0.00     0.037 A 
BRANCH  49  63
ATOM     63  C   UNL     1       4.798  19.093 -10.938  1.00  0.00     0.058 A 
ATOM     64  C   UNL     1       3.836  20.107 -10.803  1.00  0.00     0.135 A 
ATOM     65  C   UNL     1       4.767  18.315 -12.106  1.00  0.00     0.135 A 
ATOM     66  F   UNL     1       3.807  20.870  -9.698  1.00  0.00    -0.206 F 
ATOM     67  C   UNL     1       2.865  20.324 -11.775  1.00  0.00     0.059 A 
ATOM     68  C   UNL     1       3.825  18.534 -13.107  1.00  0.00     0.059 A 
ATOM     69  F   UNL     1       5.661  17.330 -12.287  1.00  0.00    -0.206 F 
ATOM     70  C   UNL     1       2.869  19.533 -12.925  1.00  0.00     0.060 A 
BRANCH  70  71
ATOM     71  S   UNL     1       1.610  19.838 -14.181  1.00  0.00     0.124 S 
ATOM     72  O   UNL     1       0.411  19.331 -13.520  1.00  0.00    -0.237 OA
ATOM     73  O   UNL     1       1.678  21.286 -14.345  1.00  0.00    -0.237 OA
ATOM     74  O   UNL     1       2.072  19.057 -15.324  1.00  0.00    -0.744 OA
ENDBRANCH  70  71
ENDBRANCH  49  63
BRANCH  50  75
ATOM     75  C   UNL     1      11.572  17.235  -3.809  1.00  0.00     0.058 A 
ATOM     76  C   UNL     1      12.311  18.259  -3.198  1.00  0.00     0.135 A 
ATOM     77  C   UNL     1      11.828  15.916  -3.404  1.00  0.00     0.135 A 
ATOM     78  F   UNL     1      12.108  19.537  -3.554  1.00  0.00    -0.206 F 
ATOM     79  C   UNL     1      13.282  17.987  -2.239  1.00  0.00     0.059 A 
ATOM     80  C   UNL     1      12.774  15.620  -2.427  1.00  0.00     0.059 A 
ATOM     81  F   UNL     1      11.138  14.900  -3.945  1.00  0.00    -0.206 F 
ATOM     82  C   UNL     1      13.505  16.663  -1.859  1.00  0.00     0.060 A 
BRANCH  82  83
ATOM     83  S   UNL     1      14.741  16.325  -0.587  1.00  0.00     0.124 S 
ATOM     84  O   UNL     1      15.982  16.585  -1.306  1.00  0.00    -0.237 OA
ATOM     85  O   UNL     1      14.387  17.292   0.448  1.00  0.00    -0.237 OA
ATOM     86  O   UNL     1      14.493  14.929  -0.240  1.00  0.00    -0.744 OA
ENDBRANCH  82  83
ENDBRANCH  50  75
BRANCH  62  87
ATOM     87  C   UNL     1      11.940  19.819 -10.287  1.00  0.00     0.058 A 
ATOM     88  C   UNL     1      12.884  18.949 -10.853  1.00  0.00     0.135 A 
ATOM     89  C   UNL     1      12.047  21.187 -10.586  1.00  0.00     0.135 A 
ATOM     90  F   UNL     1      12.832  17.633 -10.594  1.00  0.00    -0.206 F 
ATOM     91  C   UNL     1      13.904  19.419 -11.675  1.00  0.00     0.059 A 
ATOM     92  C   UNL     1      13.040  21.676 -11.429  1.00  0.00     0.059 A 
ATOM     93  F   UNL     1      11.164  22.062 -10.078  1.00  0.00    -0.206 F 
ATOM     94  C   UNL     1      13.970  20.785 -11.962  1.00  0.00     0.060 A 
BRANCH  94  95
ATOM     95  S   UNL     1      15.266  21.373 -13.072  1.00  0.00     0.124 S 
ATOM     96  O   UNL     1      16.451  21.253 -12.229  1.00  0.00    -0.237 OA
ATOM     97  O   UNL     1      15.178  20.430 -14.181  1.00  0.00    -0.237 OA
ATOM     98  O   UNL     1      14.854  22.739 -13.383  1.00  0.00    -0.744 OA
ENDBRANCH  94  95
ENDBRANCH  62  87
ENDBRANCH  36  37
ENDBRANCH  28  31
ENDBRANCH  26  27
ENDBRANCH  25  26
ENDBRANCH  24  25
ENDBRANCH  23  24
ENDBRANCH   3  23
TORSDOF 21
