REMARK SMILES O=C(NCCCCNC(=O)c1cc(-c2ccn(C(F)F)c(=O)c2)ccc1O)c1ccc(-c2c3nc(c(-c4c(F)cc(S(=O)(=O)[O-])cc4F)c4ccc([nH]4)c(-c4c(F)cc(S(=O)(=O)[O-])cc4F)c4nc(c(-c5c(F)cc(S(=O)(=O)[O-])cc5F)c5ccc2[nH]5)C=C4)C=C3)cc1
REMARK SMILES IDX 5 1 4 2 3 3 1 4 2 5 28 7 29 8 93 9 30 10 92 11 31 12 32 13
REMARK SMILES IDX 33 14 86 15 34 16 91 17 85 18 87 19 35 20 90 21 84 22 83 23
REMARK SMILES IDX 36 25 70 26 49 27 69 28 50 29 53 30 68 31 88 32 51 33 52 34
REMARK SMILES IDX 67 36 89 37 54 38 37 39 38 40 47 41 39 42 40 43 46 44 48 45
REMARK SMILES IDX 41 46 42 47 43 48 44 49 45 50 71 51 72 52 81 53 73 54 74 55
REMARK SMILES IDX 80 56 82 57 75 58 76 59 77 60 78 61 79 62 55 63 56 64 65 65
REMARK SMILES IDX 57 66 58 67 64 68 66 69 59 70 60 71 61 72 62 73 63 74 6 75
REMARK SMILES IDX 7 76 8 77 9 78 10 80 11 81 12 82 26 83 13 84 25 85 24 86
REMARK SMILES IDX 27 87 14 89 15 90 23 91 16 92 21 93 17 94 22 95 18 96 19 97
REMARK SMILES IDX 20 98
REMARK H PARENT 3 6 87 24 53 35 8 79 27 88
REMARK Flexibility Score: inf
ROOT
ATOM      1  C   UNL     1       4.976   1.368   2.204  1.00  0.00     0.023 C 
ENDROOT
BRANCH   1   2
ATOM      2  C   UNL     1       4.599   0.223   1.272  1.00  0.00     0.116 C 
BRANCH   2   3
ATOM      3  N   UNL     1       3.160   0.045   1.160  1.00  0.00    -0.352 N 
ATOM      4  O   UNL     1       1.136   0.087   0.182  1.00  0.00    -0.269 OA
ATOM      5  C   UNL     1       2.358   0.084   0.047  1.00  0.00     0.251 C 
ATOM      6  H   UNL     1       2.692  -0.129   2.008  1.00  0.00     0.163 HD
BRANCH   5   7
ATOM      7  C   UNL     1       2.955   0.134  -1.306  1.00  0.00     0.039 A 
ATOM      8  C   UNL     1       2.370   0.956  -2.274  1.00  0.00     0.014 A 
ATOM      9  C   UNL     1       4.059  -0.656  -1.638  1.00  0.00     0.014 A 
ATOM     10  C   UNL     1       2.910   1.005  -3.562  1.00  0.00     0.010 A 
ATOM     11  C   UNL     1       4.651  -0.536  -2.892  1.00  0.00     0.010 A 
ATOM     12  C   UNL     1       4.063   0.268  -3.879  1.00  0.00    -0.014 A 
BRANCH  12  13
ATOM     13  C   UNL     1       4.613   0.249  -5.259  1.00  0.00     0.031 A 
ATOM     14  C   UNL     1       4.621  -1.044  -6.035  1.00  0.00     0.074 A 
ATOM     15  C   UNL     1       5.121   1.370  -5.808  1.00  0.00     0.049 A 
ATOM     16  N   UNL     1       5.113  -1.295  -7.220  1.00  0.00    -0.248 NA
ATOM     17  C   UNL     1       4.015  -2.216  -5.380  1.00  0.00     0.031 C 
ATOM     18  C   UNL     1       5.186   2.679  -5.155  1.00  0.00     0.029 A 
ATOM     19  N   UNL     1       5.679   1.589  -7.043  1.00  0.00    -0.354 N 
ATOM     20  C   UNL     1       4.885  -2.648  -7.445  1.00  0.00     0.074 A 
ATOM     21  C   UNL     1       4.275  -3.181  -6.248  1.00  0.00     0.031 C 
ATOM     22  C   UNL     1       5.718   3.569  -6.007  1.00  0.00     0.029 A 
ATOM     23  C   UNL     1       6.075   2.889  -7.250  1.00  0.00     0.049 A 
ATOM     24  H   UNL     1       5.787   0.880  -7.718  1.00  0.00     0.167 HD
ATOM     25  C   UNL     1       5.129  -3.376  -8.560  1.00  0.00     0.037 A 
ATOM     26  C   UNL     1       6.661   3.466  -8.318  1.00  0.00     0.037 A 
ATOM     27  C   UNL     1       5.705  -2.834  -9.762  1.00  0.00     0.049 A 
ATOM     28  C   UNL     1       6.959   2.628  -9.533  1.00  0.00     0.074 A 
ATOM     29  C   UNL     1       5.960  -3.480 -10.958  1.00  0.00     0.029 A 
ATOM     30  N   UNL     1       6.109  -1.517  -9.923  1.00  0.00    -0.354 N 
ATOM     31  N   UNL     1       6.710   1.356  -9.739  1.00  0.00    -0.248 NA
ATOM     32  C   UNL     1       7.618   3.301 -10.661  1.00  0.00     0.031 C 
ATOM     33  C   UNL     1       6.562  -2.566 -11.827  1.00  0.00     0.029 A 
ATOM     34  C   UNL     1       6.632  -1.336 -11.192  1.00  0.00     0.049 A 
ATOM     35  H   UNL     1       6.035  -0.815  -9.236  1.00  0.00     0.167 HD
ATOM     36  C   UNL     1       7.160   1.083 -11.027  1.00  0.00     0.074 A 
ATOM     37  C   UNL     1       7.682   2.325 -11.558  1.00  0.00     0.031 C 
ATOM     38  C   UNL     1       7.144  -0.090 -11.707  1.00  0.00     0.037 A 
BRANCH  25  39
ATOM     39  C   UNL     1       4.756  -4.834  -8.541  1.00  0.00     0.058 A 
ATOM     40  C   UNL     1       3.415  -5.249  -8.535  1.00  0.00     0.135 A 
ATOM     41  C   UNL     1       5.748  -5.828  -8.578  1.00  0.00     0.135 A 
ATOM     42  F   UNL     1       2.426  -4.343  -8.480  1.00  0.00    -0.206 F 
ATOM     43  C   UNL     1       3.070  -6.596  -8.543  1.00  0.00     0.059 A 
ATOM     44  C   UNL     1       5.425  -7.181  -8.618  1.00  0.00     0.059 A 
ATOM     45  F   UNL     1       7.046  -5.488  -8.581  1.00  0.00    -0.206 F 
ATOM     46  C   UNL     1       4.082  -7.555  -8.590  1.00  0.00     0.060 A 
BRANCH  46  47
ATOM     47  S   UNL     1       3.612  -9.297  -8.620  1.00  0.00     0.124 S 
ATOM     48  O   UNL     1       3.071  -9.477  -7.276  1.00  0.00    -0.237 OA
ATOM     49  O   UNL     1       2.637  -9.335  -9.705  1.00  0.00    -0.237 OA
ATOM     50  O   UNL     1       4.870  -9.987  -8.885  1.00  0.00    -0.744 OA
ENDBRANCH  46  47
ENDBRANCH  25  39
BRANCH  26  51
ATOM     51  C   UNL     1       6.977   4.920  -8.296  1.00  0.00     0.058 A 
ATOM     52  C   UNL     1       6.269   5.823  -9.104  1.00  0.00     0.135 A 
ATOM     53  C   UNL     1       7.973   5.442  -7.455  1.00  0.00     0.135 A 
ATOM     54  F   UNL     1       5.315   5.373  -9.933  1.00  0.00    -0.206 F 
ATOM     55  C   UNL     1       6.539   7.187  -9.085  1.00  0.00     0.059 A 
ATOM     56  C   UNL     1       8.244   6.806  -7.398  1.00  0.00     0.059 A 
ATOM     57  F   UNL     1       8.673   4.624  -6.653  1.00  0.00    -0.206 F 
ATOM     58  C   UNL     1       7.524   7.670  -8.222  1.00  0.00     0.060 A 
BRANCH  58  59
ATOM     59  S   UNL     1       7.823   9.451  -8.166  1.00  0.00     0.124 S 
ATOM     60  O   UNL     1       8.419   9.692  -9.476  1.00  0.00    -0.237 OA
ATOM     61  O   UNL     1       6.476   9.978  -7.971  1.00  0.00    -0.237 OA
ATOM     62  O   UNL     1       8.722   9.606  -7.026  1.00  0.00    -0.744 OA
ENDBRANCH  58  59
ENDBRANCH  26  51
BRANCH  38  63
ATOM     63  C   UNL     1       7.688  -0.094 -13.110  1.00  0.00     0.058 A 
ATOM     64  C   UNL     1       9.064   0.000 -13.364  1.00  0.00     0.135 A 
ATOM     65  C   UNL     1       6.829  -0.279 -14.207  1.00  0.00     0.135 A 
ATOM     66  F   UNL     1       9.928   0.182 -12.352  1.00  0.00    -0.206 F 
ATOM     67  C   UNL     1       9.570  -0.072 -14.658  1.00  0.00     0.059 A 
ATOM     68  C   UNL     1       7.315  -0.384 -15.506  1.00  0.00     0.059 A 
ATOM     69  F   UNL     1       5.504  -0.388 -14.018  1.00  0.00    -0.206 F 
ATOM     70  C   UNL     1       8.688  -0.272 -15.722  1.00  0.00     0.060 A 
BRANCH  70  71
ATOM     71  S   UNL     1       9.367  -0.411 -17.388  1.00  0.00     0.124 S 
ATOM     72  O   UNL     1       9.818   0.954 -17.638  1.00  0.00    -0.237 OA
ATOM     73  O   UNL     1      10.421  -1.405 -17.212  1.00  0.00    -0.237 OA
ATOM     74  O   UNL     1       8.226  -0.850 -18.187  1.00  0.00    -0.744 OA
ENDBRANCH  70  71
ENDBRANCH  38  63
ENDBRANCH  12  13
ENDBRANCH   5   7
ENDBRANCH   2   3
ENDBRANCH   1   2
BRANCH   1  75
ATOM     75  C   UNL     1       4.497   1.215   3.645  1.00  0.00     0.023 C 
BRANCH  75  76
ATOM     76  C   UNL     1       4.886  -0.095   4.320  1.00  0.00     0.116 C 
BRANCH  76  77
ATOM     77  N   UNL     1       6.324  -0.271   4.421  1.00  0.00    -0.352 N 
ATOM     78  C   UNL     1       7.065  -0.605   5.527  1.00  0.00     0.255 C 
ATOM     79  H   UNL     1       6.833  -0.134   3.589  1.00  0.00     0.163 HD
ATOM     80  O   UNL     1       8.291  -0.656   5.469  1.00  0.00    -0.269 OA
BRANCH  78  81
ATOM     81  C   UNL     1       6.394  -0.815   6.825  1.00  0.00     0.082 A 
ATOM     82  C   UNL     1       6.804  -0.007   7.894  1.00  0.00     0.026 A 
ATOM     83  C   UNL     1       5.392  -1.776   7.012  1.00  0.00     0.128 A 
ATOM     84  C   UNL     1       6.171  -0.115   9.136  1.00  0.00    -0.017 A 
ATOM     85  C   UNL     1       4.739  -1.870   8.238  1.00  0.00     0.047 A 
ATOM     86  C   UNL     1       5.121  -1.035   9.290  1.00  0.00     0.012 A 
BRANCH  83  87
ATOM     87  O   UNL     1       5.040  -2.617   5.995  1.00  0.00    -0.507 OA
ATOM     88  H   UNL     1       5.474  -2.559   5.167  1.00  0.00     0.293 HD
ENDBRANCH  83  87
BRANCH  84  89
ATOM     89  C   UNL     1       6.616   0.676  10.300  1.00  0.00    -0.011 A 
ATOM     90  C   UNL     1       7.093   0.036  11.512  1.00  0.00     0.027 A 
ATOM     91  C   UNL     1       6.561   2.018  10.250  1.00  0.00     0.080 A 
ATOM     92  C   UNL     1       7.447   0.765  12.575  1.00  0.00     0.095 A 
ATOM     93  C   UNL     1       6.955   2.845  11.428  1.00  0.00     0.255 A 
ATOM     94  N   UNL     1       7.377   2.144  12.547  1.00  0.00    -0.258 N 
ATOM     95  O   UNL     1       6.871   4.066  11.344  1.00  0.00    -0.269 OA
BRANCH  94  96
ATOM     96  C   UNL     1       7.731   2.913  13.711  1.00  0.00     0.451 C 
ATOM     97  F   UNL     1       8.725   3.793  13.441  1.00  0.00    -0.185 F 
ATOM     98  F   UNL     1       6.665   3.610  14.175  1.00  0.00    -0.185 F 
ENDBRANCH  94  96
ENDBRANCH  84  89
ENDBRANCH  78  81
ENDBRANCH  76  77
ENDBRANCH  75  76
ENDBRANCH   1  75
TORSDOF 17
