REMARK SMILES COC(=O)c1ccc(C)c2c1[C@H]1C=CC[C@H]1[C@@H](c1ccc(C(=O)NCCCCNC(=O)c3ccc(-c4c5nc(c(-c6c(F)cc(S(=O)(=O)[O-])cc6F)c6ccc([nH]6)c(-c6c(F)cc(S(=O)(=O)[O-])cc6F)c6nc(c(-c7c(F)cc(S(=O)(=O)[O-])cc7F)c7ccc4[nH]7)C=C6)C=C5)cc3)cc1)N2
REMARK SMILES IDX 26 1 25 2 24 3 22 4 23 5 21 7 18 8 19 9 99 10 20 11 98 12
REMARK SMILES IDX 17 13 5 14 6 15 11 16 7 17 10 18 12 19 8 20 100 21 13 22
REMARK SMILES IDX 16 23 9 24 14 26 15 27 3 28 4 29 2 30 1 31 27 32 28 33 29 34
REMARK SMILES IDX 30 35 31 37 32 38 33 39 97 40 34 41 96 42 35 43 36 44 37 45
REMARK SMILES IDX 90 46 38 47 95 48 89 49 91 50 39 51 94 52 88 53 87 54 40 56
REMARK SMILES IDX 74 57 53 58 73 59 54 60 57 61 72 62 92 63 55 64 56 65 71 67
REMARK SMILES IDX 93 68 58 69 41 70 42 71 51 72 43 73 44 74 50 75 52 76 45 77
REMARK SMILES IDX 46 78 47 79 48 80 49 81 75 82 76 83 85 84 77 85 78 86 84 87
REMARK SMILES IDX 86 88 79 89 80 90 81 91 82 92 83 93 59 94 60 95 69 96 61 97
REMARK SMILES IDX 62 98 68 99 70 100 63 101 64 102 65 103 66 104 67 105
REMARK H PARENT 24 6 100 25 29 36 91 55 57 66
REMARK Flexibility Score: inf
ROOT
ATOM      1  C   UNL     1       7.728  -0.012   7.961  1.00  0.00     0.023 C 
ENDROOT
BRANCH   1   2
ATOM      2  C   UNL     1       6.425   0.020   8.764  1.00  0.00     0.116 C 
BRANCH   2   3
ATOM      3  N   UNL     1       5.453   0.862   8.109  1.00  0.00    -0.352 N 
ATOM      4  C   UNL     1       4.476   0.578   7.195  1.00  0.00     0.251 C 
ATOM      5  O   UNL     1       3.777   1.518   6.810  1.00  0.00    -0.269 OA
ATOM      6  H   UNL     1       5.501   1.811   8.367  1.00  0.00     0.163 HD
BRANCH   4   7
ATOM      7  C   UNL     1       4.196  -0.792   6.674  1.00  0.00     0.039 A 
ATOM      8  C   UNL     1       3.478  -3.276   5.467  1.00  0.00    -0.025 A 
ATOM      9  C   UNL     1       2.573  -2.208   5.553  1.00  0.00     0.006 A 
ATOM     10  C   UNL     1       4.735  -3.089   6.054  1.00  0.00     0.006 A 
ATOM     11  C   UNL     1       2.922  -0.991   6.141  1.00  0.00     0.014 A 
ATOM     12  C   UNL     1       5.097  -1.858   6.617  1.00  0.00     0.014 A 
BRANCH   8  13
ATOM     13  C   UNL     1       3.200  -4.569   4.692  1.00  0.00     0.114 C 
ATOM     14  C   UNL     1       0.280  -2.935   2.091  1.00  0.00     0.065 A 
ATOM     15  C   UNL     1      -1.037  -2.830   2.547  1.00  0.00     0.016 A 
ATOM     16  C   UNL     1       1.240  -3.684   2.806  1.00  0.00    -0.003 A 
ATOM     17  C   UNL     1      -1.417  -3.475   3.717  1.00  0.00     0.006 A 
ATOM     18  C   UNL     1       0.845  -4.343   4.001  1.00  0.00     0.042 A 
ATOM     19  C   UNL     1       2.674  -3.779   2.318  1.00  0.00     0.050 C 
ATOM     20  C   UNL     1      -0.490  -4.226   4.458  1.00  0.00    -0.028 A 
ATOM     21  N   UNL     1       1.804  -4.968   4.791  1.00  0.00    -0.377 N 
ATOM     22  C   UNL     1       3.460  -2.492   2.237  1.00  0.00    -0.023 C 
ATOM     23  C   UNL     1       3.608  -4.630   3.202  1.00  0.00     0.031 C 
ATOM     24  C   UNL     1      -0.988  -4.815   5.754  1.00  0.00     0.046 C 
ATOM     25  H   UNL     1       1.538  -5.680   5.417  1.00  0.00     0.161 HD
ATOM     26  C   UNL     1       4.753  -2.681   2.531  1.00  0.00    -0.030 C 
ATOM     27  C   UNL     1       5.019  -4.104   2.895  1.00  0.00     0.034 C 
BRANCH  14  28
ATOM     28  C   UNL     1       0.634  -2.219   0.846  1.00  0.00     0.338 C 
ATOM     29  O   UNL     1       1.114  -2.739  -0.141  1.00  0.00    -0.246 OA
BRANCH  28  30
ATOM     30  O   UNL     1       0.397  -0.897   1.047  1.00  0.00    -0.465 OA
ATOM     31  C   UNL     1       0.858  -0.057  -0.011  1.00  0.00     0.282 C 
ENDBRANCH  28  30
ENDBRANCH  14  28
ENDBRANCH   8  13
ENDBRANCH   4   7
ENDBRANCH   2   3
ENDBRANCH   1   2
BRANCH   1  32
ATOM     32  C   UNL     1       8.603   1.227   8.144  1.00  0.00     0.023 C 
BRANCH  32  33
ATOM     33  C   UNL     1       9.039   1.482   9.578  1.00  0.00     0.116 C 
BRANCH  33  34
ATOM     34  N   UNL     1       9.707   0.340  10.188  1.00  0.00    -0.352 N 
ATOM     35  C   UNL     1      10.608   0.373  11.225  1.00  0.00     0.251 C 
ATOM     36  H   UNL     1       9.491  -0.546   9.819  1.00  0.00     0.163 HD
ATOM     37  O   UNL     1      11.165  -0.641  11.623  1.00  0.00    -0.269 OA
BRANCH  35  38
ATOM     38  C   UNL     1      10.907   1.690  11.807  1.00  0.00     0.039 A 
ATOM     39  C   UNL     1      12.176   2.236  11.612  1.00  0.00     0.014 A 
ATOM     40  C   UNL     1       9.874   2.432  12.389  1.00  0.00     0.014 A 
ATOM     41  C   UNL     1      12.399   3.566  11.959  1.00  0.00     0.010 A 
ATOM     42  C   UNL     1      10.086   3.773  12.683  1.00  0.00     0.010 A 
ATOM     43  C   UNL     1      11.348   4.348  12.468  1.00  0.00    -0.014 A 
BRANCH  43  44
ATOM     44  C   UNL     1      11.565   5.773  12.798  1.00  0.00     0.031 A 
ATOM     45  C   UNL     1      11.575   6.203  14.235  1.00  0.00     0.074 A 
ATOM     46  C   UNL     1      11.723   6.672  11.808  1.00  0.00     0.049 A 
ATOM     47  N   UNL     1      11.764   7.395  14.735  1.00  0.00    -0.248 NA
ATOM     48  C   UNL     1      11.323   5.158  15.242  1.00  0.00     0.031 C 
ATOM     49  C   UNL     1      11.687   6.368  10.375  1.00  0.00     0.029 A 
ATOM     50  N   UNL     1      11.947   8.024  11.854  1.00  0.00    -0.354 N 
ATOM     51  C   UNL     1      11.665   7.242  16.111  1.00  0.00     0.074 A 
ATOM     52  C   UNL     1      11.333   5.859  16.366  1.00  0.00     0.031 C 
ATOM     53  C   UNL     1      11.910   7.496   9.681  1.00  0.00     0.029 A 
ATOM     54  C   UNL     1      12.084   8.605  10.616  1.00  0.00     0.049 A 
ATOM     55  H   UNL     1      12.003   8.532  12.696  1.00  0.00     0.167 HD
ATOM     56  C   UNL     1      11.869   8.168  17.076  1.00  0.00     0.037 A 
ATOM     57  C   UNL     1      12.335   9.885  10.277  1.00  0.00     0.037 A 
ATOM     58  C   UNL     1      12.209   9.539  16.812  1.00  0.00     0.049 A 
ATOM     59  C   UNL     1      12.534  10.903  11.368  1.00  0.00     0.074 A 
ATOM     60  C   UNL     1      12.469  10.550  17.719  1.00  0.00     0.029 A 
ATOM     61  N   UNL     1      12.336  10.091  15.545  1.00  0.00    -0.354 N 
ATOM     62  N   UNL     1      12.500  10.731  12.668  1.00  0.00    -0.248 NA
ATOM     63  C   UNL     1      12.812  12.284  10.951  1.00  0.00     0.031 C 
ATOM     64  C   UNL     1      12.719  11.723  17.000  1.00  0.00     0.029 A 
ATOM     65  C   UNL     1      12.656  11.433  15.646  1.00  0.00     0.049 A 
ATOM     66  H   UNL     1      12.217   9.600  14.700  1.00  0.00     0.167 HD
ATOM     67  C   UNL     1      12.782  11.973  13.224  1.00  0.00     0.074 A 
ATOM     68  C   UNL     1      12.984  12.889  12.120  1.00  0.00     0.031 C 
ATOM     69  C   UNL     1      12.869  12.322  14.531  1.00  0.00     0.037 A 
BRANCH  56  70
ATOM     70  C   UNL     1      11.750   7.716  18.503  1.00  0.00     0.058 A 
ATOM     71  C   UNL     1      12.721   6.886  19.086  1.00  0.00     0.135 A 
ATOM     72  C   UNL     1      10.675   8.134  19.302  1.00  0.00     0.135 A 
ATOM     73  F   UNL     1      13.757   6.442  18.358  1.00  0.00    -0.206 F 
ATOM     74  C   UNL     1      12.619   6.467  20.407  1.00  0.00     0.059 A 
ATOM     75  C   UNL     1      10.566   7.747  20.635  1.00  0.00     0.059 A 
ATOM     76  F   UNL     1       9.717   8.922  18.790  1.00  0.00    -0.206 F 
ATOM     77  C   UNL     1      11.537   6.903  21.174  1.00  0.00     0.060 A 
BRANCH  77  78
ATOM     78  S   UNL     1      11.425   6.354  22.890  1.00  0.00     0.124 S 
ATOM     79  O   UNL     1      11.063   4.950  22.723  1.00  0.00    -0.237 OA
ATOM     80  O   UNL     1      12.775   6.605  23.386  1.00  0.00    -0.237 OA
ATOM     81  O   UNL     1      10.384   7.208  23.453  1.00  0.00    -0.744 OA
ENDBRANCH  77  78
ENDBRANCH  56  70
BRANCH  57  82
ATOM     82  C   UNL     1      12.466  10.258   8.845  1.00  0.00     0.058 A 
ATOM     83  C   UNL     1      13.722  10.554   8.293  1.00  0.00     0.135 A 
ATOM     84  C   UNL     1      11.353  10.293   7.992  1.00  0.00     0.135 A 
ATOM     85  F   UNL     1      14.815  10.538   9.070  1.00  0.00    -0.206 F 
ATOM     86  C   UNL     1      13.870  10.875   6.948  1.00  0.00     0.059 A 
ATOM     87  C   UNL     1      11.477  10.593   6.638  1.00  0.00     0.059 A 
ATOM     88  F   UNL     1      10.132  10.004   8.468  1.00  0.00    -0.206 F 
ATOM     89  C   UNL     1      12.741  10.886   6.127  1.00  0.00     0.060 A 
BRANCH  89  90
ATOM     90  S   UNL     1      12.957  11.242   4.369  1.00  0.00     0.124 S 
ATOM     91  O   UNL     1      13.269  12.666   4.392  1.00  0.00    -0.237 OA
ATOM     92  O   UNL     1      14.059  10.353   4.012  1.00  0.00    -0.237 OA
ATOM     93  O   UNL     1      11.664  10.887   3.793  1.00  0.00    -0.744 OA
ENDBRANCH  89  90
ENDBRANCH  57  82
BRANCH  69  94
ATOM     94  C   UNL     1      13.223  13.745  14.856  1.00  0.00     0.058 A 
ATOM     95  C   UNL     1      12.276  14.774  14.758  1.00  0.00     0.135 A 
ATOM     96  C   UNL     1      14.485  14.056  15.387  1.00  0.00     0.135 A 
ATOM     97  F   UNL     1      11.058  14.527  14.250  1.00  0.00    -0.206 F 
ATOM     98  C   UNL     1      12.566  16.066  15.182  1.00  0.00     0.059 A 
ATOM     99  C   UNL     1      14.789  15.336  15.838  1.00  0.00     0.059 A 
ATOM    100  F   UNL     1      15.421  13.102  15.509  1.00  0.00    -0.206 F 
ATOM    101  C   UNL     1      13.822  16.335  15.732  1.00  0.00     0.060 A 
BRANCH 101 102
ATOM    102  S   UNL     1      14.152  17.996  16.358  1.00  0.00     0.124 S 
ATOM    103  O   UNL     1      14.277  18.758  15.121  1.00  0.00    -0.237 OA
ATOM    104  O   UNL     1      12.959  18.270  17.154  1.00  0.00    -0.237 OA
ATOM    105  O   UNL     1      15.384  17.832  17.123  1.00  0.00    -0.744 OA
ENDBRANCH 101 102
ENDBRANCH  69  94
ENDBRANCH  43  44
ENDBRANCH  35  38
ENDBRANCH  33  34
ENDBRANCH  32  33
ENDBRANCH   1  32
TORSDOF 17
