REMARK SMILES COc1cc(NC(=O)[C@@H]2CC=CC[C@H]2C(=O)NCCCCNC(=O)c2ccc(-c3c4nc(c(-c5c(F)cc(S(=O)(=O)[O-])cc5F)c5ccc([nH]5)c(-c5c(F)cc(S(=O)(=O)[O-])cc5F)c5nc(c(-c6c(F)cc(S(=O)(=O)[O-])cc6F)c6ccc3[nH]6)C=C5)C=C4)cc2)c(OC)cc1Cl
REMARK SMILES IDX 19 1 18 2 17 3 15 4 16 5 14 7 9 8 10 9 11 10 13 11 12 12
REMARK SMILES IDX 7 13 6 14 8 16 5 17 3 18 4 19 95 20 94 21 96 22 91 23 2 24
REMARK SMILES IDX 1 25 92 26 93 27 20 28 21 29 22 30 23 31 24 33 25 34 26 35
REMARK SMILES IDX 90 36 27 37 89 38 28 39 29 40 30 41 83 42 31 43 88 44 82 45
REMARK SMILES IDX 84 46 32 47 87 48 81 49 80 50 33 52 67 53 46 54 66 55 47 56
REMARK SMILES IDX 50 57 65 58 85 59 48 60 49 61 64 63 86 64 51 65 34 66 35 67
REMARK SMILES IDX 44 68 36 69 37 70 43 71 45 72 38 73 39 74 40 75 41 76 42 77
REMARK SMILES IDX 68 78 69 79 78 80 70 81 71 82 77 83 79 84 72 85 73 86 74 87
REMARK SMILES IDX 75 88 76 89 52 90 53 91 62 92 54 93 55 94 61 95 63 96 56 97
REMARK SMILES IDX 57 98 58 99 59 100 60 101
REMARK H PARENT 17 6 6 15 22 32 84 51 50 62
REMARK Flexibility Score: inf
ROOT
ATOM      1  C   UNL     1      -0.818   1.633   6.440  1.00  0.00     0.023 C 
ENDROOT
BRANCH   1   2
ATOM      2  C   UNL     1      -0.149   2.615   5.469  1.00  0.00     0.116 C 
BRANCH   2   3
ATOM      3  N   UNL     1       0.469   1.983   4.313  1.00  0.00    -0.356 N 
ATOM      4  C   UNL     1       0.084   1.893   3.005  1.00  0.00     0.224 C 
ATOM      5  O   UNL     1       0.895   1.416   2.206  1.00  0.00    -0.275 OA
ATOM      6  H   UNL     1       1.324   1.537   4.510  1.00  0.00     0.163 HD
BRANCH   4   7
ATOM      7  C   UNL     1      -1.241   2.435   2.483  1.00  0.00     0.095 C 
ATOM      8  C   UNL     1      -2.519   1.982   3.234  1.00  0.00     0.095 C 
ATOM      9  C   UNL     1      -3.625   3.092   3.159  1.00  0.00     0.041 C 
ATOM     10  C   UNL     1      -3.203   4.519   3.198  1.00  0.00    -0.030 C 
ATOM     11  C   UNL     1      -0.938   3.959   2.378  1.00  0.00     0.041 C 
ATOM     12  C   UNL     1      -1.990   4.912   2.818  1.00  0.00    -0.030 C 
BRANCH   8  13
ATOM     13  C   UNL     1      -3.257   0.681   2.780  1.00  0.00     0.228 C 
ATOM     14  N   UNL     1      -2.853  -0.604   2.737  1.00  0.00    -0.323 N 
ATOM     15  H   UNL     1      -3.617  -1.163   2.466  1.00  0.00     0.170 HD
ATOM     16  O   UNL     1      -4.458   0.767   2.452  1.00  0.00    -0.274 OA
BRANCH  14  17
ATOM     17  C   UNL     1      -1.742  -1.437   2.935  1.00  0.00     0.087 A 
ATOM     18  C   UNL     1       0.589  -1.877   3.406  1.00  0.00     0.139 A 
ATOM     19  C   UNL     1      -0.543  -1.055   3.491  1.00  0.00     0.078 A 
ATOM     20  C   UNL     1       0.474  -3.177   2.914  1.00  0.00     0.086 A 
ATOM     21  C   UNL     1      -0.769  -3.638   2.489  1.00  0.00     0.073 A 
ATOM     22  Cl  UNL     1       1.810  -4.266   2.848  1.00  0.00    -0.080 Cl
ATOM     23  C   UNL     1      -1.874  -2.779   2.508  1.00  0.00     0.144 A 
BRANCH  18  24
ATOM     24  O   UNL     1       1.775  -1.340   3.840  1.00  0.00    -0.495 OA
ATOM     25  C   UNL     1       2.642  -1.057   2.731  1.00  0.00     0.278 C 
ENDBRANCH  18  24
BRANCH  23  26
ATOM     26  O   UNL     1      -3.134  -3.159   2.097  1.00  0.00    -0.495 OA
ATOM     27  C   UNL     1      -3.414  -4.556   2.182  1.00  0.00     0.278 C 
ENDBRANCH  23  26
ENDBRANCH  14  17
ENDBRANCH   8  13
ENDBRANCH   4   7
ENDBRANCH   2   3
ENDBRANCH   1   2
BRANCH   1  28
ATOM     28  C   UNL     1       0.089   0.602   7.107  1.00  0.00     0.023 C 
BRANCH  28  29
ATOM     29  C   UNL     1       1.310   1.156   7.823  1.00  0.00     0.116 C 
BRANCH  29  30
ATOM     30  N   UNL     1       0.989   2.174   8.809  1.00  0.00    -0.352 N 
ATOM     31  C   UNL     1       1.482   2.347  10.082  1.00  0.00     0.251 C 
ATOM     32  H   UNL     1       0.320   2.838   8.525  1.00  0.00     0.163 HD
ATOM     33  O   UNL     1       1.016   3.223  10.798  1.00  0.00    -0.269 OA
BRANCH  31  34
ATOM     34  C   UNL     1       2.541   1.447  10.596  1.00  0.00     0.039 A 
ATOM     35  C   UNL     1       2.412   0.937  11.891  1.00  0.00     0.014 A 
ATOM     36  C   UNL     1       3.637   1.086   9.809  1.00  0.00     0.014 A 
ATOM     37  C   UNL     1       3.339   0.005  12.364  1.00  0.00     0.010 A 
ATOM     38  C   UNL     1       4.513   0.098  10.250  1.00  0.00     0.010 A 
ATOM     39  C   UNL     1       4.371  -0.457  11.530  1.00  0.00    -0.014 A 
BRANCH  39  40
ATOM     40  C   UNL     1       5.291  -1.536  11.974  1.00  0.00     0.031 A 
ATOM     41  C   UNL     1       6.764  -1.271  12.120  1.00  0.00     0.074 A 
ATOM     42  C   UNL     1       4.803  -2.776  12.185  1.00  0.00     0.049 A 
ATOM     43  N   UNL     1       7.723  -2.098  12.449  1.00  0.00    -0.248 NA
ATOM     44  C   UNL     1       7.225   0.097  11.834  1.00  0.00     0.031 C 
ATOM     45  C   UNL     1       3.403  -3.174  12.018  1.00  0.00     0.029 A 
ATOM     46  N   UNL     1       5.431  -3.933  12.576  1.00  0.00    -0.354 N 
ATOM     47  C   UNL     1       8.898  -1.357  12.400  1.00  0.00     0.074 A 
ATOM     48  C   UNL     1       8.539  -0.028  11.957  1.00  0.00     0.031 C 
ATOM     49  C   UNL     1       3.274  -4.474  12.329  1.00  0.00     0.029 A 
ATOM     50  C   UNL     1       4.584  -5.011  12.682  1.00  0.00     0.049 A 
ATOM     51  H   UNL     1       6.396  -3.985  12.762  1.00  0.00     0.167 HD
ATOM     52  C   UNL     1      10.157  -1.743  12.719  1.00  0.00     0.037 A 
ATOM     53  C   UNL     1       4.835  -6.291  13.020  1.00  0.00     0.037 A 
ATOM     54  C   UNL     1      10.505  -3.062  13.180  1.00  0.00     0.049 A 
ATOM     55  C   UNL     1       6.240  -6.694  13.374  1.00  0.00     0.074 A 
ATOM     56  C   UNL     1      11.741  -3.533  13.588  1.00  0.00     0.029 A 
ATOM     57  N   UNL     1       9.617  -4.123  13.292  1.00  0.00    -0.354 N 
ATOM     58  N   UNL     1       7.328  -5.961  13.390  1.00  0.00    -0.248 NA
ATOM     59  C   UNL     1       6.452  -8.095  13.761  1.00  0.00     0.031 C 
ATOM     60  C   UNL     1      11.610  -4.890  13.905  1.00  0.00     0.029 A 
ATOM     61  C   UNL     1      10.283  -5.253  13.741  1.00  0.00     0.049 A 
ATOM     62  H   UNL     1       8.656  -4.080  13.083  1.00  0.00     0.167 HD
ATOM     63  C   UNL     1       8.349  -6.806  13.810  1.00  0.00     0.074 A 
ATOM     64  C   UNL     1       7.745  -8.100  14.054  1.00  0.00     0.031 C 
ATOM     65  C   UNL     1       9.668  -6.536  13.977  1.00  0.00     0.037 A 
BRANCH  52  66
ATOM     66  C   UNL     1      11.253  -0.720  12.587  1.00  0.00     0.058 A 
ATOM     67  C   UNL     1      11.345   0.376  13.460  1.00  0.00     0.135 A 
ATOM     68  C   UNL     1      12.242  -0.854  11.600  1.00  0.00     0.135 A 
ATOM     69  F   UNL     1      10.418   0.562  14.414  1.00  0.00    -0.206 F 
ATOM     70  C   UNL     1      12.361   1.319  13.341  1.00  0.00     0.059 A 
ATOM     71  C   UNL     1      13.284   0.063  11.480  1.00  0.00     0.059 A 
ATOM     72  F   UNL     1      12.203  -1.882  10.738  1.00  0.00    -0.206 F 
ATOM     73  C   UNL     1      13.325   1.154  12.346  1.00  0.00     0.060 A 
BRANCH  73  74
ATOM     74  S   UNL     1      14.638   2.385  12.207  1.00  0.00     0.124 S 
ATOM     75  O   UNL     1      13.915   3.518  11.636  1.00  0.00    -0.237 OA
ATOM     76  O   UNL     1      15.068   2.542  13.593  1.00  0.00    -0.237 OA
ATOM     77  O   UNL     1      15.609   1.750  11.321  1.00  0.00    -0.744 OA
ENDBRANCH  73  74
ENDBRANCH  52  66
BRANCH  53  78
ATOM     78  C   UNL     1       3.724  -7.279  13.064  1.00  0.00     0.058 A 
ATOM     79  C   UNL     1       3.258  -7.787  14.286  1.00  0.00     0.135 A 
ATOM     80  C   UNL     1       3.097  -7.725  11.890  1.00  0.00     0.135 A 
ATOM     81  F   UNL     1       3.829  -7.396  15.435  1.00  0.00    -0.206 F 
ATOM     82  C   UNL     1       2.221  -8.713  14.343  1.00  0.00     0.059 A 
ATOM     83  C   UNL     1       2.041  -8.631  11.923  1.00  0.00     0.059 A 
ATOM     84  F   UNL     1       3.494  -7.257  10.696  1.00  0.00    -0.206 F 
ATOM     85  C   UNL     1       1.617  -9.127  13.155  1.00  0.00     0.060 A 
BRANCH  85  86
ATOM     86  S   UNL     1       0.239 -10.291  13.244  1.00  0.00     0.124 S 
ATOM     87  O   UNL     1       0.926 -11.536  13.567  1.00  0.00    -0.237 OA
ATOM     88  O   UNL     1      -0.579  -9.717  14.308  1.00  0.00    -0.237 OA
ATOM     89  O   UNL     1      -0.346 -10.220  11.908  1.00  0.00    -0.744 OA
ENDBRANCH  85  86
ENDBRANCH  53  78
BRANCH  65  90
ATOM     90  C   UNL     1      10.543  -7.656  14.469  1.00  0.00     0.058 A 
ATOM     91  C   UNL     1      10.885  -8.740  13.645  1.00  0.00     0.135 A 
ATOM     92  C   UNL     1      11.074  -7.627  15.768  1.00  0.00     0.135 A 
ATOM     93  F   UNL     1      10.399  -8.819  12.396  1.00  0.00    -0.206 F 
ATOM     94  C   UNL     1      11.698  -9.772  14.102  1.00  0.00     0.059 A 
ATOM     95  C   UNL     1      11.912  -8.634  16.237  1.00  0.00     0.059 A 
ATOM     96  F   UNL     1      10.788  -6.607  16.594  1.00  0.00    -0.206 F 
ATOM     97  C   UNL     1      12.206  -9.710  15.401  1.00  0.00     0.060 A 
BRANCH  97  98
ATOM     98  S   UNL     1      13.276 -11.045  15.977  1.00  0.00     0.124 S 
ATOM     99  O   UNL     1      12.312 -12.117  16.202  1.00  0.00    -0.237 OA
ATOM    100  O   UNL     1      14.180 -11.232  14.846  1.00  0.00    -0.237 OA
ATOM    101  O   UNL     1      13.892 -10.492  17.179  1.00  0.00    -0.744 OA
ENDBRANCH  97  98
ENDBRANCH  65  90
ENDBRANCH  39  40
ENDBRANCH  31  34
ENDBRANCH  29  30
ENDBRANCH  28  29
ENDBRANCH   1  28
TORSDOF 18
