REMARK SMILES C[C@@H](C(=O)NCCCCNC(=O)c1ccc(-c2c3nc(c(-c4c(F)cc(S(=O)(=O)[O-])cc4F)c4ccc([nH]4)c(-c4c(F)cc(S(=O)(=O)[O-])cc4F)c4nc(c(-c5c(F)cc(S(=O)(=O)[O-])cc5F)c5ccc2[nH]5)C=C4)C=C3)cc1)S(=O)(=O)N[C@@]12C[C@@H]3C[C@@](C)(C[C@@](C)(C3)C1)C2
REMARK SMILES IDX 7 1 6 2 5 3 3 4 4 5 2 7 1 8 79 9 80 10 81 11 82 12 83 14
REMARK SMILES IDX 84 15 93 16 94 17 85 18 90 19 87 20 92 21 86 22 89 23 91 24
REMARK SMILES IDX 88 25 8 26 9 27 10 28 11 29 12 31 13 32 14 33 78 34 15 35
REMARK SMILES IDX 77 36 16 37 17 38 18 39 71 40 19 41 76 42 70 43 72 44 20 45
REMARK SMILES IDX 75 46 69 47 68 48 21 50 55 51 34 52 54 53 35 54 38 55 53 56
REMARK SMILES IDX 73 57 36 58 37 59 52 61 74 62 39 63 22 64 23 65 32 66 24 67
REMARK SMILES IDX 25 68 31 69 33 70 26 71 27 72 28 73 29 74 30 75 56 76 57 77
REMARK SMILES IDX 66 78 58 79 59 80 65 81 67 82 60 83 61 84 62 85 63 86 64 87
REMARK SMILES IDX 40 88 41 89 50 90 42 91 43 92 49 93 51 94 44 95 45 96 46 97
REMARK SMILES IDX 47 98 48 99
REMARK H PARENT 5 6 82 13 10 30 72 49 38 60
REMARK Flexibility Score: inf
ROOT
ATOM      1  C   UNL     1       4.163   0.086  -1.374  1.00  0.00     0.023 C 
ENDROOT
BRANCH   1   2
ATOM      2  C   UNL     1       3.408   1.308  -1.907  1.00  0.00     0.116 C 
BRANCH   2   3
ATOM      3  N   UNL     1       2.236   0.888  -2.656  1.00  0.00    -0.355 N 
ATOM      4  C   UNL     1       0.904   0.856  -2.356  1.00  0.00     0.239 C 
ATOM      5  O   UNL     1       0.206   0.249  -3.173  1.00  0.00    -0.274 OA
ATOM      6  H   UNL     1       2.444   0.561  -3.561  1.00  0.00     0.163 HD
BRANCH   4   7
ATOM      7  C   UNL     1       0.317   1.605  -1.169  1.00  0.00     0.209 C 
ATOM      8  C   UNL     1       1.052   1.562   0.170  1.00  0.00     0.037 C 
BRANCH   7   9
ATOM      9  S   UNL     1      -1.462   1.212  -1.003  1.00  0.00     0.223 S 
ATOM     10  O   UNL     1      -1.883   1.528   0.350  1.00  0.00    -0.212 OA
ATOM     11  O   UNL     1      -2.144   1.865  -2.099  1.00  0.00    -0.212 OA
BRANCH   9  12
ATOM     12  N   UNL     1      -1.697  -0.424  -1.255  1.00  0.00    -0.208 NA
ATOM     13  H   UNL     1      -1.193  -0.626  -2.118  1.00  0.00     0.141 HD
BRANCH  12  14
ATOM     14  C   UNL     1      -1.358  -1.546  -0.352  1.00  0.00     0.034 C 
ATOM     15  C   UNL     1       0.152  -1.636  -0.113  1.00  0.00     0.027 C 
ATOM     16  C   UNL     1      -2.106  -1.445   0.991  1.00  0.00     0.030 C 
ATOM     17  C   UNL     1      -1.801  -2.874  -1.030  1.00  0.00     0.030 C 
ATOM     18  C   UNL     1       0.511  -2.819   0.788  1.00  0.00    -0.008 C 
ATOM     19  C   UNL     1      -1.750  -2.635   1.915  1.00  0.00    -0.030 C 
ATOM     20  C   UNL     1      -1.449  -4.098  -0.142  1.00  0.00    -0.030 C 
ATOM     21  C   UNL     1      -0.218  -2.653   2.131  1.00  0.00     0.010 C 
ATOM     22  C   UNL     1       0.074  -4.117   0.106  1.00  0.00     0.010 C 
ATOM     23  C   UNL     1      -2.165  -3.950   1.220  1.00  0.00     0.013 C 
ATOM     24  C   UNL     1      -2.470  -2.485   3.259  1.00  0.00     0.011 C 
ATOM     25  C   UNL     1      -1.873  -5.404  -0.821  1.00  0.00     0.011 C 
ENDBRANCH  12  14
ENDBRANCH   9  12
ENDBRANCH   7   9
ENDBRANCH   4   7
ENDBRANCH   2   3
ENDBRANCH   1   2
BRANCH   1  26
ATOM     26  C   UNL     1       4.979  -0.661  -2.437  1.00  0.00     0.023 C 
BRANCH  26  27
ATOM     27  C   UNL     1       6.080   0.159  -3.106  1.00  0.00     0.116 C 
BRANCH  27  28
ATOM     28  N   UNL     1       7.046   0.700  -2.162  1.00  0.00    -0.352 N 
ATOM     29  C   UNL     1       8.391   0.913  -2.349  1.00  0.00     0.251 C 
ATOM     30  H   UNL     1       6.691   0.944  -1.276  1.00  0.00     0.163 HD
ATOM     31  O   UNL     1       9.096   1.276  -1.413  1.00  0.00    -0.269 OA
BRANCH  29  32
ATOM     32  C   UNL     1       8.981   0.659  -3.679  1.00  0.00     0.039 A 
ATOM     33  C   UNL     1      10.093  -0.180  -3.775  1.00  0.00     0.014 A 
ATOM     34  C   UNL     1       8.402   1.205  -4.827  1.00  0.00     0.014 A 
ATOM     35  C   UNL     1      10.579  -0.537  -5.035  1.00  0.00     0.010 A 
ATOM     36  C   UNL     1       8.849   0.800  -6.081  1.00  0.00     0.010 A 
ATOM     37  C   UNL     1       9.934  -0.084  -6.197  1.00  0.00    -0.014 A 
BRANCH  37  38
ATOM     38  C   UNL     1      10.352  -0.545  -7.545  1.00  0.00     0.031 A 
ATOM     39  C   UNL     1      10.894   0.440  -8.543  1.00  0.00     0.074 A 
ATOM     40  C   UNL     1      10.155  -1.831  -7.897  1.00  0.00     0.049 A 
ATOM     41  N   UNL     1      11.206   0.253  -9.799  1.00  0.00    -0.248 NA
ATOM     42  C   UNL     1      11.082   1.823  -8.076  1.00  0.00     0.031 C 
ATOM     43  C   UNL     1       9.587  -2.869  -7.032  1.00  0.00     0.029 A 
ATOM     44  N   UNL     1      10.385  -2.482  -9.084  1.00  0.00    -0.354 N 
ATOM     45  C   UNL     1      11.605   1.494 -10.278  1.00  0.00     0.074 A 
ATOM     46  C   UNL     1      11.459   2.436  -9.189  1.00  0.00     0.031 C 
ATOM     47  C   UNL     1       9.521  -4.024  -7.713  1.00  0.00     0.029 A 
ATOM     48  C   UNL     1      10.002  -3.803  -9.073  1.00  0.00     0.049 A 
ATOM     49  H   UNL     1      10.788  -2.045  -9.868  1.00  0.00     0.167 HD
ATOM     50  C   UNL     1      12.068   1.815 -11.510  1.00  0.00     0.037 A 
ATOM     51  C   UNL     1      10.016  -4.728 -10.053  1.00  0.00     0.037 A 
ATOM     52  C   UNL     1      12.243   0.865 -12.577  1.00  0.00     0.049 A 
ATOM     53  C   UNL     1      10.538  -4.347 -11.412  1.00  0.00     0.074 A 
ATOM     54  C   UNL     1      12.787   1.074 -13.832  1.00  0.00     0.029 A 
ATOM     55  N   UNL     1      11.872  -0.470 -12.519  1.00  0.00    -0.354 N 
ATOM     56  N   UNL     1      10.992  -3.187 -11.823  1.00  0.00    -0.248 NA
ATOM     57  C   UNL     1      10.552  -5.397 -12.441  1.00  0.00     0.031 C 
ATOM     58  C   UNL     1      12.702  -0.124 -14.550  1.00  0.00     0.029 A 
ATOM     59  C   UNL     1      12.148  -1.091 -13.726  1.00  0.00     0.049 A 
ATOM     60  H   UNL     1      11.471  -0.912 -11.735  1.00  0.00     0.167 HD
ATOM     61  C   UNL     1      11.364  -3.373 -13.150  1.00  0.00     0.074 A 
ATOM     62  C   UNL     1      11.095  -4.760 -13.469  1.00  0.00     0.031 C 
ATOM     63  C   UNL     1      11.881  -2.475 -14.025  1.00  0.00     0.037 A 
BRANCH  50  64
ATOM     64  C   UNL     1      12.424   3.252 -11.774  1.00  0.00     0.058 A 
ATOM     65  C   UNL     1      13.557   3.848 -11.200  1.00  0.00     0.135 A 
ATOM     66  C   UNL     1      11.648   4.027 -12.651  1.00  0.00     0.135 A 
ATOM     67  F   UNL     1      14.325   3.157 -10.343  1.00  0.00    -0.206 F 
ATOM     68  C   UNL     1      13.896   5.171 -11.467  1.00  0.00     0.059 A 
ATOM     69  C   UNL     1      11.983   5.344 -12.953  1.00  0.00     0.059 A 
ATOM     70  F   UNL     1      10.553   3.506 -13.226  1.00  0.00    -0.206 F 
ATOM     71  C   UNL     1      13.103   5.911 -12.345  1.00  0.00     0.060 A 
BRANCH  71  72
ATOM     72  S   UNL     1      13.564   7.621 -12.690  1.00  0.00     0.124 S 
ATOM     73  O   UNL     1      13.188   8.280 -11.442  1.00  0.00    -0.237 OA
ATOM     74  O   UNL     1      14.998   7.514 -12.941  1.00  0.00    -0.237 OA
ATOM     75  O   UNL     1      12.751   7.966 -13.851  1.00  0.00    -0.744 OA
ENDBRANCH  71  72
ENDBRANCH  50  64
BRANCH  51  76
ATOM     76  C   UNL     1       9.522  -6.105  -9.786  1.00  0.00     0.058 A 
ATOM     77  C   UNL     1      10.407  -7.191  -9.726  1.00  0.00     0.135 A 
ATOM     78  C   UNL     1       8.157  -6.361  -9.578  1.00  0.00     0.135 A 
ATOM     79  F   UNL     1      11.720  -6.998  -9.924  1.00  0.00    -0.206 F 
ATOM     80  C   UNL     1       9.957  -8.486  -9.487  1.00  0.00     0.059 A 
ATOM     81  C   UNL     1       7.686  -7.643  -9.313  1.00  0.00     0.059 A 
ATOM     82  F   UNL     1       7.271  -5.354  -9.607  1.00  0.00    -0.206 F 
ATOM     83  C   UNL     1       8.593  -8.702  -9.281  1.00  0.00     0.060 A 
BRANCH  83  84
ATOM     84  S   UNL     1       8.024 -10.379  -8.929  1.00  0.00     0.124 S 
ATOM     85  O   UNL     1       8.118 -11.003 -10.243  1.00  0.00    -0.237 OA
ATOM     86  O   UNL     1       8.993 -10.830  -7.935  1.00  0.00    -0.237 OA
ATOM     87  O   UNL     1       6.670 -10.172  -8.422  1.00  0.00    -0.744 OA
ENDBRANCH  83  84
ENDBRANCH  51  76
BRANCH  63  88
ATOM     88  C   UNL     1      12.214  -2.963 -15.407  1.00  0.00     0.058 A 
ATOM     89  C   UNL     1      11.214  -3.221 -16.355  1.00  0.00     0.135 A 
ATOM     90  C   UNL     1      13.553  -3.100 -15.809  1.00  0.00     0.135 A 
ATOM     91  F   UNL     1       9.919  -3.114 -16.018  1.00  0.00    -0.206 F 
ATOM     92  C   UNL     1      11.528  -3.606 -17.654  1.00  0.00     0.059 A 
ATOM     93  C   UNL     1      13.891  -3.459 -17.109  1.00  0.00     0.059 A 
ATOM     94  F   UNL     1      14.548  -2.857 -14.940  1.00  0.00    -0.206 F 
ATOM     95  C   UNL     1      12.870  -3.716 -18.024  1.00  0.00     0.060 A 
BRANCH  95  96
ATOM     96  S   UNL     1      13.264  -4.159 -19.729  1.00  0.00     0.124 S 
ATOM     97  O   UNL     1      12.936  -5.581 -19.747  1.00  0.00    -0.237 OA
ATOM     98  O   UNL     1      12.372  -3.292 -20.492  1.00  0.00    -0.237 OA
ATOM     99  O   UNL     1      14.685  -3.841 -19.843  1.00  0.00    -0.744 OA
ENDBRANCH  95  96
ENDBRANCH  63  88
ENDBRANCH  37  38
ENDBRANCH  29  32
ENDBRANCH  27  28
ENDBRANCH  26  27
ENDBRANCH   1  26
TORSDOF 17
