REMARK SMILES O=C(NCCCCNC(=O)c1cc(/N=C/c2ccc([N+](=O)[O-])cc2)ccc1O)c1ccc(-c2c3nc(c(-c4c(F)cc(S(=O)(=O)[O-])cc4F)c4ccc([nH]4)c(-c4c(F)cc(S(=O)(=O)[O-])cc4F)c4nc(c(-c5c(F)cc(S(=O)(=O)[O-])cc5F)c5ccc2[nH]5)C=C4)C=C3)cc1
REMARK SMILES IDX 5 1 4 2 3 3 1 4 2 5 29 7 30 8 94 9 31 10 93 11 32 12 33 13
REMARK SMILES IDX 34 14 87 15 35 16 92 17 86 18 88 19 36 20 91 21 85 22 84 23
REMARK SMILES IDX 37 25 71 26 50 27 70 28 51 29 54 30 69 31 89 32 52 33 53 34
REMARK SMILES IDX 68 36 90 37 55 38 38 39 39 40 48 41 40 42 41 43 47 44 49 45
REMARK SMILES IDX 42 46 43 47 44 48 45 49 46 50 72 51 73 52 82 53 74 54 75 55
REMARK SMILES IDX 81 56 83 57 76 58 77 59 78 60 79 61 80 62 56 63 57 64 66 65
REMARK SMILES IDX 58 66 59 67 65 68 67 69 60 70 61 71 62 72 63 73 64 74 6 75
REMARK SMILES IDX 7 76 8 77 9 78 10 80 11 81 12 82 27 83 13 84 26 85 25 86
REMARK SMILES IDX 28 87 14 89 15 90 16 91 17 92 24 93 18 94 23 95 19 96 20 97
REMARK SMILES IDX 21 98 22 99
REMARK H PARENT 3 6 88 24 54 35 8 79 28 88
REMARK Flexibility Score: inf
ROOT
ATOM      1  C   UNL     1       4.867  -0.656  -2.726  1.00  0.00     0.023 C 
ENDROOT
BRANCH   1   2
ATOM      2  C   UNL     1       4.551   0.084  -1.433  1.00  0.00     0.116 C 
BRANCH   2   3
ATOM      3  N   UNL     1       3.123   0.234  -1.189  1.00  0.00    -0.352 N 
ATOM      4  O   UNL     1       1.166  -0.015  -0.092  1.00  0.00    -0.269 OA
ATOM      5  C   UNL     1       2.390  -0.106  -0.075  1.00  0.00     0.251 C 
ATOM      6  H   UNL     1       2.608   0.635  -1.926  1.00  0.00     0.163 HD
BRANCH   5   7
ATOM      7  C   UNL     1       3.084  -0.614   1.130  1.00  0.00     0.039 A 
ATOM      8  C   UNL     1       4.235   0.017   1.601  1.00  0.00     0.014 A 
ATOM      9  C   UNL     1       2.593  -1.752   1.778  1.00  0.00     0.014 A 
ATOM     10  C   UNL     1       4.987  -0.583   2.604  1.00  0.00     0.010 A 
ATOM     11  C   UNL     1       3.303  -2.302   2.852  1.00  0.00     0.010 A 
ATOM     12  C   UNL     1       4.528  -1.745   3.247  1.00  0.00    -0.014 A 
BRANCH  12  13
ATOM     13  C   UNL     1       5.338  -2.312   4.357  1.00  0.00     0.031 A 
ATOM     14  C   UNL     1       5.981  -3.669   4.249  1.00  0.00     0.074 A 
ATOM     15  C   UNL     1       5.548  -1.550   5.449  1.00  0.00     0.049 A 
ATOM     16  N   UNL     1       6.773  -4.272   5.099  1.00  0.00    -0.248 NA
ATOM     17  C   UNL     1       5.695  -4.456   3.039  1.00  0.00     0.031 C 
ATOM     18  C   UNL     1       4.955  -0.228   5.677  1.00  0.00     0.029 A 
ATOM     19  N   UNL     1       6.336  -1.753   6.552  1.00  0.00    -0.354 N 
ATOM     20  C   UNL     1       7.074  -5.507   4.537  1.00  0.00     0.074 A 
ATOM     21  C   UNL     1       6.354  -5.582   3.283  1.00  0.00     0.031 C 
ATOM     22  C   UNL     1       5.444   0.284   6.815  1.00  0.00     0.029 A 
ATOM     23  C   UNL     1       6.341  -0.691   7.424  1.00  0.00     0.049 A 
ATOM     24  H   UNL     1       6.848  -2.579   6.704  1.00  0.00     0.167 HD
ATOM     25  C   UNL     1       7.885  -6.482   5.016  1.00  0.00     0.037 A 
ATOM     26  C   UNL     1       6.990  -0.518   8.591  1.00  0.00     0.037 A 
ATOM     27  C   UNL     1       8.609  -6.396   6.260  1.00  0.00     0.049 A 
ATOM     28  C   UNL     1       7.897  -1.605   9.087  1.00  0.00     0.074 A 
ATOM     29  C   UNL     1       9.454  -7.332   6.833  1.00  0.00     0.029 A 
ATOM     30  N   UNL     1       8.582  -5.307   7.120  1.00  0.00    -0.354 N 
ATOM     31  N   UNL     1       8.170  -2.763   8.536  1.00  0.00    -0.248 NA
ATOM     32  C   UNL     1       8.583  -1.364  10.362  1.00  0.00     0.031 C 
ATOM     33  C   UNL     1       9.918  -6.819   8.051  1.00  0.00     0.029 A 
ATOM     34  C   UNL     1       9.391  -5.550   8.219  1.00  0.00     0.049 A 
ATOM     35  H   UNL     1       8.065  -4.483   6.971  1.00  0.00     0.167 HD
ATOM     36  C   UNL     1       9.059  -3.392   9.398  1.00  0.00     0.074 A 
ATOM     37  C   UNL     1       9.303  -2.470  10.490  1.00  0.00     0.031 C 
ATOM     38  C   UNL     1       9.614  -4.624   9.301  1.00  0.00     0.037 A 
BRANCH  25  39
ATOM     39  C   UNL     1       8.036  -7.734   4.196  1.00  0.00     0.058 A 
ATOM     40  C   UNL     1       8.800  -7.753   3.019  1.00  0.00     0.135 A 
ATOM     41  C   UNL     1       7.457  -8.943   4.619  1.00  0.00     0.135 A 
ATOM     42  F   UNL     1       9.364  -6.623   2.562  1.00  0.00    -0.206 F 
ATOM     43  C   UNL     1       8.973  -8.920   2.281  1.00  0.00     0.059 A 
ATOM     44  C   UNL     1       7.633 -10.127   3.908  1.00  0.00     0.059 A 
ATOM     45  F   UNL     1       6.716  -8.982   5.737  1.00  0.00    -0.206 F 
ATOM     46  C   UNL     1       8.385 -10.103   2.733  1.00  0.00     0.060 A 
BRANCH  46  47
ATOM     47  S   UNL     1       8.629 -11.613   1.773  1.00  0.00     0.124 S 
ATOM     48  O   UNL     1       7.740 -11.382   0.638  1.00  0.00    -0.237 OA
ATOM     49  O   UNL     1      10.057 -11.570   1.477  1.00  0.00    -0.237 OA
ATOM     50  O   UNL     1       8.214 -12.670   2.690  1.00  0.00    -0.744 OA
ENDBRANCH  46  47
ENDBRANCH  25  39
BRANCH  26  51
ATOM     51  C   UNL     1       6.790   0.734   9.364  1.00  0.00     0.058 A 
ATOM     52  C   UNL     1       7.806   1.693   9.472  1.00  0.00     0.135 A 
ATOM     53  C   UNL     1       5.562   1.004   9.987  1.00  0.00     0.135 A 
ATOM     54  F   UNL     1       8.997   1.477   8.894  1.00  0.00    -0.206 F 
ATOM     55  C   UNL     1       7.618   2.873  10.184  1.00  0.00     0.059 A 
ATOM     56  C   UNL     1       5.341   2.188  10.682  1.00  0.00     0.059 A 
ATOM     57  F   UNL     1       4.552   0.126   9.894  1.00  0.00    -0.206 F 
ATOM     58  C   UNL     1       6.380   3.111  10.785  1.00  0.00     0.060 A 
BRANCH  58  59
ATOM     59  S   UNL     1       6.119   4.666  11.665  1.00  0.00     0.124 S 
ATOM     60  O   UNL     1       6.768   4.392  12.941  1.00  0.00    -0.237 OA
ATOM     61  O   UNL     1       6.791   5.631  10.800  1.00  0.00    -0.237 OA
ATOM     62  O   UNL     1       4.664   4.783  11.706  1.00  0.00    -0.744 OA
ENDBRANCH  58  59
ENDBRANCH  26  51
BRANCH  38  63
ATOM     63  C   UNL     1      10.542  -5.036  10.407  1.00  0.00     0.058 A 
ATOM     64  C   UNL     1      10.054  -5.397  11.673  1.00  0.00     0.135 A 
ATOM     65  C   UNL     1      11.929  -5.077  10.199  1.00  0.00     0.135 A 
ATOM     66  F   UNL     1       8.735  -5.366  11.923  1.00  0.00    -0.206 F 
ATOM     67  C   UNL     1      10.913  -5.752  12.707  1.00  0.00     0.059 A 
ATOM     68  C   UNL     1      12.805  -5.450  11.213  1.00  0.00     0.059 A 
ATOM     69  F   UNL     1      12.444  -4.749   9.004  1.00  0.00    -0.206 F 
ATOM     70  C   UNL     1      12.288  -5.769  12.469  1.00  0.00     0.060 A 
BRANCH  70  71
ATOM     71  S   UNL     1      13.397  -6.233  13.816  1.00  0.00     0.124 S 
ATOM     72  O   UNL     1      13.432  -5.005  14.602  1.00  0.00    -0.237 OA
ATOM     73  O   UNL     1      12.697  -7.358  14.428  1.00  0.00    -0.237 OA
ATOM     74  O   UNL     1      14.639  -6.576  13.128  1.00  0.00    -0.744 OA
ENDBRANCH  70  71
ENDBRANCH  38  63
ENDBRANCH  12  13
ENDBRANCH   5   7
ENDBRANCH   2   3
ENDBRANCH   1   2
BRANCH   1  75
ATOM     75  C   UNL     1       4.371   0.017  -4.002  1.00  0.00     0.023 C 
BRANCH  75  76
ATOM     76  C   UNL     1       4.782   1.476  -4.169  1.00  0.00     0.116 C 
BRANCH  76  77
ATOM     77  N   UNL     1       6.223   1.653  -4.242  1.00  0.00    -0.352 N 
ATOM     78  C   UNL     1       6.942   2.324  -5.202  1.00  0.00     0.255 C 
ATOM     79  H   UNL     1       6.747   1.244  -3.516  1.00  0.00     0.163 HD
ATOM     80  O   UNL     1       8.167   2.374  -5.161  1.00  0.00    -0.269 OA
BRANCH  78  81
ATOM     81  C   UNL     1       6.226   2.917  -6.344  1.00  0.00     0.083 A 
ATOM     82  C   UNL     1       6.426   2.331  -7.599  1.00  0.00     0.046 A 
ATOM     83  C   UNL     1       5.327   3.976  -6.190  1.00  0.00     0.128 A 
ATOM     84  C   UNL     1       5.687   2.764  -8.698  1.00  0.00     0.064 A 
ATOM     85  C   UNL     1       4.575   4.407  -7.279  1.00  0.00     0.049 A 
ATOM     86  C   UNL     1       4.741   3.784  -8.520  1.00  0.00     0.032 A 
BRANCH  83  87
ATOM     87  O   UNL     1       5.150   4.559  -4.968  1.00  0.00    -0.507 OA
ATOM     88  H   UNL     1       5.656   4.270  -4.234  1.00  0.00     0.293 HD
ENDBRANCH  83  87
BRANCH  84  89
ATOM     89  N   UNL     1       5.866   2.101  -9.923  1.00  0.00    -0.256 NA
ATOM     90  C   UNL     1       6.004   2.817 -10.990  1.00  0.00     0.119 C 
BRANCH  90  91
ATOM     91  C   UNL     1       6.212   2.204 -12.316  1.00  0.00    -0.007 A 
ATOM     92  C   UNL     1       6.157   3.023 -13.447  1.00  0.00     0.017 A 
ATOM     93  C   UNL     1       6.475   0.835 -12.441  1.00  0.00     0.017 A 
ATOM     94  C   UNL     1       6.372   2.474 -14.714  1.00  0.00     0.086 A 
ATOM     95  C   UNL     1       6.699   0.280 -13.705  1.00  0.00     0.086 A 
ATOM     96  C   UNL     1       6.649   1.104 -14.838  1.00  0.00     0.269 A 
BRANCH  96  97
ATOM     97  N   UNL     1       6.894   0.533 -16.168  1.00  0.00     0.062 N 
ATOM     98  O   UNL     1       6.843   1.299 -17.142  1.00  0.00    -0.258 OA
ATOM     99  O   UNL     1       7.139  -0.679 -16.242  1.00  0.00    -0.258 OA
ENDBRANCH  96  97
ENDBRANCH  90  91
ENDBRANCH  84  89
ENDBRANCH  78  81
ENDBRANCH  76  77
ENDBRANCH  75  76
ENDBRANCH   1  75
TORSDOF 18
