REMARK SMILES C[C@H](NC(=O)N1CC[C@H](C(=O)NCCCCNC(=O)c2ccc(-c3c4nc(c(-c5c(F)cc(S(=O)(=O)[O-])cc5F)c5ccc([nH]5)c(-c5c(F)cc(S(=O)(=O)[O-])cc5F)c5nc(c(-c6c(F)cc(S(=O)(=O)[O-])cc6F)c6ccc3[nH]6)C=C5)C=C4)cc2)[C@@H]1C)[C@@H]1CCCO1
REMARK SMILES IDX 14 1 13 2 12 3 10 4 11 5 9 7 6 8 7 9 86 10 8 11 87 12 4 13
REMARK SMILES IDX 3 14 5 16 2 17 1 18 88 19 89 20 92 21 90 22 91 23 15 24
REMARK SMILES IDX 16 25 17 26 18 27 19 29 20 30 21 31 85 32 22 33 84 34 23 35
REMARK SMILES IDX 24 36 25 37 78 38 26 39 83 40 77 41 79 42 27 43 82 44 76 45
REMARK SMILES IDX 75 46 28 48 62 49 41 50 61 51 42 52 45 53 60 54 80 55 43 56
REMARK SMILES IDX 44 57 59 59 81 60 46 61 29 62 30 63 39 64 31 65 32 66 38 67
REMARK SMILES IDX 40 68 33 69 34 70 35 71 36 72 37 73 63 74 64 75 73 76 65 77
REMARK SMILES IDX 66 78 72 79 74 80 67 81 68 82 69 83 70 84 71 85 47 86 48 87
REMARK SMILES IDX 57 88 49 89 50 90 56 91 58 92 51 93 52 94 53 95 54 96 55 97
REMARK H PARENT 12 6 3 15 17 28 79 47 45 58
REMARK Flexibility Score: inf
ROOT
ATOM      1  C   UNL     1       5.157   7.591   0.637  1.00  0.00     0.023 C 
ENDROOT
BRANCH   1   2
ATOM      2  C   UNL     1       5.137   6.074   0.509  1.00  0.00     0.116 C 
BRANCH   2   3
ATOM      3  N   UNL     1       5.228   5.397   1.791  1.00  0.00    -0.356 N 
ATOM      4  C   UNL     1       4.644   4.223   2.180  1.00  0.00     0.225 C 
ATOM      5  O   UNL     1       4.910   3.793   3.297  1.00  0.00    -0.275 OA
ATOM      6  H   UNL     1       5.783   5.844   2.470  1.00  0.00     0.163 HD
BRANCH   4   7
ATOM      7  C   UNL     1       3.691   3.559   1.204  1.00  0.00     0.102 C 
ATOM      8  N   UNL     1       3.006   1.369   0.601  1.00  0.00    -0.321 N 
ATOM      9  C   UNL     1       4.291   1.557  -0.025  1.00  0.00     0.122 C 
ATOM     10  C   UNL     1       2.829   2.366   1.663  1.00  0.00     0.096 C 
ATOM     11  C   UNL     1       4.420   3.065  -0.062  1.00  0.00     0.037 C 
ATOM     12  C   UNL     1       3.091   1.739   3.028  1.00  0.00     0.032 C 
BRANCH   8  13
ATOM     13  C   UNL     1       2.246   0.290   0.281  1.00  0.00     0.317 C 
ATOM     14  N   UNL     1       0.894   0.370   0.324  1.00  0.00    -0.333 N 
ATOM     15  H   UNL     1       0.425  -0.491   0.409  1.00  0.00     0.165 HD
ATOM     16  O   UNL     1       2.733  -0.753  -0.159  1.00  0.00    -0.249 OA
BRANCH  14  17
ATOM     17  C   UNL     1       0.028   1.548   0.262  1.00  0.00     0.109 C 
ATOM     18  C   UNL     1       0.396   2.467  -0.914  1.00  0.00     0.034 C 
BRANCH  17  19
ATOM     19  C   UNL     1      -1.475   1.183   0.267  1.00  0.00     0.140 C 
ATOM     20  C   UNL     1      -1.940   0.287  -0.880  1.00  0.00     0.036 C 
ATOM     21  O   UNL     1      -2.261   2.395   0.201  1.00  0.00    -0.376 OA
ATOM     22  C   UNL     1      -3.256   0.906  -1.286  1.00  0.00     0.031 C 
ATOM     23  C   UNL     1      -3.011   2.369  -1.017  1.00  0.00     0.160 C 
ENDBRANCH  17  19
ENDBRANCH  14  17
ENDBRANCH   8  13
ENDBRANCH   4   7
ENDBRANCH   2   3
ENDBRANCH   1   2
BRANCH   1  24
ATOM     24  C   UNL     1       6.378   8.158   1.356  1.00  0.00     0.023 C 
BRANCH  24  25
ATOM     25  C   UNL     1       7.717   7.612   0.879  1.00  0.00     0.116 C 
BRANCH  25  26
ATOM     26  N   UNL     1       7.953   7.867  -0.533  1.00  0.00    -0.352 N 
ATOM     27  C   UNL     1       9.002   8.522  -1.128  1.00  0.00     0.251 C 
ATOM     28  H   UNL     1       7.265   7.522  -1.147  1.00  0.00     0.163 HD
ATOM     29  O   UNL     1       8.950   8.797  -2.326  1.00  0.00    -0.269 OA
BRANCH  27  30
ATOM     30  C   UNL     1      10.176   8.913  -0.321  1.00  0.00     0.039 A 
ATOM     31  C   UNL     1      10.717  10.189  -0.486  1.00  0.00     0.014 A 
ATOM     32  C   UNL     1      10.735   8.025   0.602  1.00  0.00     0.014 A 
ATOM     33  C   UNL     1      11.796  10.586   0.306  1.00  0.00     0.010 A 
ATOM     34  C   UNL     1      11.742   8.458   1.458  1.00  0.00     0.010 A 
ATOM     35  C   UNL     1      12.304   9.733   1.300  1.00  0.00    -0.014 A 
BRANCH  35  36
ATOM     36  C   UNL     1      13.463  10.135   2.137  1.00  0.00     0.031 A 
ATOM     37  C   UNL     1      14.746   9.345   2.064  1.00  0.00     0.074 A 
ATOM     38  C   UNL     1      13.356  11.181   2.980  1.00  0.00     0.049 A 
ATOM     39  N   UNL     1      15.860   9.515   2.729  1.00  0.00    -0.248 NA
ATOM     40  C   UNL     1      14.771   8.194   1.145  1.00  0.00     0.031 C 
ATOM     41  C   UNL     1      12.150  11.988   3.182  1.00  0.00     0.029 A 
ATOM     42  N   UNL     1      14.276  11.745   3.828  1.00  0.00    -0.354 N 
ATOM     43  C   UNL     1      16.705   8.489   2.320  1.00  0.00     0.074 A 
ATOM     44  C   UNL     1      15.956   7.662   1.402  1.00  0.00     0.031 C 
ATOM     45  C   UNL     1      12.414  12.961   4.070  1.00  0.00     0.029 A 
ATOM     46  C   UNL     1      13.794  12.827   4.528  1.00  0.00     0.049 A 
ATOM     47  H   UNL     1      15.195  11.407   3.927  1.00  0.00     0.167 HD
ATOM     48  C   UNL     1      18.000   8.274   2.652  1.00  0.00     0.037 A 
ATOM     49  C   UNL     1      14.397  13.620   5.435  1.00  0.00     0.037 A 
ATOM     50  C   UNL     1      18.751   9.123   3.538  1.00  0.00     0.049 A 
ATOM     51  C   UNL     1      15.843  13.369   5.775  1.00  0.00     0.074 A 
ATOM     52  C   UNL     1      20.084   9.028   3.895  1.00  0.00     0.029 A 
ATOM     53  N   UNL     1      18.236  10.226   4.204  1.00  0.00    -0.354 N 
ATOM     54  N   UNL     1      16.647  12.434   5.326  1.00  0.00    -0.248 NA
ATOM     55  C   UNL     1      16.469  14.290   6.733  1.00  0.00     0.031 C 
ATOM     56  C   UNL     1      20.363  10.044   4.814  1.00  0.00     0.029 A 
ATOM     57  C   UNL     1      19.221  10.810   4.982  1.00  0.00     0.049 A 
ATOM     58  H   UNL     1      17.308  10.546   4.133  1.00  0.00     0.167 HD
ATOM     59  C   UNL     1      17.883  12.678   5.918  1.00  0.00     0.074 A 
ATOM     60  C   UNL     1      17.721  13.856   6.745  1.00  0.00     0.031 C 
ATOM     61  C   UNL     1      19.046  11.991   5.790  1.00  0.00     0.037 A 
BRANCH  48  62
ATOM     62  C   UNL     1      18.691   7.082   2.047  1.00  0.00     0.058 A 
ATOM     63  C   UNL     1      19.002   7.024   0.678  1.00  0.00     0.135 A 
ATOM     64  C   UNL     1      19.091   6.004   2.853  1.00  0.00     0.135 A 
ATOM     65  F   UNL     1      18.626   8.017  -0.144  1.00  0.00    -0.206 F 
ATOM     66  C   UNL     1      19.664   5.932   0.127  1.00  0.00     0.059 A 
ATOM     67  C   UNL     1      19.783   4.916   2.329  1.00  0.00     0.059 A 
ATOM     68  F   UNL     1      18.817   6.004   4.167  1.00  0.00    -0.206 F 
ATOM     69  C   UNL     1      20.056   4.885   0.962  1.00  0.00     0.060 A 
BRANCH  69  70
ATOM     70  S   UNL     1      20.941   3.490   0.234  1.00  0.00     0.124 S 
ATOM     71  O   UNL     1      19.880   2.837  -0.527  1.00  0.00    -0.237 OA
ATOM     72  O   UNL     1      21.971   4.155  -0.557  1.00  0.00    -0.237 OA
ATOM     73  O   UNL     1      21.426   2.751   1.395  1.00  0.00    -0.744 OA
ENDBRANCH  69  70
ENDBRANCH  48  62
BRANCH  49  74
ATOM     74  C   UNL     1      13.650  14.742   6.067  1.00  0.00     0.058 A 
ATOM     75  C   UNL     1      13.979  16.079   5.796  1.00  0.00     0.135 A 
ATOM     76  C   UNL     1      12.600  14.501   6.967  1.00  0.00     0.135 A 
ATOM     77  F   UNL     1      14.977  16.364   4.946  1.00  0.00    -0.206 F 
ATOM     78  C   UNL     1      13.320  17.135   6.418  1.00  0.00     0.059 A 
ATOM     79  C   UNL     1      11.905  15.540   7.578  1.00  0.00     0.059 A 
ATOM     80  F   UNL     1      12.229  13.241   7.247  1.00  0.00    -0.206 F 
ATOM     81  C   UNL     1      12.284  16.854   7.309  1.00  0.00     0.060 A 
BRANCH  81  82
ATOM     82  S   UNL     1      11.418  18.232   8.093  1.00  0.00     0.124 S 
ATOM     83  O   UNL     1      12.420  18.709   9.038  1.00  0.00    -0.237 OA
ATOM     84  O   UNL     1      11.142  19.106   6.957  1.00  0.00    -0.237 OA
ATOM     85  O   UNL     1      10.243  17.597   8.684  1.00  0.00    -0.744 OA
ENDBRANCH  81  82
ENDBRANCH  49  74
BRANCH  61  86
ATOM     86  C   UNL     1      20.250  12.528   6.515  1.00  0.00     0.058 A 
ATOM     87  C   UNL     1      20.361  12.476   7.913  1.00  0.00     0.135 A 
ATOM     88  C   UNL     1      21.323  13.076   5.793  1.00  0.00     0.135 A 
ATOM     89  F   UNL     1      19.364  11.963   8.652  1.00  0.00    -0.206 F 
ATOM     90  C   UNL     1      21.474  12.986   8.573  1.00  0.00     0.059 A 
ATOM     91  C   UNL     1      22.460  13.561   6.429  1.00  0.00     0.059 A 
ATOM     92  F   UNL     1      21.276  13.136   4.453  1.00  0.00    -0.206 F 
ATOM     93  C   UNL     1      22.518  13.530   7.821  1.00  0.00     0.060 A 
BRANCH  93  94
ATOM     94  S   UNL     1      23.959  14.186   8.688  1.00  0.00     0.124 S 
ATOM     95  O   UNL     1      23.426  15.425   9.245  1.00  0.00    -0.237 OA
ATOM     96  O   UNL     1      24.250  13.131   9.653  1.00  0.00    -0.237 OA
ATOM     97  O   UNL     1      24.949  14.348   7.628  1.00  0.00    -0.744 OA
ENDBRANCH  93  94
ENDBRANCH  61  86
ENDBRANCH  35  36
ENDBRANCH  27  30
ENDBRANCH  25  26
ENDBRANCH  24  25
ENDBRANCH   1  24
TORSDOF 17
