REMARK SMILES CC[NH2+][C@]1(C(=O)NCCCCNC(=O)c2ccc(-c3c4nc(c(-c5c(F)cc(S(=O)(=O)[O-])cc5F)c5ccc([nH]5)c(-c5c(F)cc(S(=O)(=O)[O-])cc5F)c5nc(c(-c6c(F)cc(S(=O)(=O)[O-])cc6F)c6ccc3[nH]6)C=C5)C=C4)cc2)CCC[C@@H]1CC[N@H+]1C[C@H](C)OC[C@@H]1C
REMARK SMILES IDX 9 1 8 2 7 3 5 4 6 5 4 7 81 8 84 9 82 10 83 11 3 12 2 15 1 16
REMARK SMILES IDX 85 17 86 18 87 19 88 20 93 21 89 23 92 24 94 25 91 26 90 27
REMARK SMILES IDX 10 28 11 29 12 30 13 31 14 33 15 34 16 35 80 36 17 37 79 38
REMARK SMILES IDX 18 39 19 40 20 41 73 42 21 43 78 44 72 45 74 46 22 47 77 48
REMARK SMILES IDX 71 49 70 50 23 52 57 53 36 54 56 55 37 56 40 57 55 58 75 59
REMARK SMILES IDX 38 60 39 61 54 63 76 64 41 65 24 66 25 67 34 68 26 69 27 70
REMARK SMILES IDX 33 71 35 72 28 73 29 74 30 75 31 76 32 77 58 78 59 79 68 80
REMARK SMILES IDX 60 81 61 82 67 83 69 84 62 85 63 86 64 87 65 88 66 89 42 90
REMARK SMILES IDX 43 91 52 92 44 93 45 94 51 95 53 96 46 97 47 98 48 99 49 100
REMARK SMILES IDX 50 101
REMARK H PARENT 7 6 3 13 3 14 87 22 12 32 74 51 40 62
REMARK Flexibility Score: inf
ROOT
ATOM      1  C   UNL     1       4.312  -1.303  -3.157  1.00  0.00     0.023 C 
ENDROOT
BRANCH   1   2
ATOM      2  C   UNL     1       3.032  -2.137  -3.044  1.00  0.00     0.116 C 
BRANCH   2   3
ATOM      3  N   UNL     1       2.094  -1.520  -2.130  1.00  0.00    -0.351 N 
ATOM      4  C   UNL     1       1.529  -0.283  -2.242  1.00  0.00     0.281 C 
ATOM      5  O   UNL     1       1.609   0.416  -1.222  1.00  0.00    -0.268 OA
ATOM      6  H   UNL     1       1.836  -2.050  -1.342  1.00  0.00     0.163 HD
BRANCH   4   7
ATOM      7  C   UNL     1       0.679   0.182  -3.484  1.00  0.00     0.178 C 
ATOM      8  C   UNL     1       1.171   1.633  -3.766  1.00  0.00     0.079 C 
ATOM      9  C   UNL     1       0.906  -0.466  -4.887  1.00  0.00     0.066 C 
ATOM     10  C   UNL     1       0.724   1.962  -5.179  1.00  0.00     0.008 C 
ATOM     11  C   UNL     1       0.906   0.665  -5.939  1.00  0.00     0.011 C 
BRANCH   7  12
ATOM     12  N   UNL     1      -0.760   0.314  -3.118  1.00  0.00    -0.334 N 
ATOM     13  H   UNL     1      -0.939   1.294  -2.899  1.00  0.00     0.347 HD
ATOM     14  H   UNL     1      -1.283  -0.035  -3.921  1.00  0.00     0.347 HD
BRANCH  12  15
ATOM     15  C   UNL     1      -1.203  -0.487  -1.978  1.00  0.00     0.257 C 
ATOM     16  C   UNL     1      -2.718  -0.516  -1.830  1.00  0.00     0.071 C 
ENDBRANCH  12  15
ENDBRANCH   7  12
BRANCH   9  17
ATOM     17  C   UNL     1       0.119  -1.739  -5.316  1.00  0.00     0.072 C 
BRANCH  17  18
ATOM     18  C   UNL     1      -1.429  -1.752  -5.399  1.00  0.00     0.263 C 
BRANCH  18  19
ATOM     19  N   UNL     1      -1.992  -0.559  -6.030  1.00  0.00    -0.329 N 
ATOM     20  C   UNL     1      -2.006  -0.635  -7.510  1.00  0.00     0.294 C 
ATOM     21  C   UNL     1      -3.315  -0.145  -5.512  1.00  0.00     0.207 C 
ATOM     22  H   UNL     1      -1.342   0.178  -5.757  1.00  0.00     0.348 HD
ATOM     23  C   UNL     1      -3.278  -1.245  -8.144  1.00  0.00     0.170 C 
ATOM     24  C   UNL     1      -4.514  -0.815  -6.202  1.00  0.00     0.225 C 
ATOM     25  C   UNL     1      -3.412   1.384  -5.603  1.00  0.00     0.078 C 
ATOM     26  O   UNL     1      -4.465  -0.637  -7.618  1.00  0.00    -0.366 OA
ATOM     27  C   UNL     1      -3.291  -1.018  -9.651  1.00  0.00     0.045 C 
ENDBRANCH  18  19
ENDBRANCH  17  18
ENDBRANCH   9  17
ENDBRANCH   4   7
ENDBRANCH   2   3
ENDBRANCH   1   2
BRANCH   1  28
ATOM     28  C   UNL     1       5.252  -1.451  -1.954  1.00  0.00     0.023 C 
BRANCH  28  29
ATOM     29  C   UNL     1       5.694  -2.882  -1.668  1.00  0.00     0.116 C 
BRANCH  29  30
ATOM     30  N   UNL     1       6.240  -3.557  -2.837  1.00  0.00    -0.352 N 
ATOM     31  C   UNL     1       7.120  -4.613  -2.870  1.00  0.00     0.251 C 
ATOM     32  H   UNL     1       5.942  -3.215  -3.711  1.00  0.00     0.163 HD
ATOM     33  O   UNL     1       7.571  -5.018  -3.928  1.00  0.00    -0.269 OA
BRANCH  31  34
ATOM     34  C   UNL     1       7.535  -5.210  -1.587  1.00  0.00     0.039 A 
ATOM     35  C   UNL     1       8.895  -5.256  -1.278  1.00  0.00     0.014 A 
ATOM     36  C   UNL     1       6.573  -5.643  -0.671  1.00  0.00     0.014 A 
ATOM     37  C   UNL     1       9.290  -5.683  -0.011  1.00  0.00     0.010 A 
ATOM     38  C   UNL     1       6.966  -6.003   0.611  1.00  0.00     0.010 A 
ATOM     39  C   UNL     1       8.328  -6.025   0.953  1.00  0.00    -0.014 A 
BRANCH  39  40
ATOM     40  C   UNL     1       8.725  -6.409   2.328  1.00  0.00     0.031 A 
ATOM     41  C   UNL     1       8.451  -7.801   2.824  1.00  0.00     0.074 A 
ATOM     42  C   UNL     1       9.265  -5.484   3.146  1.00  0.00     0.049 A 
ATOM     43  N   UNL     1       8.659  -8.310   4.010  1.00  0.00    -0.248 NA
ATOM     44  C   UNL     1       7.833  -8.735   1.868  1.00  0.00     0.031 C 
ATOM     45  C   UNL     1       9.524  -4.087   2.791  1.00  0.00     0.029 A 
ATOM     46  N   UNL     1       9.685  -5.577   4.448  1.00  0.00    -0.354 N 
ATOM     47  C   UNL     1       8.186  -9.614   3.948  1.00  0.00     0.074 A 
ATOM     48  C   UNL     1       7.630  -9.802   2.626  1.00  0.00     0.031 C 
ATOM     49  C   UNL     1      10.081  -3.461   3.841  1.00  0.00     0.029 A 
ATOM     50  C   UNL     1      10.187  -4.401   4.952  1.00  0.00     0.049 A 
ATOM     51  H   UNL     1       9.632  -6.409   4.973  1.00  0.00     0.167 HD
ATOM     52  C   UNL     1       8.234 -10.576   4.900  1.00  0.00     0.037 A 
ATOM     53  C   UNL     1      10.675  -4.114   6.175  1.00  0.00     0.037 A 
ATOM     54  C   UNL     1       8.818 -10.388   6.202  1.00  0.00     0.049 A 
ATOM     55  C   UNL     1      10.732  -5.204   7.211  1.00  0.00     0.074 A 
ATOM     56  C   UNL     1       8.975 -11.314   7.217  1.00  0.00     0.029 A 
ATOM     57  N   UNL     1       9.344  -9.190   6.667  1.00  0.00    -0.354 N 
ATOM     58  N   UNL     1      10.340  -6.452   7.115  1.00  0.00    -0.248 NA
ATOM     59  C   UNL     1      11.302  -4.849   8.517  1.00  0.00     0.031 C 
ATOM     60  C   UNL     1       9.562 -10.667   8.310  1.00  0.00     0.029 A 
ATOM     61  C   UNL     1       9.811  -9.349   7.960  1.00  0.00     0.049 A 
ATOM     62  H   UNL     1       9.379  -8.351   6.152  1.00  0.00     0.167 HD
ATOM     63  C   UNL     1      10.641  -7.040   8.339  1.00  0.00     0.074 A 
ATOM     64  C   UNL     1      11.257  -6.012   9.154  1.00  0.00     0.031 C 
ATOM     65  C   UNL     1      10.429  -8.314   8.751  1.00  0.00     0.037 A 
BRANCH  52  66
ATOM     66  C   UNL     1       7.647 -11.918   4.561  1.00  0.00     0.058 A 
ATOM     67  C   UNL     1       8.261 -12.776   3.633  1.00  0.00     0.135 A 
ATOM     68  C   UNL     1       6.469 -12.361   5.181  1.00  0.00     0.135 A 
ATOM     69  F   UNL     1       9.380 -12.394   2.997  1.00  0.00    -0.206 F 
ATOM     70  C   UNL     1       7.709 -14.010   3.307  1.00  0.00     0.059 A 
ATOM     71  C   UNL     1       5.914 -13.604   4.891  1.00  0.00     0.059 A 
ATOM     72  F   UNL     1       5.840 -11.581   6.074  1.00  0.00    -0.206 F 
ATOM     73  C   UNL     1       6.533 -14.414   3.940  1.00  0.00     0.060 A 
BRANCH  73  74
ATOM     74  S   UNL     1       5.827 -16.017   3.504  1.00  0.00     0.124 S 
ATOM     75  O   UNL     1       5.261 -15.736   2.188  1.00  0.00    -0.237 OA
ATOM     76  O   UNL     1       6.997 -16.889   3.516  1.00  0.00    -0.237 OA
ATOM     77  O   UNL     1       4.856 -16.261   4.566  1.00  0.00    -0.744 OA
ENDBRANCH  73  74
ENDBRANCH  52  66
BRANCH  53  78
ATOM     78  C   UNL     1      11.180  -2.748   6.473  1.00  0.00     0.058 A 
ATOM     79  C   UNL     1      12.553  -2.506   6.624  1.00  0.00     0.135 A 
ATOM     80  C   UNL     1      10.306  -1.656   6.597  1.00  0.00     0.135 A 
ATOM     81  F   UNL     1      13.427  -3.519   6.518  1.00  0.00    -0.206 F 
ATOM     82  C   UNL     1      13.044  -1.236   6.906  1.00  0.00     0.059 A 
ATOM     83  C   UNL     1      10.775  -0.372   6.856  1.00  0.00     0.059 A 
ATOM     84  F   UNL     1       8.985  -1.831   6.442  1.00  0.00    -0.206 F 
ATOM     85  C   UNL     1      12.145  -0.173   7.019  1.00  0.00     0.060 A 
BRANCH  85  86
ATOM     86  S   UNL     1      12.797   1.480   7.339  1.00  0.00     0.124 S 
ATOM     87  O   UNL     1      13.161   1.384   8.748  1.00  0.00    -0.237 OA
ATOM     88  O   UNL     1      13.908   1.561   6.396  1.00  0.00    -0.237 OA
ATOM     89  O   UNL     1      11.664   2.350   7.037  1.00  0.00    -0.744 OA
ENDBRANCH  85  86
ENDBRANCH  53  78
BRANCH  65  90
ATOM     90  C   UNL     1      10.895  -8.679  10.132  1.00  0.00     0.058 A 
ATOM     91  C   UNL     1      10.212  -8.246  11.278  1.00  0.00     0.135 A 
ATOM     92  C   UNL     1      12.007  -9.519  10.306  1.00  0.00     0.135 A 
ATOM     93  F   UNL     1       9.147  -7.436  11.165  1.00  0.00    -0.206 F 
ATOM     94  C   UNL     1      10.627  -8.616  12.552  1.00  0.00     0.059 A 
ATOM     95  C   UNL     1      12.424  -9.923  11.570  1.00  0.00     0.059 A 
ATOM     96  F   UNL     1      12.688  -9.969   9.240  1.00  0.00    -0.206 F 
ATOM     97  C   UNL     1      11.734  -9.457  12.688  1.00  0.00     0.060 A 
BRANCH  97  98
ATOM     98  S   UNL     1      12.240  -9.963  14.345  1.00  0.00     0.124 S 
ATOM     99  O   UNL     1      12.884  -8.750  14.838  1.00  0.00    -0.237 OA
ATOM    100  O   UNL     1      10.967 -10.304  14.972  1.00  0.00    -0.237 OA
ATOM    101  O   UNL     1      13.132 -11.091  14.098  1.00  0.00    -0.744 OA
ENDBRANCH  97  98
ENDBRANCH  65  90
ENDBRANCH  39  40
ENDBRANCH  31  34
ENDBRANCH  29  30
ENDBRANCH  28  29
ENDBRANCH   1  28
TORSDOF 19
