REMARK SMILES CCn1ccc2ccc(C[NH+]3CCC4(CC3)C[C@H](C(=O)NCCCCNC(=O)c3ccc(-c5c6nc(c(-c7c(F)cc(S(=O)(=O)[O-])cc7F)c7ccc([nH]7)c(-c7c(F)cc(S(=O)(=O)[O-])cc7F)c7nc(c(-c8c(F)cc(S(=O)(=O)[O-])cc8F)c8ccc5[nH]8)C=C7)C=C6)cc3)N(C(C)=O)C4)cc21
REMARK SMILES IDX 23 1 22 2 21 3 19 4 20 5 18 7 11 8 12 9 16 10 13 12 15 13
REMARK SMILES IDX 14 14 17 15 99 16 95 17 10 18 9 19 3 20 4 21 101 22 5 23
REMARK SMILES IDX 6 24 100 25 7 26 8 27 2 28 1 29 96 30 97 31 98 32 24 33
REMARK SMILES IDX 25 34 26 35 27 36 28 38 29 39 30 40 94 41 31 42 93 43 32 44
REMARK SMILES IDX 33 45 34 46 87 47 35 48 92 49 86 50 88 51 36 52 91 53 85 54
REMARK SMILES IDX 84 55 37 57 71 58 50 59 70 60 51 61 54 62 69 63 89 64 52 65
REMARK SMILES IDX 53 66 68 68 90 69 55 70 38 71 39 72 48 73 40 74 41 75 47 76
REMARK SMILES IDX 49 77 42 78 43 79 44 80 45 81 46 82 72 83 73 84 82 85 74 86
REMARK SMILES IDX 75 87 81 88 83 89 76 90 77 91 78 92 79 93 80 94 56 95 57 96
REMARK SMILES IDX 66 97 58 98 59 99 65 100 67 101 60 102 61 103 62 104 63 105
REMARK SMILES IDX 64 106
REMARK H PARENT 21 6 11 11 26 37 88 56 54 67
REMARK Flexibility Score: inf
ROOT
ATOM      1  C   UNL     1      -3.067   1.528   9.414  1.00  0.00     0.023 C 
ENDROOT
BRANCH   1   2
ATOM      2  C   UNL     1      -2.820   0.644   8.205  1.00  0.00     0.116 C 
BRANCH   2   3
ATOM      3  N   UNL     1      -3.452   1.124   6.994  1.00  0.00    -0.354 N 
ATOM      4  C   UNL     1      -3.307   0.643   5.725  1.00  0.00     0.242 C 
ATOM      5  O   UNL     1      -3.893   1.228   4.809  1.00  0.00    -0.273 OA
ATOM      6  H   UNL     1      -4.061   1.890   7.099  1.00  0.00     0.163 HD
BRANCH   4   7
ATOM      7  C   UNL     1      -2.302  -0.487   5.406  1.00  0.00     0.175 C 
ATOM      8  N   UNL     1       3.052  -1.190   6.388  1.00  0.00    -0.331 N 
ATOM      9  C   UNL     1       2.210  -0.723   7.479  1.00  0.00     0.263 C 
ATOM     10  C   UNL     1       2.323  -2.053   5.467  1.00  0.00     0.263 C 
ATOM     11  H   UNL     1       3.742  -1.815   6.805  1.00  0.00     0.348 HD
ATOM     12  C   UNL     1       0.931  -0.031   7.020  1.00  0.00     0.070 C 
ATOM     13  C   UNL     1       0.997  -1.492   4.939  1.00  0.00     0.070 C 
ATOM     14  C   UNL     1       0.093  -0.832   5.996  1.00  0.00     0.001 C 
ATOM     15  C   UNL     1      -0.909   0.133   5.308  1.00  0.00     0.044 C 
ATOM     16  C   UNL     1      -0.785  -1.896   6.672  1.00  0.00     0.127 C 
ATOM     17  N   UNL     1      -2.170  -1.586   6.353  1.00  0.00    -0.330 N 
BRANCH   8  18
ATOM     18  C   UNL     1       4.010  -0.217   5.830  1.00  0.00     0.299 C 
BRANCH  18  19
ATOM     19  C   UNL     1       3.466   0.903   4.963  1.00  0.00     0.008 A 
ATOM     20  N   UNL     1       1.338   1.405   1.947  1.00  0.00    -0.348 N 
ATOM     21  C   UNL     1       0.717   2.603   1.689  1.00  0.00     0.087 A 
ATOM     22  C   UNL     1       2.201   1.549   3.018  1.00  0.00     0.048 A 
ATOM     23  C   UNL     1       1.130   3.510   2.639  1.00  0.00     0.028 A 
ATOM     24  C   UNL     1       2.008   2.834   3.528  1.00  0.00    -0.000 A 
ATOM     25  C   UNL     1       3.044   0.624   3.654  1.00  0.00     0.036 A 
ATOM     26  C   UNL     1       2.632   3.186   4.739  1.00  0.00     0.011 A 
ATOM     27  C   UNL     1       3.312   2.199   5.469  1.00  0.00     0.010 A 
BRANCH  20  28
ATOM     28  C   UNL     1       0.895   0.139   1.382  1.00  0.00     0.119 C 
ATOM     29  C   UNL     1       1.218  -0.032  -0.088  1.00  0.00     0.027 C 
ENDBRANCH  20  28
ENDBRANCH  18  19
ENDBRANCH   8  18
BRANCH  17  30
ATOM     30  C   UNL     1      -3.164  -2.479   6.700  1.00  0.00     0.220 C 
ATOM     31  C   UNL     1      -4.584  -2.135   6.321  1.00  0.00     0.114 C 
ATOM     32  O   UNL     1      -2.928  -3.492   7.359  1.00  0.00    -0.275 OA
ENDBRANCH  17  30
ENDBRANCH   4   7
ENDBRANCH   2   3
ENDBRANCH   1   2
BRANCH   1  33
ATOM     33  C   UNL     1      -4.537   1.712   9.788  1.00  0.00     0.023 C 
BRANCH  33  34
ATOM     34  C   UNL     1      -5.366   0.429   9.906  1.00  0.00     0.116 C 
BRANCH  34  35
ATOM     35  N   UNL     1      -4.896  -0.538  10.878  1.00  0.00    -0.352 N 
ATOM     36  C   UNL     1      -5.158  -0.736  12.209  1.00  0.00     0.251 C 
ATOM     37  H   UNL     1      -4.256  -1.186  10.505  1.00  0.00     0.163 HD
ATOM     38  O   UNL     1      -4.856  -1.839  12.671  1.00  0.00    -0.269 OA
BRANCH  36  39
ATOM     39  C   UNL     1      -5.665   0.315  13.133  1.00  0.00     0.039 A 
ATOM     40  C   UNL     1      -6.128   1.565  12.739  1.00  0.00     0.014 A 
ATOM     41  C   UNL     1      -5.542   0.047  14.510  1.00  0.00     0.014 A 
ATOM     42  C   UNL     1      -6.258   2.584  13.670  1.00  0.00     0.010 A 
ATOM     43  C   UNL     1      -5.729   1.050  15.456  1.00  0.00     0.010 A 
ATOM     44  C   UNL     1      -6.007   2.339  15.024  1.00  0.00    -0.014 A 
BRANCH  44  45
ATOM     45  C   UNL     1      -6.160   3.465  15.940  1.00  0.00     0.031 A 
ATOM     46  C   UNL     1      -7.491   4.128  15.846  1.00  0.00     0.074 A 
ATOM     47  C   UNL     1      -5.220   3.871  16.818  1.00  0.00     0.049 A 
ATOM     48  N   UNL     1      -7.761   5.300  15.369  1.00  0.00    -0.248 NA
ATOM     49  C   UNL     1      -8.682   3.315  16.141  1.00  0.00     0.031 C 
ATOM     50  C   UNL     1      -3.973   3.204  17.198  1.00  0.00     0.029 A 
ATOM     51  N   UNL     1      -5.226   4.973  17.622  1.00  0.00    -0.354 N 
ATOM     52  C   UNL     1      -9.137   5.461  15.511  1.00  0.00     0.074 A 
ATOM     53  C   UNL     1      -9.664   4.159  15.822  1.00  0.00     0.031 C 
ATOM     54  C   UNL     1      -3.469   3.790  18.309  1.00  0.00     0.029 A 
ATOM     55  C   UNL     1      -4.266   4.962  18.629  1.00  0.00     0.049 A 
ATOM     56  H   UNL     1      -5.858   5.717  17.498  1.00  0.00     0.167 HD
ATOM     57  C   UNL     1      -9.698   6.699  15.590  1.00  0.00     0.037 A 
ATOM     58  C   UNL     1      -4.166   5.834  19.667  1.00  0.00     0.037 A 
ATOM     59  C   UNL     1      -8.818   7.704  15.049  1.00  0.00     0.049 A 
ATOM     60  C   UNL     1      -4.876   7.073  19.256  1.00  0.00     0.074 A 
ATOM     61  C   UNL     1      -8.260   7.948  13.809  1.00  0.00     0.029 A 
ATOM     62  N   UNL     1      -8.096   8.465  15.936  1.00  0.00    -0.354 N 
ATOM     63  N   UNL     1      -4.477   7.853  18.288  1.00  0.00    -0.248 NA
ATOM     64  C   UNL     1      -6.278   7.196  19.621  1.00  0.00     0.031 C 
ATOM     65  C   UNL     1      -6.952   8.446  14.083  1.00  0.00     0.029 A 
ATOM     66  C   UNL     1      -6.810   8.536  15.469  1.00  0.00     0.049 A 
ATOM     67  H   UNL     1      -8.441   8.883  16.758  1.00  0.00     0.167 HD
ATOM     68  C   UNL     1      -5.643   8.243  17.645  1.00  0.00     0.074 A 
ATOM     69  C   UNL     1      -6.722   7.866  18.556  1.00  0.00     0.031 C 
ATOM     70  C   UNL     1      -5.644   8.586  16.323  1.00  0.00     0.037 A 
BRANCH  57  71
ATOM     71  C   UNL     1     -10.848   7.045  16.514  1.00  0.00     0.058 A 
ATOM     72  C   UNL     1     -11.377   8.354  16.490  1.00  0.00     0.135 A 
ATOM     73  C   UNL     1     -11.238   6.256  17.619  1.00  0.00     0.135 A 
ATOM     74  F   UNL     1     -11.086   9.193  15.483  1.00  0.00    -0.206 F 
ATOM     75  C   UNL     1     -12.145   8.870  17.535  1.00  0.00     0.059 A 
ATOM     76  C   UNL     1     -12.043   6.735  18.646  1.00  0.00     0.059 A 
ATOM     77  F   UNL     1     -10.786   5.013  17.814  1.00  0.00    -0.206 F 
ATOM     78  C   UNL     1     -12.453   8.056  18.620  1.00  0.00     0.060 A 
BRANCH  78  79
ATOM     79  S   UNL     1     -13.334   8.749  20.029  1.00  0.00     0.124 S 
ATOM     80  O   UNL     1     -12.352   9.702  20.543  1.00  0.00    -0.237 OA
ATOM     81  O   UNL     1     -14.511   9.330  19.386  1.00  0.00    -0.237 OA
ATOM     82  O   UNL     1     -13.591   7.591  20.869  1.00  0.00    -0.744 OA
ENDBRANCH  78  79
ENDBRANCH  57  71
BRANCH  58  83
ATOM     83  C   UNL     1      -3.892   5.519  21.100  1.00  0.00     0.058 A 
ATOM     84  C   UNL     1      -3.684   6.543  22.045  1.00  0.00     0.135 A 
ATOM     85  C   UNL     1      -4.133   4.235  21.630  1.00  0.00     0.135 A 
ATOM     86  F   UNL     1      -3.464   7.803  21.636  1.00  0.00    -0.206 F 
ATOM     87  C   UNL     1      -3.769   6.320  23.426  1.00  0.00     0.059 A 
ATOM     88  C   UNL     1      -4.215   3.987  23.001  1.00  0.00     0.059 A 
ATOM     89  F   UNL     1      -4.390   3.193  20.826  1.00  0.00    -0.206 F 
ATOM     90  C   UNL     1      -4.060   5.040  23.894  1.00  0.00     0.060 A 
BRANCH  90  91
ATOM     91  S   UNL     1      -4.342   4.778  25.663  1.00  0.00     0.124 S 
ATOM     92  O   UNL     1      -3.017   5.025  26.221  1.00  0.00    -0.237 OA
ATOM     93  O   UNL     1      -5.357   5.781  25.965  1.00  0.00    -0.237 OA
ATOM     94  O   UNL     1      -4.798   3.392  25.733  1.00  0.00    -0.744 OA
ENDBRANCH  90  91
ENDBRANCH  58  83
BRANCH  70  95
ATOM     95  C   UNL     1      -4.323   8.831  15.640  1.00  0.00     0.058 A 
ATOM     96  C   UNL     1      -3.348   7.844  15.407  1.00  0.00     0.135 A 
ATOM     97  C   UNL     1      -4.122  10.083  15.039  1.00  0.00     0.135 A 
ATOM     98  F   UNL     1      -3.505   6.595  15.869  1.00  0.00    -0.206 F 
ATOM     99  C   UNL     1      -2.217   8.100  14.626  1.00  0.00     0.059 A 
ATOM    100  C   UNL     1      -3.019  10.351  14.234  1.00  0.00     0.059 A 
ATOM    101  F   UNL     1      -5.044  11.051  15.180  1.00  0.00    -0.206 F 
ATOM    102  C   UNL     1      -2.067   9.355  14.034  1.00  0.00     0.060 A 
BRANCH 102 103
ATOM    103  S   UNL     1      -0.661   9.653  12.938  1.00  0.00     0.124 S 
ATOM    104  O   UNL     1       0.466   9.622  13.865  1.00  0.00    -0.237 OA
ATOM    105  O   UNL     1      -0.746   8.532  12.006  1.00  0.00    -0.237 OA
ATOM    106  O   UNL     1      -0.952  10.960  12.354  1.00  0.00    -0.744 OA
ENDBRANCH 102 103
ENDBRANCH  70  95
ENDBRANCH  44  45
ENDBRANCH  36  39
ENDBRANCH  34  35
ENDBRANCH  33  34
ENDBRANCH   1  33
TORSDOF 18
