REMARK SMILES Cc1cc(=O)n2nc(C)c(C(=O)NCCCCNC(=O)c3ccc(-c4c5nc(c(-c6c(F)cc(S(=O)(=O)[O-])cc6F)c6ccc([nH]6)c(-c6c(F)cc(S(=O)(=O)[O-])cc6F)c6nc(c(-c7c(F)cc(S(=O)(=O)[O-])cc7F)c7ccc4[nH]7)C=C6)C=C5)cc3)c2[nH]1
REMARK SMILES IDX 17 1 16 2 15 3 14 4 13 5 11 6 12 7 10 9 1 10 2 11 3 12 88 13
REMARK SMILES IDX 4 14 87 15 5 17 6 18 7 19 8 20 9 21 18 22 19 23 20 25 21 26
REMARK SMILES IDX 22 27 86 28 23 29 85 30 24 31 25 32 26 33 79 34 27 35 84 36
REMARK SMILES IDX 78 37 80 38 28 39 83 40 77 41 76 42 29 44 63 45 42 46 62 47
REMARK SMILES IDX 43 48 46 49 61 50 81 51 44 52 45 53 60 55 82 56 47 57 30 58
REMARK SMILES IDX 31 59 40 60 32 61 33 62 39 63 41 64 34 65 35 66 36 67 37 68
REMARK SMILES IDX 38 69 64 70 65 71 74 72 66 73 67 74 73 75 75 76 68 77 69 78
REMARK SMILES IDX 70 79 71 80 72 81 48 82 49 83 58 84 50 85 51 86 57 87 59 88
REMARK SMILES IDX 52 89 53 90 54 91 55 92 56 93
REMARK H PARENT 13 8 88 16 18 24 80 43 46 54
REMARK Flexibility Score: inf
ROOT
ATOM      1  C   UNL     1      -3.264  -2.394   9.800  1.00  0.00     0.116 C 
ENDROOT
BRANCH   1   2
ATOM      2  C   UNL     1      -1.965  -2.075   9.064  1.00  0.00     0.023 C 
BRANCH   2   3
ATOM      3  C   UNL     1      -1.731  -2.909   7.793  1.00  0.00     0.023 C 
BRANCH   3   4
ATOM      4  C   UNL     1      -2.670  -2.584   6.627  1.00  0.00     0.116 C 
BRANCH   4   5
ATOM      5  N   UNL     1      -2.154  -1.520   5.797  1.00  0.00    -0.352 N 
ATOM      6  C   UNL     1      -1.450  -1.450   4.627  1.00  0.00     0.256 C 
ATOM      7  O   UNL     1      -1.260  -0.290   4.237  1.00  0.00    -0.269 OA
ATOM      8  H   UNL     1      -2.360  -0.629   6.163  1.00  0.00     0.163 HD
BRANCH   6   9
ATOM      9  C   UNL     1      -0.922  -2.575   3.845  1.00  0.00     0.105 A 
ATOM     10  C   UNL     1       0.887   0.088   0.012  1.00  0.00     0.064 C 
ATOM     11  C   UNL     1       0.640  -1.217   0.714  1.00  0.00     0.019 A 
ATOM     12  C   UNL     1       1.067  -2.373   0.172  1.00  0.00     0.095 A 
ATOM     13  N   UNL     1      -0.033  -1.195   1.923  1.00  0.00    -0.343 N 
ATOM     14  C   UNL     1       0.826  -3.658   0.883  1.00  0.00     0.274 A 
ATOM     15  C   UNL     1      -0.294  -2.328   2.627  1.00  0.00     0.150 A 
ATOM     16  H   UNL     1      -0.333  -0.331   2.284  1.00  0.00     0.168 HD
ATOM     17  O   UNL     1       1.214  -4.741   0.462  1.00  0.00    -0.267 OA
ATOM     18  N   UNL     1       0.131  -3.519   2.097  1.00  0.00    -0.179 N 
ATOM     19  N   UNL     1      -0.171  -4.556   2.899  1.00  0.00    -0.168 NA
ATOM     20  C   UNL     1      -0.807  -4.006   3.948  1.00  0.00     0.075 A 
ATOM     21  C   UNL     1      -1.232  -4.979   4.983  1.00  0.00     0.070 C 
ENDBRANCH   6   9
ENDBRANCH   4   5
ENDBRANCH   3   4
ENDBRANCH   2   3
ENDBRANCH   1   2
BRANCH   1  22
ATOM     22  N   UNL     1      -3.311  -3.761  10.314  1.00  0.00    -0.352 N 
ATOM     23  C   UNL     1      -4.425  -4.453  10.762  1.00  0.00     0.251 C 
ATOM     24  H   UNL     1      -2.454  -4.246  10.346  1.00  0.00     0.163 HD
ATOM     25  O   UNL     1      -4.323  -5.416  11.496  1.00  0.00    -0.269 OA
BRANCH  23  26
ATOM     26  C   UNL     1      -5.744  -3.978  10.305  1.00  0.00     0.039 A 
ATOM     27  C   UNL     1      -6.758  -3.679  11.217  1.00  0.00     0.014 A 
ATOM     28  C   UNL     1      -5.899  -3.741   8.941  1.00  0.00     0.014 A 
ATOM     29  C   UNL     1      -7.907  -3.042  10.753  1.00  0.00     0.010 A 
ATOM     30  C   UNL     1      -6.983  -3.014   8.507  1.00  0.00     0.010 A 
ATOM     31  C   UNL     1      -8.005  -2.686   9.400  1.00  0.00    -0.014 A 
BRANCH  31  32
ATOM     32  C   UNL     1      -9.138  -1.893   8.924  1.00  0.00     0.031 A 
ATOM     33  C   UNL     1      -9.389  -0.592   9.616  1.00  0.00     0.074 A 
ATOM     34  C   UNL     1      -9.796  -2.182   7.782  1.00  0.00     0.049 A 
ATOM     35  N   UNL     1     -10.424  -0.241  10.309  1.00  0.00    -0.248 NA
ATOM     36  C   UNL     1      -8.324   0.422   9.595  1.00  0.00     0.031 C 
ATOM     37  C   UNL     1      -9.511  -3.232   6.796  1.00  0.00     0.029 A 
ATOM     38  N   UNL     1     -10.825  -1.503   7.210  1.00  0.00    -0.354 N 
ATOM     39  C   UNL     1     -10.235   1.097  10.661  1.00  0.00     0.074 A 
ATOM     40  C   UNL     1      -8.869   1.404  10.318  1.00  0.00     0.031 C 
ATOM     41  C   UNL     1     -10.195  -2.980   5.659  1.00  0.00     0.029 A 
ATOM     42  C   UNL     1     -11.095  -1.869   5.901  1.00  0.00     0.049 A 
ATOM     43  H   UNL     1     -11.336  -0.810   7.686  1.00  0.00     0.167 HD
ATOM     44  C   UNL     1     -11.271   1.900  11.043  1.00  0.00     0.037 A 
ATOM     45  C   UNL     1     -11.992  -1.296   5.064  1.00  0.00     0.037 A 
ATOM     46  C   UNL     1     -12.438   1.121  11.373  1.00  0.00     0.049 A 
ATOM     47  C   UNL     1     -12.992  -0.600   5.913  1.00  0.00     0.074 A 
ATOM     48  C   UNL     1     -12.715   0.137  12.304  1.00  0.00     0.029 A 
ATOM     49  N   UNL     1     -13.452   1.043  10.448  1.00  0.00    -0.354 N 
ATOM     50  N   UNL     1     -13.809  -1.219   6.724  1.00  0.00    -0.248 NA
ATOM     51  C   UNL     1     -12.774   0.808   6.209  1.00  0.00     0.031 C 
ATOM     52  C   UNL     1     -13.553  -0.791  11.615  1.00  0.00     0.029 A 
ATOM     53  C   UNL     1     -13.782  -0.285  10.334  1.00  0.00     0.049 A 
ATOM     54  H   UNL     1     -13.862   1.794   9.961  1.00  0.00     0.167 HD
ATOM     55  C   UNL     1     -13.879  -0.412   7.852  1.00  0.00     0.074 A 
ATOM     56  C   UNL     1     -13.299   0.864   7.437  1.00  0.00     0.031 C 
ATOM     57  C   UNL     1     -14.147  -0.929   9.089  1.00  0.00     0.037 A 
BRANCH  44  58
ATOM     58  C   UNL     1     -11.348   3.399  10.840  1.00  0.00     0.058 A 
ATOM     59  C   UNL     1     -12.409   4.130  11.420  1.00  0.00     0.135 A 
ATOM     60  C   UNL     1     -10.590   4.102   9.879  1.00  0.00     0.135 A 
ATOM     61  F   UNL     1     -13.197   3.571  12.353  1.00  0.00    -0.206 F 
ATOM     62  C   UNL     1     -12.746   5.423  11.011  1.00  0.00     0.059 A 
ATOM     63  C   UNL     1     -10.875   5.410   9.494  1.00  0.00     0.059 A 
ATOM     64  F   UNL     1      -9.598   3.523   9.191  1.00  0.00    -0.206 F 
ATOM     65  C   UNL     1     -11.985   6.045  10.027  1.00  0.00     0.060 A 
BRANCH  65  66
ATOM     66  S   UNL     1     -12.503   7.647   9.385  1.00  0.00     0.124 S 
ATOM     67  O   UNL     1     -13.733   7.294   8.686  1.00  0.00    -0.237 OA
ATOM     68  O   UNL     1     -12.663   8.428  10.608  1.00  0.00    -0.237 OA
ATOM     69  O   UNL     1     -11.386   8.045   8.535  1.00  0.00    -0.744 OA
ENDBRANCH  65  66
ENDBRANCH  44  58
BRANCH  45  70
ATOM     70  C   UNL     1     -11.850  -1.097   3.601  1.00  0.00     0.058 A 
ATOM     71  C   UNL     1     -12.951  -0.790   2.787  1.00  0.00     0.135 A 
ATOM     72  C   UNL     1     -10.577  -0.963   3.006  1.00  0.00     0.135 A 
ATOM     73  F   UNL     1     -14.196  -0.862   3.282  1.00  0.00    -0.206 F 
ATOM     74  C   UNL     1     -12.799  -0.346   1.468  1.00  0.00     0.059 A 
ATOM     75  C   UNL     1     -10.401  -0.533   1.693  1.00  0.00     0.059 A 
ATOM     76  F   UNL     1      -9.456  -1.165   3.716  1.00  0.00    -0.206 F 
ATOM     77  C   UNL     1     -11.518  -0.204   0.935  1.00  0.00     0.060 A 
BRANCH  77  78
ATOM     78  S   UNL     1     -11.313   0.509  -0.714  1.00  0.00     0.124 S 
ATOM     79  O   UNL     1     -11.928  -0.506  -1.561  1.00  0.00    -0.237 OA
ATOM     80  O   UNL     1     -12.042   1.768  -0.594  1.00  0.00    -0.237 OA
ATOM     81  O   UNL     1      -9.865   0.642  -0.850  1.00  0.00    -0.744 OA
ENDBRANCH  77  78
ENDBRANCH  45  70
BRANCH  57  82
ATOM     82  C   UNL     1     -14.606  -2.365   9.190  1.00  0.00     0.058 A 
ATOM     83  C   UNL     1     -13.810  -3.470   8.837  1.00  0.00     0.135 A 
ATOM     84  C   UNL     1     -15.817  -2.641   9.842  1.00  0.00     0.135 A 
ATOM     85  F   UNL     1     -12.593  -3.301   8.308  1.00  0.00    -0.206 F 
ATOM     86  C   UNL     1     -14.209  -4.783   9.089  1.00  0.00     0.059 A 
ATOM     87  C   UNL     1     -16.223  -3.944  10.132  1.00  0.00     0.059 A 
ATOM     88  F   UNL     1     -16.596  -1.633  10.268  1.00  0.00    -0.206 F 
ATOM     89  C   UNL     1     -15.417  -5.011   9.744  1.00  0.00     0.060 A 
BRANCH  89  90
ATOM     90  S   UNL     1     -15.880  -6.708  10.156  1.00  0.00     0.124 S 
ATOM     91  O   UNL     1     -16.193  -7.268   8.846  1.00  0.00    -0.237 OA
ATOM     92  O   UNL     1     -14.670  -7.222  10.792  1.00  0.00    -0.237 OA
ATOM     93  O   UNL     1     -17.021  -6.542  11.053  1.00  0.00    -0.744 OA
ENDBRANCH  89  90
ENDBRANCH  57  82
ENDBRANCH  31  32
ENDBRANCH  23  26
ENDBRANCH   1  22
TORSDOF 14
