REMARK SMILES COc1ccc(-c2ccc(CCC(=O)NCCCCNC(=O)c3ccc(-c4c5nc(c(-c6c(F)cc(S(=O)(=O)[O-])cc6F)c6ccc([nH]6)c(-c6c(F)cc(S(=O)(=O)[O-])cc6F)c6nc(c(-c7c(F)cc(S(=O)(=O)[O-])cc7F)c7ccc4[nH]7)C=C6)C=C5)cc3)n2-c2ccc(C(C)=O)cc2)cc1
REMARK SMILES IDX 17 1 16 2 15 3 13 4 14 5 12 7 11 8 10 9 7 10 8 11 89 12 9 13
REMARK SMILES IDX 6 14 3 15 4 16 100 17 5 18 99 19 2 20 1 21 90 22 91 23 98 24
REMARK SMILES IDX 92 25 97 26 93 27 94 28 95 29 96 30 18 31 19 32 20 33 21 34
REMARK SMILES IDX 22 36 23 37 24 38 88 39 25 40 87 41 26 42 27 43 28 44 81 45
REMARK SMILES IDX 29 46 86 47 80 48 82 49 30 50 85 51 79 52 78 53 31 55 65 56
REMARK SMILES IDX 44 57 64 58 45 59 48 60 63 61 83 62 46 63 47 64 62 66 84 67
REMARK SMILES IDX 49 68 32 69 33 70 42 71 34 72 35 73 41 74 43 75 36 76 37 77
REMARK SMILES IDX 38 78 39 79 40 80 66 81 67 82 76 83 68 84 69 85 75 86 77 87
REMARK SMILES IDX 70 88 71 89 72 90 73 91 74 92 50 93 51 94 60 95 52 96 53 97
REMARK SMILES IDX 59 98 61 99 54 100 55 101 56 102 57 103 58 104
REMARK H PARENT 15 6 20 35 82 54 48 65
REMARK Flexibility Score: inf
ROOT
ATOM      1  C   UNL     1       4.645   6.420   4.862  1.00  0.00     0.023 C 
ENDROOT
BRANCH   1   2
ATOM      2  C   UNL     1       5.099   5.813   6.186  1.00  0.00     0.116 C 
BRANCH   2   3
ATOM      3  N   UNL     1       5.020   6.807   7.241  1.00  0.00    -0.356 N 
ATOM      4  C   UNL     1       3.990   7.075   8.093  1.00  0.00     0.220 C 
ATOM      5  O   UNL     1       4.002   8.136   8.722  1.00  0.00    -0.275 OA
ATOM      6  H   UNL     1       5.822   7.366   7.358  1.00  0.00     0.163 HD
BRANCH   4   7
ATOM      7  C   UNL     1       2.866   6.075   8.290  1.00  0.00     0.106 C 
BRANCH   7   8
ATOM      8  C   UNL     1       1.533   6.547   7.710  1.00  0.00     0.064 C 
BRANCH   8   9
ATOM      9  C   UNL     1       1.365   6.245   6.243  1.00  0.00     0.024 A 
ATOM     10  C   UNL     1       1.263   4.995   4.362  1.00  0.00     0.053 A 
ATOM     11  C   UNL     1       1.436   6.325   4.000  1.00  0.00     0.029 A 
ATOM     12  N   UNL     1       0.985   5.003   5.730  1.00  0.00    -0.314 N 
ATOM     13  C   UNL     1       1.469   7.108   5.171  1.00  0.00     0.024 A 
BRANCH  10  14
ATOM     14  C   UNL     1       1.066   3.883   3.431  1.00  0.00    -0.001 A 
ATOM     15  C   UNL     1       0.714   1.966   1.401  1.00  0.00     0.118 A 
ATOM     16  C   UNL     1      -0.336   2.807   1.773  1.00  0.00     0.047 A 
ATOM     17  C   UNL     1       1.944   2.080   2.050  1.00  0.00     0.047 A 
ATOM     18  C   UNL     1      -0.166   3.752   2.784  1.00  0.00     0.014 A 
ATOM     19  C   UNL     1       2.121   3.039   3.062  1.00  0.00     0.014 A 
BRANCH  15  20
ATOM     20  O   UNL     1       0.423   1.129   0.359  1.00  0.00    -0.497 OA
ATOM     21  C   UNL     1       1.221  -0.042   0.245  1.00  0.00     0.278 C 
ENDBRANCH  15  20
ENDBRANCH  10  14
BRANCH  12  22
ATOM     22  C   UNL     1       0.080   4.122   6.373  1.00  0.00     0.046 A 
ATOM     23  C   UNL     1      -1.100   4.690   6.870  1.00  0.00     0.027 A 
ATOM     24  C   UNL     1       0.272   2.745   6.408  1.00  0.00     0.027 A 
ATOM     25  C   UNL     1      -2.098   3.885   7.405  1.00  0.00     0.014 A 
ATOM     26  C   UNL     1      -0.727   1.940   6.974  1.00  0.00     0.014 A 
ATOM     27  C   UNL     1      -1.924   2.500   7.462  1.00  0.00     0.017 A 
BRANCH  27  28
ATOM     28  C   UNL     1      -2.975   1.587   8.008  1.00  0.00     0.159 C 
ATOM     29  C   UNL     1      -4.328   2.118   8.422  1.00  0.00     0.093 C 
ATOM     30  O   UNL     1      -2.738   0.383   8.104  1.00  0.00    -0.295 OA
ENDBRANCH  27  28
ENDBRANCH  12  22
ENDBRANCH   8   9
ENDBRANCH   7   8
ENDBRANCH   4   7
ENDBRANCH   2   3
ENDBRANCH   1   2
BRANCH   1  31
ATOM     31  C   UNL     1       5.723   7.068   3.998  1.00  0.00     0.023 C 
BRANCH  31  32
ATOM     32  C   UNL     1       6.602   6.052   3.284  1.00  0.00     0.116 C 
BRANCH  32  33
ATOM     33  N   UNL     1       5.834   5.205   2.377  1.00  0.00    -0.352 N 
ATOM     34  C   UNL     1       6.267   4.098   1.678  1.00  0.00     0.251 C 
ATOM     35  H   UNL     1       4.891   5.454   2.249  1.00  0.00     0.163 HD
ATOM     36  O   UNL     1       5.609   3.626   0.773  1.00  0.00    -0.269 OA
BRANCH  34  37
ATOM     37  C   UNL     1       7.577   3.521   2.034  1.00  0.00     0.039 A 
ATOM     38  C   UNL     1       8.558   3.432   1.045  1.00  0.00     0.014 A 
ATOM     39  C   UNL     1       7.834   3.131   3.353  1.00  0.00     0.014 A 
ATOM     40  C   UNL     1       9.845   3.050   1.406  1.00  0.00     0.010 A 
ATOM     41  C   UNL     1       9.125   2.781   3.721  1.00  0.00     0.010 A 
ATOM     42  C   UNL     1      10.135   2.776   2.752  1.00  0.00    -0.014 A 
BRANCH  42  43
ATOM     43  C   UNL     1      11.554   2.685   3.166  1.00  0.00     0.031 A 
ATOM     44  C   UNL     1      12.226   4.069   3.178  1.00  0.00     0.074 A 
ATOM     45  C   UNL     1      12.043   1.439   3.443  1.00  0.00     0.049 A 
ATOM     46  N   UNL     1      13.452   4.396   2.912  1.00  0.00    -0.248 NA
ATOM     47  C   UNL     1      11.395   5.284   3.408  1.00  0.00     0.031 C 
ATOM     48  C   UNL     1      11.228   0.209   3.405  1.00  0.00     0.029 A 
ATOM     49  N   UNL     1      13.279   0.937   3.809  1.00  0.00    -0.354 N 
ATOM     50  C   UNL     1      13.592   5.782   3.160  1.00  0.00     0.074 A 
ATOM     51  C   UNL     1      12.264   6.294   3.301  1.00  0.00     0.031 C 
ATOM     52  C   UNL     1      11.986  -0.879   3.650  1.00  0.00     0.029 A 
ATOM     53  C   UNL     1      13.359  -0.482   3.886  1.00  0.00     0.049 A 
ATOM     54  H   UNL     1      14.049   1.519   4.003  1.00  0.00     0.167 HD
ATOM     55  C   UNL     1      14.803   6.373   3.403  1.00  0.00     0.037 A 
ATOM     56  C   UNL     1      14.452  -1.287   4.082  1.00  0.00     0.037 A 
ATOM     57  C   UNL     1      15.816   5.370   3.385  1.00  0.00     0.049 A 
ATOM     58  C   UNL     1      15.561  -0.383   4.426  1.00  0.00     0.074 A 
ATOM     59  C   UNL     1      16.339   4.602   2.379  1.00  0.00     0.029 A 
ATOM     60  N   UNL     1      16.126   4.806   4.602  1.00  0.00    -0.354 N 
ATOM     61  N   UNL     1      15.671   0.259   5.550  1.00  0.00    -0.248 NA
ATOM     62  C   UNL     1      16.583  -0.097   3.410  1.00  0.00     0.031 C 
ATOM     63  C   UNL     1      16.512   3.350   2.997  1.00  0.00     0.029 A 
ATOM     64  C   UNL     1      16.345   3.473   4.383  1.00  0.00     0.049 A 
ATOM     65  H   UNL     1      16.180   5.273   5.467  1.00  0.00     0.167 HD
ATOM     66  C   UNL     1      16.546   1.267   5.224  1.00  0.00     0.074 A 
ATOM     67  C   UNL     1      17.292   0.816   4.069  1.00  0.00     0.031 C 
ATOM     68  C   UNL     1      16.184   2.550   5.484  1.00  0.00     0.037 A 
BRANCH  55  69
ATOM     69  C   UNL     1      15.218   7.715   3.961  1.00  0.00     0.058 A 
ATOM     70  C   UNL     1      16.589   8.074   3.848  1.00  0.00     0.135 A 
ATOM     71  C   UNL     1      14.466   8.456   4.880  1.00  0.00     0.135 A 
ATOM     72  F   UNL     1      17.383   7.484   2.938  1.00  0.00    -0.206 F 
ATOM     73  C   UNL     1      17.206   8.970   4.713  1.00  0.00     0.059 A 
ATOM     74  C   UNL     1      15.057   9.401   5.727  1.00  0.00     0.059 A 
ATOM     75  F   UNL     1      13.156   8.235   5.046  1.00  0.00    -0.206 F 
ATOM     76  C   UNL     1      16.436   9.600   5.680  1.00  0.00     0.060 A 
BRANCH  76  77
ATOM     77  S   UNL     1      17.273  10.638   6.896  1.00  0.00     0.124 S 
ATOM     78  O   UNL     1      17.930   9.641   7.733  1.00  0.00    -0.237 OA
ATOM     79  O   UNL     1      18.158  11.443   6.058  1.00  0.00    -0.237 OA
ATOM     80  O   UNL     1      16.177  11.371   7.520  1.00  0.00    -0.744 OA
ENDBRANCH  76  77
ENDBRANCH  55  69
BRANCH  56  81
ATOM     81  C   UNL     1      14.810  -2.755   3.910  1.00  0.00     0.058 A 
ATOM     82  C   UNL     1      13.932  -3.790   3.565  1.00  0.00     0.135 A 
ATOM     83  C   UNL     1      16.181  -3.149   3.931  1.00  0.00     0.135 A 
ATOM     84  F   UNL     1      12.608  -3.646   3.670  1.00  0.00    -0.206 F 
ATOM     85  C   UNL     1      14.382  -5.033   3.086  1.00  0.00     0.059 A 
ATOM     86  C   UNL     1      16.655  -4.350   3.409  1.00  0.00     0.059 A 
ATOM     87  F   UNL     1      17.139  -2.354   4.427  1.00  0.00    -0.206 F 
ATOM     88  C   UNL     1      15.745  -5.275   2.943  1.00  0.00     0.060 A 
BRANCH  88  89
ATOM     89  S   UNL     1      16.333  -6.718   2.033  1.00  0.00     0.124 S 
ATOM     90  O   UNL     1      16.300  -7.758   3.054  1.00  0.00    -0.237 OA
ATOM     91  O   UNL     1      15.343  -6.838   0.966  1.00  0.00    -0.237 OA
ATOM     92  O   UNL     1      17.664  -6.311   1.588  1.00  0.00    -0.744 OA
ENDBRANCH  88  89
ENDBRANCH  56  81
BRANCH  68  93
ATOM     93  C   UNL     1      15.305   2.729   6.710  1.00  0.00     0.058 A 
ATOM     94  C   UNL     1      15.765   2.289   7.965  1.00  0.00     0.135 A 
ATOM     95  C   UNL     1      13.995   3.239   6.687  1.00  0.00     0.135 A 
ATOM     96  F   UNL     1      17.011   1.801   8.086  1.00  0.00    -0.206 F 
ATOM     97  C   UNL     1      14.975   2.339   9.117  1.00  0.00     0.059 A 
ATOM     98  C   UNL     1      13.184   3.310   7.827  1.00  0.00     0.059 A 
ATOM     99  F   UNL     1      13.458   3.677   5.546  1.00  0.00    -0.206 F 
ATOM    100  C   UNL     1      13.682   2.853   9.041  1.00  0.00     0.060 A 
BRANCH 100 101
ATOM    101  S   UNL     1      12.686   2.936  10.548  1.00  0.00     0.124 S 
ATOM    102  O   UNL     1      12.565   1.531  10.922  1.00  0.00    -0.237 OA
ATOM    103  O   UNL     1      13.521   3.752  11.424  1.00  0.00    -0.237 OA
ATOM    104  O   UNL     1      11.444   3.567  10.107  1.00  0.00    -0.744 OA
ENDBRANCH 100 101
ENDBRANCH  68  93
ENDBRANCH  42  43
ENDBRANCH  34  37
ENDBRANCH  32  33
ENDBRANCH  31  32
ENDBRANCH   1  31
TORSDOF 20
