REMARK SMILES O=C(NCCCCNC(=O)C1(CCc2ccccn2)CCCCC1)c1ccc(-c2c3nc(c(-c4c(F)cc(S(=O)(=O)[O-])cc4F)c4ccc([nH]4)c(-c4c(F)cc(S(=O)(=O)[O-])cc4F)c4nc(c(-c5c(F)cc(S(=O)(=O)[O-])cc5F)c5ccc2[nH]5)C=C4)C=C3)cc1
REMARK SMILES IDX 5 1 4 2 3 3 1 4 2 5 25 7 26 8 90 9 27 10 89 11 28 12 29 13
REMARK SMILES IDX 30 14 83 15 31 16 88 17 82 18 84 19 32 20 87 21 81 22 80 23
REMARK SMILES IDX 33 25 67 26 46 27 66 28 47 29 50 30 65 31 85 32 48 33 49 34
REMARK SMILES IDX 64 36 86 37 51 38 34 39 35 40 44 41 36 42 37 43 43 44 45 45
REMARK SMILES IDX 38 46 39 47 40 48 41 49 42 50 68 51 69 52 78 53 70 54 71 55
REMARK SMILES IDX 77 56 79 57 72 58 73 59 74 60 75 61 76 62 52 63 53 64 62 65
REMARK SMILES IDX 54 66 55 67 61 68 63 69 56 70 57 71 58 72 59 73 60 74 6 75
REMARK SMILES IDX 7 76 8 77 9 78 10 80 11 81 20 82 24 83 21 84 23 85 22 86
REMARK SMILES IDX 12 87 13 88 14 89 15 90 19 91 16 92 18 93 17 94
REMARK H PARENT 3 6 84 24 50 35 8 79
REMARK Flexibility Score: inf
ROOT
ATOM      1  C   UNL     1       5.135   1.452  -1.923  1.00  0.00     0.023 C 
ENDROOT
BRANCH   1   2
ATOM      2  C   UNL     1       4.718   0.996  -0.534  1.00  0.00     0.116 C 
BRANCH   2   3
ATOM      3  N   UNL     1       3.274   0.922  -0.361  1.00  0.00    -0.352 N 
ATOM      4  O   UNL     1       1.266  -0.054  -0.041  1.00  0.00    -0.269 OA
ATOM      5  C   UNL     1       2.486  -0.154  -0.022  1.00  0.00     0.251 C 
ATOM      6  H   UNL     1       2.790   1.766  -0.510  1.00  0.00     0.163 HD
BRANCH   5   7
ATOM      7  C   UNL     1       3.128  -1.438   0.328  1.00  0.00     0.039 A 
ATOM      8  C   UNL     1       4.221  -1.466   1.196  1.00  0.00     0.014 A 
ATOM      9  C   UNL     1       2.654  -2.620  -0.247  1.00  0.00     0.014 A 
ATOM     10  C   UNL     1       4.947  -2.639   1.345  1.00  0.00     0.010 A 
ATOM     11  C   UNL     1       3.325  -3.823  -0.009  1.00  0.00     0.010 A 
ATOM     12  C   UNL     1       4.499  -3.835   0.759  1.00  0.00    -0.014 A 
BRANCH  12  13
ATOM     13  C   UNL     1       5.248  -5.088   1.028  1.00  0.00     0.031 A 
ATOM     14  C   UNL     1       5.935  -5.845  -0.075  1.00  0.00     0.074 A 
ATOM     15  C   UNL     1       5.341  -5.510   2.304  1.00  0.00     0.049 A 
ATOM     16  N   UNL     1       6.652  -6.937   0.003  1.00  0.00    -0.248 NA
ATOM     17  C   UNL     1       5.796  -5.319  -1.443  1.00  0.00     0.031 C 
ATOM     18  C   UNL     1       4.700  -4.859   3.453  1.00  0.00     0.029 A 
ATOM     19  N   UNL     1       6.023  -6.559   2.859  1.00  0.00    -0.354 N 
ATOM     20  C   UNL     1       7.031  -7.243  -1.298  1.00  0.00     0.074 A 
ATOM     21  C   UNL     1       6.450  -6.230  -2.153  1.00  0.00     0.031 C 
ATOM     22  C   UNL     1       5.067  -5.488   4.577  1.00  0.00     0.029 A 
ATOM     23  C   UNL     1       5.911  -6.623   4.228  1.00  0.00     0.049 A 
ATOM     24  H   UNL     1       6.544  -7.205   2.329  1.00  0.00     0.167 HD
ATOM     25  C   UNL     1       7.798  -8.272  -1.734  1.00  0.00     0.037 A 
ATOM     26  C   UNL     1       6.416  -7.508   5.107  1.00  0.00     0.037 A 
ATOM     27  C   UNL     1       8.389  -9.262  -0.870  1.00  0.00     0.049 A 
ATOM     28  C   UNL     1       7.261  -8.635   4.595  1.00  0.00     0.074 A 
ATOM     29  C   UNL     1       9.206 -10.327  -1.212  1.00  0.00     0.029 A 
ATOM     30  N   UNL     1       8.230  -9.310   0.508  1.00  0.00    -0.354 N 
ATOM     31  N   UNL     1       7.620  -8.898   3.361  1.00  0.00    -0.248 NA
ATOM     32  C   UNL     1       7.763  -9.590   5.590  1.00  0.00     0.031 C 
ATOM     33  C   UNL     1       9.513 -11.037  -0.046  1.00  0.00     0.029 A 
ATOM     34  C   UNL     1       8.919 -10.394   1.028  1.00  0.00     0.049 A 
ATOM     35  H   UNL     1       7.705  -8.668   1.038  1.00  0.00     0.167 HD
ATOM     36  C   UNL     1       8.392 -10.050   3.430  1.00  0.00     0.074 A 
ATOM     37  C   UNL     1       8.471 -10.416   4.830  1.00  0.00     0.031 C 
ATOM     38  C   UNL     1       8.977 -10.746   2.425  1.00  0.00     0.037 A 
BRANCH  25  39
ATOM     39  C   UNL     1       8.035  -8.394  -3.215  1.00  0.00     0.058 A 
ATOM     40  C   UNL     1       8.913  -7.536  -3.895  1.00  0.00     0.135 A 
ATOM     41  C   UNL     1       7.424  -9.422  -3.951  1.00  0.00     0.135 A 
ATOM     42  F   UNL     1       9.513  -6.527  -3.243  1.00  0.00    -0.206 F 
ATOM     43  C   UNL     1       9.164  -7.682  -5.256  1.00  0.00     0.059 A 
ATOM     44  C   UNL     1       7.676  -9.600  -5.309  1.00  0.00     0.059 A 
ATOM     45  F   UNL     1       6.576 -10.271  -3.350  1.00  0.00    -0.206 F 
ATOM     46  C   UNL     1       8.540  -8.718  -5.955  1.00  0.00     0.060 A 
BRANCH  46  47
ATOM     47  S   UNL     1       8.888  -8.904  -7.718  1.00  0.00     0.124 S 
ATOM     48  O   UNL     1       8.121  -7.798  -8.283  1.00  0.00    -0.237 OA
ATOM     49  O   UNL     1      10.339  -8.759  -7.769  1.00  0.00    -0.237 OA
ATOM     50  O   UNL     1       8.383 -10.239  -8.025  1.00  0.00    -0.744 OA
ENDBRANCH  46  47
ENDBRANCH  25  39
BRANCH  26  51
ATOM     51  C   UNL     1       6.116  -7.359   6.553  1.00  0.00     0.058 A 
ATOM     52  C   UNL     1       7.107  -6.963   7.462  1.00  0.00     0.135 A 
ATOM     53  C   UNL     1       4.819  -7.573   7.047  1.00  0.00     0.135 A 
ATOM     54  F   UNL     1       8.361  -6.748   7.035  1.00  0.00    -0.206 F 
ATOM     55  C   UNL     1       6.827  -6.796   8.814  1.00  0.00     0.059 A 
ATOM     56  C   UNL     1       4.509  -7.386   8.389  1.00  0.00     0.059 A 
ATOM     57  F   UNL     1       3.832  -7.932   6.212  1.00  0.00    -0.206 F 
ATOM     58  C   UNL     1       5.524  -7.008   9.267  1.00  0.00     0.060 A 
BRANCH  58  59
ATOM     59  S   UNL     1       5.152  -6.735  11.013  1.00  0.00     0.124 S 
ATOM     60  O   UNL     1       5.674  -7.955  11.616  1.00  0.00    -0.237 OA
ATOM     61  O   UNL     1       5.893  -5.511  11.301  1.00  0.00    -0.237 OA
ATOM     62  O   UNL     1       3.699  -6.594  11.025  1.00  0.00    -0.744 OA
ENDBRANCH  58  59
ENDBRANCH  26  51
BRANCH  38  63
ATOM     63  C   UNL     1       9.758 -11.967   2.813  1.00  0.00     0.058 A 
ATOM     64  C   UNL     1       9.115 -13.153   3.199  1.00  0.00     0.135 A 
ATOM     65  C   UNL     1      11.161 -11.957   2.783  1.00  0.00     0.135 A 
ATOM     66  F   UNL     1       7.775 -13.209   3.253  1.00  0.00    -0.206 F 
ATOM     67  C   UNL     1       9.838 -14.282   3.569  1.00  0.00     0.059 A 
ATOM     68  C   UNL     1      11.904 -13.081   3.127  1.00  0.00     0.059 A 
ATOM     69  F   UNL     1      11.821 -10.848   2.414  1.00  0.00    -0.206 F 
ATOM     70  C   UNL     1      11.233 -14.234   3.533  1.00  0.00     0.060 A 
BRANCH  70  71
ATOM     71  S   UNL     1      12.164 -15.709   4.000  1.00  0.00     0.124 S 
ATOM     72  O   UNL     1      12.069 -15.666   5.455  1.00  0.00    -0.237 OA
ATOM     73  O   UNL     1      11.412 -16.776   3.346  1.00  0.00    -0.237 OA
ATOM     74  O   UNL     1      13.492 -15.459   3.448  1.00  0.00    -0.744 OA
ENDBRANCH  70  71
ENDBRANCH  38  63
ENDBRANCH  12  13
ENDBRANCH   5   7
ENDBRANCH   2   3
ENDBRANCH   1   2
BRANCH   1  75
ATOM     75  C   UNL     1       4.601   2.815  -2.339  1.00  0.00     0.023 C 
BRANCH  75  76
ATOM     76  C   UNL     1       4.758   3.924  -1.305  1.00  0.00     0.116 C 
BRANCH  76  77
ATOM     77  N   UNL     1       6.129   4.179  -0.899  1.00  0.00    -0.356 N 
ATOM     78  C   UNL     1       6.835   5.337  -0.757  1.00  0.00     0.226 C 
ATOM     79  H   UNL     1       6.644   3.367  -0.688  1.00  0.00     0.163 HD
ATOM     80  O   UNL     1       7.936   5.253  -0.203  1.00  0.00    -0.274 OA
BRANCH  78  81
ATOM     81  C   UNL     1       6.291   6.697  -1.254  1.00  0.00     0.050 C 
ATOM     82  C   UNL     1       5.017   7.036  -0.422  1.00  0.00     0.017 C 
ATOM     83  C   UNL     1       7.321   7.818  -0.909  1.00  0.00     0.017 C 
ATOM     84  C   UNL     1       4.462   8.437  -0.653  1.00  0.00     0.001 C 
ATOM     85  C   UNL     1       6.796   9.229  -1.184  1.00  0.00     0.001 C 
ATOM     86  C   UNL     1       5.512   9.509  -0.413  1.00  0.00     0.000 C 
BRANCH  81  87
ATOM     87  C   UNL     1       6.041   6.644  -2.798  1.00  0.00     0.023 C 
BRANCH  87  88
ATOM     88  C   UNL     1       7.276   6.549  -3.723  1.00  0.00     0.057 C 
BRANCH  88  89
ATOM     89  C   UNL     1       8.097   5.290  -3.598  1.00  0.00     0.040 A 
ATOM     90  C   UNL     1       9.404   5.338  -3.117  1.00  0.00     0.024 A 
ATOM     91  N   UNL     1       7.508   4.129  -3.973  1.00  0.00    -0.261 NA
ATOM     92  C   UNL     1      10.120   4.152  -2.980  1.00  0.00     0.003 A 
ATOM     93  C   UNL     1       8.230   2.992  -3.831  1.00  0.00     0.111 A 
ATOM     94  C   UNL     1       9.522   2.952  -3.337  1.00  0.00     0.020 A 
ENDBRANCH  88  89
ENDBRANCH  87  88
ENDBRANCH  81  87
ENDBRANCH  78  81
ENDBRANCH  76  77
ENDBRANCH  75  76
ENDBRANCH   1  75
TORSDOF 17
