REMARK SMILES CC1(C)Cc2c(-c3ccccc3)c(-c3ccc(Cl)cc3)c(CC(=O)NCCCCNC(=O)c3ccc(-c4c5nc(c(-c6c(F)cc(S(=O)(=O)[O-])cc6F)c6ccc([nH]6)c(-c6c(F)cc(S(=O)(=O)[O-])cc6F)c6nc(c(-c7c(F)cc(S(=O)(=O)[O-])cc7F)c7ccc4[nH]7)C=C6)C=C5)cc3)n2C1
REMARK SMILES IDX 28 1 27 2 26 3 25 4 23 5 24 6 22 8 21 9 1 10 2 11 3 12 4 13
REMARK SMILES IDX 100 14 5 15 99 16 6 17 13 18 7 19 8 20 12 21 9 22 11 23
REMARK SMILES IDX 10 24 14 25 15 26 20 27 16 28 19 29 17 30 18 31 29 32 30 33
REMARK SMILES IDX 31 34 32 36 33 37 34 38 98 39 35 40 97 41 36 42 37 43 38 44
REMARK SMILES IDX 91 45 39 46 96 47 90 48 92 49 40 50 95 51 89 52 88 53 41 55
REMARK SMILES IDX 75 56 54 57 74 58 55 59 58 60 73 61 93 62 56 63 57 64 72 66
REMARK SMILES IDX 94 67 59 68 42 69 43 70 52 71 44 72 45 73 51 74 53 75 46 76
REMARK SMILES IDX 47 77 48 78 49 79 50 80 76 81 77 82 86 83 78 84 79 85 85 86
REMARK SMILES IDX 87 87 80 88 81 89 82 90 83 91 84 92 60 93 61 94 70 95 62 96
REMARK SMILES IDX 63 97 69 98 71 99 64 100 65 101 66 102 67 103 68 104
REMARK H PARENT 25 7 30 35 92 54 58 65
REMARK Flexibility Score: inf
ROOT
ATOM      1  C   UNL     1      -2.627  -3.450   5.057  1.00  0.00     0.023 C 
ENDROOT
BRANCH   1   2
ATOM      2  C   UNL     1      -1.425  -2.851   4.321  1.00  0.00     0.023 C 
BRANCH   2   3
ATOM      3  C   UNL     1      -0.379  -2.116   5.162  1.00  0.00     0.116 C 
BRANCH   3   4
ATOM      4  N   UNL     1       0.433  -2.983   5.983  1.00  0.00    -0.356 N 
ATOM      5  C   UNL     1       1.713  -3.419   5.779  1.00  0.00     0.225 C 
ATOM      6  O   UNL     1       2.234  -4.091   6.673  1.00  0.00    -0.275 OA
ATOM      7  H   UNL     1       0.004  -3.306   6.808  1.00  0.00     0.163 HD
BRANCH   5   8
ATOM      8  C   UNL     1       2.490  -3.051   4.522  1.00  0.00     0.154 C 
BRANCH   8   9
ATOM      9  C   UNL     1       1.855  -3.541   3.252  1.00  0.00     0.036 A 
ATOM     10  C   UNL     1       1.247   0.038  -0.168  1.00  0.00     0.013 C 
ATOM     11  C   UNL     1       0.704  -1.037   0.774  1.00  0.00    -0.012 C 
ATOM     12  C   UNL     1      -0.695  -0.604   1.248  1.00  0.00     0.013 C 
ATOM     13  C   UNL     1       0.615  -2.435   0.077  1.00  0.00     0.063 C 
ATOM     14  C   UNL     1       1.664  -1.268   1.979  1.00  0.00     0.129 C 
ATOM     15  C   UNL     1       0.982  -3.364   1.172  1.00  0.00     0.027 A 
ATOM     16  N   UNL     1       1.556  -2.703   2.218  1.00  0.00    -0.346 N 
ATOM     17  C   UNL     1       0.902  -4.690   1.503  1.00  0.00     0.011 A 
ATOM     18  C   UNL     1       1.490  -4.819   2.814  1.00  0.00     0.011 A 
BRANCH  17  19
ATOM     19  C   UNL     1       0.289  -5.715   0.683  1.00  0.00    -0.016 A 
ATOM     20  C   UNL     1       0.788  -6.013  -0.588  1.00  0.00     0.009 A 
ATOM     21  C   UNL     1      -0.764  -6.475   1.209  1.00  0.00     0.009 A 
ATOM     22  C   UNL     1       0.247  -7.073  -1.317  1.00  0.00     0.001 A 
ATOM     23  C   UNL     1      -1.303  -7.534   0.479  1.00  0.00     0.001 A 
ATOM     24  C   UNL     1      -0.794  -7.835  -0.782  1.00  0.00     0.000 A 
ENDBRANCH  17  19
BRANCH  18  25
ATOM     25  C   UNL     1       1.653  -6.066   3.555  1.00  0.00    -0.016 A 
ATOM     26  C   UNL     1       2.439  -7.091   3.009  1.00  0.00     0.010 A 
ATOM     27  C   UNL     1       0.916  -6.326   4.714  1.00  0.00     0.010 A 
ATOM     28  C   UNL     1       2.487  -8.351   3.615  1.00  0.00     0.021 A 
ATOM     29  C   UNL     1       0.984  -7.575   5.339  1.00  0.00     0.021 A 
ATOM     30  C   UNL     1       1.760  -8.585   4.780  1.00  0.00     0.041 A 
ATOM     31  Cl  UNL     1       1.791 -10.144   5.508  1.00  0.00    -0.084 Cl
ENDBRANCH  18  25
ENDBRANCH   8   9
ENDBRANCH   5   8
ENDBRANCH   3   4
ENDBRANCH   2   3
ENDBRANCH   1   2
BRANCH   1  32
ATOM     32  C   UNL     1      -3.514  -2.434   5.767  1.00  0.00     0.116 C 
BRANCH  32  33
ATOM     33  N   UNL     1      -4.083  -1.422   4.869  1.00  0.00    -0.352 N 
ATOM     34  C   UNL     1      -4.713  -0.232   5.210  1.00  0.00     0.251 C 
ATOM     35  H   UNL     1      -4.009  -1.610   3.905  1.00  0.00     0.163 HD
ATOM     36  O   UNL     1      -5.460   0.335   4.435  1.00  0.00    -0.269 OA
BRANCH  34  37
ATOM     37  C   UNL     1      -4.427   0.338   6.540  1.00  0.00     0.039 A 
ATOM     38  C   UNL     1      -5.429   0.830   7.381  1.00  0.00     0.014 A 
ATOM     39  C   UNL     1      -3.105   0.292   6.958  1.00  0.00     0.014 A 
ATOM     40  C   UNL     1      -5.091   1.176   8.690  1.00  0.00     0.010 A 
ATOM     41  C   UNL     1      -2.815   0.445   8.285  1.00  0.00     0.010 A 
ATOM     42  C   UNL     1      -3.782   0.956   9.143  1.00  0.00    -0.014 A 
BRANCH  42  43
ATOM     43  C   UNL     1      -3.400   1.157  10.538  1.00  0.00     0.031 A 
ATOM     44  C   UNL     1      -4.183   0.363  11.527  1.00  0.00     0.074 A 
ATOM     45  C   UNL     1      -2.245   1.776  10.873  1.00  0.00     0.049 A 
ATOM     46  N   UNL     1      -5.002   0.794  12.429  1.00  0.00    -0.248 NA
ATOM     47  C   UNL     1      -4.164  -1.105  11.405  1.00  0.00     0.031 C 
ATOM     48  C   UNL     1      -1.198   2.293   9.979  1.00  0.00     0.029 A 
ATOM     49  N   UNL     1      -1.691   1.954  12.100  1.00  0.00    -0.354 N 
ATOM     50  C   UNL     1      -5.406  -0.331  13.150  1.00  0.00     0.074 A 
ATOM     51  C   UNL     1      -5.049  -1.462  12.338  1.00  0.00     0.031 C 
ATOM     52  C   UNL     1      -0.057   2.480  10.675  1.00  0.00     0.029 A 
ATOM     53  C   UNL     1      -0.340   2.284  12.083  1.00  0.00     0.049 A 
ATOM     54  H   UNL     1      -2.205   1.858  12.935  1.00  0.00     0.167 HD
ATOM     55  C   UNL     1      -5.755  -0.240  14.467  1.00  0.00     0.037 A 
ATOM     56  C   UNL     1       0.493   2.365  13.151  1.00  0.00     0.037 A 
ATOM     57  C   UNL     1      -5.980   1.139  14.837  1.00  0.00     0.049 A 
ATOM     58  C   UNL     1      -0.368   2.514  14.353  1.00  0.00     0.074 A 
ATOM     59  C   UNL     1      -6.821   2.143  14.398  1.00  0.00     0.029 A 
ATOM     60  N   UNL     1      -4.991   1.772  15.554  1.00  0.00    -0.354 N 
ATOM     61  N   UNL     1      -1.129   3.553  14.577  1.00  0.00    -0.248 NA
ATOM     62  C   UNL     1      -0.742   1.305  15.069  1.00  0.00     0.031 C 
ATOM     63  C   UNL     1      -6.033   3.332  14.449  1.00  0.00     0.029 A 
ATOM     64  C   UNL     1      -4.787   3.001  14.985  1.00  0.00     0.049 A 
ATOM     65  H   UNL     1      -4.516   1.407  16.335  1.00  0.00     0.167 HD
ATOM     66  C   UNL     1      -2.301   3.030  15.106  1.00  0.00     0.074 A 
ATOM     67  C   UNL     1      -1.966   1.655  15.473  1.00  0.00     0.031 C 
ATOM     68  C   UNL     1      -3.500   3.662  14.930  1.00  0.00     0.037 A 
BRANCH  55  69
ATOM     69  C   UNL     1      -5.504  -1.311  15.520  1.00  0.00     0.058 A 
ATOM     70  C   UNL     1      -5.925  -1.066  16.848  1.00  0.00     0.135 A 
ATOM     71  C   UNL     1      -4.625  -2.406  15.368  1.00  0.00     0.135 A 
ATOM     72  F   UNL     1      -6.793  -0.078  17.121  1.00  0.00    -0.206 F 
ATOM     73  C   UNL     1      -5.406  -1.757  17.943  1.00  0.00     0.059 A 
ATOM     74  C   UNL     1      -4.135  -3.142  16.442  1.00  0.00     0.059 A 
ATOM     75  F   UNL     1      -4.119  -2.772  14.187  1.00  0.00    -0.206 F 
ATOM     76  C   UNL     1      -4.486  -2.775  17.729  1.00  0.00     0.060 A 
BRANCH  76  77
ATOM     77  S   UNL     1      -3.699  -3.570  19.140  1.00  0.00     0.124 S 
ATOM     78  O   UNL     1      -2.862  -2.489  19.647  1.00  0.00    -0.237 OA
ATOM     79  O   UNL     1      -4.848  -3.932  19.962  1.00  0.00    -0.237 OA
ATOM     80  O   UNL     1      -2.986  -4.692  18.536  1.00  0.00    -0.744 OA
ENDBRANCH  76  77
ENDBRANCH  55  69
BRANCH  56  81
ATOM     81  C   UNL     1       1.933   1.999  13.224  1.00  0.00     0.058 A 
ATOM     82  C   UNL     1       2.725   2.379  14.322  1.00  0.00     0.135 A 
ATOM     83  C   UNL     1       2.492   1.035  12.360  1.00  0.00     0.135 A 
ATOM     84  F   UNL     1       2.265   3.279  15.204  1.00  0.00    -0.206 F 
ATOM     85  C   UNL     1       3.972   1.799  14.579  1.00  0.00     0.059 A 
ATOM     86  C   UNL     1       3.737   0.450  12.590  1.00  0.00     0.059 A 
ATOM     87  F   UNL     1       1.802   0.564  11.310  1.00  0.00    -0.206 F 
ATOM     88  C   UNL     1       4.461   0.817  13.718  1.00  0.00     0.060 A 
BRANCH  88  89
ATOM     89  S   UNL     1       5.986  -0.060  14.142  1.00  0.00     0.124 S 
ATOM     90  O   UNL     1       6.993   0.979  13.954  1.00  0.00    -0.237 OA
ATOM     91  O   UNL     1       5.737  -0.463  15.522  1.00  0.00    -0.237 OA
ATOM     92  O   UNL     1       6.030  -1.153  13.174  1.00  0.00    -0.744 OA
ENDBRANCH  88  89
ENDBRANCH  56  81
BRANCH  68  93
ATOM     93  C   UNL     1      -3.497   5.085  14.428  1.00  0.00     0.058 A 
ATOM     94  C   UNL     1      -3.047   5.484  13.157  1.00  0.00     0.135 A 
ATOM     95  C   UNL     1      -4.132   6.059  15.213  1.00  0.00     0.135 A 
ATOM     96  F   UNL     1      -2.522   4.600  12.300  1.00  0.00    -0.206 F 
ATOM     97  C   UNL     1      -3.189   6.798  12.704  1.00  0.00     0.059 A 
ATOM     98  C   UNL     1      -4.313   7.366  14.770  1.00  0.00     0.059 A 
ATOM     99  F   UNL     1      -4.641   5.728  16.412  1.00  0.00    -0.206 F 
ATOM    100  C   UNL     1      -3.828   7.732  13.517  1.00  0.00     0.060 A 
BRANCH 100 101
ATOM    101  S   UNL     1      -4.082   9.410  12.899  1.00  0.00     0.124 S 
ATOM    102  O   UNL     1      -2.729   9.955  12.924  1.00  0.00    -0.237 OA
ATOM    103  O   UNL     1      -4.648   9.178  11.573  1.00  0.00    -0.237 OA
ATOM    104  O   UNL     1      -5.008   9.994  13.867  1.00  0.00    -0.744 OA
ENDBRANCH 100 101
ENDBRANCH  68  93
ENDBRANCH  42  43
ENDBRANCH  34  37
ENDBRANCH  32  33
ENDBRANCH   1  32
TORSDOF 17
