REMARK SMILES Cc1c(Cl)cc2c(c1C)O[C@H](C(F)(F)F)C(C(=O)NCCCCNC(=O)c1ccc(-c3c4nc(c(-c5c(F)cc(S(=O)(=O)[O-])cc5F)c5ccc([nH]5)c(-c5c(F)cc(S(=O)(=O)[O-])cc5F)c5nc(c(-c6c(F)cc(S(=O)(=O)[O-])cc6F)c6ccc3[nH]6)C=C5)C=C4)cc1)=C2
REMARK SMILES IDX 22 1 21 2 20 3 19 4 17 5 18 6 16 8 1 9 2 10 3 11 8 12 4 13
REMARK SMILES IDX 5 14 7 15 9 16 6 17 10 18 93 19 11 20 12 21 13 22 14 23
REMARK SMILES IDX 15 24 23 25 24 26 25 27 26 29 27 30 28 31 92 32 29 33 91 34
REMARK SMILES IDX 30 35 31 36 32 37 85 38 33 39 90 40 84 41 86 42 34 43 89 44
REMARK SMILES IDX 83 45 82 46 35 48 69 49 48 50 68 51 49 52 52 53 67 54 87 55
REMARK SMILES IDX 50 56 51 57 66 59 88 60 53 61 36 62 37 63 46 64 38 65 39 66
REMARK SMILES IDX 45 67 47 68 40 69 41 70 42 71 43 72 44 73 70 74 71 75 80 76
REMARK SMILES IDX 72 77 73 78 79 79 81 80 74 81 75 82 76 83 77 84 78 85 54 86
REMARK SMILES IDX 55 87 64 88 56 89 57 90 63 91 65 92 58 93 59 94 60 95 61 96
REMARK SMILES IDX 62 97
REMARK H PARENT 19 7 24 28 86 47 52 58
REMARK Flexibility Score: inf
ROOT
ATOM      1  C   UNL     1      -6.892   7.723  -1.500  1.00  0.00     0.023 C 
ENDROOT
BRANCH   1   2
ATOM      2  C   UNL     1      -5.981   6.492  -1.498  1.00  0.00     0.023 C 
BRANCH   2   3
ATOM      3  C   UNL     1      -4.826   6.566  -2.494  1.00  0.00     0.116 C 
BRANCH   3   4
ATOM      4  N   UNL     1      -3.665   7.232  -1.931  1.00  0.00    -0.352 N 
ATOM      5  C   UNL     1      -2.475   6.864  -1.403  1.00  0.00     0.251 C 
ATOM      6  O   UNL     1      -1.754   7.794  -1.025  1.00  0.00    -0.270 OA
ATOM      7  H   UNL     1      -3.772   8.211  -1.934  1.00  0.00     0.163 HD
BRANCH   5   8
ATOM      8  C   UNL     1      -1.994   5.458  -1.253  1.00  0.00     0.067 C 
ATOM      9  C   UNL     1       1.286  -0.045   0.087  1.00  0.00     0.046 C 
ATOM     10  C   UNL     1       0.743   1.351  -0.087  1.00  0.00    -0.026 A 
ATOM     11  C   UNL     1       1.512   2.486   0.244  1.00  0.00     0.045 A 
ATOM     12  C   UNL     1      -0.583   1.544  -0.548  1.00  0.00    -0.004 A 
ATOM     13  Cl  UNL     1       3.116   2.362   0.883  1.00  0.00    -0.084 Cl
ATOM     14  C   UNL     1       1.003   3.779   0.080  1.00  0.00     0.032 A 
ATOM     15  C   UNL     1      -1.064   2.856  -0.732  1.00  0.00     0.131 A 
ATOM     16  C   UNL     1      -1.496   0.395  -0.901  1.00  0.00     0.049 C 
ATOM     17  C   UNL     1      -0.284   3.969  -0.417  1.00  0.00     0.019 A 
ATOM     18  O   UNL     1      -2.349   2.996  -1.184  1.00  0.00    -0.475 OA
ATOM     19  C   UNL     1      -0.841   5.307  -0.574  1.00  0.00     0.025 C 
ATOM     20  C   UNL     1      -2.675   4.255  -1.836  1.00  0.00     0.314 C 
BRANCH  20  21
ATOM     21  C   UNL     1      -2.447   4.116  -3.353  1.00  0.00     0.429 C 
ATOM     22  F   UNL     1      -3.305   3.206  -3.879  1.00  0.00    -0.167 F 
ATOM     23  F   UNL     1      -2.659   5.275  -4.019  1.00  0.00    -0.167 F 
ATOM     24  F   UNL     1      -1.193   3.710  -3.657  1.00  0.00    -0.167 F 
ENDBRANCH  20  21
ENDBRANCH   5   8
ENDBRANCH   3   4
ENDBRANCH   2   3
ENDBRANCH   1   2
BRANCH   1  25
ATOM     25  C   UNL     1      -7.501   8.090  -2.853  1.00  0.00     0.116 C 
BRANCH  25  26
ATOM     26  N   UNL     1      -8.166   6.980  -3.521  1.00  0.00    -0.352 N 
ATOM     27  C   UNL     1      -9.223   7.036  -4.400  1.00  0.00     0.251 C 
ATOM     28  H   UNL     1      -7.818   6.081  -3.320  1.00  0.00     0.163 HD
ATOM     29  O   UNL     1      -9.731   6.008  -4.833  1.00  0.00    -0.269 OA
BRANCH  27  30
ATOM     30  C   UNL     1      -9.762   8.358  -4.770  1.00  0.00     0.039 A 
ATOM     31  C   UNL     1     -11.108   8.629  -4.518  1.00  0.00     0.014 A 
ATOM     32  C   UNL     1      -8.916   9.346  -5.281  1.00  0.00     0.014 A 
ATOM     33  C   UNL     1     -11.592   9.924  -4.706  1.00  0.00     0.010 A 
ATOM     34  C   UNL     1      -9.386  10.648  -5.415  1.00  0.00     0.010 A 
ATOM     35  C   UNL     1     -10.724  10.950  -5.116  1.00  0.00    -0.014 A 
BRANCH  35  36
ATOM     36  C   UNL     1     -11.195  12.351  -5.221  1.00  0.00     0.031 A 
ATOM     37  C   UNL     1     -11.273  13.018  -6.564  1.00  0.00     0.074 A 
ATOM     38  C   UNL     1     -11.494  13.037  -4.100  1.00  0.00     0.049 A 
ATOM     39  N   UNL     1     -11.594  14.251  -6.854  1.00  0.00    -0.248 NA
ATOM     40  C   UNL     1     -10.920  12.195  -7.732  1.00  0.00     0.031 C 
ATOM     41  C   UNL     1     -11.416  12.507  -2.737  1.00  0.00     0.029 A 
ATOM     42  N   UNL     1     -11.920  14.329  -3.929  1.00  0.00    -0.354 N 
ATOM     43  C   UNL     1     -11.475  14.357  -8.233  1.00  0.00     0.074 A 
ATOM     44  C   UNL     1     -11.006  13.076  -8.718  1.00  0.00     0.031 C 
ATOM     45  C   UNL     1     -11.810  13.456  -1.872  1.00  0.00     0.029 A 
ATOM     46  C   UNL     1     -12.139  14.669  -2.615  1.00  0.00     0.049 A 
ATOM     47  H   UNL     1     -12.056  14.955  -4.677  1.00  0.00     0.167 HD
ATOM     48  C   UNL     1     -11.757  15.417  -9.026  1.00  0.00     0.037 A 
ATOM     49  C   UNL     1     -12.560  15.828  -2.072  1.00  0.00     0.037 A 
ATOM     50  C   UNL     1     -12.247  16.679  -8.542  1.00  0.00     0.049 A 
ATOM     51  C   UNL     1     -12.869  16.990  -2.973  1.00  0.00     0.074 A 
ATOM     52  C   UNL     1     -12.595  17.804  -9.268  1.00  0.00     0.029 A 
ATOM     53  N   UNL     1     -12.466  16.981  -7.206  1.00  0.00    -0.354 N 
ATOM     54  N   UNL     1     -12.781  17.063  -4.279  1.00  0.00    -0.248 NA
ATOM     55  C   UNL     1     -13.335  18.227  -2.329  1.00  0.00     0.031 C 
ATOM     56  C   UNL     1     -13.004  18.795  -8.368  1.00  0.00     0.029 A 
ATOM     57  C   UNL     1     -12.939  18.276  -7.085  1.00  0.00     0.049 A 
ATOM     58  H   UNL     1     -12.308  16.365  -6.454  1.00  0.00     0.167 HD
ATOM     59  C   UNL     1     -13.197  18.346  -4.616  1.00  0.00     0.074 A 
ATOM     60  C   UNL     1     -13.545  19.012  -3.377  1.00  0.00     0.031 C 
ATOM     61  C   UNL     1     -13.283  18.919  -5.841  1.00  0.00     0.037 A 
BRANCH  48  62
ATOM     62  C   UNL     1     -11.554  15.243 -10.504  1.00  0.00     0.058 A 
ATOM     63  C   UNL     1     -12.430  14.460 -11.272  1.00  0.00     0.135 A 
ATOM     64  C   UNL     1     -10.487  15.874 -11.162  1.00  0.00     0.135 A 
ATOM     65  F   UNL     1     -13.454  13.821 -10.686  1.00  0.00    -0.206 F 
ATOM     66  C   UNL     1     -12.240  14.286 -12.638  1.00  0.00     0.059 A 
ATOM     67  C   UNL     1     -10.290  15.731 -12.533  1.00  0.00     0.059 A 
ATOM     68  F   UNL     1      -9.618  16.630 -10.472  1.00  0.00    -0.206 F 
ATOM     69  C   UNL     1     -11.164  14.922 -13.259  1.00  0.00     0.060 A 
BRANCH  69  70
ATOM     70  S   UNL     1     -10.927  14.680 -15.032  1.00  0.00     0.124 S 
ATOM     71  O   UNL     1     -10.394  13.322 -15.070  1.00  0.00    -0.237 OA
ATOM     72  O   UNL     1     -12.280  14.845 -15.555  1.00  0.00    -0.237 OA
ATOM     73  O   UNL     1      -9.986  15.735 -15.395  1.00  0.00    -0.744 OA
ENDBRANCH  69  70
ENDBRANCH  48  62
BRANCH  49  74
ATOM     74  C   UNL     1     -12.755  15.925  -0.603  1.00  0.00     0.058 A 
ATOM     75  C   UNL     1     -14.045  15.920  -0.052  1.00  0.00     0.135 A 
ATOM     76  C   UNL     1     -11.666  15.988   0.279  1.00  0.00     0.135 A 
ATOM     77  F   UNL     1     -15.117  15.866  -0.858  1.00  0.00    -0.206 F 
ATOM     78  C   UNL     1     -14.250  15.975   1.322  1.00  0.00     0.059 A 
ATOM     79  C   UNL     1     -11.845  16.028   1.658  1.00  0.00     0.059 A 
ATOM     80  F   UNL     1     -10.412  15.981  -0.200  1.00  0.00    -0.206 F 
ATOM     81  C   UNL     1     -13.143  16.024   2.170  1.00  0.00     0.060 A 
BRANCH  81  82
ATOM     82  S   UNL     1     -13.420  16.024   3.955  1.00  0.00     0.124 S 
ATOM     83  O   UNL     1     -13.893  17.385   4.179  1.00  0.00    -0.237 OA
ATOM     84  O   UNL     1     -14.415  14.968   4.111  1.00  0.00    -0.237 OA
ATOM     85  O   UNL     1     -12.101  15.715   4.498  1.00  0.00    -0.744 OA
ENDBRANCH  81  82
ENDBRANCH  49  74
BRANCH  61  86
ATOM     86  C   UNL     1     -13.786  20.331  -5.909  1.00  0.00     0.058 A 
ATOM     87  C   UNL     1     -12.962  21.416  -5.577  1.00  0.00     0.135 A 
ATOM     88  C   UNL     1     -15.079  20.604  -6.383  1.00  0.00     0.135 A 
ATOM     89  F   UNL     1     -11.721  21.205  -5.113  1.00  0.00    -0.206 F 
ATOM     90  C   UNL     1     -13.406  22.728  -5.705  1.00  0.00     0.059 A 
ATOM     91  C   UNL     1     -15.538  21.908  -6.536  1.00  0.00     0.059 A 
ATOM     92  F   UNL     1     -15.902  19.598  -6.720  1.00  0.00    -0.206 F 
ATOM     93  C   UNL     1     -14.695  22.964  -6.189  1.00  0.00     0.060 A 
BRANCH  93  94
ATOM     94  S   UNL     1     -15.240  24.672  -6.403  1.00  0.00     0.124 S 
ATOM     95  O   UNL     1     -15.505  25.070  -5.024  1.00  0.00    -0.237 OA
ATOM     96  O   UNL     1     -14.079  25.296  -7.030  1.00  0.00    -0.237 OA
ATOM     97  O   UNL     1     -16.416  24.548  -7.258  1.00  0.00    -0.744 OA
ENDBRANCH  93  94
ENDBRANCH  61  86
ENDBRANCH  35  36
ENDBRANCH  27  30
ENDBRANCH  25  26
ENDBRANCH   1  25
TORSDOF 15
