REMARK SMILES Cc1cccc2c1[C@H]1c3c(C)cccc3[C@H](CC(=O)NCCCCNC(=O)c3ccc(-c4c5nc(c(-c6c(F)cc(S(=O)(=O)[O-])cc6F)c6ccc([nH]6)c(-c6c(F)cc(S(=O)(=O)[O-])cc6F)c6nc(c(-c7c(F)cc(S(=O)(=O)[O-])cc7F)c7ccc4[nH]7)C=C6)C=C5)cc3)C[C@H]1CC2
REMARK SMILES IDX 23 1 22 2 21 3 20 4 18 5 19 6 17 8 16 9 1 10 2 11 3 12 7 13
REMARK SMILES IDX 4 14 6 15 8 16 5 17 97 18 9 19 95 20 96 21 10 22 15 23 94 24
REMARK SMILES IDX 12 25 11 26 14 27 13 28 24 29 25 30 26 31 27 33 28 34 29 35
REMARK SMILES IDX 93 36 30 37 92 38 31 39 32 40 33 41 86 42 34 43 91 44 85 45
REMARK SMILES IDX 87 46 35 47 90 48 84 49 83 50 36 52 70 53 49 54 69 55 50 56
REMARK SMILES IDX 53 57 68 58 88 59 51 60 52 61 67 63 89 64 54 65 37 66 38 67
REMARK SMILES IDX 47 68 39 69 40 70 46 71 48 72 41 73 42 74 43 75 44 76 45 77
REMARK SMILES IDX 71 78 72 79 81 80 73 81 74 82 80 83 82 84 75 85 76 86 77 87
REMARK SMILES IDX 78 88 79 89 55 90 56 91 65 92 57 93 58 94 64 95 66 96 59 97
REMARK SMILES IDX 60 98 61 99 62 100 63 101
REMARK H PARENT 20 7 25 32 87 51 53 62
REMARK Flexibility Score: inf
ROOT
ATOM      1  C   UNL     1      -0.259  -3.176   2.159  1.00  0.00     0.023 C 
ENDROOT
BRANCH   1   2
ATOM      2  C   UNL     1       0.715  -3.545   1.050  1.00  0.00     0.023 C 
BRANCH   2   3
ATOM      3  C   UNL     1       1.383  -4.902   1.177  1.00  0.00     0.116 C 
BRANCH   3   4
ATOM      4  N   UNL     1       0.445  -5.980   0.934  1.00  0.00    -0.356 N 
ATOM      5  C   UNL     1       0.112  -6.599  -0.232  1.00  0.00     0.220 C 
ATOM      6  O   UNL     1      -0.730  -7.500  -0.198  1.00  0.00    -0.275 OA
ATOM      7  H   UNL     1      -0.022  -6.315   1.734  1.00  0.00     0.163 HD
BRANCH   5   8
ATOM      8  C   UNL     1       0.816  -6.247  -1.532  1.00  0.00     0.108 C 
BRANCH   8   9
ATOM      9  C   UNL     1       0.271  -5.109  -2.452  1.00  0.00     0.029 C 
ATOM     10  C   UNL     1       1.221   0.174  -0.457  1.00  0.00     0.044 C 
ATOM     11  C   UNL     1       0.623   0.402  -1.823  1.00  0.00    -0.047 A 
ATOM     12  C   UNL     1       0.416   1.728  -2.236  1.00  0.00     0.004 A 
ATOM     13  C   UNL     1       0.310  -0.660  -2.712  1.00  0.00    -0.034 A 
ATOM     14  C   UNL     1      -0.055   2.010  -3.514  1.00  0.00     0.001 A 
ATOM     15  C   UNL     1      -0.046  -0.358  -4.046  1.00  0.00    -0.044 A 
ATOM     16  C   UNL     1       0.378  -2.119  -2.283  1.00  0.00     0.053 C 
ATOM     17  C   UNL     1      -0.258   0.976  -4.422  1.00  0.00     0.004 A 
ATOM     18  C   UNL     1      -0.090  -1.416  -5.128  1.00  0.00     0.036 C 
ATOM     19  C   UNL     1      -0.931  -2.857  -1.894  1.00  0.00    -0.034 A 
ATOM     20  C   UNL     1       1.101  -2.871  -3.419  1.00  0.00     0.002 C 
ATOM     21  C   UNL     1       0.253  -2.847  -4.697  1.00  0.00     0.009 C 
ATOM     22  C   UNL     1      -2.090  -2.233  -1.349  1.00  0.00    -0.047 A 
ATOM     23  C   UNL     1      -0.929  -4.293  -1.980  1.00  0.00    -0.040 A 
ATOM     24  C   UNL     1       1.467  -4.266  -2.928  1.00  0.00     0.013 C 
ATOM     25  C   UNL     1      -3.208  -3.017  -0.990  1.00  0.00     0.004 A 
ATOM     26  C   UNL     1      -2.242  -0.762  -1.069  1.00  0.00     0.044 C 
ATOM     27  C   UNL     1      -2.096  -5.018  -1.668  1.00  0.00     0.004 A 
ATOM     28  C   UNL     1      -3.220  -4.390  -1.162  1.00  0.00     0.001 A 
ENDBRANCH   8   9
ENDBRANCH   5   8
ENDBRANCH   3   4
ENDBRANCH   2   3
ENDBRANCH   1   2
BRANCH   1  29
ATOM     29  C   UNL     1       0.439  -2.757   3.438  1.00  0.00     0.116 C 
BRANCH  29  30
ATOM     30  N   UNL     1       1.226  -1.539   3.263  1.00  0.00    -0.352 N 
ATOM     31  C   UNL     1       1.119  -0.334   3.917  1.00  0.00     0.251 C 
ATOM     32  H   UNL     1       1.933  -1.588   2.579  1.00  0.00     0.163 HD
ATOM     33  O   UNL     1       1.727   0.646   3.515  1.00  0.00    -0.269 OA
BRANCH  31  34
ATOM     34  C   UNL     1       0.235  -0.249   5.098  1.00  0.00     0.039 A 
ATOM     35  C   UNL     1      -0.668   0.809   5.206  1.00  0.00     0.014 A 
ATOM     36  C   UNL     1       0.269  -1.260   6.061  1.00  0.00     0.014 A 
ATOM     37  C   UNL     1      -1.595   0.811   6.250  1.00  0.00     0.010 A 
ATOM     38  C   UNL     1      -0.716  -1.309   7.034  1.00  0.00     0.010 A 
ATOM     39  C   UNL     1      -1.647  -0.267   7.148  1.00  0.00    -0.014 A 
BRANCH  39  40
ATOM     40  C   UNL     1      -2.616  -0.309   8.268  1.00  0.00     0.031 A 
ATOM     41  C   UNL     1      -2.091  -0.298   9.678  1.00  0.00     0.074 A 
ATOM     42  C   UNL     1      -3.934  -0.435   8.023  1.00  0.00     0.049 A 
ATOM     43  N   UNL     1      -2.737  -0.468  10.801  1.00  0.00    -0.248 NA
ATOM     44  C   UNL     1      -0.638  -0.114   9.843  1.00  0.00     0.031 C 
ATOM     45  C   UNL     1      -4.552  -0.502   6.696  1.00  0.00     0.029 A 
ATOM     46  N   UNL     1      -4.994  -0.541   8.887  1.00  0.00    -0.354 N 
ATOM     47  C   UNL     1      -1.769  -0.430  11.797  1.00  0.00     0.074 A 
ATOM     48  C   UNL     1      -0.487  -0.290  11.146  1.00  0.00     0.031 C 
ATOM     49  C   UNL     1      -5.884  -0.612   6.836  1.00  0.00     0.029 A 
ATOM     50  C   UNL     1      -6.212  -0.657   8.258  1.00  0.00     0.049 A 
ATOM     51  H   UNL     1      -4.893  -0.535   9.866  1.00  0.00     0.167 HD
ATOM     52  C   UNL     1      -1.938  -0.470  13.138  1.00  0.00     0.037 A 
ATOM     53  C   UNL     1      -7.448  -0.785   8.777  1.00  0.00     0.037 A 
ATOM     54  C   UNL     1      -3.221  -0.550  13.779  1.00  0.00     0.049 A 
ATOM     55  C   UNL     1      -7.611  -0.814  10.273  1.00  0.00     0.074 A 
ATOM     56  C   UNL     1      -3.509  -0.541  15.131  1.00  0.00     0.029 A 
ATOM     57  N   UNL     1      -4.432  -0.634  13.108  1.00  0.00    -0.354 N 
ATOM     58  N   UNL     1      -6.688  -0.742  11.203  1.00  0.00    -0.248 NA
ATOM     59  C   UNL     1      -8.980  -0.939  10.792  1.00  0.00     0.031 C 
ATOM     60  C   UNL     1      -4.896  -0.640  15.279  1.00  0.00     0.029 A 
ATOM     61  C   UNL     1      -5.471  -0.680  14.019  1.00  0.00     0.049 A 
ATOM     62  H   UNL     1      -4.536  -0.657  12.129  1.00  0.00     0.167 HD
ATOM     63  C   UNL     1      -7.366  -0.789  12.416  1.00  0.00     0.074 A 
ATOM     64  C   UNL     1      -8.777  -0.885  12.102  1.00  0.00     0.031 C 
ATOM     65  C   UNL     1      -6.869  -0.758  13.676  1.00  0.00     0.037 A 
BRANCH  52  66
ATOM     66  C   UNL     1      -0.710  -0.386  13.996  1.00  0.00     0.058 A 
ATOM     67  C   UNL     1       0.005   0.816  14.127  1.00  0.00     0.135 A 
ATOM     68  C   UNL     1      -0.261  -1.500  14.723  1.00  0.00     0.135 A 
ATOM     69  F   UNL     1      -0.367   1.903  13.433  1.00  0.00    -0.206 F 
ATOM     70  C   UNL     1       1.133   0.906  14.934  1.00  0.00     0.059 A 
ATOM     71  C   UNL     1       0.851  -1.425  15.557  1.00  0.00     0.059 A 
ATOM     72  F   UNL     1      -0.904  -2.674  14.626  1.00  0.00    -0.206 F 
ATOM     73  C   UNL     1       1.546  -0.220  15.649  1.00  0.00     0.060 A 
BRANCH  73  74
ATOM     74  S   UNL     1       2.995  -0.074  16.714  1.00  0.00     0.124 S 
ATOM     75  O   UNL     1       4.073  -0.006  15.731  1.00  0.00    -0.237 OA
ATOM     76  O   UNL     1       2.724   1.161  17.442  1.00  0.00    -0.237 OA
ATOM     77  O   UNL     1       2.953  -1.294  17.514  1.00  0.00    -0.744 OA
ENDBRANCH  73  74
ENDBRANCH  52  66
BRANCH  53  78
ATOM     78  C   UNL     1      -8.634  -0.860   7.882  1.00  0.00     0.058 A 
ATOM     79  C   UNL     1      -9.524   0.220   7.785  1.00  0.00     0.135 A 
ATOM     80  C   UNL     1      -8.905  -2.002   7.114  1.00  0.00     0.135 A 
ATOM     81  F   UNL     1      -9.309   1.332   8.505  1.00  0.00    -0.206 F 
ATOM     82  C   UNL     1     -10.652   0.166   6.974  1.00  0.00     0.059 A 
ATOM     83  C   UNL     1     -10.017  -2.073   6.279  1.00  0.00     0.059 A 
ATOM     84  F   UNL     1      -8.075  -3.056   7.159  1.00  0.00    -0.206 F 
ATOM     85  C   UNL     1     -10.891  -0.988   6.224  1.00  0.00     0.060 A 
BRANCH  85  86
ATOM     86  S   UNL     1     -12.343  -1.034   5.151  1.00  0.00     0.124 S 
ATOM     87  O   UNL     1     -13.421  -1.175   6.122  1.00  0.00    -0.237 OA
ATOM     88  O   UNL     1     -12.261   0.253   4.469  1.00  0.00    -0.237 OA
ATOM     89  O   UNL     1     -12.098  -2.199   4.306  1.00  0.00    -0.744 OA
ENDBRANCH  85  86
ENDBRANCH  53  78
BRANCH  65  90
ATOM     90  C   UNL     1      -7.849  -0.802  14.811  1.00  0.00     0.058 A 
ATOM     91  C   UNL     1      -8.474  -1.999  15.189  1.00  0.00     0.135 A 
ATOM     92  C   UNL     1      -8.094   0.345  15.582  1.00  0.00     0.135 A 
ATOM     93  F   UNL     1      -8.273  -3.120  14.479  1.00  0.00    -0.206 F 
ATOM     94  C   UNL     1      -9.316  -2.057  16.293  1.00  0.00     0.059 A 
ATOM     95  C   UNL     1      -8.916   0.305  16.703  1.00  0.00     0.059 A 
ATOM     96  F   UNL     1      -7.510   1.512  15.264  1.00  0.00    -0.206 F 
ATOM     97  C   UNL     1      -9.526  -0.900  17.048  1.00  0.00     0.060 A 
BRANCH  97  98
ATOM     98  S   UNL     1     -10.573  -1.005  18.514  1.00  0.00     0.124 S 
ATOM     99  O   UNL     1     -11.903  -1.096  17.919  1.00  0.00    -0.237 OA
ATOM    100  O   UNL     1     -10.084  -2.218  19.162  1.00  0.00    -0.237 OA
ATOM    101  O   UNL     1     -10.287   0.237  19.226  1.00  0.00    -0.744 OA
ENDBRANCH  97  98
ENDBRANCH  65  90
ENDBRANCH  39  40
ENDBRANCH  31  34
ENDBRANCH  29  30
ENDBRANCH   1  29
TORSDOF 15
