REMARK SMILES C[C@@H](C(=O)NCCCCNC(=O)c1ccc(-c2c3nc(c(-c4c(F)cc(S(=O)(=O)[O-])cc4F)c4ccc([nH]4)c(-c4c(F)cc(S(=O)(=O)[O-])cc4F)c4nc(c(-c5c(F)cc(S(=O)(=O)[O-])cc5F)c5ccc2[nH]5)C=C4)C=C3)cc1)c1ccc(-c2ccc3[nH]ccc3c2)cc1
REMARK SMILES IDX 8 1 7 2 6 3 5 4 3 5 4 6 2 8 1 9 79 10 80 11 93 12 81 13
REMARK SMILES IDX 92 14 82 15 83 16 84 17 91 18 85 19 90 20 86 21 89 22 87 23
REMARK SMILES IDX 88 24 9 26 10 27 11 28 12 30 13 31 14 32 78 33 15 34 77 35
REMARK SMILES IDX 16 36 17 37 18 38 71 39 19 40 76 41 70 42 72 43 20 44 75 45
REMARK SMILES IDX 69 46 68 47 21 49 55 50 34 51 54 52 35 53 38 54 53 55 73 56
REMARK SMILES IDX 36 57 37 58 52 60 74 61 39 62 22 63 23 64 32 65 24 66 25 67
REMARK SMILES IDX 31 68 33 69 26 70 27 71 28 72 29 73 30 74 56 75 57 76 66 77
REMARK SMILES IDX 58 78 59 79 65 80 67 81 60 82 61 83 62 84 63 85 64 86 40 87
REMARK SMILES IDX 41 88 50 89 42 90 43 91 49 92 51 93 44 94 45 95 46 96 47 97
REMARK SMILES IDX 48 98
REMARK H PARENT 5 7 87 25 10 29 72 48 38 59
REMARK Flexibility Score: inf
ROOT
ATOM      1  C   UNL     1       5.021   2.313   1.157  1.00  0.00     0.023 C 
ENDROOT
BRANCH   1   2
ATOM      2  C   UNL     1       4.255   1.091   0.646  1.00  0.00     0.023 C 
BRANCH   2   3
ATOM      3  C   UNL     1       3.522   0.300   1.731  1.00  0.00     0.116 C 
BRANCH   3   4
ATOM      4  N   UNL     1       2.523   1.117   2.383  1.00  0.00    -0.356 N 
ATOM      5  C   UNL     1       1.168   1.141   2.234  1.00  0.00     0.227 C 
ATOM      6  O   UNL     1       0.572   2.007   2.876  1.00  0.00    -0.274 OA
ATOM      7  H   UNL     1       2.878   1.760   3.039  1.00  0.00     0.163 HD
BRANCH   5   8
ATOM      8  C   UNL     1       0.472   0.094   1.342  1.00  0.00     0.105 C 
ATOM      9  C   UNL     1       0.774   0.274  -0.149  1.00  0.00     0.023 C 
BRANCH   8  10
ATOM     10  C   UNL     1      -1.045   0.063   1.493  1.00  0.00    -0.036 A 
ATOM     11  C   UNL     1      -1.804   1.239   1.407  1.00  0.00     0.005 A 
ATOM     12  C   UNL     1      -1.717  -1.163   1.607  1.00  0.00     0.005 A 
ATOM     13  C   UNL     1      -3.193   1.193   1.439  1.00  0.00     0.009 A 
ATOM     14  C   UNL     1      -3.115  -1.209   1.623  1.00  0.00     0.009 A 
ATOM     15  C   UNL     1      -3.866  -0.031   1.525  1.00  0.00    -0.018 A 
BRANCH  15  16
ATOM     16  C   UNL     1      -5.327  -0.051   1.461  1.00  0.00    -0.018 A 
ATOM     17  C   UNL     1      -5.969   0.232   0.246  1.00  0.00     0.011 A 
ATOM     18  C   UNL     1      -6.096  -0.276   2.615  1.00  0.00     0.019 A 
ATOM     19  C   UNL     1      -7.361   0.286   0.141  1.00  0.00     0.027 A 
ATOM     20  C   UNL     1      -7.499  -0.180   2.544  1.00  0.00    -0.000 A 
ATOM     21  C   UNL     1      -8.096   0.081   1.311  1.00  0.00     0.045 A 
ATOM     22  C   UNL     1      -8.544  -0.256   3.506  1.00  0.00     0.028 A 
ATOM     23  N   UNL     1      -9.456   0.100   1.516  1.00  0.00    -0.361 N 
ATOM     24  C   UNL     1      -9.736  -0.058   2.847  1.00  0.00     0.083 A 
ATOM     25  H   UNL     1     -10.131   0.211   0.808  1.00  0.00     0.166 HD
ENDBRANCH  15  16
ENDBRANCH   8  10
ENDBRANCH   5   8
ENDBRANCH   3   4
ENDBRANCH   2   3
ENDBRANCH   1   2
BRANCH   1  26
ATOM     26  C   UNL     1       6.004   2.029   2.283  1.00  0.00     0.116 C 
BRANCH  26  27
ATOM     27  N   UNL     1       6.992   1.029   1.918  1.00  0.00    -0.352 N 
ATOM     28  C   UNL     1       8.345   1.026   2.155  1.00  0.00     0.251 C 
ATOM     29  H   UNL     1       6.645   0.246   1.434  1.00  0.00     0.163 HD
ATOM     30  O   UNL     1       9.050   0.173   1.629  1.00  0.00    -0.269 OA
BRANCH  28  31
ATOM     31  C   UNL     1       8.943   2.063   3.025  1.00  0.00     0.039 A 
ATOM     32  C   UNL     1      10.157   2.639   2.645  1.00  0.00     0.014 A 
ATOM     33  C   UNL     1       8.322   2.454   4.215  1.00  0.00     0.014 A 
ATOM     34  C   UNL     1      10.735   3.624   3.447  1.00  0.00     0.010 A 
ATOM     35  C   UNL     1       8.853   3.499   4.964  1.00  0.00     0.010 A 
ATOM     36  C   UNL     1      10.081   4.073   4.607  1.00  0.00    -0.014 A 
BRANCH  36  37
ATOM     37  C   UNL     1      10.702   5.096   5.487  1.00  0.00     0.031 A 
ATOM     38  C   UNL     1      11.089   4.736   6.898  1.00  0.00     0.074 A 
ATOM     39  C   UNL     1      10.893   6.349   5.029  1.00  0.00     0.049 A 
ATOM     40  N   UNL     1      11.640   5.483   7.820  1.00  0.00    -0.248 NA
ATOM     41  C   UNL     1      10.790   3.364   7.343  1.00  0.00     0.031 C 
ATOM     42  C   UNL     1      10.514   6.831   3.699  1.00  0.00     0.029 A 
ATOM     43  N   UNL     1      11.457   7.445   5.630  1.00  0.00    -0.354 N 
ATOM     44  C   UNL     1      11.736   4.680   8.952  1.00  0.00     0.074 A 
ATOM     45  C   UNL     1      11.130   3.410   8.622  1.00  0.00     0.031 C 
ATOM     46  C   UNL     1      10.892   8.114   3.572  1.00  0.00     0.029 A 
ATOM     47  C   UNL     1      11.507   8.555   4.820  1.00  0.00     0.049 A 
ATOM     48  H   UNL     1      11.794   7.438   6.555  1.00  0.00     0.167 HD
ATOM     49  C   UNL     1      12.305   4.963  10.148  1.00  0.00     0.037 A 
ATOM     50  C   UNL     1      12.001   9.786   5.056  1.00  0.00     0.037 A 
ATOM     51  C   UNL     1      12.935   6.220  10.457  1.00  0.00     0.049 A 
ATOM     52  C   UNL     1      12.642  10.073   6.389  1.00  0.00     0.074 A 
ATOM     53  C   UNL     1      13.595   6.589  11.615  1.00  0.00     0.029 A 
ATOM     54  N   UNL     1      12.982   7.313   9.604  1.00  0.00    -0.354 N 
ATOM     55  N   UNL     1      12.788   9.280   7.424  1.00  0.00    -0.248 NA
ATOM     56  C   UNL     1      13.199  11.418   6.579  1.00  0.00     0.031 C 
ATOM     57  C   UNL     1      13.996   7.923  11.483  1.00  0.00     0.029 A 
ATOM     58  C   UNL     1      13.644   8.364  10.217  1.00  0.00     0.049 A 
ATOM     59  H   UNL     1      12.602   7.338   8.696  1.00  0.00     0.167 HD
ATOM     60  C   UNL     1      13.494  10.015   8.370  1.00  0.00     0.074 A 
ATOM     61  C   UNL     1      13.748  11.314   7.781  1.00  0.00     0.031 C 
ATOM     62  C   UNL     1      13.902   9.647   9.611  1.00  0.00     0.037 A 
BRANCH  49  63
ATOM     63  C   UNL     1      12.267   3.896  11.210  1.00  0.00     0.058 A 
ATOM     64  C   UNL     1      13.001   2.704  11.093  1.00  0.00     0.135 A 
ATOM     65  C   UNL     1      11.505   4.080  12.376  1.00  0.00     0.135 A 
ATOM     66  F   UNL     1      13.734   2.466   9.994  1.00  0.00    -0.206 F 
ATOM     67  C   UNL     1      12.951   1.718  12.073  1.00  0.00     0.059 A 
ATOM     68  C   UNL     1      11.468   3.121  13.385  1.00  0.00     0.059 A 
ATOM     69  F   UNL     1      10.784   5.199  12.543  1.00  0.00    -0.206 F 
ATOM     70  C   UNL     1      12.181   1.936  13.216  1.00  0.00     0.060 A 
BRANCH  70  71
ATOM     71  S   UNL     1      12.129   0.647  14.479  1.00  0.00     0.124 S 
ATOM     72  O   UNL     1      11.315  -0.371  13.821  1.00  0.00    -0.237 OA
ATOM     73  O   UNL     1      13.540   0.318  14.647  1.00  0.00    -0.237 OA
ATOM     74  O   UNL     1      11.502   1.311  15.618  1.00  0.00    -0.744 OA
ENDBRANCH  70  71
ENDBRANCH  49  63
BRANCH  50  75
ATOM     75  C   UNL     1      11.957  10.825   3.991  1.00  0.00     0.058 A 
ATOM     76  C   UNL     1      13.131  11.264   3.362  1.00  0.00     0.135 A 
ATOM     77  C   UNL     1      10.743  11.397   3.578  1.00  0.00     0.135 A 
ATOM     78  F   UNL     1      14.318  10.752   3.724  1.00  0.00    -0.206 F 
ATOM     79  C   UNL     1      13.110  12.248   2.379  1.00  0.00     0.059 A 
ATOM     80  C   UNL     1      10.692  12.362   2.577  1.00  0.00     0.059 A 
ATOM     81  F   UNL     1       9.588  10.999   4.134  1.00  0.00    -0.206 F 
ATOM     82  C   UNL     1      11.883  12.790   1.992  1.00  0.00     0.060 A 
BRANCH  82  83
ATOM     83  S   UNL     1      11.863  14.038   0.686  1.00  0.00     0.124 S 
ATOM     84  O   UNL     1      12.439  15.190   1.371  1.00  0.00    -0.237 OA
ATOM     85  O   UNL     1      12.699  13.420  -0.339  1.00  0.00    -0.237 OA
ATOM     86  O   UNL     1      10.447  14.147   0.348  1.00  0.00    -0.744 OA
ENDBRANCH  82  83
ENDBRANCH  50  75
BRANCH  62  87
ATOM     87  C   UNL     1      14.725  10.636  10.391  1.00  0.00     0.058 A 
ATOM     88  C   UNL     1      14.178  11.818  10.914  1.00  0.00     0.135 A 
ATOM     89  C   UNL     1      16.083  10.377  10.644  1.00  0.00     0.135 A 
ATOM     90  F   UNL     1      12.886  12.117  10.702  1.00  0.00    -0.206 F 
ATOM     91  C   UNL     1      14.957  12.729  11.621  1.00  0.00     0.059 A 
ATOM     92  C   UNL     1      16.872  11.256  11.378  1.00  0.00     0.059 A 
ATOM     93  F   UNL     1      16.655   9.254  10.182  1.00  0.00    -0.206 F 
ATOM     94  C   UNL     1      16.304  12.439  11.846  1.00  0.00     0.060 A 
BRANCH  94  95
ATOM     95  S   UNL     1      17.304  13.626  12.768  1.00  0.00     0.124 S 
ATOM     96  O   UNL     1      17.478  14.689  11.784  1.00  0.00    -0.237 OA
ATOM     97  O   UNL     1      16.443  13.946  13.902  1.00  0.00    -0.237 OA
ATOM     98  O   UNL     1      18.510  12.871  13.097  1.00  0.00    -0.744 OA
ENDBRANCH  94  95
ENDBRANCH  62  87
ENDBRANCH  36  37
ENDBRANCH  28  31
ENDBRANCH  26  27
ENDBRANCH   1  26
TORSDOF 16
