REMARK SMILES Cc1ccc(S(=O)(=O)n2cc(C(=O)C(=O)N[C@@H](Cc3cnc[nH]3)C(=O)NCCCCNC(=O)c3ccc(-c4c5nc(c(-c6c(F)cc(S(=O)(=O)[O-])cc6F)c6ccc([nH]6)c(-c6c(F)cc(S(=O)(=O)[O-])cc6F)c6nc(c(-c7c(F)cc(S(=O)(=O)[O-])cc7F)c7ccc4[nH]7)C=C6)C=C5)cc3)c3ccccc32)cc1
REMARK SMILES IDX 27 1 26 2 24 3 25 4 17 6 16 7 14 8 15 9 12 11 13 12 11 13
REMARK SMILES IDX 9 14 10 15 105 16 100 17 104 18 101 19 103 20 102 21 6 22
REMARK SMILES IDX 7 23 8 24 5 25 1 26 2 27 3 28 107 29 4 30 106 31 18 32 19 33
REMARK SMILES IDX 20 34 23 35 21 36 22 37 28 39 29 40 30 41 31 42 32 43 33 45
REMARK SMILES IDX 34 46 35 47 99 48 36 49 98 50 37 51 38 52 39 53 92 54 40 55
REMARK SMILES IDX 97 56 91 57 93 58 41 59 96 60 90 61 89 62 42 64 76 65 55 66
REMARK SMILES IDX 75 67 56 68 59 69 74 70 94 71 57 72 58 73 73 75 95 76 60 77
REMARK SMILES IDX 43 78 44 79 53 80 45 81 46 82 52 83 54 84 47 85 48 86 49 87
REMARK SMILES IDX 50 88 51 89 77 90 78 91 87 92 79 93 80 94 86 95 88 96 81 97
REMARK SMILES IDX 82 98 83 99 84 100 85 101 61 102 62 103 71 104 63 105 64 106
REMARK SMILES IDX 70 107 72 108 65 109 66 110 67 111 68 112 69 113
REMARK H PARENT 26 5 16 10 23 38 31 44 93 63 59 74
REMARK Flexibility Score: inf
ROOT
ATOM      1  C   UNL     1      -8.300   5.989   6.053  1.00  0.00     0.116 C 
ENDROOT
BRANCH   1   2
ATOM      2  N   UNL     1      -7.335   6.852   5.394  1.00  0.00    -0.354 N 
ATOM      3  C   UNL     1      -7.236   7.200   4.076  1.00  0.00     0.242 C 
ATOM      4  O   UNL     1      -6.705   8.291   3.830  1.00  0.00    -0.273 OA
ATOM      5  H   UNL     1      -6.652   7.244   5.984  1.00  0.00     0.163 HD
BRANCH   3   6
ATOM      6  C   UNL     1      -7.817   6.352   2.915  1.00  0.00     0.177 C 
BRANCH   6   7
ATOM      7  N   UNL     1      -7.598   4.909   3.103  1.00  0.00    -0.337 N 
ATOM      8  C   UNL     1      -6.750   4.029   2.476  1.00  0.00     0.293 C 
ATOM      9  O   UNL     1      -6.591   2.921   2.979  1.00  0.00    -0.265 OA
ATOM     10  H   UNL     1      -8.160   4.502   3.801  1.00  0.00     0.164 HD
BRANCH   8  11
ATOM     11  C   UNL     1      -6.045   4.389   1.146  1.00  0.00     0.252 C 
ATOM     12  O   UNL     1      -6.248   5.492   0.650  1.00  0.00    -0.283 OA
BRANCH  11  13
ATOM     13  C   UNL     1      -5.188   3.428   0.434  1.00  0.00     0.054 A 
ATOM     14  N   UNL     1      -4.129   1.574  -0.215  1.00  0.00    -0.240 N 
ATOM     15  C   UNL     1      -4.898   2.120   0.778  1.00  0.00     0.117 A 
ATOM     16  C   UNL     1      -3.868   2.493  -1.210  1.00  0.00     0.065 A 
ATOM     17  C   UNL     1      -4.491   3.680  -0.802  1.00  0.00     0.012 A 
ATOM     18  C   UNL     1      -3.136   2.415  -2.409  1.00  0.00     0.028 A 
ATOM     19  C   UNL     1      -4.351   4.826  -1.618  1.00  0.00     0.011 A 
ATOM     20  C   UNL     1      -3.011   3.569  -3.187  1.00  0.00     0.002 A 
ATOM     21  C   UNL     1      -3.606   4.762  -2.796  1.00  0.00     0.001 A 
BRANCH  14  22
ATOM     22  S   UNL     1      -3.538  -0.021  -0.188  1.00  0.00     0.268 S 
ATOM     23  O   UNL     1      -3.833  -0.564  -1.491  1.00  0.00    -0.201 OA
ATOM     24  O   UNL     1      -4.059  -0.622   1.036  1.00  0.00    -0.201 OA
BRANCH  22  25
ATOM     25  C   UNL     1      -1.775   0.046  -0.016  1.00  0.00     0.088 A 
ATOM     26  C   UNL     1       2.523  -0.039   0.037  1.00  0.00     0.044 C 
ATOM     27  C   UNL     1       1.024  -0.005   0.045  1.00  0.00    -0.051 A 
ATOM     28  C   UNL     1       0.299  -1.199  -0.048  1.00  0.00     0.005 A 
ATOM     29  C   UNL     1       0.332   1.209   0.147  1.00  0.00     0.005 A 
ATOM     30  C   UNL     1      -1.095  -1.175  -0.085  1.00  0.00     0.022 A 
ATOM     31  C   UNL     1      -1.065   1.238   0.130  1.00  0.00     0.022 A 
ENDBRANCH  22  25
ENDBRANCH  14  22
ENDBRANCH  11  13
ENDBRANCH   8  11
ENDBRANCH   6   7
BRANCH   6  32
ATOM     32  C   UNL     1      -9.257   6.722   2.498  1.00  0.00     0.090 C 
BRANCH  32  33
ATOM     33  C   UNL     1     -10.307   6.255   3.438  1.00  0.00     0.037 A 
ATOM     34  C   UNL     1     -10.872   5.012   3.632  1.00  0.00     0.134 A 
ATOM     35  N   UNL     1     -10.891   7.057   4.391  1.00  0.00    -0.348 N 
ATOM     36  N   UNL     1     -11.618   4.999   4.773  1.00  0.00    -0.245 NA
ATOM     37  C   UNL     1     -11.564   6.224   5.238  1.00  0.00     0.196 A 
ATOM     38  H   UNL     1     -10.835   8.038   4.451  1.00  0.00     0.167 HD
ENDBRANCH  32  33
ENDBRANCH   6  32
ENDBRANCH   3   6
ENDBRANCH   1   2
BRANCH   1  39
ATOM     39  C   UNL     1      -7.731   5.016   7.080  1.00  0.00     0.023 C 
BRANCH  39  40
ATOM     40  C   UNL     1      -7.230   5.642   8.375  1.00  0.00     0.023 C 
BRANCH  40  41
ATOM     41  C   UNL     1      -8.268   6.428   9.158  1.00  0.00     0.116 C 
BRANCH  41  42
ATOM     42  N   UNL     1      -9.183   5.674   9.998  1.00  0.00    -0.352 N 
ATOM     43  C   UNL     1      -9.812   6.234  11.112  1.00  0.00     0.251 C 
ATOM     44  H   UNL     1      -9.367   4.733   9.773  1.00  0.00     0.163 HD
ATOM     45  O   UNL     1      -9.837   5.702  12.214  1.00  0.00    -0.269 OA
BRANCH  43  46
ATOM     46  C   UNL     1     -10.562   7.490  10.864  1.00  0.00     0.039 A 
ATOM     47  C   UNL     1     -11.949   7.528  11.053  1.00  0.00     0.014 A 
ATOM     48  C   UNL     1      -9.907   8.548  10.243  1.00  0.00     0.014 A 
ATOM     49  C   UNL     1     -12.693   8.538  10.445  1.00  0.00     0.010 A 
ATOM     50  C   UNL     1     -10.637   9.444   9.515  1.00  0.00     0.010 A 
ATOM     51  C   UNL     1     -12.026   9.428   9.607  1.00  0.00    -0.014 A 
BRANCH  51  52
ATOM     52  C   UNL     1     -12.641  10.453   8.795  1.00  0.00     0.031 A 
ATOM     53  C   UNL     1     -12.657  11.827   9.333  1.00  0.00     0.074 A 
ATOM     54  C   UNL     1     -12.934  10.153   7.511  1.00  0.00     0.049 A 
ATOM     55  N   UNL     1     -13.497  12.726   8.969  1.00  0.00    -0.248 NA
ATOM     56  C   UNL     1     -11.723  12.299  10.360  1.00  0.00     0.031 C 
ATOM     57  C   UNL     1     -13.192  11.067   6.404  1.00  0.00     0.029 A 
ATOM     58  N   UNL     1     -13.125   8.912   6.915  1.00  0.00    -0.354 N 
ATOM     59  C   UNL     1     -13.025  13.933   9.438  1.00  0.00     0.074 A 
ATOM     60  C   UNL     1     -11.992  13.608  10.389  1.00  0.00     0.031 C 
ATOM     61  C   UNL     1     -13.805  10.385   5.416  1.00  0.00     0.029 A 
ATOM     62  C   UNL     1     -14.113   9.062   5.941  1.00  0.00     0.049 A 
ATOM     63  H   UNL     1     -12.650   8.080   7.140  1.00  0.00     0.167 HD
ATOM     64  C   UNL     1     -13.428  15.078   8.822  1.00  0.00     0.037 A 
ATOM     65  C   UNL     1     -15.382   8.555   6.052  1.00  0.00     0.037 A 
ATOM     66  C   UNL     1     -14.303  14.754   7.700  1.00  0.00     0.049 A 
ATOM     67  C   UNL     1     -16.427   9.657   6.087  1.00  0.00     0.074 A 
ATOM     68  C   UNL     1     -14.028  14.570   6.354  1.00  0.00     0.029 A 
ATOM     69  N   UNL     1     -15.546  14.179   7.933  1.00  0.00    -0.354 N 
ATOM     70  N   UNL     1     -16.181  10.871   6.500  1.00  0.00    -0.248 NA
ATOM     71  C   UNL     1     -17.807   9.493   5.637  1.00  0.00     0.031 C 
ATOM     72  C   UNL     1     -15.102  13.851   5.781  1.00  0.00     0.029 A 
ATOM     73  C   UNL     1     -16.030  13.598   6.777  1.00  0.00     0.049 A 
ATOM     74  H   UNL     1     -16.015  14.185   8.799  1.00  0.00     0.167 HD
ATOM     75  C   UNL     1     -17.312  11.638   6.384  1.00  0.00     0.074 A 
ATOM     76  C   UNL     1     -18.299  10.730   5.831  1.00  0.00     0.031 C 
ATOM     77  C   UNL     1     -17.334  12.956   6.748  1.00  0.00     0.037 A 
BRANCH  64  78
ATOM     78  C   UNL     1     -12.779  16.425   9.017  1.00  0.00     0.058 A 
ATOM     79  C   UNL     1     -12.681  17.332   7.939  1.00  0.00     0.135 A 
ATOM     80  C   UNL     1     -12.239  16.886  10.235  1.00  0.00     0.135 A 
ATOM     81  F   UNL     1     -13.184  17.051   6.731  1.00  0.00    -0.206 F 
ATOM     82  C   UNL     1     -12.051  18.569   8.040  1.00  0.00     0.059 A 
ATOM     83  C   UNL     1     -11.566  18.110  10.352  1.00  0.00     0.059 A 
ATOM     84  F   UNL     1     -12.374  16.178  11.366  1.00  0.00    -0.206 F 
ATOM     85  C   UNL     1     -11.482  18.947   9.246  1.00  0.00     0.060 A 
BRANCH  85  86
ATOM     86  S   UNL     1     -10.667  20.551   9.330  1.00  0.00     0.124 S 
ATOM     87  O   UNL     1      -9.694  20.456   8.245  1.00  0.00    -0.237 OA
ATOM     88  O   UNL     1     -11.779  21.467   9.105  1.00  0.00    -0.237 OA
ATOM     89  O   UNL     1     -10.096  20.572  10.673  1.00  0.00    -0.744 OA
ENDBRANCH  85  86
ENDBRANCH  64  78
BRANCH  65  90
ATOM     90  C   UNL     1     -15.468   7.286   6.832  1.00  0.00     0.058 A 
ATOM     91  C   UNL     1     -14.942   6.120   6.246  1.00  0.00     0.135 A 
ATOM     92  C   UNL     1     -15.593   7.306   8.228  1.00  0.00     0.135 A 
ATOM     93  F   UNL     1     -14.849   6.034   4.909  1.00  0.00    -0.206 F 
ATOM     94  C   UNL     1     -14.352   5.119   7.015  1.00  0.00     0.059 A 
ATOM     95  C   UNL     1     -15.017   6.309   9.017  1.00  0.00     0.059 A 
ATOM     96  F   UNL     1     -16.122   8.372   8.845  1.00  0.00    -0.206 F 
ATOM     97  C   UNL     1     -14.317   5.272   8.399  1.00  0.00     0.060 A 
BRANCH  97  98
ATOM     98  S   UNL     1     -13.191   4.220   9.356  1.00  0.00     0.124 S 
ATOM     99  O   UNL     1     -13.620   2.881   8.975  1.00  0.00    -0.237 OA
ATOM    100  O   UNL     1     -11.882   4.648   8.856  1.00  0.00    -0.237 OA
ATOM    101  O   UNL     1     -13.479   4.603  10.733  1.00  0.00    -0.744 OA
ENDBRANCH  97  98
ENDBRANCH  65  90
BRANCH  77 102
ATOM    102  C   UNL     1     -18.565  13.803   6.989  1.00  0.00     0.058 A 
ATOM    103  C   UNL     1     -19.837  13.280   7.271  1.00  0.00     0.135 A 
ATOM    104  C   UNL     1     -18.462  15.217   7.085  1.00  0.00     0.135 A 
ATOM    105  F   UNL     1     -20.053  11.961   7.354  1.00  0.00    -0.206 F 
ATOM    106  C   UNL     1     -20.941  14.093   7.527  1.00  0.00     0.059 A 
ATOM    107  C   UNL     1     -19.532  16.041   7.415  1.00  0.00     0.059 A 
ATOM    108  F   UNL     1     -17.305  15.862   6.875  1.00  0.00    -0.206 F 
ATOM    109  C   UNL     1     -20.780  15.472   7.592  1.00  0.00     0.060 A 
BRANCH 109 110
ATOM    110  S   UNL     1     -22.204  16.514   7.935  1.00  0.00     0.124 S 
ATOM    111  O   UNL     1     -22.805  16.622   6.609  1.00  0.00    -0.237 OA
ATOM    112  O   UNL     1     -22.953  15.720   8.905  1.00  0.00    -0.237 OA
ATOM    113  O   UNL     1     -21.610  17.738   8.462  1.00  0.00    -0.744 OA
ENDBRANCH 109 110
ENDBRANCH  77 102
ENDBRANCH  51  52
ENDBRANCH  43  46
ENDBRANCH  41  42
ENDBRANCH  40  41
ENDBRANCH  39  40
ENDBRANCH   1  39
TORSDOF 21
