REMARK SMILES Cc1ccc([C@@]23C[C@@H]4C[C@@H](C[C@@](C(=O)N5CCC(C(=O)NCCCCNC(=O)c6ccc(-c7c8nc(c(-c9c(F)cc(S(=O)(=O)[O-])cc9F)c9ccc([nH]9)c(-c9c(F)cc(S(=O)(=O)[O-])cc9F)c9nc(c(-c%10c(F)cc(S(=O)(=O)[O-])cc%10F)c%10ccc7[nH]%10)C=C9)C=C8)cc6)CC5)(C4)C2)C3)cc1
REMARK SMILES IDX 24 1 23 2 22 3 21 4 19 5 20 6 18 8 13 9 14 10 15 11 16 12
REMARK SMILES IDX 96 13 17 14 95 15 12 16 6 17 7 18 98 19 99 20 8 21 10 22
REMARK SMILES IDX 9 23 97 24 11 25 5 26 1 27 2 28 3 29 101 30 4 31 100 32
REMARK SMILES IDX 25 33 26 34 27 35 28 37 29 38 30 39 94 40 31 41 93 42 32 43
REMARK SMILES IDX 33 44 34 45 87 46 35 47 92 48 86 49 88 50 36 51 91 52 85 53
REMARK SMILES IDX 84 54 37 56 71 57 50 58 70 59 51 60 54 61 69 62 89 63 52 64
REMARK SMILES IDX 53 65 68 67 90 68 55 69 38 70 39 71 48 72 40 73 41 74 47 75
REMARK SMILES IDX 49 76 42 77 43 78 44 79 45 80 46 81 72 82 73 83 82 84 74 85
REMARK SMILES IDX 75 86 81 87 83 88 76 89 77 90 78 91 79 92 80 93 56 94 57 95
REMARK SMILES IDX 66 96 58 97 59 98 65 99 67 100 60 101 61 102 62 103 63 104
REMARK SMILES IDX 64 105
REMARK H PARENT 21 7 26 36 88 55 54 66
REMARK Flexibility Score: inf
ROOT
ATOM      1  C   UNL     1     -10.047  -1.410  -4.981  1.00  0.00     0.023 C 
ENDROOT
BRANCH   1   2
ATOM      2  C   UNL     1      -9.069  -1.589  -3.820  1.00  0.00     0.023 C 
BRANCH   2   3
ATOM      3  C   UNL     1      -8.849  -3.037  -3.361  1.00  0.00     0.116 C 
BRANCH   3   4
ATOM      4  N   UNL     1      -8.442  -3.927  -4.446  1.00  0.00    -0.356 N 
ATOM      5  C   UNL     1      -7.291  -4.615  -4.678  1.00  0.00     0.223 C 
ATOM      6  O   UNL     1      -7.218  -5.299  -5.703  1.00  0.00    -0.275 OA
ATOM      7  H   UNL     1      -9.130  -4.053  -5.139  1.00  0.00     0.163 HD
BRANCH   5   8
ATOM      8  C   UNL     1      -6.104  -4.543  -3.731  1.00  0.00     0.082 C 
ATOM      9  C   UNL     1      -5.769  -2.474  -0.347  1.00  0.00     0.228 C 
ATOM     10  O   UNL     1      -6.576  -2.935   0.465  1.00  0.00    -0.274 OA
ATOM     11  N   UNL     1      -5.212  -3.299  -1.325  1.00  0.00    -0.342 N 
ATOM     12  C   UNL     1      -5.473  -4.732  -1.260  1.00  0.00     0.120 C 
ATOM     13  C   UNL     1      -4.553  -2.912  -2.569  1.00  0.00     0.120 C 
ATOM     14  C   UNL     1      -6.440  -5.153  -2.357  1.00  0.00     0.035 C 
ATOM     15  C   UNL     1      -5.510  -3.128  -3.726  1.00  0.00     0.035 C 
BRANCH   9  16
ATOM     16  C   UNL     1      -5.308  -1.004  -0.210  1.00  0.00     0.051 C 
ATOM     17  C   UNL     1      -3.169   0.408   0.068  1.00  0.00    -0.003 C 
ATOM     18  C   UNL     1      -3.668   1.230  -1.159  1.00  0.00     0.015 C 
ATOM     19  C   UNL     1      -3.776  -1.006  -0.056  1.00  0.00     0.028 C 
ATOM     20  C   UNL     1      -3.756   1.036   1.358  1.00  0.00     0.015 C 
ATOM     21  C   UNL     1      -5.207   1.313  -1.201  1.00  0.00    -0.009 C 
ATOM     22  C   UNL     1      -5.297   1.064   1.294  1.00  0.00    -0.009 C 
ATOM     23  C   UNL     1      -5.725   1.934   0.103  1.00  0.00     0.007 C 
ATOM     24  C   UNL     1      -5.798  -0.096  -1.354  1.00  0.00     0.020 C 
ATOM     25  C   UNL     1      -5.853  -0.366   1.107  1.00  0.00     0.020 C 
BRANCH  17  26
ATOM     26  C   UNL     1      -1.629   0.351   0.115  1.00  0.00    -0.042 A 
ATOM     27  C   UNL     1       2.710   0.185   0.016  1.00  0.00     0.044 C 
ATOM     28  C   UNL     1       1.216   0.262   0.076  1.00  0.00    -0.051 A 
ATOM     29  C   UNL     1       0.472  -0.914   0.144  1.00  0.00     0.004 A 
ATOM     30  C   UNL     1       0.538   1.483   0.052  1.00  0.00     0.004 A 
ATOM     31  C   UNL     1      -0.923  -0.866   0.171  1.00  0.00     0.004 A 
ATOM     32  C   UNL     1      -0.863   1.527   0.077  1.00  0.00     0.004 A 
ENDBRANCH  17  26
ENDBRANCH   9  16
ENDBRANCH   5   8
ENDBRANCH   3   4
ENDBRANCH   2   3
ENDBRANCH   1   2
BRANCH   1  33
ATOM     33  C   UNL     1     -11.466  -1.859  -4.658  1.00  0.00     0.116 C 
BRANCH  33  34
ATOM     34  N   UNL     1     -12.415  -0.767  -4.532  1.00  0.00    -0.352 N 
ATOM     35  C   UNL     1     -13.788  -0.870  -4.387  1.00  0.00     0.251 C 
ATOM     36  H   UNL     1     -12.042   0.144  -4.553  1.00  0.00     0.163 HD
ATOM     37  O   UNL     1     -14.540   0.076  -4.547  1.00  0.00    -0.269 OA
BRANCH  35  38
ATOM     38  C   UNL     1     -14.300  -2.162  -3.883  1.00  0.00     0.039 A 
ATOM     39  C   UNL     1     -14.755  -2.186  -2.559  1.00  0.00     0.014 A 
ATOM     40  C   UNL     1     -14.061  -3.341  -4.585  1.00  0.00     0.014 A 
ATOM     41  C   UNL     1     -14.804  -3.397  -1.876  1.00  0.00     0.010 A 
ATOM     42  C   UNL     1     -14.038  -4.532  -3.884  1.00  0.00     0.010 A 
ATOM     43  C   UNL     1     -14.358  -4.551  -2.517  1.00  0.00    -0.014 A 
BRANCH  43  44
ATOM     44  C   UNL     1     -14.121  -5.811  -1.822  1.00  0.00     0.031 A 
ATOM     45  C   UNL     1     -15.072  -6.934  -1.986  1.00  0.00     0.074 A 
ATOM     46  C   UNL     1     -13.010  -5.973  -1.071  1.00  0.00     0.049 A 
ATOM     47  N   UNL     1     -15.102  -7.980  -1.232  1.00  0.00    -0.248 NA
ATOM     48  C   UNL     1     -16.149  -6.913  -2.973  1.00  0.00     0.031 C 
ATOM     49  C   UNL     1     -12.446  -7.230  -0.588  1.00  0.00     0.029 A 
ATOM     50  N   UNL     1     -12.295  -4.985  -0.387  1.00  0.00    -0.354 N 
ATOM     51  C   UNL     1     -15.974  -8.882  -1.797  1.00  0.00     0.074 A 
ATOM     52  C   UNL     1     -16.699  -8.115  -2.776  1.00  0.00     0.031 C 
ATOM     53  C   UNL     1     -11.667  -6.979   0.474  1.00  0.00     0.029 A 
ATOM     54  C   UNL     1     -11.828  -5.575   0.805  1.00  0.00     0.049 A 
ATOM     55  H   UNL     1     -12.146  -4.057  -0.681  1.00  0.00     0.167 HD
ATOM     56  C   UNL     1     -15.863 -10.199  -1.460  1.00  0.00     0.037 A 
ATOM     57  C   UNL     1     -12.215  -5.109   2.029  1.00  0.00     0.037 A 
ATOM     58  C   UNL     1     -15.071 -10.345  -0.233  1.00  0.00     0.049 A 
ATOM     59  C   UNL     1     -12.951  -6.124   2.873  1.00  0.00     0.074 A 
ATOM     60  C   UNL     1     -13.781 -10.775   0.029  1.00  0.00     0.029 A 
ATOM     61  N   UNL     1     -15.533  -9.757   0.945  1.00  0.00    -0.354 N 
ATOM     62  N   UNL     1     -13.460  -7.233   2.409  1.00  0.00    -0.248 NA
ATOM     63  C   UNL     1     -13.182  -5.970   4.307  1.00  0.00     0.031 C 
ATOM     64  C   UNL     1     -13.435 -10.345   1.339  1.00  0.00     0.029 A 
ATOM     65  C   UNL     1     -14.528  -9.697   1.891  1.00  0.00     0.049 A 
ATOM     66  H   UNL     1     -16.451  -9.430   1.083  1.00  0.00     0.167 HD
ATOM     67  C   UNL     1     -14.097  -7.911   3.417  1.00  0.00     0.074 A 
ATOM     68  C   UNL     1     -13.864  -7.093   4.594  1.00  0.00     0.031 C 
ATOM     69  C   UNL     1     -14.768  -9.082   3.193  1.00  0.00     0.037 A 
BRANCH  56  70
ATOM     70  C   UNL     1     -16.261 -11.371  -2.357  1.00  0.00     0.058 A 
ATOM     71  C   UNL     1     -15.918 -12.697  -1.995  1.00  0.00     0.135 A 
ATOM     72  C   UNL     1     -16.843 -11.268  -3.642  1.00  0.00     0.135 A 
ATOM     73  F   UNL     1     -15.368 -12.972  -0.803  1.00  0.00    -0.206 F 
ATOM     74  C   UNL     1     -16.087 -13.799  -2.848  1.00  0.00     0.059 A 
ATOM     75  C   UNL     1     -17.048 -12.354  -4.496  1.00  0.00     0.059 A 
ATOM     76  F   UNL     1     -17.210 -10.105  -4.181  1.00  0.00    -0.206 F 
ATOM     77  C   UNL     1     -16.642 -13.615  -4.106  1.00  0.00     0.060 A 
BRANCH  77  78
ATOM     78  S   UNL     1     -16.811 -15.009  -5.235  1.00  0.00     0.124 S 
ATOM     79  O   UNL     1     -15.418 -15.319  -5.542  1.00  0.00    -0.237 OA
ATOM     80  O   UNL     1     -17.519 -15.989  -4.419  1.00  0.00    -0.237 OA
ATOM     81  O   UNL     1     -17.583 -14.457  -6.346  1.00  0.00    -0.744 OA
ENDBRANCH  77  78
ENDBRANCH  56  70
BRANCH  57  82
ATOM     82  C   UNL     1     -12.407  -3.634   2.058  1.00  0.00     0.058 A 
ATOM     83  C   UNL     1     -11.261  -2.831   1.899  1.00  0.00     0.135 A 
ATOM     84  C   UNL     1     -13.649  -3.050   1.775  1.00  0.00     0.135 A 
ATOM     85  F   UNL     1     -10.049  -3.335   2.183  1.00  0.00    -0.206 F 
ATOM     86  C   UNL     1     -11.322  -1.572   1.314  1.00  0.00     0.059 A 
ATOM     87  C   UNL     1     -13.737  -1.780   1.198  1.00  0.00     0.059 A 
ATOM     88  F   UNL     1     -14.778  -3.762   1.915  1.00  0.00    -0.206 F 
ATOM     89  C   UNL     1     -12.561  -1.087   0.901  1.00  0.00     0.060 A 
BRANCH  89  90
ATOM     90  S   UNL     1     -12.582   0.363  -0.182  1.00  0.00     0.124 S 
ATOM     91  O   UNL     1     -11.915   1.369   0.638  1.00  0.00    -0.237 OA
ATOM     92  O   UNL     1     -11.820  -0.114  -1.336  1.00  0.00    -0.237 OA
ATOM     93  O   UNL     1     -14.003   0.585  -0.418  1.00  0.00    -0.744 OA
ENDBRANCH  89  90
ENDBRANCH  57  82
BRANCH  69  94
ATOM     94  C   UNL     1     -15.651  -9.805   4.190  1.00  0.00     0.058 A 
ATOM     95  C   UNL     1     -16.376  -9.173   5.217  1.00  0.00     0.135 A 
ATOM     96  C   UNL     1     -15.902 -11.192   4.042  1.00  0.00     0.135 A 
ATOM     97  F   UNL     1     -16.322  -7.845   5.393  1.00  0.00    -0.206 F 
ATOM     98  C   UNL     1     -17.231  -9.871   6.075  1.00  0.00     0.059 A 
ATOM     99  C   UNL     1     -16.793 -11.897   4.851  1.00  0.00     0.059 A 
ATOM    100  F   UNL     1     -15.294 -11.915   3.090  1.00  0.00    -0.206 F 
ATOM    101  C   UNL     1     -17.435 -11.233   5.885  1.00  0.00     0.060 A 
BRANCH 101 102
ATOM    102  S   UNL     1     -18.593 -12.132   6.936  1.00  0.00     0.124 S 
ATOM    103  O   UNL     1     -17.705 -12.650   7.972  1.00  0.00    -0.237 OA
ATOM    104  O   UNL     1     -19.521 -11.091   7.366  1.00  0.00    -0.237 OA
ATOM    105  O   UNL     1     -19.157 -13.127   6.029  1.00  0.00    -0.744 OA
ENDBRANCH 101 102
ENDBRANCH  69  94
ENDBRANCH  43  44
ENDBRANCH  35  38
ENDBRANCH  33  34
ENDBRANCH   1  33
TORSDOF 16
