REMARK SMILES CN1C(=O)/C(=C\c2ccc(-c3ccccc3C(=O)NCCCCNC(=O)c3ccc(-c4c5nc(c(-c6c(F)cc(S(=O)(=O)[O-])cc6F)c6ccc([nH]6)c(-c6c(F)cc(S(=O)(=O)[O-])cc6F)c6nc(c(-c7c(F)cc(S(=O)(=O)[O-])cc7F)c7ccc4[nH]7)C=C6)C=C5)cc3)o2)C(=O)[NH+]=C1S
REMARK SMILES IDX 21 1 20 2 19 3 17 4 18 5 16 7 11 8 12 9 13 10 15 11 14 12
REMARK SMILES IDX 10 13 7 14 8 15 93 16 9 17 6 18 1 19 2 20 3 21 97 22 4 23
REMARK SMILES IDX 5 24 96 25 94 26 95 28 98 29 22 31 23 32 24 33 25 34 26 36
REMARK SMILES IDX 27 37 28 38 92 39 29 40 91 41 30 42 31 43 32 44 85 45 33 46
REMARK SMILES IDX 90 47 84 48 86 49 34 50 89 51 83 52 82 53 35 55 69 56 48 57
REMARK SMILES IDX 68 58 49 59 52 60 67 61 87 62 50 63 51 64 66 66 88 67 53 68
REMARK SMILES IDX 36 69 37 70 46 71 38 72 39 73 45 74 47 75 40 76 41 77 42 78
REMARK SMILES IDX 43 79 44 80 70 81 71 82 80 83 72 84 73 85 79 86 81 87 74 88
REMARK SMILES IDX 75 89 76 90 77 91 78 92 54 93 55 94 64 95 56 96 57 97 63 98
REMARK SMILES IDX 65 99 58 100 59 101 60 102 61 103 62 104
REMARK H PARENT 19 6 96 27 98 30 24 35 86 54 52 65
REMARK Flexibility Score: inf
ROOT
ATOM      1  C   UNL     1       2.041  -7.003   2.888  1.00  0.00     0.023 C 
ENDROOT
BRANCH   1   2
ATOM      2  C   UNL     1       3.106  -5.981   3.248  1.00  0.00     0.116 C 
BRANCH   2   3
ATOM      3  N   UNL     1       3.837  -6.139   4.477  1.00  0.00    -0.352 N 
ATOM      4  C   UNL     1       5.100  -5.688   4.811  1.00  0.00     0.252 C 
ATOM      5  O   UNL     1       5.433  -5.825   5.993  1.00  0.00    -0.269 OA
ATOM      6  H   UNL     1       3.370  -6.642   5.182  1.00  0.00     0.163 HD
BRANCH   4   7
ATOM      7  C   UNL     1       6.134  -5.140   3.856  1.00  0.00     0.050 A 
ATOM      8  C   UNL     1       5.971  -4.270   2.759  1.00  0.00     0.030 A 
ATOM      9  C   UNL     1       7.100  -3.889   1.995  1.00  0.00     0.013 A 
ATOM     10  C   UNL     1       8.386  -4.300   2.332  1.00  0.00     0.001 A 
ATOM     11  C   UNL     1       7.457  -5.528   4.183  1.00  0.00     0.014 A 
ATOM     12  C   UNL     1       8.567  -5.109   3.441  1.00  0.00     0.001 A 
BRANCH   8  13
ATOM     13  C   UNL     1       4.728  -3.649   2.357  1.00  0.00     0.135 A 
ATOM     14  C   UNL     1       3.017  -3.465   0.946  1.00  0.00     0.128 A 
ATOM     15  C   UNL     1       2.789  -2.617   2.030  1.00  0.00     0.051 A 
ATOM     16  O   UNL     1       4.233  -4.070   1.156  1.00  0.00    -0.457 OA
ATOM     17  C   UNL     1       3.892  -2.712   2.911  1.00  0.00     0.051 A 
BRANCH  14  18
ATOM     18  C   UNL     1       2.171  -3.801  -0.150  1.00  0.00     0.071 C 
ATOM     19  C   UNL     1       0.474   0.654  -0.452  1.00  0.00     0.301 C 
ATOM     20  N   UNL     1       0.476  -0.709  -0.972  1.00  0.00    -0.189 N 
ATOM     21  C   UNL     1       1.591  -1.450  -0.663  1.00  0.00     0.349 C 
ATOM     22  C   UNL     1      -0.477  -1.261  -1.793  1.00  0.00     0.318 C 
ATOM     23  O   UNL     1       2.659  -0.942  -0.328  1.00  0.00    -0.240 OA
ATOM     24  C   UNL     1       1.439  -2.903  -0.835  1.00  0.00     0.157 C 
ATOM     25  N   UNL     1      -0.494  -2.470  -2.220  1.00  0.00    -0.200 N 
ATOM     26  C   UNL     1       0.411  -3.400  -1.778  1.00  0.00     0.347 C 
ATOM     27  H   UNL     1      -1.173  -2.738  -2.880  1.00  0.00     0.316 HD
ATOM     28  O   UNL     1       0.385  -4.565  -2.132  1.00  0.00    -0.241 OA
BRANCH  22  29
ATOM     29  S   UNL     1      -1.765  -0.237  -2.384  1.00  0.00    -0.055 SA
ATOM     30  H   UNL     1      -1.630   1.010  -1.857  1.00  0.00     0.116 HD
ENDBRANCH  22  29
ENDBRANCH  14  18
ENDBRANCH   8  13
ENDBRANCH   4   7
ENDBRANCH   2   3
ENDBRANCH   1   2
BRANCH   1  31
ATOM     31  C   UNL     1       0.686  -6.915   3.588  1.00  0.00     0.023 C 
BRANCH  31  32
ATOM     32  C   UNL     1       0.022  -5.548   3.752  1.00  0.00     0.116 C 
BRANCH  32  33
ATOM     33  N   UNL     1      -0.175  -4.776   2.531  1.00  0.00    -0.352 N 
ATOM     34  C   UNL     1      -1.278  -4.048   2.123  1.00  0.00     0.251 C 
ATOM     35  H   UNL     1       0.587  -4.771   1.908  1.00  0.00     0.163 HD
ATOM     36  O   UNL     1      -1.215  -3.341   1.120  1.00  0.00    -0.269 OA
BRANCH  34  37
ATOM     37  C   UNL     1      -2.546  -4.173   2.882  1.00  0.00     0.039 A 
ATOM     38  C   UNL     1      -3.692  -4.635   2.229  1.00  0.00     0.014 A 
ATOM     39  C   UNL     1      -2.565  -3.960   4.261  1.00  0.00     0.014 A 
ATOM     40  C   UNL     1      -4.812  -5.013   2.981  1.00  0.00     0.010 A 
ATOM     41  C   UNL     1      -3.644  -4.423   5.012  1.00  0.00     0.010 A 
ATOM     42  C   UNL     1      -4.770  -4.981   4.385  1.00  0.00    -0.014 A 
BRANCH  42  43
ATOM     43  C   UNL     1      -5.859  -5.567   5.220  1.00  0.00     0.031 A 
ATOM     44  C   UNL     1      -6.603  -4.708   6.208  1.00  0.00     0.074 A 
ATOM     45  C   UNL     1      -6.110  -6.893   5.165  1.00  0.00     0.049 A 
ATOM     46  N   UNL     1      -7.498  -5.055   7.097  1.00  0.00    -0.248 NA
ATOM     47  C   UNL     1      -6.271  -3.275   6.222  1.00  0.00     0.031 C 
ATOM     48  C   UNL     1      -5.417  -7.854   4.302  1.00  0.00     0.029 A 
ATOM     49  N   UNL     1      -7.005  -7.670   5.863  1.00  0.00    -0.354 N 
ATOM     50  C   UNL     1      -7.820  -3.892   7.787  1.00  0.00     0.074 A 
ATOM     51  C   UNL     1      -6.982  -2.841   7.252  1.00  0.00     0.031 C 
ATOM     52  C   UNL     1      -5.928  -9.080   4.503  1.00  0.00     0.029 A 
ATOM     53  C   UNL     1      -6.956  -9.007   5.536  1.00  0.00     0.049 A 
ATOM     54  H   UNL     1      -7.624  -7.303   6.535  1.00  0.00     0.167 HD
ATOM     55  C   UNL     1      -8.748  -3.706   8.757  1.00  0.00     0.037 A 
ATOM     56  C   UNL     1      -7.652 -10.057   6.017  1.00  0.00     0.037 A 
ATOM     57  C   UNL     1      -9.604  -4.747   9.265  1.00  0.00     0.049 A 
ATOM     58  C   UNL     1      -8.687  -9.825   7.086  1.00  0.00     0.074 A 
ATOM     59  C   UNL     1     -10.618  -4.645  10.201  1.00  0.00     0.029 A 
ATOM     60  N   UNL     1      -9.549  -6.078   8.878  1.00  0.00    -0.354 N 
ATOM     61  N   UNL     1      -9.024  -8.703   7.676  1.00  0.00    -0.248 NA
ATOM     62  C   UNL     1      -9.442 -10.998   7.550  1.00  0.00     0.031 C 
ATOM     63  C   UNL     1     -11.149  -5.922  10.411  1.00  0.00     0.029 A 
ATOM     64  C   UNL     1     -10.501  -6.810   9.569  1.00  0.00     0.049 A 
ATOM     65  H   UNL     1      -8.926  -6.447   8.211  1.00  0.00     0.167 HD
ATOM     66  C   UNL     1     -10.049  -9.030   8.558  1.00  0.00     0.074 A 
ATOM     67  C   UNL     1     -10.284 -10.451   8.417  1.00  0.00     0.031 C 
ATOM     68  C   UNL     1     -10.733  -8.224   9.408  1.00  0.00     0.037 A 
BRANCH  55  69
ATOM     69  C   UNL     1      -8.895  -2.320   9.324  1.00  0.00     0.058 A 
ATOM     70  C   UNL     1      -9.435  -1.269   8.564  1.00  0.00     0.135 A 
ATOM     71  C   UNL     1      -8.523  -2.043  10.649  1.00  0.00     0.135 A 
ATOM     72  F   UNL     1      -9.794  -1.473   7.287  1.00  0.00    -0.206 F 
ATOM     73  C   UNL     1      -9.568   0.013   9.086  1.00  0.00     0.059 A 
ATOM     74  C   UNL     1      -8.675  -0.775  11.202  1.00  0.00     0.059 A 
ATOM     75  F   UNL     1      -8.002  -3.010  11.421  1.00  0.00    -0.206 F 
ATOM     76  C   UNL     1      -9.184   0.251  10.406  1.00  0.00     0.060 A 
BRANCH  76  77
ATOM     77  S   UNL     1      -9.364   1.921  11.067  1.00  0.00     0.124 S 
ATOM     78  O   UNL     1      -8.283   2.622  10.382  1.00  0.00    -0.237 OA
ATOM     79  O   UNL     1     -10.716   2.278  10.647  1.00  0.00    -0.237 OA
ATOM     80  O   UNL     1      -9.184   1.740  12.504  1.00  0.00    -0.744 OA
ENDBRANCH  76  77
ENDBRANCH  55  69
BRANCH  56  81
ATOM     81  C   UNL     1      -7.415 -11.425   5.476  1.00  0.00     0.058 A 
ATOM     82  C   UNL     1      -8.382 -12.063   4.684  1.00  0.00     0.135 A 
ATOM     83  C   UNL     1      -6.225 -12.121   5.738  1.00  0.00     0.135 A 
ATOM     84  F   UNL     1      -9.540 -11.444   4.412  1.00  0.00    -0.206 F 
ATOM     85  C   UNL     1      -8.187 -13.348   4.186  1.00  0.00     0.059 A 
ATOM     86  C   UNL     1      -5.995 -13.397   5.229  1.00  0.00     0.059 A 
ATOM     87  F   UNL     1      -5.261 -11.551   6.478  1.00  0.00    -0.206 F 
ATOM     88  C   UNL     1      -6.988 -14.007   4.463  1.00  0.00     0.060 A 
BRANCH  88  89
ATOM     89  S   UNL     1      -6.727 -15.657   3.776  1.00  0.00     0.124 S 
ATOM     90  O   UNL     1      -7.612 -16.465   4.607  1.00  0.00    -0.237 OA
ATOM     91  O   UNL     1      -7.141 -15.480   2.387  1.00  0.00    -0.237 OA
ATOM     92  O   UNL     1      -5.298 -15.880   3.972  1.00  0.00    -0.744 OA
ENDBRANCH  88  89
ENDBRANCH  56  81
BRANCH  68  93
ATOM     93  C   UNL     1     -11.830  -8.848  10.226  1.00  0.00     0.058 A 
ATOM     94  C   UNL     1     -11.555  -9.695  11.310  1.00  0.00     0.135 A 
ATOM     95  C   UNL     1     -13.175  -8.546   9.954  1.00  0.00     0.135 A 
ATOM     96  F   UNL     1     -10.287 -10.020  11.608  1.00  0.00    -0.206 F 
ATOM     97  C   UNL     1     -12.575 -10.237  12.085  1.00  0.00     0.059 A 
ATOM     98  C   UNL     1     -14.209  -9.054  10.733  1.00  0.00     0.059 A 
ATOM     99  F   UNL     1     -13.493  -7.732   8.935  1.00  0.00    -0.206 F 
ATOM    100  C   UNL     1     -13.899  -9.908  11.791  1.00  0.00     0.060 A 
BRANCH 100 101
ATOM    101  S   UNL     1     -15.212 -10.586  12.829  1.00  0.00     0.124 S 
ATOM    102  O   UNL     1     -15.249 -11.976  12.385  1.00  0.00    -0.237 OA
ATOM    103  O   UNL     1     -14.692 -10.364  14.175  1.00  0.00    -0.237 OA
ATOM    104  O   UNL     1     -16.377  -9.782  12.473  1.00  0.00    -0.744 OA
ENDBRANCH 100 101
ENDBRANCH  68  93
ENDBRANCH  42  43
ENDBRANCH  34  37
ENDBRANCH  32  33
ENDBRANCH  31  32
ENDBRANCH   1  31
TORSDOF 17
