REMARK SMILES Cc1cccc(Cl)c1Nc1ccccc1CC(=O)NCCCCNC(=O)c1ccc(-c2c3nc(c(-c4c(F)cc(S(=O)(=O)[O-])cc4F)c4ccc([nH]4)c(-c4c(F)cc(S(=O)(=O)[O-])cc4F)c4nc(c(-c5c(F)cc(S(=O)(=O)[O-])cc5F)c5ccc2[nH]5)C=C4)C=C3)cc1
REMARK SMILES IDX 21 1 20 2 19 3 17 4 18 5 16 7 15 8 10 9 11 10 12 11 14 12
REMARK SMILES IDX 13 13 9 14 8 16 1 17 2 18 3 19 4 20 6 21 5 22 7 23 22 24
REMARK SMILES IDX 23 25 24 26 25 27 26 29 27 30 28 31 92 32 29 33 91 34 30 35
REMARK SMILES IDX 31 36 32 37 85 38 33 39 90 40 84 41 86 42 34 43 89 44 83 45
REMARK SMILES IDX 82 46 35 48 69 49 48 50 68 51 49 52 52 53 67 54 87 55 50 56
REMARK SMILES IDX 51 57 66 59 88 60 53 61 36 62 37 63 46 64 38 65 39 66 45 67
REMARK SMILES IDX 47 68 40 69 41 70 42 71 43 72 44 73 70 74 71 75 80 76 72 77
REMARK SMILES IDX 73 78 79 79 81 80 74 81 75 82 76 83 77 84 78 85 54 86 55 87
REMARK SMILES IDX 64 88 56 89 57 90 63 91 65 92 58 93 59 94 60 95 61 96 62 97
REMARK H PARENT 19 6 9 15 24 28 86 47 52 58
REMARK Flexibility Score: inf
ROOT
ATOM      1  C   UNL     1       0.651   5.064  -2.148  1.00  0.00     0.023 C 
ENDROOT
BRANCH   1   2
ATOM      2  C   UNL     1       0.089   3.778  -2.754  1.00  0.00     0.116 C 
BRANCH   2   3
ATOM      3  N   UNL     1       1.035   3.140  -3.646  1.00  0.00    -0.356 N 
ATOM      4  C   UNL     1       1.891   2.108  -3.375  1.00  0.00     0.224 C 
ATOM      5  O   UNL     1       2.680   1.749  -4.252  1.00  0.00    -0.275 OA
ATOM      6  H   UNL     1       1.067   3.494  -4.564  1.00  0.00     0.163 HD
BRANCH   4   7
ATOM      7  C   UNL     1       1.824   1.402  -2.030  1.00  0.00     0.137 C 
BRANCH   7   8
ATOM      8  C   UNL     1       2.351   2.225  -0.872  1.00  0.00    -0.015 A 
ATOM      9  C   UNL     1       1.598   2.499   0.291  1.00  0.00     0.042 A 
ATOM     10  C   UNL     1       2.137   3.377   1.250  1.00  0.00     0.026 A 
ATOM     11  C   UNL     1       3.398   3.952   1.088  1.00  0.00     0.002 A 
ATOM     12  C   UNL     1       3.640   2.785  -1.001  1.00  0.00     0.006 A 
ATOM     13  C   UNL     1       4.156   3.644  -0.033  1.00  0.00     0.000 A 
BRANCH   9  14
ATOM     14  N   UNL     1       0.348   1.919   0.591  1.00  0.00    -0.354 N 
ATOM     15  H   UNL     1      -0.304   2.555   0.964  1.00  0.00     0.167 HD
BRANCH  14  16
ATOM     16  C   UNL     1      -0.150   0.601   0.460  1.00  0.00     0.060 A 
ATOM     17  C   UNL     1      -2.458   1.610   0.003  1.00  0.00     0.046 C 
ATOM     18  C   UNL     1      -1.525   0.433   0.145  1.00  0.00    -0.026 A 
ATOM     19  C   UNL     1      -2.045  -0.853  -0.089  1.00  0.00     0.005 A 
ATOM     20  C   UNL     1      -1.230  -1.977  -0.005  1.00  0.00     0.002 A 
ATOM     21  C   UNL     1       0.649  -0.561   0.567  1.00  0.00     0.064 A 
ATOM     22  C   UNL     1       0.110  -1.832   0.330  1.00  0.00     0.023 A 
ATOM     23  Cl  UNL     1       2.297  -0.531   1.101  1.00  0.00    -0.082 Cl
ENDBRANCH  14  16
ENDBRANCH   9  14
ENDBRANCH   7   8
ENDBRANCH   4   7
ENDBRANCH   2   3
ENDBRANCH   1   2
BRANCH   1  24
ATOM     24  C   UNL     1       0.807   6.222  -3.136  1.00  0.00     0.023 C 
BRANCH  24  25
ATOM     25  C   UNL     1      -0.482   6.673  -3.812  1.00  0.00     0.116 C 
BRANCH  25  26
ATOM     26  N   UNL     1      -1.500   7.114  -2.870  1.00  0.00    -0.352 N 
ATOM     27  C   UNL     1      -2.451   8.091  -3.044  1.00  0.00     0.251 C 
ATOM     28  H   UNL     1      -1.510   6.654  -2.000  1.00  0.00     0.163 HD
ATOM     29  O   UNL     1      -3.178   8.422  -2.112  1.00  0.00    -0.269 OA
BRANCH  27  30
ATOM     30  C   UNL     1      -2.556   8.767  -4.354  1.00  0.00     0.039 A 
ATOM     31  C   UNL     1      -2.530  10.163  -4.399  1.00  0.00     0.014 A 
ATOM     32  C   UNL     1      -2.628   8.022  -5.534  1.00  0.00     0.014 A 
ATOM     33  C   UNL     1      -2.503  10.813  -5.635  1.00  0.00     0.010 A 
ATOM     34  C   UNL     1      -2.540   8.668  -6.763  1.00  0.00     0.010 A 
ATOM     35  C   UNL     1      -2.469  10.068  -6.825  1.00  0.00    -0.014 A 
BRANCH  35  36
ATOM     36  C   UNL     1      -2.347  10.726  -8.150  1.00  0.00     0.031 A 
ATOM     37  C   UNL     1      -3.466  10.616  -9.147  1.00  0.00     0.074 A 
ATOM     38  C   UNL     1      -1.196  11.342  -8.487  1.00  0.00     0.049 A 
ATOM     39  N   UNL     1      -3.503  11.007 -10.394  1.00  0.00    -0.248 NA
ATOM     40  C   UNL     1      -4.696   9.949  -8.689  1.00  0.00     0.031 C 
ATOM     41  C   UNL     1      -0.021  11.474  -7.622  1.00  0.00     0.029 A 
ATOM     42  N   UNL     1      -0.817  11.953  -9.655  1.00  0.00    -0.354 N 
ATOM     43  C   UNL     1      -4.745  10.616 -10.877  1.00  0.00     0.074 A 
ATOM     44  C   UNL     1      -5.418   9.922  -9.800  1.00  0.00     0.031 C 
ATOM     45  C   UNL     1       0.942  12.133  -8.286  1.00  0.00     0.029 A 
ATOM     46  C   UNL     1       0.470  12.438  -9.633  1.00  0.00     0.049 A 
ATOM     47  H   UNL     1      -1.410  12.037 -10.437  1.00  0.00     0.167 HD
ATOM     48  C   UNL     1      -5.282  10.830 -12.101  1.00  0.00     0.037 A 
ATOM     49  C   UNL     1       1.192  13.048 -10.593  1.00  0.00     0.037 A 
ATOM     50  C   UNL     1      -4.622  11.552 -13.157  1.00  0.00     0.049 A 
ATOM     51  C   UNL     1       0.566  13.293 -11.939  1.00  0.00     0.074 A 
ATOM     52  C   UNL     1      -5.107  11.874 -14.413  1.00  0.00     0.029 A 
ATOM     53  N   UNL     1      -3.337  12.068 -13.079  1.00  0.00    -0.354 N 
ATOM     54  N   UNL     1      -0.630  12.961 -12.362  1.00  0.00    -0.248 NA
ATOM     55  C   UNL     1       1.384  13.998 -12.937  1.00  0.00     0.031 C 
ATOM     56  C   UNL     1      -4.104  12.560 -15.105  1.00  0.00     0.029 A 
ATOM     57  C   UNL     1      -3.008  12.698 -14.267  1.00  0.00     0.049 A 
ATOM     58  H   UNL     1      -2.747  11.997 -12.295  1.00  0.00     0.167 HD
ATOM     59  C   UNL     1      -0.719  13.441 -13.664  1.00  0.00     0.074 A 
ATOM     60  C   UNL     1       0.543  14.089 -13.958  1.00  0.00     0.031 C 
ATOM     61  C   UNL     1      -1.753  13.354 -14.536  1.00  0.00     0.037 A 
BRANCH  48  62
ATOM     62  C   UNL     1      -6.657  10.281 -12.362  1.00  0.00     0.058 A 
ATOM     63  C   UNL     1      -7.798  10.849 -11.774  1.00  0.00     0.135 A 
ATOM     64  C   UNL     1      -6.839   9.191 -13.228  1.00  0.00     0.135 A 
ATOM     65  F   UNL     1      -7.678  11.882 -10.925  1.00  0.00    -0.206 F 
ATOM     66  C   UNL     1      -9.069  10.337 -12.011  1.00  0.00     0.059 A 
ATOM     67  C   UNL     1      -8.104   8.679 -13.500  1.00  0.00     0.059 A 
ATOM     68  F   UNL     1      -5.781   8.611 -13.816  1.00  0.00    -0.206 F 
ATOM     69  C   UNL     1      -9.211   9.249 -12.873  1.00  0.00     0.060 A 
BRANCH  69  70
ATOM     70  S   UNL     1     -10.867   8.592 -13.169  1.00  0.00     0.124 S 
ATOM     71  O   UNL     1     -11.112   7.857 -11.932  1.00  0.00    -0.237 OA
ATOM     72  O   UNL     1     -11.658   9.804 -13.353  1.00  0.00    -0.237 OA
ATOM     73  O   UNL     1     -10.697   7.771 -14.364  1.00  0.00    -0.744 OA
ENDBRANCH  69  70
ENDBRANCH  48  62
BRANCH  49  74
ATOM     74  C   UNL     1       2.582  13.490 -10.307  1.00  0.00     0.058 A 
ATOM     75  C   UNL     1       2.883  14.849 -10.145  1.00  0.00     0.135 A 
ATOM     76  C   UNL     1       3.629  12.565 -10.172  1.00  0.00     0.135 A 
ATOM     77  F   UNL     1       1.916  15.770 -10.271  1.00  0.00    -0.206 F 
ATOM     78  C   UNL     1       4.177  15.281  -9.871  1.00  0.00     0.059 A 
ATOM     79  C   UNL     1       4.927  12.971  -9.878  1.00  0.00     0.059 A 
ATOM     80  F   UNL     1       3.387  11.252 -10.302  1.00  0.00    -0.206 F 
ATOM     81  C   UNL     1       5.193  14.333  -9.738  1.00  0.00     0.060 A 
BRANCH  81  82
ATOM     82  S   UNL     1       6.859  14.898  -9.329  1.00  0.00     0.124 S 
ATOM     83  O   UNL     1       7.311  15.428 -10.609  1.00  0.00    -0.237 OA
ATOM     84  O   UNL     1       6.602  15.884  -8.284  1.00  0.00    -0.237 OA
ATOM     85  O   UNL     1       7.523  13.679  -8.877  1.00  0.00    -0.744 OA
ENDBRANCH  81  82
ENDBRANCH  49  74
BRANCH  61  86
ATOM     86  C   UNL     1      -1.587  14.008 -15.878  1.00  0.00     0.058 A 
ATOM     87  C   UNL     1      -0.809  13.425 -16.889  1.00  0.00     0.135 A 
ATOM     88  C   UNL     1      -2.276  15.194 -16.177  1.00  0.00     0.135 A 
ATOM     89  F   UNL     1      -0.126  12.294 -16.649  1.00  0.00    -0.206 F 
ATOM     90  C   UNL     1      -0.713  14.001 -18.151  1.00  0.00     0.059 A 
ATOM     91  C   UNL     1      -2.210  15.777 -17.438  1.00  0.00     0.059 A 
ATOM     92  F   UNL     1      -3.040  15.786 -15.244  1.00  0.00    -0.206 F 
ATOM     93  C   UNL     1      -1.420  15.175 -18.417  1.00  0.00     0.060 A 
BRANCH  93  94
ATOM     94  S   UNL     1      -1.333  15.885 -20.076  1.00  0.00     0.124 S 
ATOM     95  O   UNL     1      -0.015  16.511 -20.058  1.00  0.00    -0.237 OA
ATOM     96  O   UNL     1      -1.465  14.707 -20.928  1.00  0.00    -0.237 OA
ATOM     97  O   UNL     1      -2.466  16.805 -20.110  1.00  0.00    -0.744 OA
ENDBRANCH  93  94
ENDBRANCH  61  86
ENDBRANCH  35  36
ENDBRANCH  27  30
ENDBRANCH  25  26
ENDBRANCH  24  25
ENDBRANCH   1  24
TORSDOF 17
