REMARK SMILES Cc1ccc(F)c(C(=O)N[C@@H]2C=C[C@@H](C(=O)NCCCCNC(=O)c3ccc(-c4c5nc(c(-c6c(F)cc(S(=O)(=O)[O-])cc6F)c6ccc([nH]6)c(-c6c(F)cc(S(=O)(=O)[O-])cc6F)c6nc(c(-c7c(F)cc(S(=O)(=O)[O-])cc7F)c7ccc4[nH]7)C=C6)C=C5)cc3)C2)c1
REMARK SMILES IDX 20 1 19 2 18 3 17 4 15 5 16 6 14 8 11 9 12 10 91 11 13 12
REMARK SMILES IDX 10 13 8 14 9 15 7 17 1 18 2 19 3 20 92 21 4 22 5 23 6 24
REMARK SMILES IDX 21 25 22 26 23 27 24 29 25 30 26 31 90 32 27 33 89 34 28 35
REMARK SMILES IDX 29 36 30 37 83 38 31 39 88 40 82 41 84 42 32 43 87 44 81 45
REMARK SMILES IDX 80 46 33 48 67 49 46 50 66 51 47 52 50 53 65 54 85 55 48 56
REMARK SMILES IDX 49 57 64 59 86 60 51 61 34 62 35 63 44 64 36 65 37 66 43 67
REMARK SMILES IDX 45 68 38 69 39 70 40 71 41 72 42 73 68 74 69 75 78 76 70 77
REMARK SMILES IDX 71 78 77 79 79 80 72 81 73 82 74 83 75 84 76 85 52 86 53 87
REMARK SMILES IDX 62 88 54 89 55 90 61 91 63 92 56 93 57 94 58 95 59 96 60 97
REMARK H PARENT 17 7 10 16 22 28 84 47 50 58
REMARK Flexibility Score: inf
ROOT
ATOM      1  C   UNL     1      -1.383  -6.034   4.408  1.00  0.00     0.023 C 
ENDROOT
BRANCH   1   2
ATOM      2  C   UNL     1      -0.978  -5.187   3.200  1.00  0.00     0.023 C 
BRANCH   2   3
ATOM      3  C   UNL     1       0.154  -4.193   3.456  1.00  0.00     0.116 C 
BRANCH   3   4
ATOM      4  N   UNL     1       1.401  -4.831   3.826  1.00  0.00    -0.356 N 
ATOM      5  C   UNL     1       2.654  -4.740   3.303  1.00  0.00     0.227 C 
ATOM      6  O   UNL     1       3.564  -5.265   3.954  1.00  0.00    -0.274 OA
ATOM      7  H   UNL     1       1.329  -5.441   4.595  1.00  0.00     0.163 HD
BRANCH   5   8
ATOM      8  C   UNL     1       2.964  -4.127   1.929  1.00  0.00     0.103 C 
ATOM      9  C   UNL     1       1.325  -3.985   0.094  1.00  0.00     0.106 C 
ATOM     10  C   UNL     1       1.718  -2.633   0.607  1.00  0.00    -0.006 C 
ATOM     11  C   UNL     1       2.316  -4.920   0.796  1.00  0.00     0.047 C 
ATOM     12  C   UNL     1       2.556  -2.717   1.650  1.00  0.00    -0.016 C 
BRANCH   9  13
ATOM     13  N   UNL     1       1.355  -4.010  -1.352  1.00  0.00    -0.346 N 
ATOM     14  C   UNL     1       1.120  -5.040  -2.240  1.00  0.00     0.254 C 
ATOM     15  O   UNL     1       1.006  -4.765  -3.433  1.00  0.00    -0.269 OA
ATOM     16  H   UNL     1       1.581  -3.149  -1.773  1.00  0.00     0.164 HD
BRANCH  14  17
ATOM     17  C   UNL     1       1.085  -6.459  -1.801  1.00  0.00     0.075 A 
ATOM     18  C   UNL     1       0.297  -8.496   1.309  1.00  0.00     0.044 C 
ATOM     19  C   UNL     1       0.721  -8.153  -0.091  1.00  0.00    -0.050 A 
ATOM     20  C   UNL     1       1.445  -9.075  -0.851  1.00  0.00     0.006 A 
ATOM     21  C   UNL     1       0.451  -6.882  -0.627  1.00  0.00     0.020 A 
ATOM     22  C   UNL     1       1.954  -8.707  -2.094  1.00  0.00     0.040 A 
ATOM     23  C   UNL     1       1.800  -7.398  -2.548  1.00  0.00     0.135 A 
ATOM     24  F   UNL     1       2.407  -7.061  -3.696  1.00  0.00    -0.206 F 
ENDBRANCH  14  17
ENDBRANCH   9  13
ENDBRANCH   5   8
ENDBRANCH   3   4
ENDBRANCH   2   3
ENDBRANCH   1   2
BRANCH   1  25
ATOM     25  C   UNL     1      -1.778  -5.234   5.644  1.00  0.00     0.116 C 
BRANCH  25  26
ATOM     26  N   UNL     1      -2.872  -4.311   5.385  1.00  0.00    -0.352 N 
ATOM     27  C   UNL     1      -4.004  -4.073   6.129  1.00  0.00     0.251 C 
ATOM     28  H   UNL     1      -2.791  -3.781   4.559  1.00  0.00     0.163 HD
ATOM     29  O   UNL     1      -4.898  -3.376   5.670  1.00  0.00    -0.269 OA
BRANCH  27  30
ATOM     30  C   UNL     1      -4.139  -4.684   7.468  1.00  0.00     0.039 A 
ATOM     31  C   UNL     1      -5.354  -5.274   7.821  1.00  0.00     0.014 A 
ATOM     32  C   UNL     1      -3.067  -4.686   8.366  1.00  0.00     0.014 A 
ATOM     33  C   UNL     1      -5.475  -5.919   9.052  1.00  0.00     0.010 A 
ATOM     34  C   UNL     1      -3.163  -5.402   9.554  1.00  0.00     0.010 A 
ATOM     35  C   UNL     1      -4.370  -6.019   9.914  1.00  0.00    -0.014 A 
BRANCH  35  36
ATOM     36  C   UNL     1      -4.463  -6.769  11.193  1.00  0.00     0.031 A 
ATOM     37  C   UNL     1      -4.262  -6.062  12.505  1.00  0.00     0.074 A 
ATOM     38  C   UNL     1      -4.669  -8.100  11.166  1.00  0.00     0.049 A 
ATOM     39  N   UNL     1      -4.272  -6.553  13.718  1.00  0.00    -0.248 NA
ATOM     40  C   UNL     1      -3.980  -4.619  12.444  1.00  0.00     0.031 C 
ATOM     41  C   UNL     1      -4.807  -8.909   9.953  1.00  0.00     0.029 A 
ATOM     42  N   UNL     1      -4.787  -9.009  12.186  1.00  0.00    -0.354 N 
ATOM     43  C   UNL     1      -3.995  -5.484  14.561  1.00  0.00     0.074 A 
ATOM     44  C   UNL     1      -3.748  -4.335  13.717  1.00  0.00     0.031 C 
ATOM     45  C   UNL     1      -5.009 -10.190  10.300  1.00  0.00     0.029 A 
ATOM     46  C   UNL     1      -4.979 -10.300  11.755  1.00  0.00     0.049 A 
ATOM     47  H   UNL     1      -4.738  -8.761  13.138  1.00  0.00     0.167 HD
ATOM     48  C   UNL     1      -3.977  -5.453  15.916  1.00  0.00     0.037 A 
ATOM     49  C   UNL     1      -5.106 -11.446  12.450  1.00  0.00     0.037 A 
ATOM     50  C   UNL     1      -4.224  -6.603  16.748  1.00  0.00     0.049 A 
ATOM     51  C   UNL     1      -5.089 -11.395  13.952  1.00  0.00     0.074 A 
ATOM     52  C   UNL     1      -4.281  -6.673  18.128  1.00  0.00     0.029 A 
ATOM     53  N   UNL     1      -4.444  -7.891  16.275  1.00  0.00    -0.354 N 
ATOM     54  N   UNL     1      -4.907 -10.360  14.739  1.00  0.00    -0.248 NA
ATOM     55  C   UNL     1      -5.310 -12.660  14.662  1.00  0.00     0.031 C 
ATOM     56  C   UNL     1      -4.480  -8.010  18.491  1.00  0.00     0.029 A 
ATOM     57  C   UNL     1      -4.611  -8.766  17.337  1.00  0.00     0.049 A 
ATOM     58  H   UNL     1      -4.478  -8.145  15.325  1.00  0.00     0.167 HD
ATOM     59  C   UNL     1      -5.004 -10.846  16.038  1.00  0.00     0.074 A 
ATOM     60  C   UNL     1      -5.287 -12.264  15.928  1.00  0.00     0.031 C 
ATOM     61  C   UNL     1      -4.873 -10.181  17.213  1.00  0.00     0.037 A 
BRANCH  48  62
ATOM     62  C   UNL     1      -3.670  -4.131  16.571  1.00  0.00     0.058 A 
ATOM     63  C   UNL     1      -4.547  -3.036  16.474  1.00  0.00     0.135 A 
ATOM     64  C   UNL     1      -2.481  -3.948  17.296  1.00  0.00     0.135 A 
ATOM     65  F   UNL     1      -5.693  -3.147  15.784  1.00  0.00    -0.206 F 
ATOM     66  C   UNL     1      -4.230  -1.796  17.019  1.00  0.00     0.059 A 
ATOM     67  C   UNL     1      -2.160  -2.726  17.881  1.00  0.00     0.059 A 
ATOM     68  F   UNL     1      -1.607  -4.958  17.428  1.00  0.00    -0.206 F 
ATOM     69  C   UNL     1      -3.030  -1.649  17.715  1.00  0.00     0.060 A 
BRANCH  69  70
ATOM     70  S   UNL     1      -2.616  -0.025  18.384  1.00  0.00     0.124 S 
ATOM     71  O   UNL     1      -2.287   0.714  17.168  1.00  0.00    -0.237 OA
ATOM     72  O   UNL     1      -3.857   0.366  19.045  1.00  0.00    -0.237 OA
ATOM     73  O   UNL     1      -1.494  -0.299  19.275  1.00  0.00    -0.744 OA
ENDBRANCH  69  70
ENDBRANCH  48  62
BRANCH  49  74
ATOM     74  C   UNL     1      -5.277 -12.729  11.718  1.00  0.00     0.058 A 
ATOM     75  C   UNL     1      -6.507 -13.402  11.703  1.00  0.00     0.135 A 
ATOM     76  C   UNL     1      -4.224 -13.276  10.967  1.00  0.00     0.135 A 
ATOM     77  F   UNL     1      -7.542 -12.923  12.410  1.00  0.00    -0.206 F 
ATOM     78  C   UNL     1      -6.690 -14.571  10.971  1.00  0.00     0.059 A 
ATOM     79  C   UNL     1      -4.389 -14.429  10.206  1.00  0.00     0.059 A 
ATOM     80  F   UNL     1      -3.032 -12.661  10.933  1.00  0.00    -0.206 F 
ATOM     81  C   UNL     1      -5.627 -15.070  10.216  1.00  0.00     0.060 A 
BRANCH  81  82
ATOM     82  S   UNL     1      -5.901 -16.536   9.197  1.00  0.00     0.124 S 
ATOM     83  O   UNL     1      -5.994 -17.584  10.206  1.00  0.00    -0.237 OA
ATOM     84  O   UNL     1      -7.143 -16.199   8.507  1.00  0.00    -0.237 OA
ATOM     85  O   UNL     1      -4.715 -16.581   8.347  1.00  0.00    -0.744 OA
ENDBRANCH  81  82
ENDBRANCH  49  74
BRANCH  61  86
ATOM     86  C   UNL     1      -5.046 -10.980  18.478  1.00  0.00     0.058 A 
ATOM     87  C   UNL     1      -4.101 -11.935  18.885  1.00  0.00     0.135 A 
ATOM     88  C   UNL     1      -6.160 -10.768  19.307  1.00  0.00     0.135 A 
ATOM     89  F   UNL     1      -3.019 -12.181  18.129  1.00  0.00    -0.206 F 
ATOM     90  C   UNL     1      -4.274 -12.681  20.047  1.00  0.00     0.059 A 
ATOM     91  C   UNL     1      -6.337 -11.478  20.490  1.00  0.00     0.059 A 
ATOM     92  F   UNL     1      -7.089  -9.858  18.974  1.00  0.00    -0.206 F 
ATOM     93  C   UNL     1      -5.397 -12.446  20.842  1.00  0.00     0.060 A 
BRANCH  93  94
ATOM     94  S   UNL     1      -5.607 -13.416  22.350  1.00  0.00     0.124 S 
ATOM     95  O   UNL     1      -5.977 -14.720  21.810  1.00  0.00    -0.237 OA
ATOM     96  O   UNL     1      -4.284 -13.334  22.961  1.00  0.00    -0.237 OA
ATOM     97  O   UNL     1      -6.666 -12.709  23.064  1.00  0.00    -0.744 OA
ENDBRANCH  93  94
ENDBRANCH  61  86
ENDBRANCH  35  36
ENDBRANCH  27  30
ENDBRANCH  25  26
ENDBRANCH   1  25
TORSDOF 16
