REMARK SMILES CCCc1nnc(SCC(=O)NCCCCNC(=O)c2ccc(-c3c4nc(c(-c5c(F)cc(S(=O)(=O)[O-])cc5F)c5ccc([nH]5)c(-c5c(F)cc(S(=O)(=O)[O-])cc5F)c5nc(c(-c6c(F)cc(S(=O)(=O)[O-])cc6F)c6ccc3[nH]6)C=C5)C=C4)cc2)n1C[C@H]1CCCO1
REMARK SMILES IDX 14 1 13 2 12 3 10 4 11 5 9 7 8 8 7 9 4 10 5 11 86 12 6 13
REMARK SMILES IDX 3 14 2 15 1 16 87 17 88 18 89 19 92 20 90 21 91 22 15 23
REMARK SMILES IDX 16 24 17 25 18 26 19 28 20 29 21 30 85 31 22 32 84 33 23 34
REMARK SMILES IDX 24 35 25 36 78 37 26 38 83 39 77 40 79 41 27 42 82 43 76 44
REMARK SMILES IDX 75 45 28 47 62 48 41 49 61 50 42 51 45 52 60 53 80 54 43 55
REMARK SMILES IDX 44 56 59 58 81 59 46 60 29 61 30 62 39 63 31 64 32 65 38 66
REMARK SMILES IDX 40 67 33 68 34 69 35 70 36 71 37 72 63 73 64 74 73 75 65 76
REMARK SMILES IDX 66 77 72 78 74 79 67 80 68 81 69 82 70 83 71 84 47 85 48 86
REMARK SMILES IDX 57 87 49 88 50 89 56 90 58 91 51 92 52 93 53 94 54 95 55 96
REMARK H PARENT 12 6 17 27 79 46 45 57
REMARK Flexibility Score: inf
ROOT
ATOM      1  C   UNL     1       1.060   8.632  -0.741  1.00  0.00     0.023 C 
ENDROOT
BRANCH   1   2
ATOM      2  C   UNL     1      -0.346   8.147  -0.410  1.00  0.00     0.116 C 
BRANCH   2   3
ATOM      3  N   UNL     1      -0.650   6.894  -1.053  1.00  0.00    -0.355 N 
ATOM      4  C   UNL     1      -0.420   5.649  -0.567  1.00  0.00     0.230 C 
ATOM      5  O   UNL     1      -0.618   4.698  -1.324  1.00  0.00    -0.274 OA
ATOM      6  H   UNL     1      -1.070   6.948  -1.942  1.00  0.00     0.163 HD
BRANCH   4   7
ATOM      7  C   UNL     1      -0.043   5.467   0.888  1.00  0.00     0.178 C 
BRANCH   7   8
ATOM      8  S   UNL     1       1.663   5.720   1.318  1.00  0.00    -0.076 SA
BRANCH   8   9
ATOM      9  C   UNL     1       2.614   4.303   1.066  1.00  0.00     0.191 A 
ATOM     10  C   UNL     1       3.559   2.563   0.151  1.00  0.00     0.133 A 
ATOM     11  N   UNL     1       4.490   3.233   0.799  1.00  0.00    -0.134 NA
ATOM     12  N   UNL     1       2.320   3.082   0.508  1.00  0.00    -0.303 N 
ATOM     13  N   UNL     1       3.898   4.327   1.361  1.00  0.00    -0.123 NA
BRANCH  10  14
ATOM     14  C   UNL     1       3.851   1.615  -0.968  1.00  0.00     0.077 C 
BRANCH  14  15
ATOM     15  C   UNL     1       3.836   0.129  -0.622  1.00  0.00     0.005 C 
ATOM     16  C   UNL     1       2.471  -0.523  -0.766  1.00  0.00     0.004 C 
ENDBRANCH  14  15
ENDBRANCH  10  14
BRANCH  12  17
ATOM     17  C   UNL     1       1.052   2.453   0.239  1.00  0.00     0.158 C 
BRANCH  17  18
ATOM     18  C   UNL     1       0.403   1.657   1.391  1.00  0.00     0.138 C 
ATOM     19  C   UNL     1      -0.225   2.397   2.563  1.00  0.00     0.036 C 
ATOM     20  O   UNL     1      -0.685   0.891   0.836  1.00  0.00    -0.376 OA
ATOM     21  C   UNL     1      -1.683   2.581   2.194  1.00  0.00     0.031 C 
ATOM     22  C   UNL     1      -1.933   1.538   1.127  1.00  0.00     0.160 C 
ENDBRANCH  17  18
ENDBRANCH  12  17
ENDBRANCH   8   9
ENDBRANCH   7   8
ENDBRANCH   4   7
ENDBRANCH   2   3
ENDBRANCH   1   2
BRANCH   1  23
ATOM     23  C   UNL     1       1.408   8.723  -2.230  1.00  0.00     0.023 C 
BRANCH  23  24
ATOM     24  C   UNL     1       0.444   9.551  -3.066  1.00  0.00     0.116 C 
BRANCH  24  25
ATOM     25  N   UNL     1       0.166  10.849  -2.461  1.00  0.00    -0.352 N 
ATOM     26  C   UNL     1      -0.897  11.695  -2.685  1.00  0.00     0.251 C 
ATOM     27  H   UNL     1       0.828  11.163  -1.804  1.00  0.00     0.163 HD
ATOM     28  O   UNL     1      -0.858  12.862  -2.304  1.00  0.00    -0.269 OA
BRANCH  26  29
ATOM     29  C   UNL     1      -2.076  11.178  -3.394  1.00  0.00     0.039 A 
ATOM     30  C   UNL     1      -2.600  11.853  -4.495  1.00  0.00     0.014 A 
ATOM     31  C   UNL     1      -2.618   9.964  -2.980  1.00  0.00     0.014 A 
ATOM     32  C   UNL     1      -3.617  11.247  -5.227  1.00  0.00     0.010 A 
ATOM     33  C   UNL     1      -3.530   9.310  -3.768  1.00  0.00     0.010 A 
ATOM     34  C   UNL     1      -4.062   9.963  -4.872  1.00  0.00    -0.014 A 
BRANCH  34  35
ATOM     35  C   UNL     1      -5.007   9.248  -5.719  1.00  0.00     0.031 A 
ATOM     36  C   UNL     1      -4.592   9.091  -7.141  1.00  0.00     0.074 A 
ATOM     37  C   UNL     1      -6.071   8.575  -5.232  1.00  0.00     0.049 A 
ATOM     38  N   UNL     1      -5.129   9.633  -8.184  1.00  0.00    -0.248 NA
ATOM     39  C   UNL     1      -3.360   8.340  -7.432  1.00  0.00     0.031 C 
ATOM     40  C   UNL     1      -6.443   8.335  -3.833  1.00  0.00     0.029 A 
ATOM     41  N   UNL     1      -6.996   7.852  -5.915  1.00  0.00    -0.354 N 
ATOM     42  C   UNL     1      -4.439   9.129  -9.283  1.00  0.00     0.074 A 
ATOM     43  C   UNL     1      -3.264   8.483  -8.756  1.00  0.00     0.031 C 
ATOM     44  C   UNL     1      -7.355   7.340  -3.775  1.00  0.00     0.029 A 
ATOM     45  C   UNL     1      -7.756   7.000  -5.126  1.00  0.00     0.049 A 
ATOM     46  H   UNL     1      -7.118   7.927  -6.889  1.00  0.00     0.167 HD
ATOM     47  C   UNL     1      -4.998   9.099 -10.527  1.00  0.00     0.037 A 
ATOM     48  C   UNL     1      -8.623   6.053  -5.564  1.00  0.00     0.037 A 
ATOM     49  C   UNL     1      -6.188   9.910 -10.585  1.00  0.00     0.049 A 
ATOM     50  C   UNL     1      -9.006   6.427  -6.951  1.00  0.00     0.074 A 
ATOM     51  C   UNL     1      -6.462  11.247 -10.368  1.00  0.00     0.029 A 
ATOM     52  N   UNL     1      -7.402   9.268 -10.525  1.00  0.00    -0.354 N 
ATOM     53  N   UNL     1      -9.692   7.496  -7.254  1.00  0.00    -0.248 NA
ATOM     54  C   UNL     1      -8.243   5.851  -8.049  1.00  0.00     0.031 C 
ATOM     55  C   UNL     1      -7.722  11.260  -9.700  1.00  0.00     0.029 A 
ATOM     56  C   UNL     1      -8.172   9.941  -9.610  1.00  0.00     0.049 A 
ATOM     57  H   UNL     1      -7.669   8.473 -11.041  1.00  0.00     0.167 HD
ATOM     58  C   UNL     1      -9.116   7.971  -8.423  1.00  0.00     0.074 A 
ATOM     59  C   UNL     1      -8.301   6.864  -8.918  1.00  0.00     0.031 C 
ATOM     60  C   UNL     1      -9.129   9.303  -8.731  1.00  0.00     0.037 A 
BRANCH  47  61
ATOM     61  C   UNL     1      -4.674   8.085 -11.596  1.00  0.00     0.058 A 
ATOM     62  C   UNL     1      -5.133   8.292 -12.915  1.00  0.00     0.135 A 
ATOM     63  C   UNL     1      -4.171   6.795 -11.322  1.00  0.00     0.135 A 
ATOM     64  F   UNL     1      -5.645   9.478 -13.282  1.00  0.00    -0.206 F 
ATOM     65  C   UNL     1      -5.147   7.274 -13.870  1.00  0.00     0.059 A 
ATOM     66  C   UNL     1      -4.125   5.782 -12.275  1.00  0.00     0.059 A 
ATOM     67  F   UNL     1      -3.793   6.427 -10.092  1.00  0.00    -0.206 F 
ATOM     68  C   UNL     1      -4.654   6.018 -13.534  1.00  0.00     0.060 A 
BRANCH  68  69
ATOM     69  S   UNL     1      -4.766   4.674 -14.729  1.00  0.00     0.124 S 
ATOM     70  O   UNL     1      -6.203   4.424 -14.748  1.00  0.00    -0.237 OA
ATOM     71  O   UNL     1      -4.207   5.287 -15.929  1.00  0.00    -0.237 OA
ATOM     72  O   UNL     1      -3.949   3.624 -14.130  1.00  0.00    -0.744 OA
ENDBRANCH  68  69
ENDBRANCH  47  61
BRANCH  48  73
ATOM     73  C   UNL     1      -8.849   4.697  -4.999  1.00  0.00     0.058 A 
ATOM     74  C   UNL     1      -9.910   3.897  -5.459  1.00  0.00     0.135 A 
ATOM     75  C   UNL     1      -7.868   4.045  -4.224  1.00  0.00     0.135 A 
ATOM     76  F   UNL     1     -10.884   4.435  -6.208  1.00  0.00    -0.206 F 
ATOM     77  C   UNL     1      -9.956   2.519  -5.230  1.00  0.00     0.059 A 
ATOM     78  C   UNL     1      -7.900   2.674  -3.973  1.00  0.00     0.059 A 
ATOM     79  F   UNL     1      -6.791   4.700  -3.768  1.00  0.00    -0.206 F 
ATOM     80  C   UNL     1      -8.929   1.911  -4.509  1.00  0.00     0.060 A 
BRANCH  80  81
ATOM     81  S   UNL     1      -8.865   0.107  -4.401  1.00  0.00     0.124 S 
ATOM     82  O   UNL     1      -9.969  -0.179  -3.492  1.00  0.00    -0.237 OA
ATOM     83  O   UNL     1      -9.061  -0.291  -5.791  1.00  0.00    -0.237 OA
ATOM     84  O   UNL     1      -7.531  -0.151  -3.865  1.00  0.00    -0.744 OA
ENDBRANCH  80  81
ENDBRANCH  48  73
BRANCH  60  85
ATOM     85  C   UNL     1     -10.044  10.210  -7.946  1.00  0.00     0.058 A 
ATOM     86  C   UNL     1      -9.959  10.432  -6.559  1.00  0.00     0.135 A 
ATOM     87  C   UNL     1     -10.970  10.989  -8.657  1.00  0.00     0.135 A 
ATOM     88  F   UNL     1      -9.028   9.819  -5.816  1.00  0.00    -0.206 F 
ATOM     89  C   UNL     1     -10.796  11.339  -5.904  1.00  0.00     0.059 A 
ATOM     90  C   UNL     1     -11.790  11.924  -8.031  1.00  0.00     0.059 A 
ATOM     91  F   UNL     1     -11.057  10.876  -9.993  1.00  0.00    -0.206 F 
ATOM     92  C   UNL     1     -11.712  12.079  -6.650  1.00  0.00     0.060 A 
BRANCH  92  93
ATOM     93  S   UNL     1     -12.762  13.283  -5.809  1.00  0.00     0.124 S 
ATOM     94  O   UNL     1     -13.686  12.424  -5.076  1.00  0.00    -0.237 OA
ATOM     95  O   UNL     1     -11.806  14.026  -4.993  1.00  0.00    -0.237 OA
ATOM     96  O   UNL     1     -13.355  14.044  -6.906  1.00  0.00    -0.744 OA
ENDBRANCH  92  93
ENDBRANCH  60  85
ENDBRANCH  34  35
ENDBRANCH  26  29
ENDBRANCH  24  25
ENDBRANCH  23  24
ENDBRANCH   1  23
TORSDOF 20
