REMARK SMILES O=C(C[C@H]([NH2+]Cc1ccccc1C1CC1)c1cccs1)NCCCCNC(=O)c1ccc(-c2c3nc(c(-c4c(F)cc(S(=O)(=O)[O-])cc4F)c4ccc([nH]4)c(-c4c(F)cc(S(=O)(=O)[O-])cc4F)c4nc(c(-c5c(F)cc(S(=O)(=O)[O-])cc5F)c5ccc2[nH]5)C=C4)C=C3)cc1
REMARK SMILES IDX 22 1 21 2 1 3 2 4 3 6 4 7 16 8 17 9 20 10 18 11 19 12 5 13
REMARK SMILES IDX 6 16 7 17 8 18 12 19 9 20 11 21 10 22 13 23 14 24 15 25
REMARK SMILES IDX 23 26 24 27 25 28 26 29 27 30 28 32 29 33 30 34 94 35 31 36
REMARK SMILES IDX 93 37 32 38 33 39 34 40 87 41 35 42 92 43 86 44 88 45 36 46
REMARK SMILES IDX 91 47 85 48 84 49 37 51 71 52 50 53 70 54 51 55 54 56 69 57
REMARK SMILES IDX 89 58 52 59 53 60 68 62 90 63 55 64 38 65 39 66 48 67 40 68
REMARK SMILES IDX 41 69 47 70 49 71 42 72 43 73 44 74 45 75 46 76 72 77 73 78
REMARK SMILES IDX 82 79 74 80 75 81 81 82 83 83 76 84 77 85 78 86 79 87 80 88
REMARK SMILES IDX 56 89 57 90 66 91 58 92 59 93 65 94 67 95 60 96 61 97 62 98
REMARK SMILES IDX 63 99 64 100
REMARK H PARENT 21 5 5 14 5 15 26 31 88 50 54 61
REMARK Flexibility Score: inf
ROOT
ATOM      1  C   UNL     1       8.034   2.627   2.240  1.00  0.00     0.116 C 
ENDROOT
BRANCH   1   2
ATOM      2  N   UNL     1       6.914   2.002   1.577  1.00  0.00    -0.356 N 
ATOM      3  O   UNL     1       6.612   0.266   3.068  1.00  0.00    -0.275 OA
ATOM      4  C   UNL     1       6.248   0.910   2.092  1.00  0.00     0.226 C 
ATOM      5  H   UNL     1       6.612   2.373   0.716  1.00  0.00     0.163 HD
BRANCH   4   6
ATOM      6  C   UNL     1       5.002   0.571   1.307  1.00  0.00     0.171 C 
BRANCH   6   7
ATOM      7  C   UNL     1       3.720   1.338   1.701  1.00  0.00     0.233 C 
BRANCH   7   8
ATOM      8  C   UNL     1       3.948   2.759   2.189  1.00  0.00     0.062 A 
ATOM      9  C   UNL     1       3.785   3.958   1.515  1.00  0.00     0.021 A 
ATOM     10  S   UNL     1       4.424   3.046   3.822  1.00  0.00    -0.143 S 
ATOM     11  C   UNL     1       4.155   5.087   2.300  1.00  0.00     0.012 A 
ATOM     12  C   UNL     1       4.598   4.723   3.550  1.00  0.00     0.065 A 
ENDBRANCH   7   8
BRANCH   7  13
ATOM     13  N   UNL     1       2.831   1.381   0.523  1.00  0.00    -0.335 N 
ATOM     14  H   UNL     1       3.252   0.824  -0.220  1.00  0.00     0.347 HD
ATOM     15  H   UNL     1       2.728   2.362   0.262  1.00  0.00     0.347 HD
BRANCH  13  16
ATOM     16  C   UNL     1       1.493   0.867   0.781  1.00  0.00     0.298 C 
BRANCH  16  17
ATOM     17  C   UNL     1       0.676   0.857  -0.494  1.00  0.00     0.010 A 
ATOM     18  C   UNL     1      -0.102   2.019  -0.733  1.00  0.00     0.010 A 
ATOM     19  C   UNL     1       0.675  -0.198  -1.444  1.00  0.00    -0.036 A 
ATOM     20  C   UNL     1      -0.923   2.139  -1.849  1.00  0.00     0.001 A 
ATOM     21  C   UNL     1      -0.204  -0.040  -2.549  1.00  0.00     0.004 A 
ATOM     22  C   UNL     1      -0.989   1.096  -2.752  1.00  0.00     0.000 A 
BRANCH  19  23
ATOM     23  C   UNL     1       1.510  -1.477  -1.467  1.00  0.00     0.020 C 
ATOM     24  C   UNL     1       2.671  -1.853  -0.594  1.00  0.00     0.009 C 
ATOM     25  C   UNL     1       1.341  -2.516  -0.386  1.00  0.00     0.009 C 
ENDBRANCH  19  23
ENDBRANCH  16  17
ENDBRANCH  13  16
ENDBRANCH   7  13
ENDBRANCH   6   7
ENDBRANCH   4   6
ENDBRANCH   1   2
BRANCH   1  26
ATOM     26  C   UNL     1       9.028   3.245   1.259  1.00  0.00     0.023 C 
BRANCH  26  27
ATOM     27  C   UNL     1       8.442   4.213   0.223  1.00  0.00     0.023 C 
BRANCH  27  28
ATOM     28  C   UNL     1       7.650   5.393   0.779  1.00  0.00     0.116 C 
BRANCH  28  29
ATOM     29  N   UNL     1       8.448   6.291   1.594  1.00  0.00    -0.352 N 
ATOM     30  C   UNL     1       8.595   7.657   1.516  1.00  0.00     0.251 C 
ATOM     31  H   UNL     1       8.964   5.856   2.312  1.00  0.00     0.163 HD
ATOM     32  O   UNL     1       9.398   8.223   2.247  1.00  0.00    -0.269 OA
BRANCH  30  33
ATOM     33  C   UNL     1       7.815   8.442   0.529  1.00  0.00     0.039 A 
ATOM     34  C   UNL     1       8.488   9.377  -0.262  1.00  0.00     0.014 A 
ATOM     35  C   UNL     1       6.435   8.274   0.385  1.00  0.00     0.014 A 
ATOM     36  C   UNL     1       7.793  10.086  -1.247  1.00  0.00     0.010 A 
ATOM     37  C   UNL     1       5.754   8.938  -0.638  1.00  0.00     0.010 A 
ATOM     38  C   UNL     1       6.427   9.844  -1.472  1.00  0.00    -0.014 A 
BRANCH  38  39
ATOM     39  C   UNL     1       5.710  10.504  -2.599  1.00  0.00     0.031 A 
ATOM     40  C   UNL     1       4.584  11.468  -2.337  1.00  0.00     0.074 A 
ATOM     41  C   UNL     1       6.044  10.196  -3.869  1.00  0.00     0.049 A 
ATOM     42  N   UNL     1       3.832  12.111  -3.195  1.00  0.00    -0.248 NA
ATOM     43  C   UNL     1       4.245  11.729  -0.930  1.00  0.00     0.031 C 
ATOM     44  C   UNL     1       7.089   9.246  -4.261  1.00  0.00     0.029 A 
ATOM     45  N   UNL     1       5.540  10.641  -5.067  1.00  0.00    -0.354 N 
ATOM     46  C   UNL     1       2.927  12.844  -2.435  1.00  0.00     0.074 A 
ATOM     47  C   UNL     1       3.194  12.528  -1.048  1.00  0.00     0.031 C 
ATOM     48  C   UNL     1       7.164   9.201  -5.600  1.00  0.00     0.029 A 
ATOM     49  C   UNL     1       6.149  10.084  -6.167  1.00  0.00     0.049 A 
ATOM     50  H   UNL     1       4.809  11.299  -5.132  1.00  0.00     0.167 HD
ATOM     51  C   UNL     1       1.975  13.714  -2.853  1.00  0.00     0.037 A 
ATOM     52  C   UNL     1       5.916  10.255  -7.484  1.00  0.00     0.037 A 
ATOM     53  C   UNL     1       1.723  14.036  -4.236  1.00  0.00     0.049 A 
ATOM     54  C   UNL     1       4.841  11.213  -7.923  1.00  0.00     0.074 A 
ATOM     55  C   UNL     1       0.821  14.951  -4.753  1.00  0.00     0.029 A 
ATOM     56  N   UNL     1       2.361  13.451  -5.319  1.00  0.00    -0.354 N 
ATOM     57  N   UNL     1       4.045  11.952  -7.188  1.00  0.00    -0.248 NA
ATOM     58  C   UNL     1       4.635  11.364  -9.370  1.00  0.00     0.031 C 
ATOM     59  C   UNL     1       0.874  14.877  -6.149  1.00  0.00     0.029 A 
ATOM     60  C   UNL     1       1.852  13.962  -6.503  1.00  0.00     0.049 A 
ATOM     61  H   UNL     1       3.072  12.772  -5.257  1.00  0.00     0.167 HD
ATOM     62  C   UNL     1       3.266  12.679  -8.083  1.00  0.00     0.074 A 
ATOM     63  C   UNL     1       3.695  12.299  -9.413  1.00  0.00     0.031 C 
ATOM     64  C   UNL     1       2.288  13.583  -7.825  1.00  0.00     0.037 A 
BRANCH  51  65
ATOM     65  C   UNL     1       1.125  14.380  -1.804  1.00  0.00     0.058 A 
ATOM     66  C   UNL     1       1.650  15.343  -0.927  1.00  0.00     0.135 A 
ATOM     67  C   UNL     1      -0.246  14.086  -1.704  1.00  0.00     0.135 A 
ATOM     68  F   UNL     1       2.955  15.656  -0.970  1.00  0.00    -0.206 F 
ATOM     69  C   UNL     1       0.857  15.966   0.031  1.00  0.00     0.059 A 
ATOM     70  C   UNL     1      -1.065  14.720  -0.774  1.00  0.00     0.059 A 
ATOM     71  F   UNL     1      -0.803  13.177  -2.519  1.00  0.00    -0.206 F 
ATOM     72  C   UNL     1      -0.501  15.647   0.100  1.00  0.00     0.060 A 
BRANCH  72  73
ATOM     73  S   UNL     1      -1.516  16.466   1.349  1.00  0.00     0.124 S 
ATOM     74  O   UNL     1      -1.038  15.831   2.573  1.00  0.00    -0.237 OA
ATOM     75  O   UNL     1      -1.148  17.868   1.178  1.00  0.00    -0.237 OA
ATOM     76  O   UNL     1      -2.880  16.126   0.956  1.00  0.00    -0.744 OA
ENDBRANCH  72  73
ENDBRANCH  51  65
BRANCH  52  77
ATOM     77  C   UNL     1       6.732   9.518  -8.487  1.00  0.00     0.058 A 
ATOM     78  C   UNL     1       7.648  10.191  -9.309  1.00  0.00     0.135 A 
ATOM     79  C   UNL     1       6.618   8.127  -8.640  1.00  0.00     0.135 A 
ATOM     80  F   UNL     1       7.787  11.522  -9.207  1.00  0.00    -0.206 F 
ATOM     81  C   UNL     1       8.410   9.517 -10.258  1.00  0.00     0.059 A 
ATOM     82  C   UNL     1       7.390   7.426  -9.562  1.00  0.00     0.059 A 
ATOM     83  F   UNL     1       5.768   7.432  -7.868  1.00  0.00    -0.206 F 
ATOM     84  C   UNL     1       8.276   8.133 -10.374  1.00  0.00     0.060 A 
BRANCH  84  85
ATOM     85  S   UNL     1       9.305   7.262 -11.576  1.00  0.00     0.124 S 
ATOM     86  O   UNL     1       8.696   7.672 -12.836  1.00  0.00    -0.237 OA
ATOM     87  O   UNL     1      10.629   7.808 -11.298  1.00  0.00    -0.237 OA
ATOM     88  O   UNL     1       9.126   5.858 -11.216  1.00  0.00    -0.744 OA
ENDBRANCH  84  85
ENDBRANCH  52  77
BRANCH  64  89
ATOM     89  C   UNL     1       1.633  14.257  -9.001  1.00  0.00     0.058 A 
ATOM     90  C   UNL     1       0.758  13.570  -9.857  1.00  0.00     0.135 A 
ATOM     91  C   UNL     1       1.846  15.624  -9.244  1.00  0.00     0.135 A 
ATOM     92  F   UNL     1       0.524  12.261  -9.677  1.00  0.00    -0.206 F 
ATOM     93  C   UNL     1       0.135  14.209 -10.926  1.00  0.00     0.059 A 
ATOM     94  C   UNL     1       1.210  16.290 -10.287  1.00  0.00     0.059 A 
ATOM     95  F   UNL     1       2.666  16.332  -8.451  1.00  0.00    -0.206 F 
ATOM     96  C   UNL     1       0.365  15.571 -11.131  1.00  0.00     0.060 A 
BRANCH  96  97
ATOM     97  S   UNL     1      -0.477  16.394 -12.499  1.00  0.00     0.124 S 
ATOM     98  O   UNL     1       0.244  15.863 -13.651  1.00  0.00    -0.237 OA
ATOM     99  O   UNL     1      -1.852  15.930 -12.343  1.00  0.00    -0.237 OA
ATOM    100  O   UNL     1      -0.265  17.812 -12.225  1.00  0.00    -0.744 OA
ENDBRANCH  96  97
ENDBRANCH  64  89
ENDBRANCH  38  39
ENDBRANCH  30  33
ENDBRANCH  28  29
ENDBRANCH  27  28
ENDBRANCH  26  27
ENDBRANCH   1  26
TORSDOF 20
