REMARK SMILES O=C(Cn1c(-c2nc(-c3ccc(C(F)(F)F)cc3)no2)cc2ccccc21)NCCCCNC(=O)c1ccc(-c2c3nc(c(-c4c(F)cc(S(=O)(=O)[O-])cc4F)c4ccc([nH]4)c(-c4c(F)cc(S(=O)(=O)[O-])cc4F)c4nc(c(-c5c(F)cc(S(=O)(=O)[O-])cc5F)c5ccc2[nH]5)C=C4)C=C3)cc1
REMARK SMILES IDX 30 1 29 2 28 3 1 4 2 5 3 7 4 8 5 9 27 10 21 11 22 12 26 13
REMARK SMILES IDX 23 14 25 15 24 16 6 17 7 18 20 19 8 20 19 21 9 22 10 23
REMARK SMILES IDX 18 24 11 25 17 26 12 27 13 28 14 29 15 30 16 31 31 32 32 33
REMARK SMILES IDX 33 34 34 35 35 37 36 38 37 39 101 40 38 41 100 42 39 43
REMARK SMILES IDX 40 44 41 45 94 46 42 47 99 48 93 49 95 50 43 51 98 52 92 53
REMARK SMILES IDX 91 54 44 56 78 57 57 58 77 59 58 60 61 61 76 62 96 63 59 64
REMARK SMILES IDX 60 65 75 67 97 68 62 69 45 70 46 71 55 72 47 73 48 74 54 75
REMARK SMILES IDX 56 76 49 77 50 78 51 79 52 80 53 81 79 82 80 83 89 84 81 85
REMARK SMILES IDX 82 86 88 87 90 88 83 89 84 90 85 91 86 92 87 93 63 94 64 95
REMARK SMILES IDX 73 96 65 97 66 98 72 99 74 100 67 101 68 102 69 103 70 104
REMARK SMILES IDX 71 105
REMARK H PARENT 28 6 33 36 95 55 61 66
REMARK Flexibility Score: inf
ROOT
ATOM      1  C   UNL     1       2.709   2.237   3.078  1.00  0.00     0.023 C 
ENDROOT
BRANCH   1   2
ATOM      2  C   UNL     1       2.067   1.907   1.736  1.00  0.00     0.116 C 
BRANCH   2   3
ATOM      3  N   UNL     1       2.734   0.854   0.996  1.00  0.00    -0.355 N 
ATOM      4  O   UNL     1       0.837   0.177  -0.123  1.00  0.00    -0.273 OA
ATOM      5  C   UNL     1       2.050   0.104   0.054  1.00  0.00     0.239 C 
ATOM      6  H   UNL     1       3.686   0.669   1.166  1.00  0.00     0.163 HD
BRANCH   5   7
ATOM      7  C   UNL     1       2.906  -0.868  -0.714  1.00  0.00     0.222 C 
BRANCH   7   8
ATOM      8  N   UNL     1       3.550  -0.408  -1.950  1.00  0.00    -0.327 N 
ATOM      9  C   UNL     1       3.694   0.858  -2.485  1.00  0.00     0.109 A 
ATOM     10  C   UNL     1       4.318  -1.311  -2.706  1.00  0.00     0.049 A 
ATOM     11  C   UNL     1       4.507   0.745  -3.601  1.00  0.00     0.042 A 
ATOM     12  C   UNL     1       4.931  -0.591  -3.730  1.00  0.00     0.000 A 
ATOM     13  C   UNL     1       4.552  -2.691  -2.553  1.00  0.00     0.027 A 
ATOM     14  C   UNL     1       5.813  -1.241  -4.614  1.00  0.00     0.010 A 
ATOM     15  C   UNL     1       5.434  -3.320  -3.442  1.00  0.00     0.002 A 
ATOM     16  C   UNL     1       6.061  -2.605  -4.457  1.00  0.00     0.001 A 
BRANCH   9  17
ATOM     17  C   UNL     1       3.274   2.131  -1.981  1.00  0.00     0.274 A 
ATOM     18  N   UNL     1       2.052   2.539  -1.704  1.00  0.00    -0.185 NA
ATOM     19  O   UNL     1       4.192   3.141  -1.857  1.00  0.00    -0.332 OA
ATOM     20  C   UNL     1       2.238   3.872  -1.366  1.00  0.00     0.202 A 
ATOM     21  N   UNL     1       3.516   4.269  -1.454  1.00  0.00    -0.057 NA
BRANCH  20  22
ATOM     22  C   UNL     1       1.198   4.764  -0.851  1.00  0.00     0.023 A 
ATOM     23  C   UNL     1       1.569   6.004  -0.296  1.00  0.00     0.013 A 
ATOM     24  C   UNL     1      -0.156   4.416  -0.843  1.00  0.00     0.013 A 
ATOM     25  C   UNL     1       0.626   6.859   0.275  1.00  0.00     0.014 A 
ATOM     26  C   UNL     1      -1.112   5.292  -0.297  1.00  0.00     0.014 A 
ATOM     27  C   UNL     1      -0.730   6.521   0.268  1.00  0.00     0.056 A 
BRANCH  27  28
ATOM     28  C   UNL     1      -1.730   7.479   0.869  1.00  0.00     0.416 C 
ATOM     29  F   UNL     1      -1.591   7.615   2.216  1.00  0.00    -0.166 F 
ATOM     30  F   UNL     1      -1.619   8.737   0.354  1.00  0.00    -0.166 F 
ATOM     31  F   UNL     1      -3.026   7.113   0.663  1.00  0.00    -0.166 F 
ENDBRANCH  27  28
ENDBRANCH  20  22
ENDBRANCH   9  17
ENDBRANCH   7   8
ENDBRANCH   5   7
ENDBRANCH   2   3
ENDBRANCH   1   2
BRANCH   1  32
ATOM     32  C   UNL     1       4.191   2.631   3.049  1.00  0.00     0.023 C 
BRANCH  32  33
ATOM     33  C   UNL     1       4.583   3.721   2.052  1.00  0.00     0.116 C 
BRANCH  33  34
ATOM     34  N   UNL     1       3.866   4.970   2.192  1.00  0.00    -0.352 N 
ATOM     35  C   UNL     1       4.110   6.149   2.844  1.00  0.00     0.251 C 
ATOM     36  H   UNL     1       3.009   4.973   1.709  1.00  0.00     0.163 HD
ATOM     37  O   UNL     1       3.464   7.129   2.461  1.00  0.00    -0.269 OA
BRANCH  35  38
ATOM     38  C   UNL     1       5.010   6.296   4.021  1.00  0.00     0.039 A 
ATOM     39  C   UNL     1       5.911   5.333   4.466  1.00  0.00     0.014 A 
ATOM     40  C   UNL     1       4.863   7.478   4.776  1.00  0.00     0.014 A 
ATOM     41  C   UNL     1       6.563   5.493   5.684  1.00  0.00     0.010 A 
ATOM     42  C   UNL     1       5.533   7.654   5.987  1.00  0.00     0.010 A 
ATOM     43  C   UNL     1       6.352   6.638   6.463  1.00  0.00    -0.014 A 
BRANCH  43  44
ATOM     44  C   UNL     1       7.120   6.744   7.704  1.00  0.00     0.031 A 
ATOM     45  C   UNL     1       8.594   6.721   7.508  1.00  0.00     0.074 A 
ATOM     46  C   UNL     1       6.599   6.914   8.937  1.00  0.00     0.049 A 
ATOM     47  N   UNL     1       9.426   5.796   7.857  1.00  0.00    -0.248 NA
ATOM     48  C   UNL     1       9.200   7.806   6.720  1.00  0.00     0.031 C 
ATOM     49  C   UNL     1       5.221   7.271   9.278  1.00  0.00     0.029 A 
ATOM     50  N   UNL     1       7.223   6.885  10.156  1.00  0.00    -0.354 N 
ATOM     51  C   UNL     1      10.691   6.287   7.540  1.00  0.00     0.074 A 
ATOM     52  C   UNL     1      10.482   7.439   6.702  1.00  0.00     0.031 C 
ATOM     53  C   UNL     1       5.165   7.638  10.579  1.00  0.00     0.029 A 
ATOM     54  C   UNL     1       6.456   7.389  11.199  1.00  0.00     0.049 A 
ATOM     55  H   UNL     1       8.136   6.537  10.283  1.00  0.00     0.167 HD
ATOM     56  C   UNL     1      11.798   5.858   8.205  1.00  0.00     0.037 A 
ATOM     57  C   UNL     1       6.852   7.612  12.477  1.00  0.00     0.037 A 
ATOM     58  C   UNL     1      11.535   4.665   8.962  1.00  0.00     0.049 A 
ATOM     59  C   UNL     1       8.002   6.723  12.768  1.00  0.00     0.074 A 
ATOM     60  C   UNL     1      11.509   3.306   8.742  1.00  0.00     0.029 A 
ATOM     61  N   UNL     1      10.927   4.894  10.164  1.00  0.00    -0.354 N 
ATOM     62  N   UNL     1       7.922   5.421  12.812  1.00  0.00    -0.248 NA
ATOM     63  C   UNL     1       9.357   7.267  12.763  1.00  0.00     0.031 C 
ATOM     64  C   UNL     1      10.751   2.736   9.809  1.00  0.00     0.029 A 
ATOM     65  C   UNL     1      10.350   3.757  10.663  1.00  0.00     0.049 A 
ATOM     66  H   UNL     1      10.905   5.769  10.615  1.00  0.00     0.167 HD
ATOM     67  C   UNL     1       9.175   4.991  12.435  1.00  0.00     0.074 A 
ATOM     68  C   UNL     1      10.052   6.141  12.589  1.00  0.00     0.031 C 
ATOM     69  C   UNL     1       9.341   3.861  11.695  1.00  0.00     0.037 A 
BRANCH  56  70
ATOM     70  C   UNL     1      12.987   6.734   8.544  1.00  0.00     0.058 A 
ATOM     71  C   UNL     1      14.156   6.147   9.073  1.00  0.00     0.135 A 
ATOM     72  C   UNL     1      12.912   8.140   8.651  1.00  0.00     0.135 A 
ATOM     73  F   UNL     1      14.326   4.816   9.047  1.00  0.00    -0.206 F 
ATOM     74  C   UNL     1      15.155   6.899   9.698  1.00  0.00     0.059 A 
ATOM     75  C   UNL     1      13.919   8.913   9.222  1.00  0.00     0.059 A 
ATOM     76  F   UNL     1      11.816   8.822   8.295  1.00  0.00    -0.206 F 
ATOM     77  C   UNL     1      15.022   8.282   9.774  1.00  0.00     0.060 A 
BRANCH  77  78
ATOM     78  S   UNL     1      16.277   9.247  10.636  1.00  0.00     0.124 S 
ATOM     79  O   UNL     1      16.068   8.834  12.018  1.00  0.00    -0.237 OA
ATOM     80  O   UNL     1      17.506   8.776  10.006  1.00  0.00    -0.237 OA
ATOM     81  O   UNL     1      15.911  10.626  10.325  1.00  0.00    -0.744 OA
ENDBRANCH  77  78
ENDBRANCH  56  70
BRANCH  57  82
ATOM     82  C   UNL     1       6.479   8.723  13.393  1.00  0.00     0.058 A 
ATOM     83  C   UNL     1       6.838   8.682  14.754  1.00  0.00     0.135 A 
ATOM     84  C   UNL     1       6.061   9.973  12.897  1.00  0.00     0.135 A 
ATOM     85  F   UNL     1       7.247   7.533  15.312  1.00  0.00    -0.206 F 
ATOM     86  C   UNL     1       6.878   9.830  15.549  1.00  0.00     0.059 A 
ATOM     87  C   UNL     1       6.079  11.130  13.675  1.00  0.00     0.059 A 
ATOM     88  F   UNL     1       5.721  10.127  11.608  1.00  0.00    -0.206 F 
ATOM     89  C   UNL     1       6.529  11.057  14.989  1.00  0.00     0.060 A 
BRANCH  89  90
ATOM     90  S   UNL     1       6.803  12.569  15.942  1.00  0.00     0.124 S 
ATOM     91  O   UNL     1       5.816  12.437  17.008  1.00  0.00    -0.237 OA
ATOM     92  O   UNL     1       8.198  12.425  16.344  1.00  0.00    -0.237 OA
ATOM     93  O   UNL     1       6.541  13.631  14.975  1.00  0.00    -0.744 OA
ENDBRANCH  89  90
ENDBRANCH  57  82
BRANCH  69  94
ATOM     94  C   UNL     1       8.337   2.762  11.839  1.00  0.00     0.058 A 
ATOM     95  C   UNL     1       7.007   2.823  11.396  1.00  0.00     0.135 A 
ATOM     96  C   UNL     1       8.784   1.549  12.386  1.00  0.00     0.135 A 
ATOM     97  F   UNL     1       6.526   3.928  10.806  1.00  0.00    -0.206 F 
ATOM     98  C   UNL     1       6.155   1.721  11.504  1.00  0.00     0.059 A 
ATOM     99  C   UNL     1       7.962   0.432  12.477  1.00  0.00     0.059 A 
ATOM    100  F   UNL     1      10.057   1.425  12.798  1.00  0.00    -0.206 F 
ATOM    101  C   UNL     1       6.645   0.527  12.036  1.00  0.00     0.060 A 
BRANCH 101 102
ATOM    102  S   UNL     1       5.578  -0.930  12.076  1.00  0.00     0.124 S 
ATOM    103  O   UNL     1       4.587  -0.558  13.085  1.00  0.00    -0.237 OA
ATOM    104  O   UNL     1       5.084  -0.992  10.700  1.00  0.00    -0.237 OA
ATOM    105  O   UNL     1       6.479  -2.007  12.454  1.00  0.00    -0.744 OA
ENDBRANCH 101 102
ENDBRANCH  69  94
ENDBRANCH  43  44
ENDBRANCH  35  38
ENDBRANCH  33  34
ENDBRANCH  32  33
ENDBRANCH   1  32
TORSDOF 18
