REMARK SMILES CCOc1cccc(OCC)c1-c1ccc([C@@H](C)C(=O)NCCCCNC(=O)c2ccc(-c3c4nc(c(-c5c(F)cc(S(=O)(=O)[O-])cc5F)c5ccc([nH]5)c(-c5c(F)cc(S(=O)(=O)[O-])cc5F)c5nc(c(-c6c(F)cc(S(=O)(=O)[O-])cc6F)c6ccc3[nH]6)C=C5)C=C4)cc2)cc1F
REMARK SMILES IDX 23 1 22 2 21 3 19 4 20 5 17 7 18 8 16 9 13 10 14 11 96 12
REMARK SMILES IDX 15 13 95 14 97 15 12 16 4 17 5 18 6 19 8 20 7 21 3 22 2 23
REMARK SMILES IDX 1 24 9 25 10 26 11 27 24 28 25 29 26 30 27 31 28 33 29 34
REMARK SMILES IDX 30 35 94 36 31 37 93 38 32 39 33 40 34 41 87 42 35 43 92 44
REMARK SMILES IDX 86 45 88 46 36 47 91 48 85 49 84 50 37 52 71 53 50 54 70 55
REMARK SMILES IDX 51 56 54 57 69 58 89 59 52 60 53 61 68 63 90 64 55 65 38 66
REMARK SMILES IDX 39 67 48 68 40 69 41 70 47 71 49 72 42 73 43 74 44 75 45 76
REMARK SMILES IDX 46 77 72 78 73 79 82 80 74 81 75 82 81 83 83 84 76 85 77 86
REMARK SMILES IDX 78 87 79 88 80 89 56 90 57 91 66 92 58 93 59 94 65 95 67 96
REMARK SMILES IDX 60 97 61 98 62 99 63 100 64 101
REMARK H PARENT 21 6 26 32 88 51 54 62
REMARK Flexibility Score: inf
ROOT
ATOM      1  C   UNL     1       3.011  -2.058   3.465  1.00  0.00     0.023 C 
ENDROOT
BRANCH   1   2
ATOM      2  C   UNL     1       2.597  -3.536   3.349  1.00  0.00     0.116 C 
BRANCH   2   3
ATOM      3  N   UNL     1       1.190  -3.681   2.997  1.00  0.00    -0.356 N 
ATOM      4  C   UNL     1       0.505  -3.897   1.838  1.00  0.00     0.227 C 
ATOM      5  O   UNL     1      -0.729  -3.894   1.949  1.00  0.00    -0.274 OA
ATOM      6  H   UNL     1       0.596  -3.606   3.778  1.00  0.00     0.163 HD
BRANCH   4   7
ATOM      7  C   UNL     1       1.125  -4.144   0.440  1.00  0.00     0.105 C 
ATOM      8  C   UNL     1       2.139  -5.283   0.390  1.00  0.00     0.023 C 
BRANCH   7   9
ATOM      9  C   UNL     1       1.608  -2.886  -0.261  1.00  0.00    -0.033 A 
ATOM     10  C   UNL     1       2.498  -0.416  -1.371  1.00  0.00     0.025 A 
ATOM     11  C   UNL     1       2.944  -0.869  -0.136  1.00  0.00     0.012 A 
ATOM     12  C   UNL     1       1.557  -1.216  -2.034  1.00  0.00     0.131 A 
ATOM     13  C   UNL     1       2.616  -2.134   0.315  1.00  0.00     0.005 A 
ATOM     14  C   UNL     1       1.080  -2.414  -1.469  1.00  0.00     0.044 A 
ATOM     15  F   UNL     1       1.064  -0.835  -3.223  1.00  0.00    -0.206 F 
BRANCH  10  16
ATOM     16  C   UNL     1       2.981   0.894  -1.830  1.00  0.00     0.069 A 
ATOM     17  C   UNL     1       2.060   1.976  -1.810  1.00  0.00     0.130 A 
ATOM     18  C   UNL     1       2.436   3.286  -2.117  1.00  0.00     0.047 A 
ATOM     19  C   UNL     1       3.759   3.561  -2.426  1.00  0.00     0.008 A 
ATOM     20  C   UNL     1       4.325   1.190  -2.166  1.00  0.00     0.130 A 
ATOM     21  C   UNL     1       4.684   2.520  -2.461  1.00  0.00     0.047 A 
BRANCH  17  22
ATOM     22  O   UNL     1       0.732   1.723  -1.554  1.00  0.00    -0.493 OA
BRANCH  22  23
ATOM     23  C   UNL     1       0.293   2.219  -0.285  1.00  0.00     0.226 C 
ATOM     24  C   UNL     1      -0.217   1.053   0.544  1.00  0.00     0.049 C 
ENDBRANCH  22  23
ENDBRANCH  17  22
BRANCH  20  25
ATOM     25  O   UNL     1       5.409   0.368  -2.344  1.00  0.00    -0.493 OA
BRANCH  25  26
ATOM     26  C   UNL     1       5.629  -0.831  -1.615  1.00  0.00     0.226 C 
ATOM     27  C   UNL     1       6.146  -0.562  -0.207  1.00  0.00     0.049 C 
ENDBRANCH  25  26
ENDBRANCH  20  25
ENDBRANCH  10  16
ENDBRANCH   7   9
ENDBRANCH   4   7
ENDBRANCH   2   3
ENDBRANCH   1   2
BRANCH   1  28
ATOM     28  C   UNL     1       3.003  -1.451   4.858  1.00  0.00     0.023 C 
BRANCH  28  29
ATOM     29  C   UNL     1       4.025  -2.037   5.817  1.00  0.00     0.116 C 
BRANCH  29  30
ATOM     30  N   UNL     1       5.411  -1.906   5.381  1.00  0.00    -0.352 N 
ATOM     31  C   UNL     1       6.529  -1.723   6.166  1.00  0.00     0.251 C 
ATOM     32  H   UNL     1       5.566  -1.955   4.410  1.00  0.00     0.163 HD
ATOM     33  O   UNL     1       7.634  -1.575   5.650  1.00  0.00    -0.269 OA
BRANCH  31  34
ATOM     34  C   UNL     1       6.366  -1.650   7.634  1.00  0.00     0.039 A 
ATOM     35  C   UNL     1       6.917  -0.570   8.326  1.00  0.00     0.014 A 
ATOM     36  C   UNL     1       5.577  -2.590   8.301  1.00  0.00     0.014 A 
ATOM     37  C   UNL     1       6.596  -0.383   9.673  1.00  0.00     0.010 A 
ATOM     38  C   UNL     1       5.178  -2.346   9.608  1.00  0.00     0.010 A 
ATOM     39  C   UNL     1       5.683  -1.240  10.309  1.00  0.00    -0.014 A 
BRANCH  39  40
ATOM     40  C   UNL     1       5.242  -1.011  11.708  1.00  0.00     0.031 A 
ATOM     41  C   UNL     1       5.521  -2.052  12.758  1.00  0.00     0.074 A 
ATOM     42  C   UNL     1       4.525   0.088  12.015  1.00  0.00     0.049 A 
ATOM     43  N   UNL     1       5.146  -2.085  14.010  1.00  0.00    -0.248 NA
ATOM     44  C   UNL     1       6.293  -3.231  12.332  1.00  0.00     0.031 C 
ATOM     45  C   UNL     1       4.134   1.140  11.072  1.00  0.00     0.029 A 
ATOM     46  N   UNL     1       3.987   0.501  13.209  1.00  0.00    -0.354 N 
ATOM     47  C   UNL     1       5.616  -3.292  14.513  1.00  0.00     0.074 A 
ATOM     48  C   UNL     1       6.247  -3.991  13.415  1.00  0.00     0.031 C 
ATOM     49  C   UNL     1       3.452   2.092  11.731  1.00  0.00     0.029 A 
ATOM     50  C   UNL     1       3.326   1.704  13.132  1.00  0.00     0.049 A 
ATOM     51  H   UNL     1       4.068  -0.016  14.042  1.00  0.00     0.167 HD
ATOM     52  C   UNL     1       5.558  -3.763  15.781  1.00  0.00     0.037 A 
ATOM     53  C   UNL     1       2.692   2.414  14.085  1.00  0.00     0.037 A 
ATOM     54  C   UNL     1       4.965  -3.046  16.877  1.00  0.00     0.049 A 
ATOM     55  C   UNL     1       2.660   1.883  15.492  1.00  0.00     0.074 A 
ATOM     56  C   UNL     1       4.903  -3.407  18.211  1.00  0.00     0.029 A 
ATOM     57  N   UNL     1       4.336  -1.814  16.765  1.00  0.00    -0.354 N 
ATOM     58  N   UNL     1       3.160   0.765  15.963  1.00  0.00    -0.248 NA
ATOM     59  C   UNL     1       1.985   2.712  16.500  1.00  0.00     0.031 C 
ATOM     60  C   UNL     1       4.212  -2.405  18.902  1.00  0.00     0.029 A 
ATOM     61  C   UNL     1       3.876  -1.404  18.005  1.00  0.00     0.049 A 
ATOM     62  H   UNL     1       4.232  -1.307  15.928  1.00  0.00     0.167 HD
ATOM     63  C   UNL     1       2.885   0.769  17.325  1.00  0.00     0.074 A 
ATOM     64  C   UNL     1       2.182   2.005  17.605  1.00  0.00     0.031 C 
ATOM     65  C   UNL     1       3.187  -0.164  18.262  1.00  0.00     0.037 A 
BRANCH  52  66
ATOM     66  C   UNL     1       6.169  -5.112  16.042  1.00  0.00     0.058 A 
ATOM     67  C   UNL     1       7.560  -5.309  15.995  1.00  0.00     0.135 A 
ATOM     68  C   UNL     1       5.361  -6.221  16.338  1.00  0.00     0.135 A 
ATOM     69  F   UNL     1       8.377  -4.286  15.699  1.00  0.00    -0.206 F 
ATOM     70  C   UNL     1       8.124  -6.564  16.189  1.00  0.00     0.059 A 
ATOM     71  C   UNL     1       5.907  -7.481  16.564  1.00  0.00     0.059 A 
ATOM     72  F   UNL     1       4.027  -6.090  16.394  1.00  0.00    -0.206 F 
ATOM     73  C   UNL     1       7.288  -7.647  16.467  1.00  0.00     0.060 A 
BRANCH  73  74
ATOM     74  S   UNL     1       8.033  -9.275  16.696  1.00  0.00     0.124 S 
ATOM     75  O   UNL     1       8.343  -9.647  15.319  1.00  0.00    -0.237 OA
ATOM     76  O   UNL     1       9.182  -8.979  17.545  1.00  0.00    -0.237 OA
ATOM     77  O   UNL     1       6.970 -10.047  17.331  1.00  0.00    -0.744 OA
ENDBRANCH  73  74
ENDBRANCH  52  66
BRANCH  53  78
ATOM     78  C   UNL     1       2.079   3.728  13.752  1.00  0.00     0.058 A 
ATOM     79  C   UNL     1       2.666   4.923  14.194  1.00  0.00     0.135 A 
ATOM     80  C   UNL     1       0.912   3.819  12.980  1.00  0.00     0.135 A 
ATOM     81  F   UNL     1       3.781   4.886  14.940  1.00  0.00    -0.206 F 
ATOM     82  C   UNL     1       2.110   6.162  13.897  1.00  0.00     0.059 A 
ATOM     83  C   UNL     1       0.348   5.048  12.650  1.00  0.00     0.059 A 
ATOM     84  F   UNL     1       0.322   2.705  12.518  1.00  0.00    -0.206 F 
ATOM     85  C   UNL     1       0.950   6.215  13.122  1.00  0.00     0.060 A 
BRANCH  85  86
ATOM     86  S   UNL     1       0.265   7.831  12.697  1.00  0.00     0.124 S 
ATOM     87  O   UNL     1      -0.346   8.232  13.958  1.00  0.00    -0.237 OA
ATOM     88  O   UNL     1       1.456   8.575  12.299  1.00  0.00    -0.237 OA
ATOM     89  O   UNL     1      -0.664   7.525  11.613  1.00  0.00    -0.744 OA
ENDBRANCH  85  86
ENDBRANCH  53  78
BRANCH  65  90
ATOM     90  C   UNL     1       2.792   0.132  19.680  1.00  0.00     0.058 A 
ATOM     91  C   UNL     1       1.457   0.048  20.105  1.00  0.00     0.135 A 
ATOM     92  C   UNL     1       3.768   0.459  20.635  1.00  0.00     0.135 A 
ATOM     93  F   UNL     1       0.486  -0.255  19.228  1.00  0.00    -0.206 F 
ATOM     94  C   UNL     1       1.100   0.300  21.425  1.00  0.00     0.059 A 
ATOM     95  C   UNL     1       3.436   0.691  21.965  1.00  0.00     0.059 A 
ATOM     96  F   UNL     1       5.060   0.541  20.280  1.00  0.00    -0.206 F 
ATOM     97  C   UNL     1       2.097   0.622  22.348  1.00  0.00     0.060 A 
BRANCH  97  98
ATOM     98  S   UNL     1       1.627   0.917  24.066  1.00  0.00     0.124 S 
ATOM     99  O   UNL     1       1.059   2.259  23.988  1.00  0.00    -0.237 OA
ATOM    100  O   UNL     1       0.676  -0.161  24.321  1.00  0.00    -0.237 OA
ATOM    101  O   UNL     1       2.892   0.811  24.786  1.00  0.00    -0.744 OA
ENDBRANCH  97  98
ENDBRANCH  65  90
ENDBRANCH  39  40
ENDBRANCH  31  34
ENDBRANCH  29  30
ENDBRANCH  28  29
ENDBRANCH   1  28
TORSDOF 20
