REMARK SMILES C[C@@H](C(=O)NCCCCNC(=O)c1ccc(-c2c3nc(c(-c4c(F)cc(S(=O)(=O)[O-])cc4F)c4ccc([nH]4)c(-c4c(F)cc(S(=O)(=O)[O-])cc4F)c4nc(c(-c5c(F)cc(S(=O)(=O)[O-])cc5F)c5ccc2[nH]5)C=C4)C=C3)cc1)N1C(=O)CC2(CCCC2)C1=O
REMARK SMILES IDX 8 1 7 2 6 3 5 4 3 5 4 6 2 8 1 9 79 10 80 11 88 12 81 13
REMARK SMILES IDX 82 14 83 15 89 16 84 17 87 18 85 19 86 20 9 21 10 22 11 23
REMARK SMILES IDX 12 25 13 26 14 27 78 28 15 29 77 30 16 31 17 32 18 33 71 34
REMARK SMILES IDX 19 35 76 36 70 37 72 38 20 39 75 40 69 41 68 42 21 44 55 45
REMARK SMILES IDX 34 46 54 47 35 48 38 49 53 50 73 51 36 52 37 53 52 55 74 56
REMARK SMILES IDX 39 57 22 58 23 59 32 60 24 61 25 62 31 63 33 64 26 65 27 66
REMARK SMILES IDX 28 67 29 68 30 69 56 70 57 71 66 72 58 73 59 74 65 75 67 76
REMARK SMILES IDX 60 77 61 78 62 79 63 80 64 81 40 82 41 83 50 84 42 85 43 86
REMARK SMILES IDX 49 87 51 88 44 89 45 90 46 91 47 92 48 93
REMARK H PARENT 5 7 10 24 72 43 38 54
REMARK Flexibility Score: inf
ROOT
ATOM      1  C   UNL     1       4.908   2.491   0.332  1.00  0.00     0.023 C 
ENDROOT
BRANCH   1   2
ATOM      2  C   UNL     1       4.123   1.183   0.245  1.00  0.00     0.023 C 
BRANCH   2   3
ATOM      3  C   UNL     1       3.345   0.807   1.504  1.00  0.00     0.116 C 
BRANCH   3   4
ATOM      4  N   UNL     1       2.324   1.778   1.844  1.00  0.00    -0.354 N 
ATOM      5  C   UNL     1       0.963   1.650   1.831  1.00  0.00     0.243 C 
ATOM      6  O   UNL     1       0.319   2.507   2.441  1.00  0.00    -0.273 OA
ATOM      7  H   UNL     1       2.660   2.659   2.126  1.00  0.00     0.163 HD
BRANCH   5   8
ATOM      8  C   UNL     1       0.299   0.427   1.157  1.00  0.00     0.179 C 
ATOM      9  C   UNL     1       0.614   0.237  -0.322  1.00  0.00     0.042 C 
BRANCH   8  10
ATOM     10  N   UNL     1      -1.150   0.448   1.356  1.00  0.00    -0.270 N 
ATOM     11  C   UNL     1      -1.977   1.450   0.934  1.00  0.00     0.231 C 
ATOM     12  C   UNL     1      -1.851  -0.683   1.658  1.00  0.00     0.236 C 
ATOM     13  O   UNL     1      -1.686   2.415   0.241  1.00  0.00    -0.274 OA
ATOM     14  C   UNL     1      -3.366   1.147   1.417  1.00  0.00     0.117 C 
ATOM     15  C   UNL     1      -3.328  -0.368   1.610  1.00  0.00     0.059 C 
ATOM     16  O   UNL     1      -1.381  -1.798   1.833  1.00  0.00    -0.274 OA
ATOM     17  C   UNL     1      -4.048  -0.873   2.855  1.00  0.00     0.017 C 
ATOM     18  C   UNL     1      -4.041  -1.115   0.479  1.00  0.00     0.017 C 
ATOM     19  C   UNL     1      -5.502  -1.046   2.436  1.00  0.00     0.001 C 
ATOM     20  C   UNL     1      -5.505  -1.141   0.911  1.00  0.00     0.001 C 
ENDBRANCH   8  10
ENDBRANCH   5   8
ENDBRANCH   3   4
ENDBRANCH   2   3
ENDBRANCH   1   2
BRANCH   1  21
ATOM     21  C   UNL     1       5.875   2.594   1.503  1.00  0.00     0.116 C 
BRANCH  21  22
ATOM     22  N   UNL     1       6.878   1.541   1.504  1.00  0.00    -0.352 N 
ATOM     23  C   UNL     1       8.237   1.643   1.685  1.00  0.00     0.251 C 
ATOM     24  H   UNL     1       6.537   0.629   1.355  1.00  0.00     0.163 HD
ATOM     25  O   UNL     1       8.953   0.662   1.510  1.00  0.00    -0.269 OA
BRANCH  23  26
ATOM     26  C   UNL     1       8.829   2.945   2.061  1.00  0.00     0.039 A 
ATOM     27  C   UNL     1       9.975   3.386   1.395  1.00  0.00     0.014 A 
ATOM     28  C   UNL     1       8.246   3.736   3.054  1.00  0.00     0.014 A 
ATOM     29  C   UNL     1      10.502   4.647   1.686  1.00  0.00     0.010 A 
ATOM     30  C   UNL     1       8.720   5.024   3.280  1.00  0.00     0.010 A 
ATOM     31  C   UNL     1       9.860   5.489   2.609  1.00  0.00    -0.014 A 
BRANCH  31  32
ATOM     32  C   UNL     1      10.379   6.850   2.904  1.00  0.00     0.031 A 
ATOM     33  C   UNL     1      10.850   7.191   4.293  1.00  0.00     0.074 A 
ATOM     34  C   UNL     1      10.370   7.795   1.943  1.00  0.00     0.049 A 
ATOM     35  N   UNL     1      11.286   8.331   4.762  1.00  0.00    -0.248 NA
ATOM     36  C   UNL     1      10.794   6.113   5.293  1.00  0.00     0.031 C 
ATOM     37  C   UNL     1       9.896   7.602   0.571  1.00  0.00     0.029 A 
ATOM     38  N   UNL     1      10.766   9.109   1.975  1.00  0.00    -0.354 N 
ATOM     39  C   UNL     1      11.540   8.113   6.112  1.00  0.00     0.074 A 
ATOM     40  C   UNL     1      11.147   6.750   6.399  1.00  0.00     0.031 C 
ATOM     41  C   UNL     1      10.060   8.745  -0.115  1.00  0.00     0.029 A 
ATOM     42  C   UNL     1      10.609   9.763   0.776  1.00  0.00     0.049 A 
ATOM     43  H   UNL     1      11.129   9.542   2.781  1.00  0.00     0.167 HD
ATOM     44  C   UNL     1      12.075   8.960   7.024  1.00  0.00     0.037 A 
ATOM     45  C   UNL     1      10.875  11.038   0.433  1.00  0.00     0.037 A 
ATOM     46  C   UNL     1      12.477  10.310   6.725  1.00  0.00     0.049 A 
ATOM     47  C   UNL     1      11.459  11.967   1.463  1.00  0.00     0.074 A 
ATOM     48  C   UNL     1      13.079  11.234   7.560  1.00  0.00     0.029 A 
ATOM     49  N   UNL     1      12.309  10.934   5.496  1.00  0.00    -0.354 N 
ATOM     50  N   UNL     1      11.754  11.727   2.718  1.00  0.00    -0.248 NA
ATOM     51  C   UNL     1      11.754  13.339   1.028  1.00  0.00     0.031 C 
ATOM     52  C   UNL     1      13.225  12.433   6.854  1.00  0.00     0.029 A 
ATOM     53  C   UNL     1      12.773  12.238   5.558  1.00  0.00     0.049 A 
ATOM     54  H   UNL     1      11.918  10.511   4.697  1.00  0.00     0.167 HD
ATOM     55  C   UNL     1      12.303  12.905   3.213  1.00  0.00     0.074 A 
ATOM     56  C   UNL     1      12.302  13.855   2.119  1.00  0.00     0.031 C 
ATOM     57  C   UNL     1      12.772  13.173   4.458  1.00  0.00     0.037 A 
BRANCH  44  58
ATOM     58  C   UNL     1      12.241   8.448   8.431  1.00  0.00     0.058 A 
ATOM     59  C   UNL     1      13.151   7.424   8.746  1.00  0.00     0.135 A 
ATOM     60  C   UNL     1      11.479   8.987   9.481  1.00  0.00     0.135 A 
ATOM     61  F   UNL     1      13.897   6.862   7.782  1.00  0.00    -0.206 F 
ATOM     62  C   UNL     1      13.260   6.918  10.037  1.00  0.00     0.059 A 
ATOM     63  C   UNL     1      11.599   8.520  10.787  1.00  0.00     0.059 A 
ATOM     64  F   UNL     1      10.597   9.970   9.242  1.00  0.00    -0.206 F 
ATOM     65  C   UNL     1      12.475   7.468  11.050  1.00  0.00     0.060 A 
BRANCH  65  66
ATOM     66  S   UNL     1      12.606   6.779  12.713  1.00  0.00     0.124 S 
ATOM     67  O   UNL     1      11.930   5.496  12.550  1.00  0.00    -0.237 OA
ATOM     68  O   UNL     1      14.051   6.713  12.910  1.00  0.00    -0.237 OA
ATOM     69  O   UNL     1      11.907   7.756  13.543  1.00  0.00    -0.744 OA
ENDBRANCH  65  66
ENDBRANCH  44  58
BRANCH  45  70
ATOM     70  C   UNL     1      10.632  11.493  -0.963  1.00  0.00     0.058 A 
ATOM     71  C   UNL     1      11.704  11.766  -1.826  1.00  0.00     0.135 A 
ATOM     72  C   UNL     1       9.332  11.629  -1.473  1.00  0.00     0.135 A 
ATOM     73  F   UNL     1      12.966  11.659  -1.384  1.00  0.00    -0.206 F 
ATOM     74  C   UNL     1      11.496  12.162  -3.144  1.00  0.00     0.059 A 
ATOM     75  C   UNL     1       9.099  11.998  -2.794  1.00  0.00     0.059 A 
ATOM     76  F   UNL     1       8.272  11.366  -0.692  1.00  0.00    -0.206 F 
ATOM     77  C   UNL     1      10.189  12.267  -3.621  1.00  0.00     0.060 A 
BRANCH  77  78
ATOM     78  S   UNL     1       9.936  12.711  -5.354  1.00  0.00     0.124 S 
ATOM     79  O   UNL     1      10.334  14.114  -5.360  1.00  0.00    -0.237 OA
ATOM     80  O   UNL     1      10.836  11.788  -6.038  1.00  0.00    -0.237 OA
ATOM     81  O   UNL     1       8.514  12.457  -5.561  1.00  0.00    -0.744 OA
ENDBRANCH  77  78
ENDBRANCH  45  70
BRANCH  57  82
ATOM     82  C   UNL     1      13.369  14.534   4.699  1.00  0.00     0.058 A 
ATOM     83  C   UNL     1      12.583  15.695   4.753  1.00  0.00     0.135 A 
ATOM     84  C   UNL     1      14.749  14.668   4.928  1.00  0.00     0.135 A 
ATOM     85  F   UNL     1      11.260  15.626   4.536  1.00  0.00    -0.206 F 
ATOM     86  C   UNL     1      13.146  16.944   4.998  1.00  0.00     0.059 A 
ATOM     87  C   UNL     1      15.329  15.901   5.207  1.00  0.00     0.059 A 
ATOM     88  F   UNL     1      15.548  13.589   4.899  1.00  0.00    -0.206 F 
ATOM     89  C   UNL     1      14.520  17.036   5.226  1.00  0.00     0.060 A 
BRANCH  89  90
ATOM     90  S   UNL     1      15.234  18.658   5.572  1.00  0.00     0.124 S 
ATOM     91  O   UNL     1      15.174  19.291   4.259  1.00  0.00    -0.237 OA
ATOM     92  O   UNL     1      14.320  19.193   6.576  1.00  0.00    -0.237 OA
ATOM     93  O   UNL     1      16.575  18.344   6.057  1.00  0.00    -0.744 OA
ENDBRANCH  89  90
ENDBRANCH  57  82
ENDBRANCH  31  32
ENDBRANCH  23  26
ENDBRANCH  21  22
ENDBRANCH   1  21
TORSDOF 15
