REMARK SMILES Cc1cc(C)c2c(CCCC(=O)NCCCCNC(=O)c3ccc(-c4c5nc(c(-c6c(F)cc(S(=O)(=O)[O-])cc6F)c6ccc([nH]6)c(-c6c(F)cc(S(=O)(=O)[O-])cc6F)c6nc(c(-c7c(F)cc(S(=O)(=O)[O-])cc7F)c7ccc4[nH]7)C=C6)C=C5)cc3)c(-c3ccccn3)[nH]c2c1
REMARK SMILES IDX 15 1 14 2 13 3 11 4 12 5 10 7 9 8 8 9 7 10 1 11 2 12 3 13
REMARK SMILES IDX 96 14 4 15 95 16 5 17 6 18 94 19 87 20 88 22 89 23 93 24
REMARK SMILES IDX 90 25 92 26 91 27 16 28 17 29 18 30 19 31 20 33 21 34 22 35
REMARK SMILES IDX 86 36 23 37 85 38 24 39 25 40 26 41 79 42 27 43 84 44 78 45
REMARK SMILES IDX 80 46 28 47 83 48 77 49 76 50 29 52 63 53 42 54 62 55 43 56
REMARK SMILES IDX 46 57 61 58 81 59 44 60 45 61 60 63 82 64 47 65 30 66 31 67
REMARK SMILES IDX 40 68 32 69 33 70 39 71 41 72 34 73 35 74 36 75 37 76 38 77
REMARK SMILES IDX 64 78 65 79 74 80 66 81 67 82 73 83 75 84 68 85 69 86 70 87
REMARK SMILES IDX 71 88 72 89 48 90 49 91 58 92 50 93 51 94 57 95 59 96 52 97
REMARK SMILES IDX 53 98 54 99 55 100 56 101
REMARK H PARENT 13 6 94 21 18 32 80 51 46 62
REMARK Flexibility Score: inf
ROOT
ATOM      1  C   UNL     1      -3.358   6.159   2.598  1.00  0.00     0.023 C 
ENDROOT
BRANCH   1   2
ATOM      2  C   UNL     1      -2.322   7.260   2.341  1.00  0.00     0.116 C 
BRANCH   2   3
ATOM      3  N   UNL     1      -2.301   8.221   3.423  1.00  0.00    -0.356 N 
ATOM      4  C   UNL     1      -1.392   8.427   4.413  1.00  0.00     0.220 C 
ATOM      5  O   UNL     1      -1.680   9.256   5.282  1.00  0.00    -0.275 OA
ATOM      6  H   UNL     1      -3.076   8.828   3.446  1.00  0.00     0.163 HD
BRANCH   4   7
ATOM      7  C   UNL     1      -0.024   7.772   4.404  1.00  0.00     0.100 C 
BRANCH   7   8
ATOM      8  C   UNL     1       0.167   6.323   4.822  1.00  0.00     0.015 C 
BRANCH   8   9
ATOM      9  C   UNL     1      -0.214   5.175   3.897  1.00  0.00     0.039 C 
BRANCH   9  10
ATOM     10  C   UNL     1       0.494   4.833   2.599  1.00  0.00    -0.013 A 
ATOM     11  C   UNL     1       1.013  -0.111  -0.327  1.00  0.00     0.044 C 
ATOM     12  C   UNL     1       0.807   1.131   0.489  1.00  0.00    -0.049 A 
ATOM     13  C   UNL     1      -0.009   1.113   1.621  1.00  0.00     0.007 A 
ATOM     14  C   UNL     1       1.408   2.328   0.093  1.00  0.00     0.030 A 
ATOM     15  C   UNL     1      -0.236   2.267   2.408  1.00  0.00    -0.041 A 
ATOM     16  C   UNL     1       1.202   3.464   0.884  1.00  0.00     0.047 A 
ATOM     17  C   UNL     1      -1.192   2.131   3.565  1.00  0.00     0.045 C 
ATOM     18  C   UNL     1       0.432   3.475   2.044  1.00  0.00     0.006 A 
ATOM     19  N   UNL     1       1.658   4.738   0.692  1.00  0.00    -0.353 N 
ATOM     20  C   UNL     1       1.153   5.605   1.633  1.00  0.00     0.068 A 
ATOM     21  H   UNL     1       2.273   5.003  -0.030  1.00  0.00     0.167 HD
BRANCH  20  22
ATOM     22  C   UNL     1       1.313   7.031   1.371  1.00  0.00     0.087 A 
ATOM     23  C   UNL     1       0.504   7.668   0.427  1.00  0.00     0.030 A 
ATOM     24  N   UNL     1       2.274   7.667   2.073  1.00  0.00    -0.255 NA
ATOM     25  C   UNL     1       0.615   9.045   0.267  1.00  0.00     0.004 A 
ATOM     26  C   UNL     1       2.358   9.010   1.891  1.00  0.00     0.112 A 
ATOM     27  C   UNL     1       1.547   9.736   1.029  1.00  0.00     0.020 A 
ENDBRANCH  20  22
ENDBRANCH   9  10
ENDBRANCH   8   9
ENDBRANCH   7   8
ENDBRANCH   4   7
ENDBRANCH   2   3
ENDBRANCH   1   2
BRANCH   1  28
ATOM     28  C   UNL     1      -4.788   6.534   2.204  1.00  0.00     0.023 C 
BRANCH  28  29
ATOM     29  C   UNL     1      -5.032   6.508   0.699  1.00  0.00     0.116 C 
BRANCH  29  30
ATOM     30  N   UNL     1      -4.977   5.161   0.136  1.00  0.00    -0.352 N 
ATOM     31  C   UNL     1      -4.904   4.819  -1.204  1.00  0.00     0.251 C 
ATOM     32  H   UNL     1      -4.992   4.416   0.778  1.00  0.00     0.163 HD
ATOM     33  O   UNL     1      -5.214   3.710  -1.597  1.00  0.00    -0.269 OA
BRANCH  31  34
ATOM     34  C   UNL     1      -4.451   5.864  -2.141  1.00  0.00     0.039 A 
ATOM     35  C   UNL     1      -5.265   6.271  -3.197  1.00  0.00     0.014 A 
ATOM     36  C   UNL     1      -3.261   6.528  -1.849  1.00  0.00     0.014 A 
ATOM     37  C   UNL     1      -4.925   7.428  -3.897  1.00  0.00     0.010 A 
ATOM     38  C   UNL     1      -2.987   7.728  -2.479  1.00  0.00     0.010 A 
ATOM     39  C   UNL     1      -3.805   8.189  -3.515  1.00  0.00    -0.014 A 
BRANCH  39  40
ATOM     40  C   UNL     1      -3.571   9.501  -4.141  1.00  0.00     0.031 A 
ATOM     41  C   UNL     1      -4.760  10.402  -4.292  1.00  0.00     0.074 A 
ATOM     42  C   UNL     1      -2.358  10.016  -4.439  1.00  0.00     0.049 A 
ATOM     43  N   UNL     1      -5.334  10.785  -5.388  1.00  0.00    -0.248 NA
ATOM     44  C   UNL     1      -5.422  10.895  -3.075  1.00  0.00     0.031 C 
ATOM     45  C   UNL     1      -1.026   9.479  -4.136  1.00  0.00     0.029 A 
ATOM     46  N   UNL     1      -2.072  11.213  -5.032  1.00  0.00    -0.354 N 
ATOM     47  C   UNL     1      -6.317  11.705  -5.021  1.00  0.00     0.074 A 
ATOM     48  C   UNL     1      -6.402  11.649  -3.583  1.00  0.00     0.031 C 
ATOM     49  C   UNL     1      -0.093  10.434  -4.341  1.00  0.00     0.029 A 
ATOM     50  C   UNL     1      -0.733  11.566  -4.982  1.00  0.00     0.049 A 
ATOM     51  H   UNL     1      -2.758  11.776  -5.459  1.00  0.00     0.167 HD
ATOM     52  C   UNL     1      -6.872  12.575  -5.914  1.00  0.00     0.037 A 
ATOM     53  C   UNL     1      -0.165  12.693  -5.463  1.00  0.00     0.037 A 
ATOM     54  C   UNL     1      -6.538  12.231  -7.270  1.00  0.00     0.049 A 
ATOM     55  C   UNL     1      -1.043  13.215  -6.533  1.00  0.00     0.074 A 
ATOM     56  C   UNL     1      -6.837  11.205  -8.140  1.00  0.00     0.029 A 
ATOM     57  N   UNL     1      -5.483  12.912  -7.819  1.00  0.00    -0.354 N 
ATOM     58  N   UNL     1      -1.250  12.603  -7.666  1.00  0.00    -0.248 NA
ATOM     59  C   UNL     1      -1.947  14.319  -6.248  1.00  0.00     0.031 C 
ATOM     60  C   UNL     1      -5.697  11.080  -8.990  1.00  0.00     0.029 A 
ATOM     61  C   UNL     1      -4.767  12.047  -8.606  1.00  0.00     0.049 A 
ATOM     62  H   UNL     1      -5.274  13.864  -7.674  1.00  0.00     0.167 HD
ATOM     63  C   UNL     1      -2.533  12.963  -8.030  1.00  0.00     0.074 A 
ATOM     64  C   UNL     1      -2.836  14.138  -7.227  1.00  0.00     0.031 C 
ATOM     65  C   UNL     1      -3.326  12.107  -8.735  1.00  0.00     0.037 A 
BRANCH  52  66
ATOM     66  C   UNL     1      -7.436  13.939  -5.580  1.00  0.00     0.058 A 
ATOM     67  C   UNL     1      -8.219  14.630  -6.532  1.00  0.00     0.135 A 
ATOM     68  C   UNL     1      -6.993  14.709  -4.484  1.00  0.00     0.135 A 
ATOM     69  F   UNL     1      -8.683  13.998  -7.623  1.00  0.00    -0.206 F 
ATOM     70  C   UNL     1      -8.489  15.997  -6.433  1.00  0.00     0.059 A 
ATOM     71  C   UNL     1      -7.292  16.063  -4.340  1.00  0.00     0.059 A 
ATOM     72  F   UNL     1      -6.168  14.204  -3.558  1.00  0.00    -0.206 F 
ATOM     73  C   UNL     1      -8.004  16.709  -5.340  1.00  0.00     0.060 A 
BRANCH  73  74
ATOM     74  S   UNL     1      -8.246  18.496  -5.270  1.00  0.00     0.124 S 
ATOM     75  O   UNL     1      -7.351  18.952  -6.327  1.00  0.00    -0.237 OA
ATOM     76  O   UNL     1      -9.675  18.622  -5.543  1.00  0.00    -0.237 OA
ATOM     77  O   UNL     1      -7.843  18.834  -3.909  1.00  0.00    -0.744 OA
ENDBRANCH  73  74
ENDBRANCH  52  66
BRANCH  53  78
ATOM     78  C   UNL     1       0.970  13.470  -4.921  1.00  0.00     0.058 A 
ATOM     79  C   UNL     1       1.608  14.443  -5.708  1.00  0.00     0.135 A 
ATOM     80  C   UNL     1       1.221  13.510  -3.536  1.00  0.00     0.135 A 
ATOM     81  F   UNL     1       1.425  14.464  -7.037  1.00  0.00    -0.206 F 
ATOM     82  C   UNL     1       2.369  15.466  -5.144  1.00  0.00     0.059 A 
ATOM     83  C   UNL     1       1.984  14.517  -2.951  1.00  0.00     0.059 A 
ATOM     84  F   UNL     1       0.640  12.632  -2.702  1.00  0.00    -0.206 F 
ATOM     85  C   UNL     1       2.516  15.517  -3.759  1.00  0.00     0.060 A 
BRANCH  85  86
ATOM     86  S   UNL     1       3.269  16.982  -3.016  1.00  0.00     0.124 S 
ATOM     87  O   UNL     1       4.652  16.870  -3.464  1.00  0.00    -0.237 OA
ATOM     88  O   UNL     1       2.488  18.059  -3.615  1.00  0.00    -0.237 OA
ATOM     89  O   UNL     1       3.055  16.782  -1.585  1.00  0.00    -0.744 OA
ENDBRANCH  85  86
ENDBRANCH  53  78
BRANCH  65  90
ATOM     90  C   UNL     1      -2.642  11.020  -9.517  1.00  0.00     0.058 A 
ATOM     91  C   UNL     1      -1.919   9.957  -8.949  1.00  0.00     0.135 A 
ATOM     92  C   UNL     1      -2.787  11.024 -10.912  1.00  0.00     0.135 A 
ATOM     93  F   UNL     1      -1.815   9.827  -7.619  1.00  0.00    -0.206 F 
ATOM     94  C   UNL     1      -1.317   8.975  -9.739  1.00  0.00     0.059 A 
ATOM     95  C   UNL     1      -2.223  10.039 -11.717  1.00  0.00     0.059 A 
ATOM     96  F   UNL     1      -3.515  11.982 -11.510  1.00  0.00    -0.206 F 
ATOM     97  C   UNL     1      -1.471   9.027 -11.124  1.00  0.00     0.060 A 
BRANCH  97  98
ATOM     98  S   UNL     1      -0.729   7.732 -12.141  1.00  0.00     0.124 S 
ATOM     99  O   UNL     1       0.692   8.054 -12.060  1.00  0.00    -0.237 OA
ATOM    100  O   UNL     1      -1.143   6.512 -11.454  1.00  0.00    -0.237 OA
ATOM    101  O   UNL     1      -1.341   7.935 -13.452  1.00  0.00    -0.744 OA
ENDBRANCH  97  98
ENDBRANCH  65  90
ENDBRANCH  39  40
ENDBRANCH  31  34
ENDBRANCH  29  30
ENDBRANCH  28  29
ENDBRANCH   1  28
TORSDOF 18
