REMARK SMILES Cc1ccc(CNC(=O)NC[C@@H]2CC[C@@H](C(=O)NCCCCNC(=O)c3ccc(-c4c5nc(c(-c6c(F)cc(S(=O)(=O)[O-])cc6F)c6ccc([nH]6)c(-c6c(F)cc(S(=O)(=O)[O-])cc6F)c6nc(c(-c7c(F)cc(S(=O)(=O)[O-])cc7F)c7ccc4[nH]7)C=C6)C=C5)cc3)O2)cn1
REMARK SMILES IDX 20 1 19 2 18 3 16 4 17 5 15 7 12 8 13 9 92 10 14 11 11 12
REMARK SMILES IDX 10 13 7 14 8 15 9 17 6 19 5 20 1 21 2 22 3 23 94 24 4 25
REMARK SMILES IDX 93 26 21 27 22 28 23 29 24 30 25 32 26 33 27 34 91 35 28 36
REMARK SMILES IDX 90 37 29 38 30 39 31 40 84 41 32 42 89 43 83 44 85 45 33 46
REMARK SMILES IDX 88 47 82 48 81 49 34 51 68 52 47 53 67 54 48 55 51 56 66 57
REMARK SMILES IDX 86 58 49 59 50 60 65 62 87 63 52 64 35 65 36 66 45 67 37 68
REMARK SMILES IDX 38 69 44 70 46 71 39 72 40 73 41 74 42 75 43 76 69 77 70 78
REMARK SMILES IDX 79 79 71 80 72 81 78 82 80 83 73 84 74 85 75 86 76 87 77 88
REMARK SMILES IDX 53 89 54 90 63 91 55 92 56 93 62 94 64 95 57 96 58 97 59 98
REMARK SMILES IDX 60 99 61 100
REMARK H PARENT 18 6 7 16 10 18 23 31 85 50 51 61
REMARK Flexibility Score: inf
ROOT
ATOM      1  C   UNL     1      -7.392   5.248  -3.689  1.00  0.00     0.023 C 
ENDROOT
BRANCH   1   2
ATOM      2  C   UNL     1      -7.875   3.806  -3.559  1.00  0.00     0.116 C 
BRANCH   2   3
ATOM      3  N   UNL     1      -7.959   3.132  -4.839  1.00  0.00    -0.354 N 
ATOM      4  C   UNL     1      -7.115   2.240  -5.430  1.00  0.00     0.249 C 
ATOM      5  O   UNL     1      -7.437   1.795  -6.537  1.00  0.00    -0.272 OA
ATOM      6  H   UNL     1      -8.758   3.355  -5.369  1.00  0.00     0.163 HD
BRANCH   4   7
ATOM      7  C   UNL     1      -5.837   1.722  -4.735  1.00  0.00     0.207 C 
ATOM      8  C   UNL     1      -5.185   1.668  -2.497  1.00  0.00     0.138 C 
ATOM      9  C   UNL     1      -5.089   0.252  -3.022  1.00  0.00     0.037 C 
ATOM     10  O   UNL     1      -5.268   2.494  -3.677  1.00  0.00    -0.363 OA
ATOM     11  C   UNL     1      -6.058   0.316  -4.182  1.00  0.00     0.045 C 
BRANCH   8  12
ATOM     12  C   UNL     1      -4.039   2.155  -1.608  1.00  0.00     0.149 C 
BRANCH  12  13
ATOM     13  N   UNL     1      -4.515   2.498  -0.273  1.00  0.00    -0.336 N 
ATOM     14  N   UNL     1      -3.788   0.814   1.210  1.00  0.00    -0.334 N 
ATOM     15  C   UNL     1      -4.397   1.971   0.947  1.00  0.00     0.315 C 
ATOM     16  H   UNL     1      -3.685   0.646   2.175  1.00  0.00     0.165 HD
ATOM     17  O   UNL     1      -4.870   2.599   1.896  1.00  0.00    -0.249 OA
ATOM     18  H   UNL     1      -5.056   3.320  -0.272  1.00  0.00     0.165 HD
BRANCH  14  19
ATOM     19  C   UNL     1      -3.247  -0.245   0.395  1.00  0.00     0.155 C 
BRANCH  19  20
ATOM     20  C   UNL     1      -1.749  -0.222   0.289  1.00  0.00    -0.010 A 
ATOM     21  C   UNL     1       2.496  -0.072  -0.076  1.00  0.00     0.066 C 
ATOM     22  C   UNL     1       1.005  -0.159   0.035  1.00  0.00     0.037 A 
ATOM     23  C   UNL     1       0.355  -1.387   0.035  1.00  0.00     0.024 A 
ATOM     24  N   UNL     1       0.337   1.012   0.135  1.00  0.00    -0.261 NA
ATOM     25  C   UNL     1      -1.033  -1.415   0.155  1.00  0.00     0.009 A 
ATOM     26  C   UNL     1      -1.011   0.956   0.258  1.00  0.00     0.116 A 
ENDBRANCH  19  20
ENDBRANCH  14  19
ENDBRANCH  12  13
ENDBRANCH   8  12
ENDBRANCH   4   7
ENDBRANCH   2   3
ENDBRANCH   1   2
BRANCH   1  27
ATOM     27  C   UNL     1      -8.443   6.213  -4.244  1.00  0.00     0.023 C 
BRANCH  27  28
ATOM     28  C   UNL     1      -9.775   6.231  -3.498  1.00  0.00     0.116 C 
BRANCH  28  29
ATOM     29  N   UNL     1      -9.644   6.514  -2.077  1.00  0.00    -0.352 N 
ATOM     30  C   UNL     1     -10.498   7.225  -1.263  1.00  0.00     0.251 C 
ATOM     31  H   UNL     1      -8.841   6.150  -1.640  1.00  0.00     0.163 HD
ATOM     32  O   UNL     1     -10.196   7.457  -0.101  1.00  0.00    -0.269 OA
BRANCH  30  33
ATOM     33  C   UNL     1     -11.765   7.741  -1.826  1.00  0.00     0.039 A 
ATOM     34  C   UNL     1     -12.079   9.090  -1.649  1.00  0.00     0.014 A 
ATOM     35  C   UNL     1     -12.610   6.908  -2.564  1.00  0.00     0.014 A 
ATOM     36  C   UNL     1     -13.205   9.623  -2.280  1.00  0.00     0.010 A 
ATOM     37  C   UNL     1     -13.692   7.455  -3.246  1.00  0.00     0.010 A 
ATOM     38  C   UNL     1     -13.997   8.819  -3.115  1.00  0.00    -0.014 A 
BRANCH  38  39
ATOM     39  C   UNL     1     -15.135   9.387  -3.880  1.00  0.00     0.031 A 
ATOM     40  C   UNL     1     -16.538   8.919  -3.610  1.00  0.00     0.074 A 
ATOM     41  C   UNL     1     -14.894  10.254  -4.883  1.00  0.00     0.049 A 
ATOM     42  N   UNL     1     -17.647   9.236  -4.226  1.00  0.00    -0.248 NA
ATOM     43  C   UNL     1     -16.709   7.939  -2.527  1.00  0.00     0.031 C 
ATOM     44  C   UNL     1     -13.569  10.725  -5.293  1.00  0.00     0.029 A 
ATOM     45  N   UNL     1     -15.752  10.873  -5.758  1.00  0.00    -0.354 N 
ATOM     46  C   UNL     1     -18.643   8.476  -3.625  1.00  0.00     0.074 A 
ATOM     47  C   UNL     1     -17.998   7.650  -2.627  1.00  0.00     0.031 C 
ATOM     48  C   UNL     1     -13.703  11.562  -6.334  1.00  0.00     0.029 A 
ATOM     49  C   UNL     1     -15.117  11.665  -6.684  1.00  0.00     0.049 A 
ATOM     50  H   UNL     1     -16.729  10.761  -5.724  1.00  0.00     0.167 HD
ATOM     51  C   UNL     1     -19.976   8.481  -3.869  1.00  0.00     0.037 A 
ATOM     52  C   UNL     1     -15.614  12.387  -7.708  1.00  0.00     0.037 A 
ATOM     53  C   UNL     1     -20.613   9.329  -4.843  1.00  0.00     0.049 A 
ATOM     54  C   UNL     1     -17.099  12.418  -7.931  1.00  0.00     0.074 A 
ATOM     55  C   UNL     1     -21.964   9.477  -5.102  1.00  0.00     0.029 A 
ATOM     56  N   UNL     1     -19.943  10.166  -5.723  1.00  0.00    -0.354 N 
ATOM     57  N   UNL     1     -18.041  11.767  -7.290  1.00  0.00    -0.248 NA
ATOM     58  C   UNL     1     -17.593  13.290  -9.005  1.00  0.00     0.031 C 
ATOM     59  C   UNL     1     -22.109  10.376  -6.166  1.00  0.00     0.029 A 
ATOM     60  C   UNL     1     -20.850  10.818  -6.542  1.00  0.00     0.049 A 
ATOM     61  H   UNL     1     -18.966  10.280  -5.761  1.00  0.00     0.167 HD
ATOM     62  C   UNL     1     -19.240  12.160  -7.872  1.00  0.00     0.074 A 
ATOM     63  C   UNL     1     -18.905  13.117  -8.908  1.00  0.00     0.031 C 
ATOM     64  C   UNL     1     -20.502  11.764  -7.574  1.00  0.00     0.037 A 
BRANCH  51  65
ATOM     65  C   UNL     1     -20.824   7.532  -3.069  1.00  0.00     0.058 A 
ATOM     66  C   UNL     1     -21.042   7.715  -1.693  1.00  0.00     0.135 A 
ATOM     67  C   UNL     1     -21.418   6.417  -3.682  1.00  0.00     0.135 A 
ATOM     68  F   UNL     1     -20.488   8.758  -1.054  1.00  0.00    -0.206 F 
ATOM     69  C   UNL     1     -21.773   6.799  -0.944  1.00  0.00     0.059 A 
ATOM     70  C   UNL     1     -22.178   5.503  -2.957  1.00  0.00     0.059 A 
ATOM     71  F   UNL     1     -21.247   6.195  -4.995  1.00  0.00    -0.206 F 
ATOM     72  C   UNL     1     -22.328   5.690  -1.583  1.00  0.00     0.060 A 
BRANCH  72  73
ATOM     73  S   UNL     1     -23.239   4.487  -0.593  1.00  0.00     0.124 S 
ATOM     74  O   UNL     1     -22.151   3.763   0.057  1.00  0.00    -0.237 OA
ATOM     75  O   UNL     1     -24.042   5.338   0.278  1.00  0.00    -0.237 OA
ATOM     76  O   UNL     1     -23.991   3.729  -1.589  1.00  0.00    -0.744 OA
ENDBRANCH  72  73
ENDBRANCH  51  65
BRANCH  52  77
ATOM     77  C   UNL     1     -14.683  13.155  -8.575  1.00  0.00     0.058 A 
ATOM     78  C   UNL     1     -14.571  14.547  -8.459  1.00  0.00     0.135 A 
ATOM     79  C   UNL     1     -13.840  12.502  -9.488  1.00  0.00     0.135 A 
ATOM     80  F   UNL     1     -15.361  15.214  -7.604  1.00  0.00    -0.206 F 
ATOM     81  C   UNL     1     -13.651  15.268  -9.213  1.00  0.00     0.059 A 
ATOM     82  C   UNL     1     -12.898  13.199 -10.239  1.00  0.00     0.059 A 
ATOM     83  F   UNL     1     -13.899  11.168  -9.622  1.00  0.00    -0.206 F 
ATOM     84  C   UNL     1     -12.812  14.583 -10.094  1.00  0.00     0.060 A 
BRANCH  84  85
ATOM     85  S   UNL     1     -11.555  15.516 -10.996  1.00  0.00     0.124 S 
ATOM     86  O   UNL     1     -12.359  16.189 -12.010  1.00  0.00    -0.237 OA
ATOM     87  O   UNL     1     -10.998  16.370  -9.952  1.00  0.00    -0.237 OA
ATOM     88  O   UNL     1     -10.656  14.477 -11.489  1.00  0.00    -0.744 OA
ENDBRANCH  84  85
ENDBRANCH  52  77
BRANCH  64  89
ATOM     89  C   UNL     1     -21.623  12.375  -8.368  1.00  0.00     0.058 A 
ATOM     90  C   UNL     1     -21.875  11.995  -9.695  1.00  0.00     0.135 A 
ATOM     91  C   UNL     1     -22.489  13.309  -7.776  1.00  0.00     0.135 A 
ATOM     92  F   UNL     1     -21.073  11.111 -10.309  1.00  0.00    -0.206 F 
ATOM     93  C   UNL     1     -22.937  12.533 -10.415  1.00  0.00     0.059 A 
ATOM     94  C   UNL     1     -23.571  13.842  -8.469  1.00  0.00     0.059 A 
ATOM     95  F   UNL     1     -22.296  13.698  -6.506  1.00  0.00    -0.206 F 
ATOM     96  C   UNL     1     -23.781  13.455  -9.792  1.00  0.00     0.060 A 
BRANCH  96  97
ATOM     97  S   UNL     1     -25.179  14.118 -10.723  1.00  0.00     0.124 S 
ATOM     98  O   UNL     1     -24.518  15.075 -11.604  1.00  0.00    -0.237 OA
ATOM     99  O   UNL     1     -25.719  12.927 -11.371  1.00  0.00    -0.237 OA
ATOM    100  O   UNL     1     -26.030  14.700  -9.688  1.00  0.00    -0.744 OA
ENDBRANCH  96  97
ENDBRANCH  64  89
ENDBRANCH  38  39
ENDBRANCH  30  33
ENDBRANCH  28  29
ENDBRANCH  27  28
ENDBRANCH   1  27
TORSDOF 18
