REMARK SMILES Cc1oc2c(c1C(=O)NCCCC(=O)NCCCCNC(=O)c1ccc(-c3c4nc(c(-c5c(F)cc(S(=O)(=O)[O-])cc5F)c5ccc([nH]5)c(-c5c(F)cc(S(=O)(=O)[O-])cc5F)c5nc(c(-c6c(F)cc(S(=O)(=O)[O-])cc6F)c6ccc3[nH]6)C=C5)C=C4)cc1)CCCC2
REMARK SMILES IDX 17 1 16 2 15 3 13 4 14 5 12 7 11 8 10 9 9 10 7 11 8 12 6 14
REMARK SMILES IDX 1 15 2 16 3 17 4 18 5 19 92 20 89 21 91 22 90 23 18 24 19 25
REMARK SMILES IDX 20 26 21 27 22 29 23 30 24 31 88 32 25 33 87 34 26 35 27 36
REMARK SMILES IDX 28 37 81 38 29 39 86 40 80 41 82 42 30 43 85 44 79 45 78 46
REMARK SMILES IDX 31 48 65 49 44 50 64 51 45 52 48 53 63 54 83 55 46 56 47 57
REMARK SMILES IDX 62 59 84 60 49 61 32 62 33 63 42 64 34 65 35 66 41 67 43 68
REMARK SMILES IDX 36 69 37 70 38 71 39 72 40 73 66 74 67 75 76 76 68 77 69 78
REMARK SMILES IDX 75 79 77 80 70 81 71 82 72 83 73 84 74 85 50 86 51 87 60 88
REMARK SMILES IDX 52 89 53 90 59 91 61 92 54 93 55 94 56 95 57 96 58 97
REMARK H PARENT 15 6 9 13 20 28 82 47 48 58
REMARK Flexibility Score: inf
ROOT
ATOM      1  C   UNL     1       3.855   2.034  -0.529  1.00  0.00     0.023 C 
ENDROOT
BRANCH   1   2
ATOM      2  C   UNL     1       3.668   3.278  -1.400  1.00  0.00     0.116 C 
BRANCH   2   3
ATOM      3  N   UNL     1       3.469   2.916  -2.791  1.00  0.00    -0.356 N 
ATOM      4  C   UNL     1       2.347   2.953  -3.560  1.00  0.00     0.220 C 
ATOM      5  O   UNL     1       2.384   2.430  -4.675  1.00  0.00    -0.275 OA
ATOM      6  H   UNL     1       4.275   2.590  -3.253  1.00  0.00     0.163 HD
BRANCH   4   7
ATOM      7  C   UNL     1       1.082   3.628  -3.066  1.00  0.00     0.102 C 
BRANCH   7   8
ATOM      8  C   UNL     1       0.020   2.665  -2.534  1.00  0.00     0.031 C 
BRANCH   8   9
ATOM      9  C   UNL     1       0.254   2.096  -1.138  1.00  0.00     0.116 C 
BRANCH   9  10
ATOM     10  N   UNL     1       0.472   3.068  -0.098  1.00  0.00    -0.352 N 
ATOM     11  C   UNL     1       0.593   2.931   1.262  1.00  0.00     0.255 C 
ATOM     12  O   UNL     1       0.840   3.975   1.871  1.00  0.00    -0.269 OA
ATOM     13  H   UNL     1       0.547   3.996  -0.420  1.00  0.00     0.163 HD
BRANCH  11  14
ATOM     14  C   UNL     1       0.362   1.678   1.988  1.00  0.00     0.084 A 
ATOM     15  C   UNL     1       0.979  -0.468   0.495  1.00  0.00     0.088 C 
ATOM     16  C   UNL     1       0.485   0.329   1.637  1.00  0.00     0.114 A 
ATOM     17  O   UNL     1       0.081  -0.479   2.666  1.00  0.00    -0.465 OA
ATOM     18  C   UNL     1      -0.222   0.320   3.697  1.00  0.00     0.108 A 
ATOM     19  C   UNL     1      -0.017   1.638   3.383  1.00  0.00     0.007 A 
ATOM     20  C   UNL     1      -0.666  -0.266   4.976  1.00  0.00     0.076 C 
ATOM     21  C   UNL     1      -0.233   2.717   4.395  1.00  0.00     0.040 C 
ATOM     22  C   UNL     1      -1.254   0.855   5.851  1.00  0.00     0.008 C 
ATOM     23  C   UNL     1      -0.380   2.126   5.819  1.00  0.00     0.005 C 
ENDBRANCH  11  14
ENDBRANCH   9  10
ENDBRANCH   8   9
ENDBRANCH   7   8
ENDBRANCH   4   7
ENDBRANCH   2   3
ENDBRANCH   1   2
BRANCH   1  24
ATOM     24  C   UNL     1       5.226   1.355  -0.581  1.00  0.00     0.023 C 
BRANCH  24  25
ATOM     25  C   UNL     1       6.378   2.192  -0.049  1.00  0.00     0.116 C 
BRANCH  25  26
ATOM     26  N   UNL     1       6.229   2.542   1.359  1.00  0.00    -0.352 N 
ATOM     27  C   UNL     1       6.970   3.473   2.069  1.00  0.00     0.251 C 
ATOM     28  H   UNL     1       5.527   2.066   1.859  1.00  0.00     0.163 HD
ATOM     29  O   UNL     1       7.092   3.385   3.279  1.00  0.00    -0.269 OA
BRANCH  27  30
ATOM     30  C   UNL     1       7.618   4.564   1.315  1.00  0.00     0.039 A 
ATOM     31  C   UNL     1       8.948   4.899   1.553  1.00  0.00     0.014 A 
ATOM     32  C   UNL     1       6.891   5.199   0.307  1.00  0.00     0.014 A 
ATOM     33  C   UNL     1       9.569   5.798   0.690  1.00  0.00     0.010 A 
ATOM     34  C   UNL     1       7.540   5.991  -0.619  1.00  0.00     0.010 A 
ATOM     35  C   UNL     1       8.880   6.305  -0.434  1.00  0.00    -0.014 A 
BRANCH  35  36
ATOM     36  C   UNL     1       9.634   7.002  -1.483  1.00  0.00     0.031 A 
ATOM     37  C   UNL     1      10.910   6.323  -1.837  1.00  0.00     0.074 A 
ATOM     38  C   UNL     1       9.228   8.080  -2.192  1.00  0.00     0.049 A 
ATOM     39  N   UNL     1      12.085   6.644  -1.410  1.00  0.00    -0.248 NA
ATOM     40  C   UNL     1      10.873   5.043  -2.562  1.00  0.00     0.031 C 
ATOM     41  C   UNL     1       7.916   8.731  -2.188  1.00  0.00     0.029 A 
ATOM     42  N   UNL     1       9.913   8.800  -3.132  1.00  0.00    -0.354 N 
ATOM     43  C   UNL     1      12.967   5.782  -2.047  1.00  0.00     0.074 A 
ATOM     44  C   UNL     1      12.164   4.698  -2.548  1.00  0.00     0.031 C 
ATOM     45  C   UNL     1       7.830   9.598  -3.223  1.00  0.00     0.029 A 
ATOM     46  C   UNL     1       9.133   9.703  -3.854  1.00  0.00     0.049 A 
ATOM     47  H   UNL     1      10.879   8.689  -3.288  1.00  0.00     0.167 HD
ATOM     48  C   UNL     1      14.224   6.205  -2.358  1.00  0.00     0.037 A 
ATOM     49  C   UNL     1       9.529  10.511  -4.872  1.00  0.00     0.037 A 
ATOM     50  C   UNL     1      14.552   7.410  -1.627  1.00  0.00     0.049 A 
ATOM     51  C   UNL     1      10.986  10.720  -4.703  1.00  0.00     0.074 A 
ATOM     52  C   UNL     1      14.603   7.776  -0.296  1.00  0.00     0.029 A 
ATOM     53  N   UNL     1      14.505   8.582  -2.341  1.00  0.00    -0.354 N 
ATOM     54  N   UNL     1      11.514  11.381  -3.710  1.00  0.00    -0.248 NA
ATOM     55  C   UNL     1      11.896   9.854  -5.432  1.00  0.00     0.031 C 
ATOM     56  C   UNL     1      14.142   9.127  -0.261  1.00  0.00     0.029 A 
ATOM     57  C   UNL     1      13.910   9.544  -1.572  1.00  0.00     0.049 A 
ATOM     58  H   UNL     1      14.845   8.710  -3.256  1.00  0.00     0.167 HD
ATOM     59  C   UNL     1      12.667  10.680  -3.404  1.00  0.00     0.074 A 
ATOM     60  C   UNL     1      12.918   9.841  -4.573  1.00  0.00     0.031 C 
ATOM     61  C   UNL     1      13.138  10.639  -2.123  1.00  0.00     0.037 A 
BRANCH  48  62
ATOM     62  C   UNL     1      14.953   5.839  -3.637  1.00  0.00     0.058 A 
ATOM     63  C   UNL     1      16.274   6.306  -3.821  1.00  0.00     0.135 A 
ATOM     64  C   UNL     1      14.320   5.344  -4.800  1.00  0.00     0.135 A 
ATOM     65  F   UNL     1      16.974   6.802  -2.788  1.00  0.00    -0.206 F 
ATOM     66  C   UNL     1      16.878   6.370  -5.077  1.00  0.00     0.059 A 
ATOM     67  C   UNL     1      14.925   5.350  -6.051  1.00  0.00     0.059 A 
ATOM     68  F   UNL     1      13.053   4.920  -4.808  1.00  0.00    -0.206 F 
ATOM     69  C   UNL     1      16.186   5.902  -6.189  1.00  0.00     0.060 A 
BRANCH  69  70
ATOM     70  S   UNL     1      16.928   6.053  -7.821  1.00  0.00     0.124 S 
ATOM     71  O   UNL     1      16.885   7.496  -8.025  1.00  0.00    -0.237 OA
ATOM     72  O   UNL     1      18.249   5.474  -7.604  1.00  0.00    -0.237 OA
ATOM     73  O   UNL     1      16.036   5.265  -8.666  1.00  0.00    -0.744 OA
ENDBRANCH  69  70
ENDBRANCH  48  62
BRANCH  49  74
ATOM     74  C   UNL     1       8.822  10.867  -6.135  1.00  0.00     0.058 A 
ATOM     75  C   UNL     1       9.380  11.798  -7.036  1.00  0.00     0.135 A 
ATOM     76  C   UNL     1       7.771  10.078  -6.638  1.00  0.00     0.135 A 
ATOM     77  F   UNL     1      10.384  12.598  -6.646  1.00  0.00    -0.206 F 
ATOM     78  C   UNL     1       8.988  11.873  -8.377  1.00  0.00     0.059 A 
ATOM     79  C   UNL     1       7.356  10.142  -7.970  1.00  0.00     0.059 A 
ATOM     80  F   UNL     1       7.179   9.148  -5.874  1.00  0.00    -0.206 F 
ATOM     81  C   UNL     1       7.994  11.016  -8.844  1.00  0.00     0.060 A 
BRANCH  81  82
ATOM     82  S   UNL     1       7.635  10.952 -10.617  1.00  0.00     0.124 S 
ATOM     83  O   UNL     1       6.952  12.223 -10.833  1.00  0.00    -0.237 OA
ATOM     84  O   UNL     1       8.968  10.837 -11.200  1.00  0.00    -0.237 OA
ATOM     85  O   UNL     1       6.797   9.762 -10.749  1.00  0.00    -0.744 OA
ENDBRANCH  81  82
ENDBRANCH  49  74
BRANCH  61  86
ATOM     86  C   UNL     1      12.695  11.712  -1.163  1.00  0.00     0.058 A 
ATOM     87  C   UNL     1      11.376  11.938  -0.732  1.00  0.00     0.135 A 
ATOM     88  C   UNL     1      13.705  12.483  -0.565  1.00  0.00     0.135 A 
ATOM     89  F   UNL     1      10.360  11.188  -1.183  1.00  0.00    -0.206 F 
ATOM     90  C   UNL     1      11.077  12.914   0.224  1.00  0.00     0.059 A 
ATOM     91  C   UNL     1      13.435  13.434   0.411  1.00  0.00     0.059 A 
ATOM     92  F   UNL     1      14.991  12.283  -0.900  1.00  0.00    -0.206 F 
ATOM     93  C   UNL     1      12.115  13.655   0.792  1.00  0.00     0.060 A 
BRANCH  93  94
ATOM     94  S   UNL     1      11.742  14.870   2.075  1.00  0.00     0.124 S 
ATOM     95  O   UNL     1      11.065  15.918   1.320  1.00  0.00    -0.237 OA
ATOM     96  O   UNL     1      10.902  14.110   2.997  1.00  0.00    -0.237 OA
ATOM     97  O   UNL     1      13.057  15.230   2.599  1.00  0.00    -0.744 OA
ENDBRANCH  93  94
ENDBRANCH  61  86
ENDBRANCH  35  36
ENDBRANCH  27  30
ENDBRANCH  25  26
ENDBRANCH  24  25
ENDBRANCH   1  24
TORSDOF 18
