REMARK SMILES CC[NH+](CC)CC[N@H+]1CC[C@@H](C(=O)NCCCCNC(=O)c2ccc(-c3c4nc(c(-c5c(F)cc(S(=O)(=O)[O-])cc5F)c5ccc([nH]5)c(-c5c(F)cc(S(=O)(=O)[O-])cc5F)c5nc(c(-c6c(F)cc(S(=O)(=O)[O-])cc6F)c6ccc3[nH]6)C=C5)C=C4)cc2)[C@@H]1C
REMARK SMILES IDX 16 1 15 2 14 3 12 4 13 5 11 7 8 8 9 9 88 10 10 12 89 13 7 14
REMARK SMILES IDX 6 15 3 16 2 18 1 19 4 20 5 21 17 22 18 23 19 24 20 25 21 27
REMARK SMILES IDX 22 28 23 29 87 30 24 31 86 32 25 33 26 34 27 35 80 36 28 37
REMARK SMILES IDX 85 38 79 39 81 40 29 41 84 42 78 43 77 44 30 46 64 47 43 48
REMARK SMILES IDX 63 49 44 50 47 51 62 52 82 53 45 54 46 55 61 57 83 58 48 59
REMARK SMILES IDX 31 60 32 61 41 62 33 63 34 64 40 65 42 66 35 67 36 68 37 69
REMARK SMILES IDX 38 70 39 71 65 72 66 73 75 74 67 75 68 76 74 77 76 78 69 79
REMARK SMILES IDX 70 80 71 81 72 82 73 83 49 84 50 85 59 86 51 87 52 88 58 89
REMARK SMILES IDX 60 90 53 91 54 92 55 93 56 94 57 95
REMARK H PARENT 14 6 8 11 3 17 19 26 81 45 47 56
REMARK Flexibility Score: inf
ROOT
ATOM      1  C   UNL     1       5.483   0.862  -1.413  1.00  0.00     0.023 C 
ENDROOT
BRANCH   1   2
ATOM      2  C   UNL     1       4.339  -0.052  -0.984  1.00  0.00     0.116 C 
BRANCH   2   3
ATOM      3  N   UNL     1       4.688  -1.014   0.031  1.00  0.00    -0.356 N 
ATOM      4  C   UNL     1       4.244  -1.108   1.315  1.00  0.00     0.229 C 
ATOM      5  O   UNL     1       4.560  -2.124   1.944  1.00  0.00    -0.275 OA
ATOM      6  H   UNL     1       5.340  -1.699  -0.242  1.00  0.00     0.163 HD
BRANCH   4   7
ATOM      7  C   UNL     1       3.359  -0.057   1.986  1.00  0.00     0.142 C 
ATOM      8  N   UNL     1       2.593   2.206   1.607  1.00  0.00    -0.327 N 
ATOM      9  C   UNL     1       1.466   1.361   1.953  1.00  0.00     0.263 C 
ATOM     10  C   UNL     1       3.814   1.411   1.879  1.00  0.00     0.193 C 
ATOM     11  H   UNL     1       2.594   3.037   2.198  1.00  0.00     0.348 HD
ATOM     12  C   UNL     1       1.898  -0.039   1.555  1.00  0.00     0.081 C 
ATOM     13  C   UNL     1       4.402   1.876   3.219  1.00  0.00     0.076 C 
BRANCH   8  14
ATOM     14  C   UNL     1       2.525   2.921   0.318  1.00  0.00     0.324 C 
BRANCH  14  15
ATOM     15  C   UNL     1       1.763   2.436  -0.977  1.00  0.00     0.324 C 
BRANCH  15  16
ATOM     16  N   UNL     1       0.333   2.596  -1.222  1.00  0.00    -0.331 N 
ATOM     17  H   UNL     1       0.524   2.227  -2.153  1.00  0.00     0.348 HD
BRANCH  16  18
ATOM     18  C   UNL     1      -0.631   1.561  -0.883  1.00  0.00     0.258 C 
ATOM     19  C   UNL     1      -0.335   0.156  -1.412  1.00  0.00     0.071 C 
ENDBRANCH  16  18
BRANCH  16  20
ATOM     20  C   UNL     1      -0.199   3.930  -1.456  1.00  0.00     0.258 C 
ATOM     21  C   UNL     1      -0.023   4.929  -0.326  1.00  0.00     0.071 C 
ENDBRANCH  16  20
ENDBRANCH  15  16
ENDBRANCH  14  15
ENDBRANCH   8  14
ENDBRANCH   4   7
ENDBRANCH   2   3
ENDBRANCH   1   2
BRANCH   1  22
ATOM     22  C   UNL     1       6.335   0.319  -2.554  1.00  0.00     0.023 C 
BRANCH  22  23
ATOM     23  C   UNL     1       5.593   0.081  -3.868  1.00  0.00     0.116 C 
BRANCH  23  24
ATOM     24  N   UNL     1       5.028   1.287  -4.462  1.00  0.00    -0.352 N 
ATOM     25  C   UNL     1       5.148   1.756  -5.754  1.00  0.00     0.251 C 
ATOM     26  H   UNL     1       4.486   1.843  -3.857  1.00  0.00     0.163 HD
ATOM     27  O   UNL     1       4.665   2.835  -6.070  1.00  0.00    -0.269 OA
BRANCH  25  28
ATOM     28  C   UNL     1       5.918   0.963  -6.740  1.00  0.00     0.039 A 
ATOM     29  C   UNL     1       6.957   1.581  -7.439  1.00  0.00     0.014 A 
ATOM     30  C   UNL     1       5.676  -0.404  -6.896  1.00  0.00     0.014 A 
ATOM     31  C   UNL     1       7.833   0.802  -8.198  1.00  0.00     0.010 A 
ATOM     32  C   UNL     1       6.597  -1.187  -7.585  1.00  0.00     0.010 A 
ATOM     33  C   UNL     1       7.702  -0.597  -8.219  1.00  0.00    -0.014 A 
BRANCH  33  34
ATOM     34  C   UNL     1       8.742  -1.465  -8.832  1.00  0.00     0.031 A 
ATOM     35  C   UNL     1       8.396  -2.378  -9.976  1.00  0.00     0.074 A 
ATOM     36  C   UNL     1       9.976  -1.505  -8.287  1.00  0.00     0.049 A 
ATOM     37  N   UNL     1       9.137  -3.281 -10.563  1.00  0.00    -0.248 NA
ATOM     38  C   UNL     1       7.027  -2.286 -10.509  1.00  0.00     0.031 C 
ATOM     39  C   UNL     1      10.419  -0.721  -7.131  1.00  0.00     0.029 A 
ATOM     40  N   UNL     1      11.081  -2.251  -8.619  1.00  0.00    -0.354 N 
ATOM     41  C   UNL     1       8.324  -3.878 -11.518  1.00  0.00     0.074 A 
ATOM     42  C   UNL     1       7.018  -3.264 -11.402  1.00  0.00     0.031 C 
ATOM     43  C   UNL     1      11.702  -1.013  -6.862  1.00  0.00     0.029 A 
ATOM     44  C   UNL     1      12.164  -2.033  -7.798  1.00  0.00     0.049 A 
ATOM     45  H   UNL     1      11.097  -2.883  -9.374  1.00  0.00     0.167 HD
ATOM     46  C   UNL     1       8.642  -4.834 -12.422  1.00  0.00     0.037 A 
ATOM     47  C   UNL     1      13.387  -2.599  -7.789  1.00  0.00     0.037 A 
ATOM     48  C   UNL     1       9.952  -5.414 -12.560  1.00  0.00     0.049 A 
ATOM     49  C   UNL     1      13.720  -3.645  -8.816  1.00  0.00     0.074 A 
ATOM     50  C   UNL     1      10.393  -6.327 -13.503  1.00  0.00     0.029 A 
ATOM     51  N   UNL     1      11.032  -5.142 -11.733  1.00  0.00    -0.354 N 
ATOM     52  N   UNL     1      12.959  -4.140  -9.762  1.00  0.00    -0.248 NA
ATOM     53  C   UNL     1      15.076  -4.210  -8.777  1.00  0.00     0.031 C 
ATOM     54  C   UNL     1      11.729  -6.634 -13.223  1.00  0.00     0.029 A 
ATOM     55  C   UNL     1      12.132  -5.884 -12.130  1.00  0.00     0.049 A 
ATOM     56  H   UNL     1      11.018  -4.513 -10.975  1.00  0.00     0.167 HD
ATOM     57  C   UNL     1      13.749  -5.062 -10.440  1.00  0.00     0.074 A 
ATOM     58  C   UNL     1      15.051  -5.043  -9.808  1.00  0.00     0.031 C 
ATOM     59  C   UNL     1      13.422  -5.854 -11.491  1.00  0.00     0.037 A 
BRANCH  46  60
ATOM     60  C   UNL     1       7.558  -5.306 -13.349  1.00  0.00     0.058 A 
ATOM     61  C   UNL     1       7.083  -4.499 -14.394  1.00  0.00     0.135 A 
ATOM     62  C   UNL     1       7.022  -6.598 -13.223  1.00  0.00     0.135 A 
ATOM     63  F   UNL     1       7.551  -3.250 -14.549  1.00  0.00    -0.206 F 
ATOM     64  C   UNL     1       6.099  -4.946 -15.269  1.00  0.00     0.059 A 
ATOM     65  C   UNL     1       6.055  -7.076 -14.103  1.00  0.00     0.059 A 
ATOM     66  F   UNL     1       7.440  -7.411 -12.240  1.00  0.00    -0.206 F 
ATOM     67  C   UNL     1       5.591  -6.237 -15.116  1.00  0.00     0.060 A 
BRANCH  67  68
ATOM     68  S   UNL     1       4.327  -6.809 -16.270  1.00  0.00     0.124 S 
ATOM     69  O   UNL     1       3.154  -6.076 -15.802  1.00  0.00    -0.237 OA
ATOM     70  O   UNL     1       4.865  -6.385 -17.559  1.00  0.00    -0.237 OA
ATOM     71  O   UNL     1       4.294  -8.251 -16.052  1.00  0.00    -0.744 OA
ENDBRANCH  67  68
ENDBRANCH  46  60
BRANCH  47  72
ATOM     72  C   UNL     1      14.394  -2.182  -6.777  1.00  0.00     0.058 A 
ATOM     73  C   UNL     1      15.511  -1.419  -7.145  1.00  0.00     0.135 A 
ATOM     74  C   UNL     1      14.258  -2.533  -5.425  1.00  0.00     0.135 A 
ATOM     75  F   UNL     1      15.687  -1.064  -8.427  1.00  0.00    -0.206 F 
ATOM     76  C   UNL     1      16.470  -1.033  -6.214  1.00  0.00     0.059 A 
ATOM     77  C   UNL     1      15.192  -2.140  -4.471  1.00  0.00     0.059 A 
ATOM     78  F   UNL     1      13.197  -3.248  -5.019  1.00  0.00    -0.206 F 
ATOM     79  C   UNL     1      16.301  -1.400  -4.878  1.00  0.00     0.060 A 
BRANCH  79  80
ATOM     80  S   UNL     1      17.528  -0.859  -3.667  1.00  0.00     0.124 S 
ATOM     81  O   UNL     1      18.631  -1.773  -3.940  1.00  0.00    -0.237 OA
ATOM     82  O   UNL     1      17.743   0.534  -4.047  1.00  0.00    -0.237 OA
ATOM     83  O   UNL     1      16.845  -1.053  -2.392  1.00  0.00    -0.744 OA
ENDBRANCH  79  80
ENDBRANCH  47  72
BRANCH  59  84
ATOM     84  C   UNL     1      14.494  -6.756 -12.034  1.00  0.00     0.058 A 
ATOM     85  C   UNL     1      14.888  -7.918 -11.354  1.00  0.00     0.135 A 
ATOM     86  C   UNL     1      15.095  -6.483 -13.274  1.00  0.00     0.135 A 
ATOM     87  F   UNL     1      14.350  -8.218 -10.161  1.00  0.00    -0.206 F 
ATOM     88  C   UNL     1      15.854  -8.772 -11.876  1.00  0.00     0.059 A 
ATOM     89  C   UNL     1      16.045  -7.336 -13.826  1.00  0.00     0.059 A 
ATOM     90  F   UNL     1      14.746  -5.389 -13.968  1.00  0.00    -0.206 F 
ATOM     91  C   UNL     1      16.426  -8.473 -13.114  1.00  0.00     0.060 A 
BRANCH  91  92
ATOM     92  S   UNL     1      17.649  -9.609 -13.801  1.00  0.00     0.124 S 
ATOM     93  O   UNL     1      18.826  -9.293 -12.998  1.00  0.00    -0.237 OA
ATOM     94  O   UNL     1      17.042 -10.913 -13.551  1.00  0.00    -0.237 OA
ATOM     95  O   UNL     1      17.723  -9.219 -15.206  1.00  0.00    -0.744 OA
ENDBRANCH  91  92
ENDBRANCH  59  84
ENDBRANCH  33  34
ENDBRANCH  25  28
ENDBRANCH  23  24
ENDBRANCH  22  23
ENDBRANCH   1  22
TORSDOF 19
