REMARK SMILES O=C(Cn1cc(/C=C2\SC(=S)N(C[C@H]3CCCO3)C2=O)c2ccccc21)NCCCCNC(=O)c1ccc(-c2c3nc(c(-c4c(F)cc(S(=O)(=O)[O-])cc4F)c4ccc([nH]4)c(-c4c(F)cc(S(=O)(=O)[O-])cc4F)c4nc(c(-c5c(F)cc(S(=O)(=O)[O-])cc5F)c5ccc2[nH]5)C=C4)C=C3)cc1
REMARK SMILES IDX 29 1 28 2 27 3 1 4 2 5 3 7 4 8 5 9 26 10 6 11 21 12 25 13
REMARK SMILES IDX 22 14 24 15 23 16 7 17 8 18 9 19 19 20 10 21 12 22 20 23
REMARK SMILES IDX 11 24 13 25 14 26 15 27 18 28 16 29 17 30 30 31 31 32 32 33
REMARK SMILES IDX 33 34 34 36 35 37 36 38 100 39 37 40 99 41 38 42 39 43 40 44
REMARK SMILES IDX 93 45 41 46 98 47 92 48 94 49 42 50 97 51 91 52 90 53 43 55
REMARK SMILES IDX 77 56 56 57 76 58 57 59 60 60 75 61 95 62 58 63 59 64 74 66
REMARK SMILES IDX 96 67 61 68 44 69 45 70 54 71 46 72 47 73 53 74 55 75 48 76
REMARK SMILES IDX 49 77 50 78 51 79 52 80 78 81 79 82 88 83 80 84 81 85 87 86
REMARK SMILES IDX 89 87 82 88 83 89 84 90 85 91 86 92 62 93 63 94 72 95 64 96
REMARK SMILES IDX 65 97 71 98 73 99 66 100 67 101 68 102 69 103 70 104
REMARK H PARENT 27 6 32 35 94 54 60 65
REMARK Flexibility Score: inf
ROOT
ATOM      1  C   UNL     1      11.323  10.593 -12.255  1.00  0.00     0.023 C 
ENDROOT
BRANCH   1   2
ATOM      2  C   UNL     1      10.325   9.629 -12.891  1.00  0.00     0.116 C 
BRANCH   2   3
ATOM      3  N   UNL     1       9.005   9.706 -12.292  1.00  0.00    -0.355 N 
ATOM      4  O   UNL     1       7.846   9.217 -14.220  1.00  0.00    -0.273 OA
ATOM      5  C   UNL     1       7.857   9.406 -13.006  1.00  0.00     0.239 C 
ATOM      6  H   UNL     1       8.924   9.980 -11.350  1.00  0.00     0.163 HD
BRANCH   5   7
ATOM      7  C   UNL     1       6.602   9.279 -12.158  1.00  0.00     0.222 C 
BRANCH   7   8
ATOM      8  N   UNL     1       6.465   7.967 -11.528  1.00  0.00    -0.337 N 
ATOM      9  C   UNL     1       7.511   7.183 -11.120  1.00  0.00     0.095 A 
ATOM     10  C   UNL     1       5.269   7.361 -11.177  1.00  0.00     0.049 A 
ATOM     11  C   UNL     1       7.006   6.083 -10.475  1.00  0.00     0.001 A 
ATOM     12  C   UNL     1       5.589   6.158 -10.527  1.00  0.00     0.007 A 
ATOM     13  C   UNL     1       3.936   7.762 -11.368  1.00  0.00     0.027 A 
ATOM     14  C   UNL     1       4.542   5.333 -10.064  1.00  0.00     0.011 A 
ATOM     15  C   UNL     1       2.919   6.923 -10.901  1.00  0.00     0.002 A 
ATOM     16  C   UNL     1       3.214   5.725 -10.260  1.00  0.00     0.001 A 
BRANCH  11  17
ATOM     17  C   UNL     1       7.837   5.072  -9.918  1.00  0.00     0.031 C 
ATOM     18  C   UNL     1       8.785   5.258  -8.987  1.00  0.00     0.081 C 
ATOM     19  S   UNL     1       9.162   6.685  -8.108  1.00  0.00    -0.054 SA
ATOM     20  C   UNL     1       9.624   4.142  -8.509  1.00  0.00     0.266 C 
ATOM     21  C   UNL     1      10.160   5.808  -6.951  1.00  0.00     0.148 C 
ATOM     22  N   UNL     1      10.256   4.485  -7.332  1.00  0.00    -0.290 N 
ATOM     23  O   UNL     1       9.719   3.068  -9.101  1.00  0.00    -0.268 OA
ATOM     24  S   UNL     1      10.832   6.557  -5.623  1.00  0.00    -0.052 S 
BRANCH  22  25
ATOM     25  C   UNL     1      10.989   3.450  -6.602  1.00  0.00     0.159 C 
BRANCH  25  26
ATOM     26  C   UNL     1      10.089   2.592  -5.682  1.00  0.00     0.138 C 
ATOM     27  C   UNL     1       9.081   1.687  -6.382  1.00  0.00     0.036 C 
ATOM     28  O   UNL     1      10.945   1.681  -4.956  1.00  0.00    -0.376 OA
ATOM     29  C   UNL     1       9.922   0.487  -6.733  1.00  0.00     0.031 C 
ATOM     30  C   UNL     1      10.774   0.357  -5.490  1.00  0.00     0.160 C 
ENDBRANCH  25  26
ENDBRANCH  22  25
ENDBRANCH  11  17
ENDBRANCH   7   8
ENDBRANCH   5   7
ENDBRANCH   2   3
ENDBRANCH   1   2
BRANCH   1  31
ATOM     31  C   UNL     1      11.629  10.363 -10.767  1.00  0.00     0.023 C 
BRANCH  31  32
ATOM     32  C   UNL     1      12.191   8.987 -10.411  1.00  0.00     0.116 C 
BRANCH  32  33
ATOM     33  N   UNL     1      13.430   8.651 -11.079  1.00  0.00    -0.352 N 
ATOM     34  C   UNL     1      14.758   8.817 -10.790  1.00  0.00     0.251 C 
ATOM     35  H   UNL     1      13.285   8.197 -11.941  1.00  0.00     0.163 HD
ATOM     36  O   UNL     1      15.540   8.179 -11.501  1.00  0.00    -0.269 OA
BRANCH  34  37
ATOM     37  C   UNL     1      15.315   9.746  -9.767  1.00  0.00     0.039 A 
ATOM     38  C   UNL     1      14.589  10.425  -8.789  1.00  0.00     0.014 A 
ATOM     39  C   UNL     1      16.701   9.989  -9.862  1.00  0.00     0.014 A 
ATOM     40  C   UNL     1      15.208  11.401  -8.007  1.00  0.00     0.010 A 
ATOM     41  C   UNL     1      17.324  10.951  -9.075  1.00  0.00     0.010 A 
ATOM     42  C   UNL     1      16.565  11.696  -8.182  1.00  0.00    -0.014 A 
BRANCH  42  43
ATOM     43  C   UNL     1      17.193  12.678  -7.293  1.00  0.00     0.031 A 
ATOM     44  C   UNL     1      17.145  12.288  -5.852  1.00  0.00     0.074 A 
ATOM     45  C   UNL     1      17.873  13.761  -7.733  1.00  0.00     0.049 A 
ATOM     46  N   UNL     1      16.558  12.902  -4.878  1.00  0.00    -0.248 NA
ATOM     47  C   UNL     1      17.685  10.967  -5.478  1.00  0.00     0.031 C 
ATOM     48  C   UNL     1      18.200  14.106  -9.120  1.00  0.00     0.029 A 
ATOM     49  N   UNL     1      18.500  14.751  -7.028  1.00  0.00    -0.354 N 
ATOM     50  C   UNL     1      16.848  12.164  -3.730  1.00  0.00     0.074 A 
ATOM     51  C   UNL     1      17.386  10.909  -4.180  1.00  0.00     0.031 C 
ATOM     52  C   UNL     1      19.142  15.077  -9.137  1.00  0.00     0.029 A 
ATOM     53  C   UNL     1      19.392  15.520  -7.777  1.00  0.00     0.049 A 
ATOM     54  H   UNL     1      18.335  14.908  -6.071  1.00  0.00     0.167 HD
ATOM     55  C   UNL     1      16.849  12.742  -2.498  1.00  0.00     0.037 A 
ATOM     56  C   UNL     1      20.296  16.426  -7.313  1.00  0.00     0.037 A 
ATOM     57  C   UNL     1      16.116  13.980  -2.507  1.00  0.00     0.049 A 
ATOM     58  C   UNL     1      19.834  16.835  -5.965  1.00  0.00     0.074 A 
ATOM     59  C   UNL     1      14.802  14.342  -2.718  1.00  0.00     0.029 A 
ATOM     60  N   UNL     1      16.856  15.129  -2.619  1.00  0.00    -0.354 N 
ATOM     61  N   UNL     1      18.730  17.495  -5.741  1.00  0.00    -0.248 NA
ATOM     62  C   UNL     1      20.385  16.132  -4.818  1.00  0.00     0.031 C 
ATOM     63  C   UNL     1      14.864  15.608  -3.368  1.00  0.00     0.029 A 
ATOM     64  C   UNL     1      16.205  15.983  -3.468  1.00  0.00     0.049 A 
ATOM     65  H   UNL     1      17.711  15.310  -2.166  1.00  0.00     0.167 HD
ATOM     66  C   UNL     1      18.224  16.947  -4.572  1.00  0.00     0.074 A 
ATOM     67  C   UNL     1      19.334  16.190  -3.998  1.00  0.00     0.031 C 
ATOM     68  C   UNL     1      16.880  16.932  -4.331  1.00  0.00     0.037 A 
BRANCH  55  69
ATOM     69  C   UNL     1      17.845  12.412  -1.404  1.00  0.00     0.058 A 
ATOM     70  C   UNL     1      17.700  13.011  -0.134  1.00  0.00     0.135 A 
ATOM     71  C   UNL     1      19.089  11.784  -1.637  1.00  0.00     0.135 A 
ATOM     72  F   UNL     1      16.566  13.648   0.198  1.00  0.00    -0.206 F 
ATOM     73  C   UNL     1      18.737  13.046   0.802  1.00  0.00     0.059 A 
ATOM     74  C   UNL     1      20.117  11.763  -0.700  1.00  0.00     0.059 A 
ATOM     75  F   UNL     1      19.409  11.242  -2.818  1.00  0.00    -0.206 F 
ATOM     76  C   UNL     1      19.947  12.428   0.502  1.00  0.00     0.060 A 
BRANCH  76  77
ATOM     77  S   UNL     1      21.314  12.546   1.669  1.00  0.00     0.124 S 
ATOM     78  O   UNL     1      21.613  13.973   1.627  1.00  0.00    -0.237 OA
ATOM     79  O   UNL     1      20.701  12.056   2.899  1.00  0.00    -0.237 OA
ATOM     80  O   UNL     1      22.328  11.671   1.089  1.00  0.00    -0.744 OA
ENDBRANCH  76  77
ENDBRANCH  55  69
BRANCH  56  81
ATOM     81  C   UNL     1      21.695  16.675  -7.784  1.00  0.00     0.058 A 
ATOM     82  C   UNL     1      22.463  17.749  -7.286  1.00  0.00     0.135 A 
ATOM     83  C   UNL     1      22.410  15.701  -8.508  1.00  0.00     0.135 A 
ATOM     84  F   UNL     1      21.879  18.719  -6.566  1.00  0.00    -0.206 F 
ATOM     85  C   UNL     1      23.855  17.821  -7.449  1.00  0.00     0.059 A 
ATOM     86  C   UNL     1      23.794  15.756  -8.691  1.00  0.00     0.059 A 
ATOM     87  F   UNL     1      21.799  14.608  -8.986  1.00  0.00    -0.206 F 
ATOM     88  C   UNL     1      24.516  16.805  -8.136  1.00  0.00     0.060 A 
BRANCH  88  89
ATOM     89  S   UNL     1      26.325  16.798  -8.210  1.00  0.00     0.124 S 
ATOM     90  O   UNL     1      26.601  17.974  -9.028  1.00  0.00    -0.237 OA
ATOM     91  O   UNL     1      26.692  16.902  -6.802  1.00  0.00    -0.237 OA
ATOM     92  O   UNL     1      26.635  15.516  -8.838  1.00  0.00    -0.744 OA
ENDBRANCH  88  89
ENDBRANCH  56  81
BRANCH  68  93
ATOM     93  C   UNL     1      15.987  17.813  -5.169  1.00  0.00     0.058 A 
ATOM     94  C   UNL     1      15.726  17.614  -6.536  1.00  0.00     0.135 A 
ATOM     95  C   UNL     1      15.209  18.770  -4.500  1.00  0.00     0.135 A 
ATOM     96  F   UNL     1      16.370  16.666  -7.232  1.00  0.00    -0.206 F 
ATOM     97  C   UNL     1      14.732  18.335  -7.205  1.00  0.00     0.059 A 
ATOM     98  C   UNL     1      14.194  19.476  -5.138  1.00  0.00     0.059 A 
ATOM     99  F   UNL     1      15.379  18.970  -3.182  1.00  0.00    -0.206 F 
ATOM    100  C   UNL     1      13.959  19.251  -6.492  1.00  0.00     0.060 A 
BRANCH 100 101
ATOM    101  S   UNL     1      12.582  20.076  -7.322  1.00  0.00     0.124 S 
ATOM    102  O   UNL     1      13.268  20.948  -8.269  1.00  0.00    -0.237 OA
ATOM    103  O   UNL     1      11.849  18.956  -7.907  1.00  0.00    -0.237 OA
ATOM    104  O   UNL     1      11.887  20.762  -6.234  1.00  0.00    -0.744 OA
ENDBRANCH 100 101
ENDBRANCH  68  93
ENDBRANCH  42  43
ENDBRANCH  34  37
ENDBRANCH  32  33
ENDBRANCH  31  32
ENDBRANCH   1  31
TORSDOF 18
