REMARK SMILES NS(=O)(=O)c1ccc(C#Cc2cc(Cl)cc3c2O[C@H](C(F)(F)F)C(C(=O)NCCCCNC(=O)c2ccc(-c4c5nc(c(-c6c(F)cc(S(=O)(=O)[O-])cc6F)c6ccc([nH]6)c(-c6c(F)cc(S(=O)(=O)[O-])cc6F)c6nc(c(-c7c(F)cc(S(=O)(=O)[O-])cc7F)c7ccc4[nH]7)C=C6)C=C5)cc2)=C3)cc1
REMARK SMILES IDX 29 1 28 2 27 3 25 4 26 5 24 7 11 8 12 9 17 10 13 11 16 12
REMARK SMILES IDX 18 13 14 14 15 15 101 16 19 17 10 18 9 19 8 20 5 21 6 22
REMARK SMILES IDX 103 23 7 24 102 25 2 26 3 27 4 28 1 29 20 32 21 33 22 34
REMARK SMILES IDX 23 35 30 36 31 37 32 38 33 39 34 41 35 42 36 43 100 44 37 45
REMARK SMILES IDX 99 46 38 47 39 48 40 49 93 50 41 51 98 52 92 53 94 54 42 55
REMARK SMILES IDX 97 56 91 57 90 58 43 60 77 61 56 62 76 63 57 64 60 65 75 66
REMARK SMILES IDX 95 67 58 68 59 69 74 71 96 72 61 73 44 74 45 75 54 76 46 77
REMARK SMILES IDX 47 78 53 79 55 80 48 81 49 82 50 83 51 84 52 85 78 86 79 87
REMARK SMILES IDX 88 88 80 89 81 90 87 91 89 92 82 93 83 94 84 95 85 96 86 97
REMARK SMILES IDX 62 98 63 99 72 100 64 101 65 102 71 103 73 104 66 105 67 106
REMARK SMILES IDX 68 107 69 108 70 109
REMARK H PARENT 27 6 1 30 1 31 32 40 94 59 60 70
REMARK Flexibility Score: inf
ROOT
ATOM      1  C   UNL     1      -0.354  -0.086 -13.015  1.00  0.00     0.023 C 
ENDROOT
BRANCH   1   2
ATOM      2  C   UNL     1       0.977   0.654 -13.007  1.00  0.00     0.116 C 
BRANCH   2   3
ATOM      3  N   UNL     1       0.911   1.919 -13.720  1.00  0.00    -0.352 N 
ATOM      4  C   UNL     1       0.985   3.235 -13.404  1.00  0.00     0.251 C 
ATOM      5  O   UNL     1       0.935   4.024 -14.352  1.00  0.00    -0.270 OA
ATOM      6  H   UNL     1       0.779   1.785 -14.686  1.00  0.00     0.163 HD
BRANCH   4   7
ATOM      7  C   UNL     1       1.117   3.766 -12.014  1.00  0.00     0.067 C 
ATOM      8  C   UNL     1       1.236   5.312  -8.106  1.00  0.00     0.069 A 
ATOM      9  C   UNL     1       1.264   6.690  -7.906  1.00  0.00     0.041 A 
ATOM     10  C   UNL     1       1.162   4.807  -9.411  1.00  0.00     0.143 A 
ATOM     11  C   UNL     1       1.219   7.546  -9.009  1.00  0.00     0.043 A 
ATOM     12  C   UNL     1       1.117   5.662 -10.518  1.00  0.00     0.020 A 
ATOM     13  O   UNL     1       1.077   3.451  -9.541  1.00  0.00    -0.474 OA
ATOM     14  Cl  UNL     1       1.239   9.249  -8.758  1.00  0.00    -0.084 Cl
ATOM     15  C   UNL     1       1.147   7.042 -10.310  1.00  0.00     0.032 A 
ATOM     16  C   UNL     1       0.995   5.097 -11.859  1.00  0.00     0.025 C 
ATOM     17  C   UNL     1       1.400   2.891 -10.832  1.00  0.00     0.314 C 
BRANCH   8  18
ATOM     18  C   UNL     1       1.274   4.415  -6.987  1.00  0.00    -0.058 C 
ATOM     19  C   UNL     1       1.268   3.607  -6.093  1.00  0.00    -0.062 C 
BRANCH  19  20
ATOM     20  C   UNL     1       1.179   2.634  -5.047  1.00  0.00     0.025 A 
ATOM     21  C   UNL     1       0.814   0.743  -3.027  1.00  0.00     0.082 A 
ATOM     22  C   UNL     1       0.670   2.103  -2.737  1.00  0.00     0.023 A 
ATOM     23  C   UNL     1       1.178   0.323  -4.310  1.00  0.00     0.023 A 
ATOM     24  C   UNL     1       0.855   3.046  -3.751  1.00  0.00     0.018 A 
ATOM     25  C   UNL     1       1.356   1.273  -5.322  1.00  0.00     0.018 A 
BRANCH  21  26
ATOM     26  S   UNL     1       0.497  -0.463  -1.774  1.00  0.00     0.238 S 
ATOM     27  O   UNL     1       1.251  -1.661  -2.061  1.00  0.00    -0.207 OA
ATOM     28  O   UNL     1      -0.920  -0.475  -1.498  1.00  0.00    -0.207 OA
BRANCH  26  29
ATOM     29  N   UNL     1       1.226   0.186  -0.402  1.00  0.00    -0.225 NA
ATOM     30  H   UNL     1       1.094  -0.449   0.385  1.00  0.00     0.137 HD
ATOM     31  H   UNL     1       0.801   1.088  -0.186  1.00  0.00     0.137 HD
ENDBRANCH  26  29
ENDBRANCH  21  26
ENDBRANCH  19  20
ENDBRANCH   8  18
BRANCH  17  32
ATOM     32  C   UNL     1       2.853   2.381 -10.807  1.00  0.00     0.429 C 
ATOM     33  F   UNL     1       2.966   1.314  -9.976  1.00  0.00    -0.167 F 
ATOM     34  F   UNL     1       3.290   1.969 -12.020  1.00  0.00    -0.167 F 
ATOM     35  F   UNL     1       3.723   3.324 -10.378  1.00  0.00    -0.167 F 
ENDBRANCH  17  32
ENDBRANCH   4   7
ENDBRANCH   2   3
ENDBRANCH   1   2
BRANCH   1  36
ATOM     36  C   UNL     1      -0.548  -0.954 -14.251  1.00  0.00     0.023 C 
BRANCH  36  37
ATOM     37  C   UNL     1       0.576  -1.951 -14.508  1.00  0.00     0.116 C 
BRANCH  37  38
ATOM     38  N   UNL     1       0.851  -2.841 -13.383  1.00  0.00    -0.352 N 
ATOM     39  C   UNL     1       1.099  -4.196 -13.427  1.00  0.00     0.251 C 
ATOM     40  H   UNL     1       0.860  -2.425 -12.491  1.00  0.00     0.163 HD
ATOM     41  O   UNL     1       1.223  -4.852 -12.400  1.00  0.00    -0.269 OA
BRANCH  39  42
ATOM     42  C   UNL     1       1.155  -4.837 -14.754  1.00  0.00     0.039 A 
ATOM     43  C   UNL     1       1.956  -4.273 -15.749  1.00  0.00     0.014 A 
ATOM     44  C   UNL     1       0.264  -5.869 -15.049  1.00  0.00     0.014 A 
ATOM     45  C   UNL     1       1.704  -4.589 -17.075  1.00  0.00     0.010 A 
ATOM     46  C   UNL     1       0.101  -6.267 -16.376  1.00  0.00     0.010 A 
ATOM     47  C   UNL     1       0.769  -5.584 -17.407  1.00  0.00    -0.014 A 
BRANCH  47  48
ATOM     48  C   UNL     1       0.493  -5.889 -18.835  1.00  0.00     0.031 A 
ATOM     49  C   UNL     1      -0.889  -5.714 -19.411  1.00  0.00     0.074 A 
ATOM     50  C   UNL     1       1.508  -6.295 -19.623  1.00  0.00     0.049 A 
ATOM     51  N   UNL     1      -1.321  -5.996 -20.614  1.00  0.00    -0.248 NA
ATOM     52  C   UNL     1      -1.922  -5.155 -18.524  1.00  0.00     0.031 C 
ATOM     53  C   UNL     1       2.897  -6.467 -19.187  1.00  0.00     0.029 A 
ATOM     54  N   UNL     1       1.536  -6.624 -20.953  1.00  0.00    -0.354 N 
ATOM     55  C   UNL     1      -2.673  -5.670 -20.624  1.00  0.00     0.074 A 
ATOM     56  C   UNL     1      -3.000  -5.200 -19.296  1.00  0.00     0.031 C 
ATOM     57  C   UNL     1       3.646  -6.828 -20.237  1.00  0.00     0.029 A 
ATOM     58  C   UNL     1       2.781  -7.000 -21.397  1.00  0.00     0.049 A 
ATOM     59  H   UNL     1       0.742  -6.594 -21.533  1.00  0.00     0.167 HD
ATOM     60  C   UNL     1      -3.555  -5.745 -21.651  1.00  0.00     0.037 A 
ATOM     61  C   UNL     1       3.181  -7.466 -22.594  1.00  0.00     0.037 A 
ATOM     62  C   UNL     1      -3.212  -6.202 -22.975  1.00  0.00     0.049 A 
ATOM     63  C   UNL     1       2.166  -7.615 -23.691  1.00  0.00     0.074 A 
ATOM     64  C   UNL     1      -4.031  -6.309 -24.087  1.00  0.00     0.029 A 
ATOM     65  N   UNL     1      -1.951  -6.629 -23.370  1.00  0.00    -0.354 N 
ATOM     66  N   UNL     1       0.890  -7.312 -23.681  1.00  0.00    -0.248 NA
ATOM     67  C   UNL     1       2.645  -8.174 -24.961  1.00  0.00     0.031 C 
ATOM     68  C   UNL     1      -3.282  -6.855 -25.133  1.00  0.00     0.029 A 
ATOM     69  C   UNL     1      -1.978  -7.026 -24.698  1.00  0.00     0.049 A 
ATOM     70  H   UNL     1      -1.155  -6.648 -22.791  1.00  0.00     0.167 HD
ATOM     71  C   UNL     1       0.416  -7.624 -24.950  1.00  0.00     0.074 A 
ATOM     72  C   UNL     1       1.550  -8.114 -25.707  1.00  0.00     0.031 C 
ATOM     73  C   UNL     1      -0.844  -7.518 -25.441  1.00  0.00     0.037 A 
BRANCH  60  74
ATOM     74  C   UNL     1      -4.983  -5.337 -21.394  1.00  0.00     0.058 A 
ATOM     75  C   UNL     1      -5.345  -3.998 -21.177  1.00  0.00     0.135 A 
ATOM     76  C   UNL     1      -6.016  -6.290 -21.436  1.00  0.00     0.135 A 
ATOM     77  F   UNL     1      -4.401  -3.045 -21.111  1.00  0.00    -0.206 F 
ATOM     78  C   UNL     1      -6.672  -3.621 -20.994  1.00  0.00     0.059 A 
ATOM     79  C   UNL     1      -7.353  -5.932 -21.287  1.00  0.00     0.059 A 
ATOM     80  F   UNL     1      -5.731  -7.586 -21.639  1.00  0.00    -0.206 F 
ATOM     81  C   UNL     1      -7.670  -4.595 -21.057  1.00  0.00     0.060 A 
BRANCH  81  82
ATOM     82  S   UNL     1      -9.386  -4.081 -20.833  1.00  0.00     0.124 S 
ATOM     83  O   UNL     1      -9.385  -3.659 -19.435  1.00  0.00    -0.237 OA
ATOM     84  O   UNL     1      -9.519  -3.012 -21.817  1.00  0.00    -0.237 OA
ATOM     85  O   UNL     1     -10.148  -5.293 -21.119  1.00  0.00    -0.744 OA
ENDBRANCH  81  82
ENDBRANCH  60  74
BRANCH  61  86
ATOM     86  C   UNL     1       4.607  -7.832 -22.803  1.00  0.00     0.058 A 
ATOM     87  C   UNL     1       5.419  -7.089 -23.670  1.00  0.00     0.135 A 
ATOM     88  C   UNL     1       5.195  -8.906 -22.114  1.00  0.00     0.135 A 
ATOM     89  F   UNL     1       4.902  -6.057 -24.355  1.00  0.00    -0.206 F 
ATOM     90  C   UNL     1       6.761  -7.402 -23.857  1.00  0.00     0.059 A 
ATOM     91  C   UNL     1       6.542  -9.216 -22.257  1.00  0.00     0.059 A 
ATOM     92  F   UNL     1       4.465  -9.639 -21.259  1.00  0.00    -0.206 F 
ATOM     93  C   UNL     1       7.315  -8.463 -23.138  1.00  0.00     0.060 A 
BRANCH  93  94
ATOM     94  S   UNL     1       9.072  -8.820 -23.350  1.00  0.00     0.124 S 
ATOM     95  O   UNL     1       9.112  -9.292 -24.729  1.00  0.00    -0.237 OA
ATOM     96  O   UNL     1       9.677  -7.515 -23.102  1.00  0.00    -0.237 OA
ATOM     97  O   UNL     1       9.336  -9.831 -22.330  1.00  0.00    -0.744 OA
ENDBRANCH  93  94
ENDBRANCH  61  86
BRANCH  73  98
ATOM     98  C   UNL     1      -1.060  -7.918 -26.876  1.00  0.00     0.058 A 
ATOM     99  C   UNL     1      -0.976  -9.257 -27.290  1.00  0.00     0.135 A 
ATOM    100  C   UNL     1      -1.392  -6.955 -27.844  1.00  0.00     0.135 A 
ATOM    101  F   UNL     1      -0.658 -10.219 -26.409  1.00  0.00    -0.206 F 
ATOM    102  C   UNL     1      -1.175  -9.622 -28.617  1.00  0.00     0.059 A 
ATOM    103  C   UNL     1      -1.632  -7.303 -29.170  1.00  0.00     0.059 A 
ATOM    104  F   UNL     1      -1.499  -5.661 -27.503  1.00  0.00    -0.206 F 
ATOM    105  C   UNL     1      -1.504  -8.637 -29.550  1.00  0.00     0.060 A 
BRANCH 105 106
ATOM    106  S   UNL     1      -1.767  -9.131 -31.266  1.00  0.00     0.124 S 
ATOM    107  O   UNL     1      -0.419  -9.515 -31.672  1.00  0.00    -0.237 OA
ATOM    108  O   UNL     1      -2.725 -10.224 -31.130  1.00  0.00    -0.237 OA
ATOM    109  O   UNL     1      -2.289  -7.920 -31.893  1.00  0.00    -0.744 OA
ENDBRANCH 105 106
ENDBRANCH  73  98
ENDBRANCH  47  48
ENDBRANCH  39  42
ENDBRANCH  37  38
ENDBRANCH  36  37
ENDBRANCH   1  36
TORSDOF 19
