REMARK SMILES NC(=O)c1ccc(C(=O)NCCCCNC(=O)c2ccc(-c3c4nc(c(-c5c(F)cc(S(=O)(=O)[O-])cc5F)c5ccc([nH]5)c(-c5c(F)cc(S(=O)(=O)[O-])cc5F)c5nc(c(-c6c(F)cc(S(=O)(=O)[O-])cc6F)c6ccc3[nH]6)C=C5)C=C4)cc2)c(F)c1
REMARK SMILES IDX 13 1 12 2 11 3 10 4 8 5 9 6 7 8 4 9 5 10 86 11 6 12 84 13
REMARK SMILES IDX 85 14 2 15 1 16 3 19 14 20 15 21 16 22 17 24 18 25 19 26
REMARK SMILES IDX 83 27 20 28 82 29 21 30 22 31 23 32 76 33 24 34 81 35 75 36
REMARK SMILES IDX 77 37 25 38 80 39 74 40 73 41 26 43 60 44 39 45 59 46 40 47
REMARK SMILES IDX 43 48 58 49 78 50 41 51 42 52 57 54 79 55 44 56 27 57 28 58
REMARK SMILES IDX 37 59 29 60 30 61 36 62 38 63 31 64 32 65 33 66 34 67 35 68
REMARK SMILES IDX 61 69 62 70 71 71 63 72 64 73 70 74 72 75 65 76 66 77 67 78
REMARK SMILES IDX 68 79 69 80 45 81 46 82 55 83 47 84 48 85 54 86 56 87 49 88
REMARK SMILES IDX 50 89 51 90 52 91 53 92
REMARK H PARENT 10 7 1 17 1 18 15 23 77 42 43 53
REMARK Flexibility Score: inf
ROOT
ATOM      1  C   UNL     1       2.728   2.805  -8.725  1.00  0.00     0.023 C 
ENDROOT
BRANCH   1   2
ATOM      2  C   UNL     1       1.956   2.271  -7.515  1.00  0.00     0.023 C 
BRANCH   2   3
ATOM      3  C   UNL     1       1.676   0.765  -7.550  1.00  0.00     0.116 C 
BRANCH   3   4
ATOM      4  N   UNL     1       2.826   0.022  -7.077  1.00  0.00    -0.352 N 
ATOM      5  C   UNL     1       3.187  -0.459  -5.848  1.00  0.00     0.254 C 
ATOM      6  O   UNL     1       4.270  -1.050  -5.791  1.00  0.00    -0.269 OA
ATOM      7  H   UNL     1       3.482  -0.177  -7.784  1.00  0.00     0.163 HD
BRANCH   5   8
ATOM      8  C   UNL     1       2.376  -0.378  -4.598  1.00  0.00     0.075 A 
ATOM      9  C   UNL     1       1.063  -0.399  -2.094  1.00  0.00     0.042 A 
ATOM     10  C   UNL     1       2.069  -1.327  -2.353  1.00  0.00     0.015 A 
ATOM     11  C   UNL     1       0.705   0.527  -3.069  1.00  0.00     0.054 A 
ATOM     12  C   UNL     1       2.708  -1.319  -3.599  1.00  0.00     0.018 A 
ATOM     13  C   UNL     1       1.383   0.554  -4.290  1.00  0.00     0.136 A 
ATOM     14  F   UNL     1       1.061   1.563  -5.102  1.00  0.00    -0.206 F 
BRANCH   9  15
ATOM     15  C   UNL     1       0.370  -0.350  -0.790  1.00  0.00     0.248 C 
ATOM     16  N   UNL     1       1.168  -0.431   0.316  1.00  0.00    -0.366 N 
ATOM     17  H   UNL     1       0.768  -0.404   1.215  1.00  0.00     0.159 HD
ATOM     18  H   UNL     1       2.143  -0.517   0.213  1.00  0.00     0.159 HD
ATOM     19  O   UNL     1      -0.837  -0.193  -0.712  1.00  0.00    -0.270 OA
ENDBRANCH   9  15
ENDBRANCH   5   8
ENDBRANCH   3   4
ENDBRANCH   2   3
ENDBRANCH   1   2
BRANCH   1  20
ATOM     20  C   UNL     1       1.997   2.691 -10.058  1.00  0.00     0.116 C 
BRANCH  20  21
ATOM     21  N   UNL     1       0.696   3.343 -10.064  1.00  0.00    -0.352 N 
ATOM     22  C   UNL     1       0.027   3.902 -11.126  1.00  0.00     0.251 C 
ATOM     23  H   UNL     1       0.235   3.389  -9.195  1.00  0.00     0.163 HD
ATOM     24  O   UNL     1      -1.029   4.499 -10.949  1.00  0.00    -0.269 OA
BRANCH  22  25
ATOM     25  C   UNL     1       0.622   3.816 -12.476  1.00  0.00     0.039 A 
ATOM     26  C   UNL     1       0.767   4.989 -13.220  1.00  0.00     0.014 A 
ATOM     27  C   UNL     1       1.073   2.594 -12.981  1.00  0.00     0.014 A 
ATOM     28  C   UNL     1       1.434   4.947 -14.446  1.00  0.00     0.010 A 
ATOM     29  C   UNL     1       1.791   2.565 -14.173  1.00  0.00     0.010 A 
ATOM     30  C   UNL     1       1.985   3.742 -14.912  1.00  0.00    -0.014 A 
BRANCH  30  31
ATOM     31  C   UNL     1       2.785   3.696 -16.162  1.00  0.00     0.031 A 
ATOM     32  C   UNL     1       2.293   2.907 -17.343  1.00  0.00     0.074 A 
ATOM     33  C   UNL     1       3.985   4.308 -16.204  1.00  0.00     0.049 A 
ATOM     34  N   UNL     1       2.887   2.681 -18.486  1.00  0.00    -0.248 NA
ATOM     35  C   UNL     1       0.974   2.266 -17.214  1.00  0.00     0.031 C 
ATOM     36  C   UNL     1       4.591   5.059 -15.102  1.00  0.00     0.029 A 
ATOM     37  N   UNL     1       4.918   4.386 -17.208  1.00  0.00    -0.354 N 
ATOM     38  C   UNL     1       2.025   1.863 -19.205  1.00  0.00     0.074 A 
ATOM     39  C   UNL     1       0.887   1.594 -18.354  1.00  0.00     0.031 C 
ATOM     40  C   UNL     1       5.781   5.538 -15.497  1.00  0.00     0.029 A 
ATOM     41  C   UNL     1       6.041   5.100 -16.865  1.00  0.00     0.049 A 
ATOM     42  H   UNL     1       4.793   3.969 -18.091  1.00  0.00     0.167 HD
ATOM     43  C   UNL     1       2.162   1.397 -20.468  1.00  0.00     0.037 A 
ATOM     44  C   UNL     1       7.158   5.368 -17.570  1.00  0.00     0.037 A 
ATOM     45  C   UNL     1       3.278   1.703 -21.324  1.00  0.00     0.049 A 
ATOM     46  C   UNL     1       7.277   4.855 -18.979  1.00  0.00     0.074 A 
ATOM     47  C   UNL     1       3.473   1.335 -22.643  1.00  0.00     0.029 A 
ATOM     48  N   UNL     1       4.383   2.452 -20.949  1.00  0.00    -0.354 N 
ATOM     49  N   UNL     1       6.426   4.128 -19.662  1.00  0.00    -0.248 NA
ATOM     50  C   UNL     1       8.502   5.199 -19.714  1.00  0.00     0.031 C 
ATOM     51  C   UNL     1       4.713   1.832 -23.057  1.00  0.00     0.029 A 
ATOM     52  C   UNL     1       5.271   2.544 -22.008  1.00  0.00     0.049 A 
ATOM     53  H   UNL     1       4.517   2.858 -20.062  1.00  0.00     0.167 HD
ATOM     54  C   UNL     1       7.004   3.942 -20.913  1.00  0.00     0.074 A 
ATOM     55  C   UNL     1       8.271   4.643 -20.897  1.00  0.00     0.031 C 
ATOM     56  C   UNL     1       6.527   3.252 -21.977  1.00  0.00     0.037 A 
BRANCH  43  57
ATOM     57  C   UNL     1       1.070   0.525 -21.020  1.00  0.00     0.058 A 
ATOM     58  C   UNL     1       1.296  -0.840 -21.255  1.00  0.00     0.135 A 
ATOM     59  C   UNL     1      -0.178   1.057 -21.384  1.00  0.00     0.135 A 
ATOM     60  F   UNL     1       2.468  -1.400 -20.918  1.00  0.00    -0.206 F 
ATOM     61  C   UNL     1       0.329  -1.644 -21.850  1.00  0.00     0.059 A 
ATOM     62  C   UNL     1      -1.168   0.266 -21.958  1.00  0.00     0.059 A 
ATOM     63  F   UNL     1      -0.452   2.352 -21.158  1.00  0.00    -0.206 F 
ATOM     64  C   UNL     1      -0.898  -1.081 -22.203  1.00  0.00     0.060 A 
BRANCH  64  65
ATOM     65  S   UNL     1      -2.149  -2.140 -22.959  1.00  0.00     0.124 S 
ATOM     66  O   UNL     1      -1.587  -2.368 -24.285  1.00  0.00    -0.237 OA
ATOM     67  O   UNL     1      -2.157  -3.293 -22.063  1.00  0.00    -0.237 OA
ATOM     68  O   UNL     1      -3.356  -1.319 -22.918  1.00  0.00    -0.744 OA
ENDBRANCH  64  65
ENDBRANCH  43  57
BRANCH  44  69
ATOM     69  C   UNL     1       8.238   6.185 -16.957  1.00  0.00     0.058 A 
ATOM     70  C   UNL     1       9.042   5.676 -15.926  1.00  0.00     0.135 A 
ATOM     71  C   UNL     1       8.463   7.507 -17.370  1.00  0.00     0.135 A 
ATOM     72  F   UNL     1       8.860   4.421 -15.487  1.00  0.00    -0.206 F 
ATOM     73  C   UNL     1      10.016   6.455 -15.310  1.00  0.00     0.059 A 
ATOM     74  C   UNL     1       9.447   8.299 -16.785  1.00  0.00     0.059 A 
ATOM     75  F   UNL     1       7.727   8.033 -18.361  1.00  0.00    -0.206 F 
ATOM     76  C   UNL     1      10.207   7.768 -15.743  1.00  0.00     0.060 A 
BRANCH  76  77
ATOM     77  S   UNL     1      11.467   8.768 -14.923  1.00  0.00     0.124 S 
ATOM     78  O   UNL     1      10.846   9.008 -13.624  1.00  0.00    -0.237 OA
ATOM     79  O   UNL     1      12.618   7.871 -14.921  1.00  0.00    -0.237 OA
ATOM     80  O   UNL     1      11.586   9.937 -15.788  1.00  0.00    -0.744 OA
ENDBRANCH  76  77
ENDBRANCH  44  69
BRANCH  56  81
ATOM     81  C   UNL     1       7.363   3.225 -23.225  1.00  0.00     0.058 A 
ATOM     82  C   UNL     1       6.961   3.938 -24.365  1.00  0.00     0.135 A 
ATOM     83  C   UNL     1       8.509   2.422 -23.320  1.00  0.00     0.135 A 
ATOM     84  F   UNL     1       5.868   4.717 -24.326  1.00  0.00    -0.206 F 
ATOM     85  C   UNL     1       7.654   3.837 -25.566  1.00  0.00     0.059 A 
ATOM     86  C   UNL     1       9.232   2.324 -24.505  1.00  0.00     0.059 A 
ATOM     87  F   UNL     1       8.940   1.731 -22.253  1.00  0.00    -0.206 F 
ATOM     88  C   UNL     1       8.785   3.021 -25.628  1.00  0.00     0.060 A 
BRANCH  88  89
ATOM     89  S   UNL     1       9.673   2.898 -27.195  1.00  0.00     0.124 S 
ATOM     90  O   UNL     1       8.757   2.091 -27.994  1.00  0.00    -0.237 OA
ATOM     91  O   UNL     1       9.797   4.298 -27.591  1.00  0.00    -0.237 OA
ATOM     92  O   UNL     1      10.925   2.246 -26.824  1.00  0.00    -0.744 OA
ENDBRANCH  88  89
ENDBRANCH  56  81
ENDBRANCH  30  31
ENDBRANCH  22  25
ENDBRANCH  20  21
ENDBRANCH   1  20
TORSDOF 15
