REMARK SMILES O=C(NCCCCNC(=O)[C@H]1O[C@@H](Oc2c(-c3cc(O)c(O)c(O)c3)oc3cc(O)cc(O)c3c2=O)[C@H](O)[C@@H](O)[C@@H]1O)c1ccc(-c2c3nc(c(-c4c(F)cc(S(=O)(=O)[O-])cc4F)c4ccc([nH]4)c(-c4c(F)cc(S(=O)(=O)[O-])cc4F)c4nc(c(-c5c(F)cc(S(=O)(=O)[O-])cc5F)c5ccc2[nH]5)C=C4)C=C3)cc1
REMARK SMILES IDX 6 1 5 2 4 3 3 4 1 5 2 6 43 8 44 9 108 10 45 11 107 12 46 13
REMARK SMILES IDX 47 14 48 15 101 16 49 17 106 18 100 19 102 20 50 21 105 22
REMARK SMILES IDX 99 23 98 24 51 26 85 27 64 28 84 29 65 30 68 31 83 32 103 33
REMARK SMILES IDX 66 34 67 35 82 37 104 38 69 39 52 40 53 41 62 42 54 43 55 44
REMARK SMILES IDX 61 45 63 46 56 47 57 48 58 49 59 50 60 51 86 52 87 53 96 54
REMARK SMILES IDX 88 55 89 56 95 57 97 58 90 59 91 60 92 61 93 62 94 63 70 64
REMARK SMILES IDX 71 65 80 66 72 67 73 68 79 69 81 70 74 71 75 72 76 73 77 74
REMARK SMILES IDX 78 75 7 76 8 77 9 78 10 80 11 81 12 82 41 83 13 84 39 85
REMARK SMILES IDX 37 86 42 87 14 89 15 90 16 91 35 92 26 93 34 94 36 95 27 96
REMARK SMILES IDX 32 97 28 98 31 99 29 100 17 101 18 102 25 103 19 104 23 105
REMARK SMILES IDX 21 106 20 107 24 109 22 111 33 113 30 115 40 117 38 119
REMARK H PARENT 3 7 102 25 68 36 8 79 42 88 20 108 24 110 22 112 33 114 30 116
REMARK H PARENT 40 118 38 120
REMARK Flexibility Score: inf
ROOT
ATOM      1  C   UNL     1       7.882  -3.940  -5.280  1.00  0.00     0.023 C 
ENDROOT
BRANCH   1   2
ATOM      2  C   UNL     1       8.319  -4.253  -6.710  1.00  0.00     0.023 C 
BRANCH   2   3
ATOM      3  C   UNL     1       7.268  -4.013  -7.785  1.00  0.00     0.116 C 
BRANCH   3   4
ATOM      4  N   UNL     1       6.849  -2.623  -7.884  1.00  0.00    -0.352 N 
ATOM      5  O   UNL     1       6.494  -0.635  -8.895  1.00  0.00    -0.269 OA
ATOM      6  C   UNL     1       6.759  -1.829  -9.004  1.00  0.00     0.251 C 
ATOM      7  H   UNL     1       6.595  -2.193  -7.036  1.00  0.00     0.163 HD
BRANCH   6   8
ATOM      8  C   UNL     1       7.026  -2.415 -10.336  1.00  0.00     0.039 A 
ATOM      9  C   UNL     1       6.468  -3.642 -10.699  1.00  0.00     0.014 A 
ATOM     10  C   UNL     1       7.881  -1.745 -11.216  1.00  0.00     0.014 A 
ATOM     11  C   UNL     1       6.899  -4.279 -11.857  1.00  0.00     0.010 A 
ATOM     12  C   UNL     1       8.237  -2.346 -12.428  1.00  0.00     0.010 A 
ATOM     13  C   UNL     1       7.786  -3.639 -12.738  1.00  0.00    -0.014 A 
BRANCH  13  14
ATOM     14  C   UNL     1       8.202  -4.330 -13.987  1.00  0.00     0.031 A 
ATOM     15  C   UNL     1       9.642  -4.699 -14.231  1.00  0.00     0.074 A 
ATOM     16  C   UNL     1       7.260  -4.653 -14.895  1.00  0.00     0.049 A 
ATOM     17  N   UNL     1      10.170  -5.324 -15.253  1.00  0.00    -0.248 NA
ATOM     18  C   UNL     1      10.617  -4.307 -13.203  1.00  0.00     0.031 C 
ATOM     19  C   UNL     1       5.833  -4.343 -14.772  1.00  0.00     0.029 A 
ATOM     20  N   UNL     1       7.351  -5.326 -16.085  1.00  0.00    -0.354 N 
ATOM     21  C   UNL     1      11.538  -5.377 -15.007  1.00  0.00     0.074 A 
ATOM     22  C   UNL     1      11.761  -4.697 -13.748  1.00  0.00     0.031 C 
ATOM     23  C   UNL     1       5.176  -4.872 -15.814  1.00  0.00     0.029 A 
ATOM     24  C   UNL     1       6.139  -5.499 -16.712  1.00  0.00     0.049 A 
ATOM     25  H   UNL     1       8.201  -5.654 -16.456  1.00  0.00     0.167 HD
ATOM     26  C   UNL     1      12.514  -5.946 -15.757  1.00  0.00     0.037 A 
ATOM     27  C   UNL     1       5.834  -6.085 -17.884  1.00  0.00     0.037 A 
ATOM     28  C   UNL     1      12.278  -6.636 -17.001  1.00  0.00     0.049 A 
ATOM     29  C   UNL     1       6.936  -6.692 -18.705  1.00  0.00     0.074 A 
ATOM     30  C   UNL     1      13.193  -7.282 -17.815  1.00  0.00     0.029 A 
ATOM     31  N   UNL     1      11.040  -6.763 -17.617  1.00  0.00    -0.354 N 
ATOM     32  N   UNL     1       8.218  -6.762 -18.439  1.00  0.00    -0.248 NA
ATOM     33  C   UNL     1       6.549  -7.300 -19.983  1.00  0.00     0.031 C 
ATOM     34  C   UNL     1      12.518  -7.754 -18.947  1.00  0.00     0.029 A 
ATOM     35  C   UNL     1      11.172  -7.456 -18.811  1.00  0.00     0.049 A 
ATOM     36  H   UNL     1      10.193  -6.413 -17.258  1.00  0.00     0.167 HD
ATOM     37  C   UNL     1       8.789  -7.450 -19.504  1.00  0.00     0.074 A 
ATOM     38  C   UNL     1       7.708  -7.779 -20.412  1.00  0.00     0.031 C 
ATOM     39  C   UNL     1      10.088  -7.783 -19.705  1.00  0.00     0.037 A 
BRANCH  26  40
ATOM     40  C   UNL     1      13.935  -5.817 -15.271  1.00  0.00     0.058 A 
ATOM     41  C   UNL     1      14.399  -6.494 -14.131  1.00  0.00     0.135 A 
ATOM     42  C   UNL     1      14.854  -5.017 -15.970  1.00  0.00     0.135 A 
ATOM     43  F   UNL     1      13.564  -7.265 -13.416  1.00  0.00    -0.206 F 
ATOM     44  C   UNL     1      15.708  -6.350 -13.680  1.00  0.00     0.059 A 
ATOM     45  C   UNL     1      16.176  -4.882 -15.554  1.00  0.00     0.059 A 
ATOM     46  F   UNL     1      14.470  -4.351 -17.071  1.00  0.00    -0.206 F 
ATOM     47  C   UNL     1      16.588  -5.536 -14.395  1.00  0.00     0.060 A 
BRANCH  47  48
ATOM     48  S   UNL     1      18.275  -5.337 -13.782  1.00  0.00     0.124 S 
ATOM     49  O   UNL     1      18.062  -4.480 -12.620  1.00  0.00    -0.237 OA
ATOM     50  O   UNL     1      18.666  -6.713 -13.490  1.00  0.00    -0.237 OA
ATOM     51  O   UNL     1      18.974  -4.714 -14.902  1.00  0.00    -0.744 OA
ENDBRANCH  47  48
ENDBRANCH  26  40
BRANCH  27  52
ATOM     52  C   UNL     1       4.418  -6.141 -18.331  1.00  0.00     0.058 A 
ATOM     53  C   UNL     1       3.716  -7.354 -18.351  1.00  0.00     0.135 A 
ATOM     54  C   UNL     1       3.726  -4.978 -18.705  1.00  0.00     0.135 A 
ATOM     55  F   UNL     1       4.336  -8.493 -18.006  1.00  0.00    -0.206 F 
ATOM     56  C   UNL     1       2.380  -7.416 -18.733  1.00  0.00     0.059 A 
ATOM     57  C   UNL     1       2.382  -5.010 -19.063  1.00  0.00     0.059 A 
ATOM     58  F   UNL     1       4.348  -3.789 -18.684  1.00  0.00    -0.206 F 
ATOM     59  C   UNL     1       1.720  -6.236 -19.081  1.00  0.00     0.060 A 
BRANCH  59  60
ATOM     60  S   UNL     1      -0.031  -6.321 -19.512  1.00  0.00     0.124 S 
ATOM     61  O   UNL     1       0.020  -6.952 -20.825  1.00  0.00    -0.237 OA
ATOM     62  O   UNL     1      -0.573  -7.137 -18.430  1.00  0.00    -0.237 OA
ATOM     63  O   UNL     1      -0.448  -4.921 -19.499  1.00  0.00    -0.744 OA
ENDBRANCH  59  60
ENDBRANCH  27  52
BRANCH  39  64
ATOM     64  C   UNL     1      10.407  -8.591 -20.934  1.00  0.00     0.058 A 
ATOM     65  C   UNL     1      10.360  -8.037 -22.223  1.00  0.00     0.135 A 
ATOM     66  C   UNL     1      10.794  -9.936 -20.813  1.00  0.00     0.135 A 
ATOM     67  F   UNL     1       9.989  -6.758 -22.396  1.00  0.00    -0.206 F 
ATOM     68  C   UNL     1      10.655  -8.796 -23.351  1.00  0.00     0.059 A 
ATOM     69  C   UNL     1      11.123 -10.705 -21.924  1.00  0.00     0.059 A 
ATOM     70  F   UNL     1      10.865 -10.513 -19.603  1.00  0.00    -0.206 F 
ATOM     71  C   UNL     1      11.035 -10.130 -23.191  1.00  0.00     0.060 A 
BRANCH  71  72
ATOM     72  S   UNL     1      11.434 -11.100 -24.660  1.00  0.00     0.124 S 
ATOM     73  O   UNL     1      10.109 -11.340 -25.222  1.00  0.00    -0.237 OA
ATOM     74  O   UNL     1      12.287 -10.189 -25.415  1.00  0.00    -0.237 OA
ATOM     75  O   UNL     1      12.108 -12.276 -24.118  1.00  0.00    -0.744 OA
ENDBRANCH  71  72
ENDBRANCH  39  64
ENDBRANCH  13  14
ENDBRANCH   6   8
ENDBRANCH   3   4
ENDBRANCH   2   3
ENDBRANCH   1   2
BRANCH   1  76
ATOM     76  C   UNL     1       6.529  -4.519  -4.869  1.00  0.00     0.116 C 
BRANCH  76  77
ATOM     77  N   UNL     1       6.451  -5.961  -5.045  1.00  0.00    -0.354 N 
ATOM     78  C   UNL     1       6.280  -6.931  -4.090  1.00  0.00     0.252 C 
ATOM     79  H   UNL     1       6.531  -6.283  -5.972  1.00  0.00     0.163 HD
ATOM     80  O   UNL     1       6.071  -8.087  -4.450  1.00  0.00    -0.272 OA
BRANCH  78  81
ATOM     81  C   UNL     1       6.394  -6.506  -2.625  1.00  0.00     0.242 C 
ATOM     82  O   UNL     1       5.173  -5.863  -2.215  1.00  0.00    -0.324 OA
ATOM     83  C   UNL     1       6.662  -7.666  -1.663  1.00  0.00     0.184 C 
ATOM     84  C   UNL     1       5.356  -5.118  -1.012  1.00  0.00     0.340 C 
ATOM     85  C   UNL     1       6.977  -7.044  -0.295  1.00  0.00     0.181 C 
ATOM     86  C   UNL     1       5.970  -5.975   0.116  1.00  0.00     0.214 C 
BRANCH  83  87
ATOM     87  O   UNL     1       7.765  -8.506  -2.012  1.00  0.00    -0.387 OA
ATOM     88  H   UNL     1       8.583  -7.984  -2.008  1.00  0.00     0.211 HD
ENDBRANCH  83  87
BRANCH  84  89
ATOM     89  O   UNL     1       4.166  -4.466  -0.494  1.00  0.00    -0.454 OA
BRANCH  89  90
ATOM     90  C   UNL     1       2.918  -4.989  -0.794  1.00  0.00     0.214 A 
ATOM     91  C   UNL     1       2.247  -5.858  -0.004  1.00  0.00     0.181 A 
ATOM     92  C   UNL     1       2.157  -4.361  -1.923  1.00  0.00     0.239 A 
ATOM     93  O   UNL     1       0.977  -6.333  -0.248  1.00  0.00    -0.452 OA
ATOM     94  C   UNL     1       0.714  -4.713  -2.039  1.00  0.00     0.111 A 
ATOM     95  O   UNL     1       2.717  -3.577  -2.683  1.00  0.00    -0.285 OA
ATOM     96  C   UNL     1       0.219  -5.711  -1.200  1.00  0.00     0.146 A 
ATOM     97  C   UNL     1      -0.176  -4.098  -2.935  1.00  0.00     0.134 A 
ATOM     98  C   UNL     1      -1.113  -6.126  -1.273  1.00  0.00     0.094 A 
ATOM     99  C   UNL     1      -1.517  -4.503  -3.010  1.00  0.00     0.093 A 
ATOM    100  C   UNL     1      -1.970  -5.524  -2.180  1.00  0.00     0.123 A 
BRANCH  91 101
ATOM    101  C   UNL     1       2.837  -6.479   1.194  1.00  0.00     0.029 A 
ATOM    102  C   UNL     1       3.097  -7.863   1.169  1.00  0.00     0.062 A 
ATOM    103  C   UNL     1       3.285  -5.701   2.276  1.00  0.00     0.062 A 
ATOM    104  C   UNL     1       3.921  -8.422   2.138  1.00  0.00     0.162 A 
ATOM    105  C   UNL     1       4.095  -6.286   3.244  1.00  0.00     0.162 A 
ATOM    106  C   UNL     1       4.450  -7.627   3.148  1.00  0.00     0.200 A 
BRANCH 104 107
ATOM    107  O   UNL     1       4.276  -9.734   2.019  1.00  0.00    -0.504 OA
ATOM    108  H   UNL     1       3.910 -10.258   1.333  1.00  0.00     0.293 HD
ENDBRANCH 104 107
BRANCH 105 109
ATOM    109  O   UNL     1       4.642  -5.500   4.218  1.00  0.00    -0.504 OA
ATOM    110  H   UNL     1       5.189  -5.882   4.876  1.00  0.00     0.293 HD
ENDBRANCH 105 109
BRANCH 106 111
ATOM    111  O   UNL     1       5.437  -8.109   3.965  1.00  0.00    -0.502 OA
ATOM    112  H   UNL     1       5.689  -9.010   3.914  1.00  0.00     0.293 HD
ENDBRANCH 106 111
ENDBRANCH  91 101
BRANCH  97 113
ATOM    113  O   UNL     1       0.236  -3.069  -3.733  1.00  0.00    -0.507 OA
ATOM    114  H   UNL     1      -0.366  -2.666  -4.327  1.00  0.00     0.293 HD
ENDBRANCH  97 113
BRANCH 100 115
ATOM    115  O   UNL     1      -3.261  -5.960  -2.215  1.00  0.00    -0.508 OA
ATOM    116  H   UNL     1      -3.538  -6.649  -1.644  1.00  0.00     0.293 HD
ENDBRANCH 100 115
ENDBRANCH  89  90
ENDBRANCH  84  89
BRANCH  85 117
ATOM    117  O   UNL     1       7.015  -8.050   0.749  1.00  0.00    -0.387 OA
ATOM    118  H   UNL     1       6.139  -8.455   0.840  1.00  0.00     0.211 HD
ENDBRANCH  85 117
BRANCH  86 119
ATOM    119  O   UNL     1       6.556  -5.144   1.129  1.00  0.00    -0.384 OA
ATOM    120  H   UNL     1       7.315  -4.669   0.758  1.00  0.00     0.211 HD
ENDBRANCH  86 119
ENDBRANCH  78  81
ENDBRANCH  76  77
ENDBRANCH   1  76
TORSDOF 25
