REMARK SMILES CC(C)C[C@H](NC(=O)[C@H](Cc1ccccc1)NC(=O)CNC(=O)CNC(=O)OCc1ccccc1)C(=O)NCCCCNC(=O)c1ccc(-c2c3nc(c(-c4c(F)cc(S(=O)(=O)[O-])cc4F)c4ccc([nH]4)c(-c4c(F)cc(S(=O)(=O)[O-])cc4F)c4nc(c(-c5c(F)cc(S(=O)(=O)[O-])cc5F)c5ccc2[nH]5)C=C4)C=C3)cc1
REMARK SMILES IDX 5 1 4 2 2 3 1 4 3 5 36 6 37 7 38 8 39 10 40 11 41 12 42 13
REMARK SMILES IDX 43 14 44 15 45 17 46 18 47 19 111 20 48 21 110 22 49 23
REMARK SMILES IDX 50 24 51 25 104 26 52 27 109 28 103 29 105 30 53 31 108 32
REMARK SMILES IDX 102 33 101 34 54 36 88 37 67 38 87 39 68 40 71 41 86 42
REMARK SMILES IDX 106 43 69 44 70 45 85 47 107 48 72 49 55 50 56 51 65 52
REMARK SMILES IDX 57 53 58 54 64 55 66 56 59 57 60 58 61 59 62 60 63 61 89 62
REMARK SMILES IDX 90 63 99 64 91 65 92 66 98 67 100 68 93 69 94 70 95 71 96 72
REMARK SMILES IDX 97 73 73 74 74 75 83 76 75 77 76 78 82 79 84 80 77 81 78 82
REMARK SMILES IDX 79 83 80 84 81 85 6 86 7 87 8 89 9 90 17 91 18 92 19 94
REMARK SMILES IDX 20 95 21 96 22 97 23 99 24 100 25 101 26 102 27 104 28 105
REMARK SMILES IDX 29 106 30 107 31 108 35 109 32 110 34 111 33 112 10 113
REMARK SMILES IDX 11 114 12 115 16 116 13 117 15 118 14 119
REMARK H PARENT 38 9 43 16 105 35 71 46 6 88 17 93 21 98 25 103
REMARK Flexibility Score: inf
ROOT
ATOM      1  C   UNL     1      -1.016  -0.381  -2.316  1.00  0.00     0.171 C 
ENDROOT
BRANCH   1   2
ATOM      2  C   UNL     1      -2.493  -0.494  -2.713  1.00  0.00     0.038 C 
BRANCH   2   3
ATOM      3  C   UNL     1      -3.215  -1.639  -1.954  1.00  0.00    -0.015 C 
ATOM      4  C   UNL     1      -3.257  -1.426  -0.436  1.00  0.00     0.007 C 
ATOM      5  C   UNL     1      -4.646  -1.799  -2.462  1.00  0.00     0.007 C 
ENDBRANCH   2   3
ENDBRANCH   1   2
BRANCH   1   6
ATOM      6  C   UNL     1       0.097  -0.632  -3.353  1.00  0.00     0.242 C 
ATOM      7  O   UNL     1       1.285  -0.410  -3.121  1.00  0.00    -0.273 OA
ATOM      8  N   UNL     1      -0.263  -1.024  -4.607  1.00  0.00    -0.354 N 
ATOM      9  H   UNL     1      -0.388  -1.972  -4.844  1.00  0.00     0.163 HD
BRANCH   8  10
ATOM     10  C   UNL     1      -0.448   0.038  -5.569  1.00  0.00     0.116 C 
BRANCH  10  11
ATOM     11  C   UNL     1       0.885   0.543  -6.141  1.00  0.00     0.023 C 
BRANCH  11  12
ATOM     12  C   UNL     1       1.695  -0.502  -6.916  1.00  0.00     0.023 C 
BRANCH  12  13
ATOM     13  C   UNL     1       0.891  -1.317  -7.922  1.00  0.00     0.116 C 
BRANCH  13  14
ATOM     14  N   UNL     1       0.041  -0.484  -8.758  1.00  0.00    -0.352 N 
ATOM     15  C   UNL     1      -0.161  -0.509 -10.110  1.00  0.00     0.251 C 
ATOM     16  H   UNL     1      -0.469   0.206  -8.274  1.00  0.00     0.163 HD
ATOM     17  O   UNL     1      -0.841   0.364 -10.641  1.00  0.00    -0.269 OA
BRANCH  15  18
ATOM     18  C   UNL     1       0.471  -1.563 -10.917  1.00  0.00     0.039 A 
ATOM     19  C   UNL     1       1.153  -1.188 -12.075  1.00  0.00     0.014 A 
ATOM     20  C   UNL     1       0.408  -2.903 -10.524  1.00  0.00     0.014 A 
ATOM     21  C   UNL     1       1.818  -2.158 -12.819  1.00  0.00     0.010 A 
ATOM     22  C   UNL     1       1.135  -3.856 -11.226  1.00  0.00     0.010 A 
ATOM     23  C   UNL     1       1.840  -3.493 -12.383  1.00  0.00    -0.014 A 
BRANCH  23  24
ATOM     24  C   UNL     1       2.590  -4.523 -13.137  1.00  0.00     0.031 A 
ATOM     25  C   UNL     1       1.853  -5.658 -13.789  1.00  0.00     0.074 A 
ATOM     26  C   UNL     1       3.935  -4.455 -13.189  1.00  0.00     0.049 A 
ATOM     27  N   UNL     1       2.332  -6.682 -14.445  1.00  0.00    -0.248 NA
ATOM     28  C   UNL     1       0.386  -5.658 -13.664  1.00  0.00     0.031 C 
ATOM     29  C   UNL     1       4.754  -3.421 -12.550  1.00  0.00     0.029 A 
ATOM     30  N   UNL     1       4.850  -5.272 -13.800  1.00  0.00    -0.354 N 
ATOM     31  C   UNL     1       1.230  -7.449 -14.803  1.00  0.00     0.074 A 
ATOM     32  C   UNL     1       0.064  -6.806 -14.240  1.00  0.00     0.031 C 
ATOM     33  C   UNL     1       6.048  -3.656 -12.821  1.00  0.00     0.029 A 
ATOM     34  C   UNL     1       6.153  -4.874 -13.618  1.00  0.00     0.049 A 
ATOM     35  H   UNL     1       4.597  -6.069 -14.320  1.00  0.00     0.167 HD
ATOM     36  C   UNL     1       1.194  -8.573 -15.558  1.00  0.00     0.037 A 
ATOM     37  C   UNL     1       7.303  -5.435 -14.040  1.00  0.00     0.037 A 
ATOM     38  C   UNL     1       2.362  -9.190 -16.129  1.00  0.00     0.049 A 
ATOM     39  C   UNL     1       7.236  -6.686 -14.873  1.00  0.00     0.074 A 
ATOM     40  C   UNL     1       2.433 -10.303 -16.948  1.00  0.00     0.029 A 
ATOM     41  N   UNL     1       3.664  -8.747 -15.941  1.00  0.00    -0.354 N 
ATOM     42  N   UNL     1       6.181  -7.367 -15.254  1.00  0.00    -0.248 NA
ATOM     43  C   UNL     1       8.513  -7.241 -15.341  1.00  0.00     0.031 C 
ATOM     44  C   UNL     1       3.781 -10.560 -17.217  1.00  0.00     0.029 A 
ATOM     45  C   UNL     1       4.547  -9.576 -16.612  1.00  0.00     0.049 A 
ATOM     46  H   UNL     1       3.921  -7.960 -15.410  1.00  0.00     0.167 HD
ATOM     47  C   UNL     1       6.665  -8.415 -16.029  1.00  0.00     0.074 A 
ATOM     48  C   UNL     1       8.105  -8.269 -16.073  1.00  0.00     0.031 C 
ATOM     49  C   UNL     1       5.979  -9.408 -16.649  1.00  0.00     0.037 A 
BRANCH  36  50
ATOM     50  C   UNL     1      -0.149  -9.200 -15.812  1.00  0.00     0.058 A 
ATOM     51  C   UNL     1      -1.108  -8.581 -16.631  1.00  0.00     0.135 A 
ATOM     52  C   UNL     1      -0.472 -10.449 -15.257  1.00  0.00     0.135 A 
ATOM     53  F   UNL     1      -0.861  -7.378 -17.172  1.00  0.00    -0.206 F 
ATOM     54  C   UNL     1      -2.349  -9.164 -16.868  1.00  0.00     0.059 A 
ATOM     55  C   UNL     1      -1.696 -11.065 -15.506  1.00  0.00     0.059 A 
ATOM     56  F   UNL     1       0.405 -11.084 -14.464  1.00  0.00    -0.206 F 
ATOM     57  C   UNL     1      -2.633 -10.407 -16.301  1.00  0.00     0.060 A 
BRANCH  57  58
ATOM     58  S   UNL     1      -4.245 -11.152 -16.626  1.00  0.00     0.124 S 
ATOM     59  O   UNL     1      -5.123 -10.306 -15.824  1.00  0.00    -0.237 OA
ATOM     60  O   UNL     1      -4.370 -11.004 -18.073  1.00  0.00    -0.237 OA
ATOM     61  O   UNL     1      -4.088 -12.523 -16.150  1.00  0.00    -0.744 OA
ENDBRANCH  57  58
ENDBRANCH  36  50
BRANCH  37  62
ATOM     62  C   UNL     1       8.606  -4.808 -13.694  1.00  0.00     0.058 A 
ATOM     63  C   UNL     1       9.396  -4.191 -14.674  1.00  0.00     0.135 A 
ATOM     64  C   UNL     1       9.082  -4.801 -12.373  1.00  0.00     0.135 A 
ATOM     65  F   UNL     1       8.986  -4.173 -15.952  1.00  0.00    -0.206 F 
ATOM     66  C   UNL     1      10.620  -3.607 -14.364  1.00  0.00     0.059 A 
ATOM     67  C   UNL     1      10.289  -4.200 -12.032  1.00  0.00     0.059 A 
ATOM     68  F   UNL     1       8.355  -5.361 -11.393  1.00  0.00    -0.206 F 
ATOM     69  C   UNL     1      11.057  -3.615 -13.038  1.00  0.00     0.060 A 
BRANCH  69  70
ATOM     70  S   UNL     1      12.629  -2.820 -12.640  1.00  0.00     0.124 S 
ATOM     71  O   UNL     1      13.586  -3.764 -13.203  1.00  0.00    -0.237 OA
ATOM     72  O   UNL     1      12.509  -1.541 -13.332  1.00  0.00    -0.237 OA
ATOM     73  O   UNL     1      12.604  -2.740 -11.182  1.00  0.00    -0.744 OA
ENDBRANCH  69  70
ENDBRANCH  37  62
BRANCH  49  74
ATOM     74  C   UNL     1       6.775 -10.396 -17.456  1.00  0.00     0.058 A 
ATOM     75  C   UNL     1       7.587 -11.364 -16.847  1.00  0.00     0.135 A 
ATOM     76  C   UNL     1       6.677 -10.407 -18.858  1.00  0.00     0.135 A 
ATOM     77  F   UNL     1       7.720 -11.393 -15.512  1.00  0.00    -0.206 F 
ATOM     78  C   UNL     1       8.295 -12.295 -17.601  1.00  0.00     0.059 A 
ATOM     79  C   UNL     1       7.352 -11.347 -19.629  1.00  0.00     0.059 A 
ATOM     80  F   UNL     1       5.904  -9.509 -19.489  1.00  0.00    -0.206 F 
ATOM     81  C   UNL     1       8.168 -12.280 -18.991  1.00  0.00     0.060 A 
BRANCH  81  82
ATOM     82  S   UNL     1       9.063 -13.517 -19.954  1.00  0.00     0.124 S 
ATOM     83  O   UNL     1      10.435 -13.029 -19.855  1.00  0.00    -0.237 OA
ATOM     84  O   UNL     1       8.774 -14.748 -19.226  1.00  0.00    -0.237 OA
ATOM     85  O   UNL     1       8.457 -13.422 -21.278  1.00  0.00    -0.744 OA
ENDBRANCH  81  82
ENDBRANCH  49  74
ENDBRANCH  23  24
ENDBRANCH  15  18
ENDBRANCH  13  14
ENDBRANCH  12  13
ENDBRANCH  11  12
ENDBRANCH  10  11
ENDBRANCH   8  10
ENDBRANCH   1   6
BRANCH   1  86
ATOM     86  N   UNL     1      -0.709   0.908  -1.751  1.00  0.00    -0.343 N 
ATOM     87  C   UNL     1       0.132   1.166  -0.724  1.00  0.00     0.243 C 
ATOM     88  H   UNL     1      -1.160   1.685  -2.156  1.00  0.00     0.164 HD
ATOM     89  O   UNL     1       0.404   2.369  -0.576  1.00  0.00    -0.273 OA
BRANCH  87  90
ATOM     90  C   UNL     1       0.454   0.178   0.434  1.00  0.00     0.175 C 
BRANCH  90  91
ATOM     91  N   UNL     1      -0.582   0.619   1.409  1.00  0.00    -0.342 N 
ATOM     92  C   UNL     1      -0.441   1.508   2.436  1.00  0.00     0.240 C 
ATOM     93  H   UNL     1      -1.476   0.222   1.299  1.00  0.00     0.164 HD
ATOM     94  O   UNL     1      -1.439   2.109   2.837  1.00  0.00    -0.273 OA
BRANCH  92  95
ATOM     95  C   UNL     1       0.949   1.783   3.011  1.00  0.00     0.216 C 
BRANCH  95  96
ATOM     96  N   UNL     1       1.633   0.529   3.302  1.00  0.00    -0.346 N 
ATOM     97  C   UNL     1       2.916   0.150   3.053  1.00  0.00     0.239 C 
ATOM     98  H   UNL     1       1.079  -0.151   3.748  1.00  0.00     0.164 HD
ATOM     99  O   UNL     1       3.217  -1.027   3.258  1.00  0.00    -0.273 OA
BRANCH  97 100
ATOM    100  C   UNL     1       3.940   1.145   2.506  1.00  0.00     0.219 C 
BRANCH 100 101
ATOM    101  N   UNL     1       3.753   1.411   1.097  1.00  0.00    -0.312 N 
ATOM    102  C   UNL     1       3.490   2.618   0.526  1.00  0.00     0.407 C 
ATOM    103  H   UNL     1       3.823   0.641   0.488  1.00  0.00     0.167 HD
ATOM    104  O   UNL     1       3.240   2.687  -0.669  1.00  0.00    -0.225 OA
BRANCH 102 105
ATOM    105  O   UNL     1       3.533   3.640   1.414  1.00  0.00    -0.445 OA
BRANCH 105 106
ATOM    106  C   UNL     1       3.104   4.945   0.976  1.00  0.00     0.270 C 
BRANCH 106 107
ATOM    107  C   UNL     1       3.736   5.436  -0.300  1.00  0.00    -0.011 A 
ATOM    108  C   UNL     1       2.928   5.981  -1.308  1.00  0.00     0.007 A 
ATOM    109  C   UNL     1       5.107   5.267  -0.535  1.00  0.00     0.007 A 
ATOM    110  C   UNL     1       3.469   6.278  -2.557  1.00  0.00     0.000 A 
ATOM    111  C   UNL     1       5.642   5.551  -1.790  1.00  0.00     0.000 A 
ATOM    112  C   UNL     1       4.821   6.043  -2.804  1.00  0.00     0.000 A 
ENDBRANCH 106 107
ENDBRANCH 105 106
ENDBRANCH 102 105
ENDBRANCH 100 101
ENDBRANCH  97 100
ENDBRANCH  95  96
ENDBRANCH  92  95
ENDBRANCH  90  91
BRANCH  90 113
ATOM    113  C   UNL     1       0.608  -1.365   0.539  1.00  0.00     0.070 C 
BRANCH 113 114
ATOM    114  C   UNL     1       0.968  -2.324  -0.573  1.00  0.00    -0.045 A 
ATOM    115  C   UNL     1       0.034  -3.308  -0.960  1.00  0.00     0.004 A 
ATOM    116  C   UNL     1       2.206  -2.310  -1.218  1.00  0.00     0.004 A 
ATOM    117  C   UNL     1       0.266  -4.148  -2.049  1.00  0.00     0.000 A 
ATOM    118  C   UNL     1       2.454  -3.179  -2.292  1.00  0.00     0.000 A 
ATOM    119  C   UNL     1       1.476  -4.074  -2.726  1.00  0.00     0.000 A 
ENDBRANCH 113 114
ENDBRANCH  90 113
ENDBRANCH  87  90
ENDBRANCH   1  86
TORSDOF 28
