REMARK SMILES [NH3+]C[C@H]1CC[C@@H](C(=O)N[C@@H]2C=C[C@@H](C(=O)NCCCCNC(=O)c3ccc(-c4c5nc(c(-c6c(F)cc(S(=O)(=O)[O-])cc6F)c6ccc([nH]6)c(-c6c(F)cc(S(=O)(=O)[O-])cc6F)c6nc(c(-c7c(F)cc(S(=O)(=O)[O-])cc7F)c7ccc4[nH]7)C=C6)C=C5)cc3)C2)CC1
REMARK SMILES IDX 18 1 17 2 16 3 14 4 15 5 13 7 10 8 11 9 90 10 12 11 9 12
REMARK SMILES IDX 7 13 8 14 6 16 3 17 4 18 92 19 5 20 91 21 2 22 1 23 19 27
REMARK SMILES IDX 20 28 21 29 22 30 23 32 24 33 25 34 89 35 26 36 88 37 27 38
REMARK SMILES IDX 28 39 29 40 82 41 30 42 87 43 81 44 83 45 31 46 86 47 80 48
REMARK SMILES IDX 79 49 32 51 66 52 45 53 65 54 46 55 49 56 64 57 84 58 47 59
REMARK SMILES IDX 48 60 63 62 85 63 50 64 33 65 34 66 43 67 35 68 36 69 42 70
REMARK SMILES IDX 44 71 37 72 38 73 39 74 40 75 41 76 67 77 68 78 77 79 69 80
REMARK SMILES IDX 70 81 76 82 78 83 71 84 72 85 73 86 74 87 75 88 51 89 52 90
REMARK SMILES IDX 61 91 53 92 54 93 60 94 62 95 55 96 56 97 57 98 58 99 59 100
REMARK H PARENT 16 6 9 15 1 24 1 25 1 26 21 31 83 50 49 61
REMARK Flexibility Score: inf
ROOT
ATOM      1  C   UNL     1      -4.408   0.050   5.523  1.00  0.00     0.023 C 
ENDROOT
BRANCH   1   2
ATOM      2  C   UNL     1      -2.896   0.112   5.426  1.00  0.00     0.116 C 
BRANCH   2   3
ATOM      3  N   UNL     1      -2.131  -1.113   5.359  1.00  0.00    -0.356 N 
ATOM      4  C   UNL     1      -0.839  -1.312   4.942  1.00  0.00     0.227 C 
ATOM      5  O   UNL     1      -0.236  -2.220   5.535  1.00  0.00    -0.274 OA
ATOM      6  H   UNL     1      -2.606  -1.922   5.657  1.00  0.00     0.163 HD
BRANCH   4   7
ATOM      7  C   UNL     1      -0.101  -0.618   3.704  1.00  0.00     0.103 C 
ATOM      8  C   UNL     1      -0.524   1.531   1.311  1.00  0.00     0.106 C 
ATOM      9  C   UNL     1       0.957   1.906   2.584  1.00  0.00    -0.006 C 
ATOM     10  C   UNL     1      -1.279  -0.332   2.139  1.00  0.00     0.047 C 
ATOM     11  C   UNL     1       1.079   0.877   3.711  1.00  0.00    -0.016 C 
BRANCH   8  12
ATOM     12  N   UNL     1      -0.178   1.857  -0.061  1.00  0.00    -0.350 N 
ATOM     13  C   UNL     1      -1.005   1.294  -0.997  1.00  0.00     0.223 C 
ATOM     14  O   UNL     1      -1.193   1.703  -2.127  1.00  0.00    -0.275 OA
ATOM     15  H   UNL     1       0.585   2.433  -0.298  1.00  0.00     0.164 HD
BRANCH  13  16
ATOM     16  C   UNL     1      -1.584   0.070  -0.374  1.00  0.00     0.078 C 
ATOM     17  C   UNL     1      -0.988   1.236   3.017  1.00  0.00     0.044 C 
ATOM     18  C   UNL     1      -2.670   1.425   2.065  1.00  0.00     0.010 C 
ATOM     19  C   UNL     1       0.454   0.085   1.776  1.00  0.00     0.010 C 
ATOM     20  C   UNL     1      -2.840   0.580   0.580  1.00  0.00     0.014 C 
ATOM     21  C   UNL     1      -0.177  -0.613   0.175  1.00  0.00     0.014 C 
BRANCH  17  22
ATOM     22  C   UNL     1      -0.939   2.798   3.801  1.00  0.00     0.262 C 
BRANCH  22  23
ATOM     23  N   UNL     1      -2.156   3.175   4.526  1.00  0.00    -0.357 N 
ATOM     24  H   UNL     1      -2.030   4.096   4.946  1.00  0.00     0.344 HD
ATOM     25  H   UNL     1      -2.341   2.489   5.258  1.00  0.00     0.344 HD
ATOM     26  H   UNL     1      -2.943   3.201   3.877  1.00  0.00     0.344 HD
ENDBRANCH  22  23
ENDBRANCH  17  22
ENDBRANCH  13  16
ENDBRANCH   8  12
ENDBRANCH   4   7
ENDBRANCH   2   3
ENDBRANCH   1   2
BRANCH   1  27
ATOM     27  C   UNL     1      -4.986  -0.066   6.909  1.00  0.00     0.023 C 
BRANCH  27  28
ATOM     28  C   UNL     1      -4.324   0.797   7.966  1.00  0.00     0.116 C 
BRANCH  28  29
ATOM     29  N   UNL     1      -4.422   2.240   7.757  1.00  0.00    -0.352 N 
ATOM     30  C   UNL     1      -4.788   3.197   8.686  1.00  0.00     0.251 C 
ATOM     31  H   UNL     1      -4.202   2.567   6.855  1.00  0.00     0.163 HD
ATOM     32  O   UNL     1      -4.872   4.380   8.379  1.00  0.00    -0.269 OA
BRANCH  30  33
ATOM     33  C   UNL     1      -5.142   2.740  10.046  1.00  0.00     0.039 A 
ATOM     34  C   UNL     1      -6.396   3.058  10.565  1.00  0.00     0.014 A 
ATOM     35  C   UNL     1      -4.304   1.839  10.707  1.00  0.00     0.014 A 
ATOM     36  C   UNL     1      -6.845   2.397  11.709  1.00  0.00     0.010 A 
ATOM     37  C   UNL     1      -4.822   1.069  11.737  1.00  0.00     0.010 A 
ATOM     38  C   UNL     1      -6.084   1.359  12.275  1.00  0.00    -0.014 A 
BRANCH  38  39
ATOM     39  C   UNL     1      -6.564   0.608  13.465  1.00  0.00     0.031 A 
ATOM     40  C   UNL     1      -5.727   0.596  14.720  1.00  0.00     0.074 A 
ATOM     41  C   UNL     1      -7.724  -0.079  13.416  1.00  0.00     0.049 A 
ATOM     42  N   UNL     1      -5.966   0.015  15.867  1.00  0.00    -0.248 NA
ATOM     43  C   UNL     1      -4.430   1.295  14.671  1.00  0.00     0.031 C 
ATOM     44  C   UNL     1      -8.586  -0.211  12.238  1.00  0.00     0.029 A 
ATOM     45  N   UNL     1      -8.385  -0.791  14.386  1.00  0.00    -0.354 N 
ATOM     46  C   UNL     1      -4.852   0.271  16.658  1.00  0.00     0.074 A 
ATOM     47  C   UNL     1      -3.896   0.971  15.835  1.00  0.00     0.031 C 
ATOM     48  C   UNL     1      -9.685  -0.910  12.571  1.00  0.00     0.029 A 
ATOM     49  C   UNL     1      -9.590  -1.310  13.971  1.00  0.00     0.049 A 
ATOM     50  H   UNL     1      -8.029  -0.918  15.296  1.00  0.00     0.167 HD
ATOM     51  C   UNL     1      -4.656  -0.007  17.968  1.00  0.00     0.037 A 
ATOM     52  C   UNL     1     -10.516  -2.020  14.646  1.00  0.00     0.037 A 
ATOM     53  C   UNL     1      -5.626  -0.677  18.791  1.00  0.00     0.049 A 
ATOM     54  C   UNL     1     -10.284  -2.311  16.106  1.00  0.00     0.074 A 
ATOM     55  C   UNL     1      -5.557  -0.960  20.142  1.00  0.00     0.029 A 
ATOM     56  N   UNL     1      -6.840  -1.171  18.337  1.00  0.00    -0.354 N 
ATOM     57  N   UNL     1      -9.258  -1.990  16.860  1.00  0.00    -0.248 NA
ATOM     58  C   UNL     1     -11.342  -3.045  16.812  1.00  0.00     0.031 C 
ATOM     59  C   UNL     1      -6.702  -1.682  20.492  1.00  0.00     0.029 A 
ATOM     60  C   UNL     1      -7.519  -1.781  19.377  1.00  0.00     0.049 A 
ATOM     61  H   UNL     1      -7.170  -1.099  17.412  1.00  0.00     0.167 HD
ATOM     62  C   UNL     1      -9.563  -2.452  18.136  1.00  0.00     0.074 A 
ATOM     63  C   UNL     1     -10.876  -3.058  18.053  1.00  0.00     0.031 C 
ATOM     64  C   UNL     1      -8.828  -2.378  19.275  1.00  0.00     0.037 A 
BRANCH  51  65
ATOM     65  C   UNL     1      -3.349   0.419  18.582  1.00  0.00     0.058 A 
ATOM     66  C   UNL     1      -3.008   1.774  18.741  1.00  0.00     0.135 A 
ATOM     67  C   UNL     1      -2.428  -0.541  19.030  1.00  0.00     0.135 A 
ATOM     68  F   UNL     1      -3.838   2.737  18.309  1.00  0.00    -0.206 F 
ATOM     69  C   UNL     1      -1.788   2.159  19.286  1.00  0.00     0.059 A 
ATOM     70  C   UNL     1      -1.218  -0.177  19.615  1.00  0.00     0.059 A 
ATOM     71  F   UNL     1      -2.696  -1.849  18.899  1.00  0.00    -0.206 F 
ATOM     72  C   UNL     1      -0.901   1.175  19.724  1.00  0.00     0.060 A 
BRANCH  72  73
ATOM     73  S   UNL     1       0.672   1.694  20.440  1.00  0.00     0.124 S 
ATOM     74  O   UNL     1       1.373   2.204  19.266  1.00  0.00    -0.237 OA
ATOM     75  O   UNL     1       0.253   2.697  21.413  1.00  0.00    -0.237 OA
ATOM     76  O   UNL     1       1.211   0.462  21.006  1.00  0.00    -0.744 OA
ENDBRANCH  72  73
ENDBRANCH  51  65
BRANCH  52  77
ATOM     77  C   UNL     1     -11.760  -2.471  13.962  1.00  0.00     0.058 A 
ATOM     78  C   UNL     1     -13.014  -1.937  14.301  1.00  0.00     0.135 A 
ATOM     79  C   UNL     1     -11.722  -3.443  12.950  1.00  0.00     0.135 A 
ATOM     80  F   UNL     1     -13.109  -1.009  15.266  1.00  0.00    -0.206 F 
ATOM     81  C   UNL     1     -14.183  -2.363  13.678  1.00  0.00     0.059 A 
ATOM     82  C   UNL     1     -12.873  -3.863  12.291  1.00  0.00     0.059 A 
ATOM     83  F   UNL     1     -10.549  -3.976  12.575  1.00  0.00    -0.206 F 
ATOM     84  C   UNL     1     -14.102  -3.324  12.669  1.00  0.00     0.060 A 
BRANCH  84  85
ATOM     85  S   UNL     1     -15.619  -3.832  11.832  1.00  0.00     0.124 S 
ATOM     86  O   UNL     1     -16.295  -4.588  12.879  1.00  0.00    -0.237 OA
ATOM     87  O   UNL     1     -16.218  -2.548  11.482  1.00  0.00    -0.237 OA
ATOM     88  O   UNL     1     -15.131  -4.616  10.701  1.00  0.00    -0.744 OA
ENDBRANCH  84  85
ENDBRANCH  52  77
BRANCH  64  89
ATOM     89  C   UNL     1      -9.449  -2.920  20.535  1.00  0.00     0.058 A 
ATOM     90  C   UNL     1      -9.675  -4.292  20.726  1.00  0.00     0.135 A 
ATOM     91  C   UNL     1      -9.798  -2.048  21.580  1.00  0.00     0.135 A 
ATOM     92  F   UNL     1      -9.359  -5.171  19.762  1.00  0.00    -0.206 F 
ATOM     93  C   UNL     1     -10.272  -4.774  21.886  1.00  0.00     0.059 A 
ATOM     94  C   UNL     1     -10.358  -2.512  22.765  1.00  0.00     0.059 A 
ATOM     95  F   UNL     1      -9.586  -0.727  21.460  1.00  0.00    -0.206 F 
ATOM     96  C   UNL     1     -10.613  -3.875  22.899  1.00  0.00     0.060 A 
BRANCH  96  97
ATOM     97  S   UNL     1     -11.393  -4.513  24.395  1.00  0.00     0.124 S 
ATOM     98  O   UNL     1     -12.725  -4.856  23.908  1.00  0.00    -0.237 OA
ATOM     99  O   UNL     1     -10.532  -5.641  24.738  1.00  0.00    -0.237 OA
ATOM    100  O   UNL     1     -11.334  -3.384  25.318  1.00  0.00    -0.744 OA
ENDBRANCH  96  97
ENDBRANCH  64  89
ENDBRANCH  38  39
ENDBRANCH  30  33
ENDBRANCH  28  29
ENDBRANCH  27  28
ENDBRANCH   1  27
TORSDOF 18
