REMARK SMILES CC[N@H+]1C[C@@H](C(=O)NCCCCNC(=O)c2ccc(-c3c4nc(c(-c5c(F)cc(S(=O)(=O)[O-])cc5F)c5ccc([nH]5)c(-c5c(F)cc(S(=O)(=O)[O-])cc5F)c5nc(c(-c6c(F)cc(S(=O)(=O)[O-])cc6F)c6ccc3[nH]6)C=C5)C=C4)cc2)C[C@@H](C(=O)Nc2ccc(F)cc2)C1
REMARK SMILES IDX 11 1 10 2 9 3 8 4 6 5 7 6 5 8 3 9 4 10 94 11 83 13 82 14
REMARK SMILES IDX 2 15 1 16 84 17 85 18 86 19 87 21 88 22 93 23 89 24 92 25
REMARK SMILES IDX 90 26 91 27 12 28 13 29 14 30 15 32 16 33 17 34 81 35 18 36
REMARK SMILES IDX 80 37 19 38 20 39 21 40 74 41 22 42 79 43 73 44 75 45 23 46
REMARK SMILES IDX 78 47 72 48 71 49 24 51 58 52 37 53 57 54 38 55 41 56 56 57
REMARK SMILES IDX 76 58 39 59 40 60 55 62 77 63 42 64 25 65 26 66 35 67 27 68
REMARK SMILES IDX 28 69 34 70 36 71 29 72 30 73 31 74 32 75 33 76 59 77 60 78
REMARK SMILES IDX 69 79 61 80 62 81 68 82 70 83 63 84 64 85 65 86 66 87 67 88
REMARK SMILES IDX 43 89 44 90 53 91 45 92 46 93 52 94 54 95 47 96 48 97 49 98
REMARK SMILES IDX 50 99 51 100
REMARK H PARENT 8 7 3 12 86 20 13 31 75 50 41 61
REMARK Flexibility Score: inf
ROOT
ATOM      1  C   UNL     1      -2.334   5.548  -3.909  1.00  0.00     0.023 C 
ENDROOT
BRANCH   1   2
ATOM      2  C   UNL     1      -1.925   5.211  -2.484  1.00  0.00     0.023 C 
BRANCH   2   3
ATOM      3  C   UNL     1      -1.107   3.934  -2.321  1.00  0.00     0.116 C 
BRANCH   3   4
ATOM      4  N   UNL     1       0.218   4.030  -2.918  1.00  0.00    -0.356 N 
ATOM      5  C   UNL     1       1.462   3.847  -2.384  1.00  0.00     0.228 C 
ATOM      6  O   UNL     1       2.430   3.916  -3.145  1.00  0.00    -0.275 OA
ATOM      7  H   UNL     1       0.217   4.267  -3.874  1.00  0.00     0.163 HD
BRANCH   5   8
ATOM      8  C   UNL     1       1.669   3.597  -0.893  1.00  0.00     0.134 C 
ATOM      9  N   UNL     1       0.992   2.094   0.981  1.00  0.00    -0.334 N 
ATOM     10  C   UNL     1       1.069   2.261  -0.476  1.00  0.00     0.275 C 
ATOM     11  C   UNL     1       0.276   3.228   1.615  1.00  0.00     0.275 C 
ATOM     12  H   UNL     1       1.952   2.074   1.328  1.00  0.00     0.348 HD
ATOM     13  C   UNL     1       0.949   4.600   1.380  1.00  0.00     0.135 C 
ATOM     14  C   UNL     1       1.196   4.809  -0.102  1.00  0.00     0.038 C 
BRANCH   9  15
ATOM     15  C   UNL     1       0.326   0.824   1.347  1.00  0.00     0.258 C 
ATOM     16  C   UNL     1       0.839  -0.413   0.609  1.00  0.00     0.071 C 
ENDBRANCH   9  15
BRANCH  13  17
ATOM     17  C   UNL     1       0.114   5.715   2.078  1.00  0.00     0.233 C 
ATOM     18  O   UNL     1      -0.716   5.423   2.948  1.00  0.00    -0.274 OA
ATOM     19  N   UNL     1       0.407   7.051   1.932  1.00  0.00    -0.326 N 
ATOM     20  H   UNL     1       0.243   7.601   2.732  1.00  0.00     0.169 HD
BRANCH  19  21
ATOM     21  C   UNL     1       0.903   7.754   0.826  1.00  0.00     0.041 A 
ATOM     22  C   UNL     1       1.979   8.623   0.984  1.00  0.00     0.029 A 
ATOM     23  C   UNL     1       0.294   7.643  -0.425  1.00  0.00     0.029 A 
ATOM     24  C   UNL     1       2.559   9.213  -0.144  1.00  0.00     0.041 A 
ATOM     25  C   UNL     1       0.886   8.201  -1.558  1.00  0.00     0.041 A 
ATOM     26  C   UNL     1       2.034   8.961  -1.409  1.00  0.00     0.123 A 
ATOM     27  F   UNL     1       2.638   9.468  -2.491  1.00  0.00    -0.207 F 
ENDBRANCH  19  21
ENDBRANCH  13  17
ENDBRANCH   5   8
ENDBRANCH   3   4
ENDBRANCH   2   3
ENDBRANCH   1   2
BRANCH   1  28
ATOM     28  C   UNL     1      -3.128   4.458  -4.608  1.00  0.00     0.116 C 
BRANCH  28  29
ATOM     29  N   UNL     1      -4.364   4.126  -3.913  1.00  0.00    -0.352 N 
ATOM     30  C   UNL     1      -5.654   4.115  -4.394  1.00  0.00     0.251 C 
ATOM     31  H   UNL     1      -4.263   3.873  -2.966  1.00  0.00     0.163 HD
ATOM     32  O   UNL     1      -6.596   3.958  -3.633  1.00  0.00    -0.269 OA
BRANCH  30  33
ATOM     33  C   UNL     1      -5.879   4.334  -5.840  1.00  0.00     0.039 A 
ATOM     34  C   UNL     1      -6.847   5.254  -6.246  1.00  0.00     0.014 A 
ATOM     35  C   UNL     1      -5.088   3.675  -6.783  1.00  0.00     0.014 A 
ATOM     36  C   UNL     1      -6.960   5.576  -7.600  1.00  0.00     0.010 A 
ATOM     37  C   UNL     1      -5.133   4.071  -8.113  1.00  0.00     0.010 A 
ATOM     38  C   UNL     1      -6.072   5.022  -8.537  1.00  0.00    -0.014 A 
BRANCH  38  39
ATOM     39  C   UNL     1      -6.103   5.414  -9.969  1.00  0.00     0.031 A 
ATOM     40  C   UNL     1      -6.372   4.371 -11.021  1.00  0.00     0.074 A 
ATOM     41  C   UNL     1      -5.800   6.679 -10.325  1.00  0.00     0.049 A 
ATOM     42  N   UNL     1      -6.335   4.483 -12.323  1.00  0.00    -0.248 NA
ATOM     43  C   UNL     1      -6.687   3.013 -10.546  1.00  0.00     0.031 C 
ATOM     44  C   UNL     1      -5.457   7.763  -9.401  1.00  0.00     0.029 A 
ATOM     45  N   UNL     1      -5.713   7.264 -11.564  1.00  0.00    -0.354 N 
ATOM     46  C   UNL     1      -6.590   3.210 -12.819  1.00  0.00     0.074 A 
ATOM     47  C   UNL     1      -6.730   2.330 -11.681  1.00  0.00     0.031 C 
ATOM     48  C   UNL     1      -5.217   8.883 -10.102  1.00  0.00     0.029 A 
ATOM     49  C   UNL     1      -5.348   8.590 -11.526  1.00  0.00     0.049 A 
ATOM     50  H   UNL     1      -5.894   6.780 -12.402  1.00  0.00     0.167 HD
ATOM     51  C   UNL     1      -6.720   2.816 -14.108  1.00  0.00     0.037 A 
ATOM     52  C   UNL     1      -5.132   9.467 -12.526  1.00  0.00     0.037 A 
ATOM     53  C   UNL     1      -6.629   3.708 -15.232  1.00  0.00     0.049 A 
ATOM     54  C   UNL     1      -5.312   9.009 -13.949  1.00  0.00     0.074 A 
ATOM     55  C   UNL     1      -6.838   3.427 -16.571  1.00  0.00     0.029 A 
ATOM     56  N   UNL     1      -6.303   5.054 -15.150  1.00  0.00    -0.354 N 
ATOM     57  N   UNL     1      -5.638   7.820 -14.396  1.00  0.00    -0.248 NA
ATOM     58  C   UNL     1      -5.101  10.011 -15.002  1.00  0.00     0.031 C 
ATOM     59  C   UNL     1      -6.595   4.593 -17.303  1.00  0.00     0.029 A 
ATOM     60  C   UNL     1      -6.282   5.612 -16.417  1.00  0.00     0.049 A 
ATOM     61  H   UNL     1      -6.115   5.540 -14.315  1.00  0.00     0.167 HD
ATOM     62  C   UNL     1      -5.697   7.938 -15.781  1.00  0.00     0.074 A 
ATOM     63  C   UNL     1      -5.387   9.317 -16.095  1.00  0.00     0.031 C 
ATOM     64  C   UNL     1      -5.982   6.991 -16.709  1.00  0.00     0.037 A 
BRANCH  51  65
ATOM     65  C   UNL     1      -6.985   1.359 -14.372  1.00  0.00     0.058 A 
ATOM     66  C   UNL     1      -8.216   0.762 -14.055  1.00  0.00     0.135 A 
ATOM     67  C   UNL     1      -6.010   0.560 -14.991  1.00  0.00     0.135 A 
ATOM     68  F   UNL     1      -9.177   1.476 -13.446  1.00  0.00    -0.206 F 
ATOM     69  C   UNL     1      -8.462  -0.581 -14.319  1.00  0.00     0.059 A 
ATOM     70  C   UNL     1      -6.246  -0.779 -15.290  1.00  0.00     0.059 A 
ATOM     71  F   UNL     1      -4.815   1.079 -15.312  1.00  0.00    -0.206 F 
ATOM     72  C   UNL     1      -7.471  -1.343 -14.939  1.00  0.00     0.060 A 
BRANCH  72  73
ATOM     73  S   UNL     1      -7.815  -3.079 -15.292  1.00  0.00     0.124 S 
ATOM     74  O   UNL     1      -7.747  -3.666 -13.957  1.00  0.00    -0.237 OA
ATOM     75  O   UNL     1      -9.145  -3.019 -15.890  1.00  0.00    -0.237 OA
ATOM     76  O   UNL     1      -6.739  -3.461 -16.201  1.00  0.00    -0.744 OA
ENDBRANCH  72  73
ENDBRANCH  51  65
BRANCH  52  77
ATOM     77  C   UNL     1      -4.737  10.868 -12.221  1.00  0.00     0.058 A 
ATOM     78  C   UNL     1      -5.621  11.933 -12.449  1.00  0.00     0.135 A 
ATOM     79  C   UNL     1      -3.469  11.173 -11.700  1.00  0.00     0.135 A 
ATOM     80  F   UNL     1      -6.843  11.694 -12.950  1.00  0.00    -0.206 F 
ATOM     81  C   UNL     1      -5.257  13.252 -12.196  1.00  0.00     0.059 A 
ATOM     82  C   UNL     1      -3.091  12.481 -11.415  1.00  0.00     0.059 A 
ATOM     83  F   UNL     1      -2.592  10.189 -11.446  1.00  0.00    -0.206 F 
ATOM     84  C   UNL     1      -3.987  13.516 -11.679  1.00  0.00     0.060 A 
BRANCH  84  85
ATOM     85  S   UNL     1      -3.535  15.228 -11.324  1.00  0.00     0.124 S 
ATOM     86  O   UNL     1      -3.316  15.758 -12.665  1.00  0.00    -0.237 OA
ATOM     87  O   UNL     1      -4.719  15.721 -10.628  1.00  0.00    -0.237 OA
ATOM     88  O   UNL     1      -2.341  15.093 -10.494  1.00  0.00    -0.744 OA
ENDBRANCH  84  85
ENDBRANCH  52  77
BRANCH  64  89
ATOM     89  C   UNL     1      -6.006   7.418 -18.149  1.00  0.00     0.058 A 
ATOM     90  C   UNL     1      -4.826   7.702 -18.854  1.00  0.00     0.135 A 
ATOM     91  C   UNL     1      -7.222   7.489 -18.848  1.00  0.00     0.135 A 
ATOM     92  F   UNL     1      -3.638   7.654 -18.230  1.00  0.00    -0.206 F 
ATOM     93  C   UNL     1      -4.852   8.061 -20.197  1.00  0.00     0.059 A 
ATOM     94  C   UNL     1      -7.269   7.819 -20.198  1.00  0.00     0.059 A 
ATOM     95  F   UNL     1      -8.378   7.217 -18.222  1.00  0.00    -0.206 F 
ATOM     96  C   UNL     1      -6.080   8.115 -20.861  1.00  0.00     0.060 A 
BRANCH  96  97
ATOM     97  S   UNL     1      -6.097   8.547 -22.614  1.00  0.00     0.124 S 
ATOM     98  O   UNL     1      -5.844   9.983 -22.565  1.00  0.00    -0.237 OA
ATOM     99  O   UNL     1      -5.013   7.729 -23.148  1.00  0.00    -0.237 OA
ATOM    100  O   UNL     1      -7.437   8.159 -23.045  1.00  0.00    -0.744 OA
ENDBRANCH  96  97
ENDBRANCH  64  89
ENDBRANCH  38  39
ENDBRANCH  30  33
ENDBRANCH  28  29
ENDBRANCH   1  28
TORSDOF 17
