REMARK SMILES CC(C)CSc1cc2c(cc1Cl)C=C(C(=O)NCCCCNC(=O)c1ccc(-c3c4nc(c(-c5c(F)cc(S(=O)(=O)[O-])cc5F)c5ccc([nH]5)c(-c5c(F)cc(S(=O)(=O)[O-])cc5F)c5nc(c(-c6c(F)cc(S(=O)(=O)[O-])cc6F)c6ccc3[nH]6)C=C5)C=C4)cc1)[C@H](C(F)(F)F)O2
REMARK SMILES IDX 19 1 18 2 17 3 15 4 16 5 14 7 6 8 7 9 11 10 8 11 10 12 12 13
REMARK SMILES IDX 9 14 96 15 13 16 91 17 5 18 4 19 2 20 1 21 3 22 92 23 93 24
REMARK SMILES IDX 94 25 95 26 20 27 21 28 22 29 23 30 24 32 25 33 26 34 90 35
REMARK SMILES IDX 27 36 89 37 28 38 29 39 30 40 83 41 31 42 88 43 82 44 84 45
REMARK SMILES IDX 32 46 87 47 81 48 80 49 33 51 67 52 46 53 66 54 47 55 50 56
REMARK SMILES IDX 65 57 85 58 48 59 49 60 64 62 86 63 51 64 34 65 35 66 44 67
REMARK SMILES IDX 36 68 37 69 43 70 45 71 38 72 39 73 40 74 41 75 42 76 68 77
REMARK SMILES IDX 69 78 78 79 70 80 71 81 77 82 79 83 72 84 73 85 74 86 75 87
REMARK SMILES IDX 76 88 52 89 53 90 62 91 54 92 55 93 61 94 63 95 56 96 57 97
REMARK SMILES IDX 58 98 59 99 60 100
REMARK H PARENT 17 6 22 31 84 50 50 61
REMARK Flexibility Score: inf
ROOT
ATOM      1  C   UNL     1      -2.887   9.585   0.369  1.00  0.00     0.023 C 
ENDROOT
BRANCH   1   2
ATOM      2  C   UNL     1      -1.456   9.281  -0.069  1.00  0.00     0.116 C 
BRANCH   2   3
ATOM      3  N   UNL     1      -0.646   8.726   1.002  1.00  0.00    -0.352 N 
ATOM      4  C   UNL     1      -0.253   7.500   1.421  1.00  0.00     0.251 C 
ATOM      5  O   UNL     1       0.491   7.500   2.408  1.00  0.00    -0.270 OA
ATOM      6  H   UNL     1      -0.285   9.435   1.582  1.00  0.00     0.163 HD
BRANCH   4   7
ATOM      7  C   UNL     1      -0.634   6.198   0.799  1.00  0.00     0.067 C 
ATOM      8  C   UNL     1      -1.347   1.290  -0.174  1.00  0.00     0.030 A 
ATOM      9  C   UNL     1      -1.341   2.462  -0.954  1.00  0.00     0.063 A 
ATOM     10  C   UNL     1      -1.030   1.413   1.192  1.00  0.00     0.055 A 
ATOM     11  C   UNL     1      -1.017   3.695  -0.393  1.00  0.00     0.129 A 
ATOM     12  C   UNL     1      -0.620   2.647   1.726  1.00  0.00     0.033 A 
ATOM     13  Cl  UNL     1      -1.195   0.136   2.342  1.00  0.00    -0.083 Cl
ATOM     14  C   UNL     1      -0.618   3.793   0.936  1.00  0.00     0.019 A 
ATOM     15  O   UNL     1      -1.117   4.803  -1.192  1.00  0.00    -0.475 OA
ATOM     16  C   UNL     1      -0.233   5.096   1.465  1.00  0.00     0.025 C 
ATOM     17  C   UNL     1      -1.441   6.027  -0.460  1.00  0.00     0.314 C 
BRANCH   8  18
ATOM     18  S   UNL     1      -1.871  -0.168  -1.081  1.00  0.00    -0.124 SA
BRANCH  18  19
ATOM     19  C   UNL     1      -0.843  -1.556  -0.484  1.00  0.00     0.078 C 
BRANCH  19  20
ATOM     20  C   UNL     1       0.642  -1.603  -0.887  1.00  0.00    -0.007 C 
ATOM     21  C   UNL     1       1.477  -0.401  -0.452  1.00  0.00     0.008 C 
ATOM     22  C   UNL     1       1.258  -2.876  -0.289  1.00  0.00     0.008 C 
ENDBRANCH  19  20
ENDBRANCH  18  19
ENDBRANCH   8  18
BRANCH  17  23
ATOM     23  C   UNL     1      -2.963   6.131  -0.216  1.00  0.00     0.429 C 
ATOM     24  F   UNL     1      -3.601   4.944  -0.339  1.00  0.00    -0.167 F 
ATOM     25  F   UNL     1      -3.262   6.598   1.018  1.00  0.00    -0.167 F 
ATOM     26  F   UNL     1      -3.531   6.978  -1.111  1.00  0.00    -0.167 F 
ENDBRANCH  17  23
ENDBRANCH   4   7
ENDBRANCH   2   3
ENDBRANCH   1   2
BRANCH   1  27
ATOM     27  C   UNL     1      -3.095  10.936   1.054  1.00  0.00     0.023 C 
BRANCH  27  28
ATOM     28  C   UNL     1      -2.672  12.156   0.246  1.00  0.00     0.116 C 
BRANCH  28  29
ATOM     29  N   UNL     1      -3.254  12.239  -1.088  1.00  0.00    -0.352 N 
ATOM     30  C   UNL     1      -3.397  13.368  -1.872  1.00  0.00     0.251 C 
ATOM     31  H   UNL     1      -3.582  11.394  -1.475  1.00  0.00     0.163 HD
ATOM     32  O   UNL     1      -3.961  13.315  -2.956  1.00  0.00    -0.269 OA
BRANCH  30  33
ATOM     33  C   UNL     1      -2.910  14.656  -1.332  1.00  0.00     0.039 A 
ATOM     34  C   UNL     1      -1.614  14.751  -0.826  1.00  0.00     0.014 A 
ATOM     35  C   UNL     1      -3.804  15.722  -1.200  1.00  0.00     0.014 A 
ATOM     36  C   UNL     1      -1.286  15.818  -0.002  1.00  0.00     0.010 A 
ATOM     37  C   UNL     1      -3.434  16.841  -0.448  1.00  0.00     0.010 A 
ATOM     38  C   UNL     1      -2.201  16.862   0.222  1.00  0.00    -0.014 A 
BRANCH  38  39
ATOM     39  C   UNL     1      -1.853  17.917   1.212  1.00  0.00     0.031 A 
ATOM     40  C   UNL     1      -2.640  18.064   2.491  1.00  0.00     0.074 A 
ATOM     41  C   UNL     1      -0.750  18.665   1.011  1.00  0.00     0.049 A 
ATOM     42  N   UNL     1      -2.416  18.859   3.507  1.00  0.00    -0.248 NA
ATOM     43  C   UNL     1      -3.832  17.215   2.655  1.00  0.00     0.031 C 
ATOM     44  C   UNL     1       0.101  18.604  -0.180  1.00  0.00     0.029 A 
ATOM     45  N   UNL     1      -0.123  19.579   1.819  1.00  0.00    -0.354 N 
ATOM     46  C   UNL     1      -3.443  18.623   4.414  1.00  0.00     0.074 A 
ATOM     47  C   UNL     1      -4.309  17.629   3.820  1.00  0.00     0.031 C 
ATOM     48  C   UNL     1       1.180  19.377   0.011  1.00  0.00     0.029 A 
ATOM     49  C   UNL     1       1.070  20.035   1.309  1.00  0.00     0.049 A 
ATOM     50  H   UNL     1      -0.491  19.879   2.682  1.00  0.00     0.167 HD
ATOM     51  C   UNL     1      -3.638  19.171   5.637  1.00  0.00     0.037 A 
ATOM     52  C   UNL     1       1.977  20.885   1.826  1.00  0.00     0.037 A 
ATOM     53  C   UNL     1      -2.752  20.126   6.247  1.00  0.00     0.049 A 
ATOM     54  C   UNL     1       1.724  21.500   3.171  1.00  0.00     0.074 A 
ATOM     55  C   UNL     1      -2.847  20.711   7.498  1.00  0.00     0.029 A 
ATOM     56  N   UNL     1      -1.604  20.631   5.655  1.00  0.00    -0.354 N 
ATOM     57  N   UNL     1       0.744  21.263   4.010  1.00  0.00    -0.248 NA
ATOM     58  C   UNL     1       2.681  22.516   3.629  1.00  0.00     0.031 C 
ATOM     59  C   UNL     1      -1.774  21.595   7.650  1.00  0.00     0.029 A 
ATOM     60  C   UNL     1      -0.995  21.538   6.505  1.00  0.00     0.049 A 
ATOM     61  H   UNL     1      -1.271  20.381   4.763  1.00  0.00     0.167 HD
ATOM     62  C   UNL     1       0.960  22.110   5.090  1.00  0.00     0.074 A 
ATOM     63  C   UNL     1       2.178  22.844   4.813  1.00  0.00     0.031 C 
ATOM     64  C   UNL     1       0.209  22.271   6.205  1.00  0.00     0.037 A 
BRANCH  51  65
ATOM     65  C   UNL     1      -4.860  18.755   6.407  1.00  0.00     0.058 A 
ATOM     66  C   UNL     1      -4.934  17.512   7.052  1.00  0.00     0.135 A 
ATOM     67  C   UNL     1      -5.945  19.636   6.552  1.00  0.00     0.135 A 
ATOM     68  F   UNL     1      -3.930  16.628   6.932  1.00  0.00    -0.206 F 
ATOM     69  C   UNL     1      -6.048  17.147   7.802  1.00  0.00     0.059 A 
ATOM     70  C   UNL     1      -7.061  19.300   7.313  1.00  0.00     0.059 A 
ATOM     71  F   UNL     1      -5.924  20.838   5.955  1.00  0.00    -0.206 F 
ATOM     72  C   UNL     1      -7.107  18.049   7.926  1.00  0.00     0.060 A 
BRANCH  72  73
ATOM     73  S   UNL     1      -8.541  17.564   8.911  1.00  0.00     0.124 S 
ATOM     74  O   UNL     1      -9.182  16.592   8.030  1.00  0.00    -0.237 OA
ATOM     75  O   UNL     1      -7.923  17.015  10.114  1.00  0.00    -0.237 OA
ATOM     76  O   UNL     1      -9.266  18.816   9.097  1.00  0.00    -0.744 OA
ENDBRANCH  72  73
ENDBRANCH  51  65
BRANCH  52  77
ATOM     77  C   UNL     1       3.209  21.198   1.058  1.00  0.00     0.058 A 
ATOM     78  C   UNL     1       4.454  20.695   1.459  1.00  0.00     0.135 A 
ATOM     79  C   UNL     1       3.157  21.964  -0.117  1.00  0.00     0.135 A 
ATOM     80  F   UNL     1       4.552  19.962   2.579  1.00  0.00    -0.206 F 
ATOM     81  C   UNL     1       5.606  20.934   0.719  1.00  0.00     0.059 A 
ATOM     82  C   UNL     1       4.291  22.199  -0.885  1.00  0.00     0.059 A 
ATOM     83  F   UNL     1       1.984  22.455  -0.548  1.00  0.00    -0.206 F 
ATOM     84  C   UNL     1       5.513  21.682  -0.457  1.00  0.00     0.060 A 
BRANCH  84  85
ATOM     85  S   UNL     1       7.000  21.922  -1.454  1.00  0.00     0.124 S 
ATOM     86  O   UNL     1       7.706  22.940  -0.686  1.00  0.00    -0.237 OA
ATOM     87  O   UNL     1       7.594  20.589  -1.448  1.00  0.00    -0.237 OA
ATOM     88  O   UNL     1       6.469  22.356  -2.744  1.00  0.00    -0.744 OA
ENDBRANCH  84  85
ENDBRANCH  52  77
BRANCH  64  89
ATOM     89  C   UNL     1       0.656  23.299   7.201  1.00  0.00     0.058 A 
ATOM     90  C   UNL     1       0.408  24.663   6.986  1.00  0.00     0.135 A 
ATOM     91  C   UNL     1       1.244  22.917   8.417  1.00  0.00     0.135 A 
ATOM     92  F   UNL     1      -0.144  25.076   5.835  1.00  0.00    -0.206 F 
ATOM     93  C   UNL     1       0.723  25.616   7.948  1.00  0.00     0.059 A 
ATOM     94  C   UNL     1       1.552  23.852   9.400  1.00  0.00     0.059 A 
ATOM     95  F   UNL     1       1.495  21.622   8.668  1.00  0.00    -0.206 F 
ATOM     96  C   UNL     1       1.286  25.199   9.156  1.00  0.00     0.060 A 
BRANCH  96  97
ATOM     97  S   UNL     1       1.617  26.440  10.425  1.00  0.00     0.124 S 
ATOM     98  O   UNL     1       2.787  27.118   9.877  1.00  0.00    -0.237 OA
ATOM     99  O   UNL     1       0.380  27.215  10.434  1.00  0.00    -0.237 OA
ATOM    100  O   UNL     1       1.858  25.643  11.625  1.00  0.00    -0.744 OA
ENDBRANCH  96  97
ENDBRANCH  64  89
ENDBRANCH  38  39
ENDBRANCH  30  33
ENDBRANCH  28  29
ENDBRANCH  27  28
ENDBRANCH   1  27
TORSDOF 18
