REMARK SMILES COc1ccc2c(c1OC)C(=O)O[C@@H]2Nc1nonc1C(=O)NCCCCNC(=O)c1ccc(-c2c3nc(c(-c4c(F)cc(S(=O)(=O)[O-])cc4F)c4ccc([nH]4)c(-c4c(F)cc(S(=O)(=O)[O-])cc4F)c4nc(c(-c5c(F)cc(S(=O)(=O)[O-])cc5F)c5ccc2[nH]5)C=C4)C=C3)cc1
REMARK SMILES IDX 25 1 24 2 23 3 21 4 22 5 20 7 16 8 17 9 18 10 19 11 15 12
REMARK SMILES IDX 14 14 3 15 4 16 8 17 5 18 7 19 6 20 11 21 12 22 13 23 2 24
REMARK SMILES IDX 1 25 9 26 10 27 26 28 27 29 28 30 29 31 30 33 31 34 32 35
REMARK SMILES IDX 96 36 33 37 95 38 34 39 35 40 36 41 89 42 37 43 94 44 88 45
REMARK SMILES IDX 90 46 38 47 93 48 87 49 86 50 39 52 73 53 52 54 72 55 53 56
REMARK SMILES IDX 56 57 71 58 91 59 54 60 55 61 70 63 92 64 57 65 40 66 41 67
REMARK SMILES IDX 50 68 42 69 43 70 49 71 51 72 44 73 45 74 46 75 47 76 48 77
REMARK SMILES IDX 74 78 75 79 84 80 76 81 77 82 83 83 85 84 78 85 79 86 80 87
REMARK SMILES IDX 81 88 82 89 58 90 59 91 68 92 60 93 61 94 67 95 69 96 62 97
REMARK SMILES IDX 63 98 64 99 65 100 66 101
REMARK H PARENT 23 6 15 13 28 32 90 51 56 62
REMARK Flexibility Score: inf
ROOT
ATOM      1  C   UNL     1      -0.545  -0.962  -4.797  1.00  0.00     0.023 C 
ENDROOT
BRANCH   1   2
ATOM      2  C   UNL     1      -0.191  -2.407  -5.181  1.00  0.00     0.116 C 
BRANCH   2   3
ATOM      3  N   UNL     1      -1.188  -3.395  -4.813  1.00  0.00    -0.350 N 
ATOM      4  C   UNL     1      -1.358  -4.680  -5.299  1.00  0.00     0.277 C 
ATOM      5  O   UNL     1      -2.290  -5.338  -4.832  1.00  0.00    -0.267 OA
ATOM      6  H   UNL     1      -1.833  -3.113  -4.125  1.00  0.00     0.163 HD
BRANCH   4   7
ATOM      7  C   UNL     1      -0.477  -5.235  -6.324  1.00  0.00     0.216 A 
ATOM      8  C   UNL     1       0.934  -5.251  -6.475  1.00  0.00     0.207 A 
ATOM      9  N   UNL     1       1.249  -5.827  -7.634  1.00  0.00    -0.031 NA
ATOM     10  O   UNL     1       0.051  -6.271  -8.163  1.00  0.00    -0.242 OA
ATOM     11  N   UNL     1      -1.011  -5.921  -7.350  1.00  0.00    -0.042 NA
BRANCH   8  12
ATOM     12  N   UNL     1       1.876  -4.732  -5.654  1.00  0.00    -0.326 N 
ATOM     13  H   UNL     1       2.235  -3.833  -5.829  1.00  0.00     0.166 HD
BRANCH  12  14
ATOM     14  C   UNL     1       2.361  -5.489  -4.521  1.00  0.00     0.307 C 
ATOM     15  C   UNL     1       1.165  -3.776  -0.851  1.00  0.00     0.161 A 
ATOM     16  C   UNL     1       0.240  -4.603  -1.500  1.00  0.00     0.051 A 
ATOM     17  C   UNL     1       2.492  -3.632  -1.348  1.00  0.00     0.175 A 
ATOM     18  C   UNL     1       0.570  -5.225  -2.694  1.00  0.00     0.014 A 
ATOM     19  C   UNL     1       2.781  -4.239  -2.569  1.00  0.00     0.114 A 
ATOM     20  C   UNL     1       1.821  -4.988  -3.240  1.00  0.00     0.032 A 
ATOM     21  C   UNL     1       4.003  -4.336  -3.378  1.00  0.00     0.344 C 
ATOM     22  O   UNL     1       5.077  -3.779  -3.236  1.00  0.00    -0.246 OA
ATOM     23  O   UNL     1       3.750  -5.184  -4.415  1.00  0.00    -0.434 OA
BRANCH  15  24
ATOM     24  O   UNL     1       0.817  -3.154   0.326  1.00  0.00    -0.493 OA
ATOM     25  C   UNL     1      -0.462  -2.501   0.353  1.00  0.00     0.278 C 
ENDBRANCH  15  24
BRANCH  17  26
ATOM     26  O   UNL     1       3.359  -2.974  -0.525  1.00  0.00    -0.492 OA
ATOM     27  C   UNL     1       4.447  -2.236  -1.070  1.00  0.00     0.278 C 
ENDBRANCH  17  26
ENDBRANCH  12  14
ENDBRANCH   8  12
ENDBRANCH   4   7
ENDBRANCH   2   3
ENDBRANCH   1   2
BRANCH   1  28
ATOM     28  C   UNL     1      -0.435  -0.577  -3.304  1.00  0.00     0.023 C 
BRANCH  28  29
ATOM     29  C   UNL     1       0.947  -0.721  -2.642  1.00  0.00     0.116 C 
BRANCH  29  30
ATOM     30  N   UNL     1       1.746   0.488  -2.532  1.00  0.00    -0.352 N 
ATOM     31  C   UNL     1       2.381   1.048  -1.436  1.00  0.00     0.251 C 
ATOM     32  H   UNL     1       1.854   0.990  -3.373  1.00  0.00     0.163 HD
ATOM     33  O   UNL     1       3.364   1.762  -1.635  1.00  0.00    -0.269 OA
BRANCH  31  34
ATOM     34  C   UNL     1       1.874   0.931  -0.041  1.00  0.00     0.039 A 
ATOM     35  C   UNL     1       1.451   2.090   0.608  1.00  0.00     0.014 A 
ATOM     36  C   UNL     1       1.927  -0.236   0.709  1.00  0.00     0.014 A 
ATOM     37  C   UNL     1       0.991   2.043   1.940  1.00  0.00     0.010 A 
ATOM     38  C   UNL     1       1.390  -0.305   2.012  1.00  0.00     0.010 A 
ATOM     39  C   UNL     1       0.870   0.827   2.645  1.00  0.00    -0.014 A 
BRANCH  39  40
ATOM     40  C   UNL     1       0.107   0.753   3.946  1.00  0.00     0.031 A 
ATOM     41  C   UNL     1       0.634   0.082   5.204  1.00  0.00     0.074 A 
ATOM     42  C   UNL     1      -1.157   1.239   3.987  1.00  0.00     0.049 A 
ATOM     43  N   UNL     1       0.073  -0.001   6.392  1.00  0.00    -0.248 NA
ATOM     44  C   UNL     1       1.919  -0.624   5.116  1.00  0.00     0.031 C 
ATOM     45  C   UNL     1      -1.893   1.777   2.839  1.00  0.00     0.029 A 
ATOM     46  N   UNL     1      -2.047   1.376   5.029  1.00  0.00    -0.354 N 
ATOM     47  C   UNL     1       0.922  -0.780   7.177  1.00  0.00     0.074 A 
ATOM     48  C   UNL     1       2.000  -1.203   6.307  1.00  0.00     0.031 C 
ATOM     49  C   UNL     1      -3.070   2.267   3.252  1.00  0.00     0.029 A 
ATOM     50  C   UNL     1      -3.206   2.036   4.685  1.00  0.00     0.049 A 
ATOM     51  H   UNL     1      -1.871   1.035   5.936  1.00  0.00     0.167 HD
ATOM     52  C   UNL     1       0.844  -1.089   8.499  1.00  0.00     0.037 A 
ATOM     53  C   UNL     1      -4.261   2.437   5.424  1.00  0.00     0.037 A 
ATOM     54  C   UNL     1      -0.199  -0.637   9.391  1.00  0.00     0.049 A 
ATOM     55  C   UNL     1      -4.291   2.166   6.901  1.00  0.00     0.074 A 
ATOM     56  C   UNL     1      -0.296  -0.813  10.763  1.00  0.00     0.029 A 
ATOM     57  N   UNL     1      -1.322   0.078   9.007  1.00  0.00    -0.354 N 
ATOM     58  N   UNL     1      -3.410   1.538   7.641  1.00  0.00    -0.248 NA
ATOM     59  C   UNL     1      -5.455   2.667   7.646  1.00  0.00     0.031 C 
ATOM     60  C   UNL     1      -1.492  -0.232  11.202  1.00  0.00     0.029 A 
ATOM     61  C   UNL     1      -2.120   0.342  10.111  1.00  0.00     0.049 A 
ATOM     62  H   UNL     1      -1.524   0.358   8.085  1.00  0.00     0.167 HD
ATOM     63  C   UNL     1      -3.900   1.594   8.941  1.00  0.00     0.074 A 
ATOM     64  C   UNL     1      -5.147   2.327   8.890  1.00  0.00     0.031 C 
ATOM     65  C   UNL     1      -3.358   1.081  10.072  1.00  0.00     0.037 A 
BRANCH  52  66
ATOM     66  C   UNL     1       1.951  -1.932   9.090  1.00  0.00     0.058 A 
ATOM     67  C   UNL     1       3.260  -1.435   9.216  1.00  0.00     0.135 A 
ATOM     68  C   UNL     1       1.701  -3.226   9.579  1.00  0.00     0.135 A 
ATOM     69  F   UNL     1       3.559  -0.202   8.777  1.00  0.00    -0.206 F 
ATOM     70  C   UNL     1       4.289  -2.208   9.745  1.00  0.00     0.059 A 
ATOM     71  C   UNL     1       2.710  -4.005  10.145  1.00  0.00     0.059 A 
ATOM     72  F   UNL     1       0.466  -3.748   9.514  1.00  0.00    -0.206 F 
ATOM     73  C   UNL     1       4.006  -3.496  10.199  1.00  0.00     0.060 A 
BRANCH  73  74
ATOM     74  S   UNL     1       5.361  -4.495  10.854  1.00  0.00     0.124 S 
ATOM     75  O   UNL     1       6.065  -4.866   9.630  1.00  0.00    -0.237 OA
ATOM     76  O   UNL     1       6.058  -3.551  11.722  1.00  0.00    -0.237 OA
ATOM     77  O   UNL     1       4.678  -5.587  11.541  1.00  0.00    -0.744 OA
ENDBRANCH  73  74
ENDBRANCH  52  66
BRANCH  53  78
ATOM     78  C   UNL     1      -5.356   3.213   4.781  1.00  0.00     0.058 A 
ATOM     79  C   UNL     1      -5.497   4.586   5.033  1.00  0.00     0.135 A 
ATOM     80  C   UNL     1      -6.261   2.613   3.893  1.00  0.00     0.135 A 
ATOM     81  F   UNL     1      -4.657   5.203   5.878  1.00  0.00    -0.206 F 
ATOM     82  C   UNL     1      -6.508   5.336   4.441  1.00  0.00     0.059 A 
ATOM     83  C   UNL     1      -7.264   3.348   3.268  1.00  0.00     0.059 A 
ATOM     84  F   UNL     1      -6.152   1.308   3.601  1.00  0.00    -0.206 F 
ATOM     85  C   UNL     1      -7.385   4.707   3.557  1.00  0.00     0.060 A 
BRANCH  85  86
ATOM     86  S   UNL     1      -8.660   5.701   2.753  1.00  0.00     0.124 S 
ATOM     87  O   UNL     1      -9.591   5.929   3.852  1.00  0.00    -0.237 OA
ATOM     88  O   UNL     1      -7.902   6.865   2.303  1.00  0.00    -0.237 OA
ATOM     89  O   UNL     1      -9.142   4.827   1.687  1.00  0.00    -0.744 OA
ENDBRANCH  85  86
ENDBRANCH  53  78
BRANCH  65  90
ATOM     90  C   UNL     1      -4.085   1.323  11.368  1.00  0.00     0.058 A 
ATOM     91  C   UNL     1      -5.288   0.667  11.677  1.00  0.00     0.135 A 
ATOM     92  C   UNL     1      -3.551   2.194  12.332  1.00  0.00     0.135 A 
ATOM     93  F   UNL     1      -5.849  -0.168  10.788  1.00  0.00    -0.206 F 
ATOM     94  C   UNL     1      -5.944   0.881  12.886  1.00  0.00     0.059 A 
ATOM     95  C   UNL     1      -4.177   2.403  13.558  1.00  0.00     0.059 A 
ATOM     96  F   UNL     1      -2.401   2.845  12.091  1.00  0.00    -0.206 F 
ATOM     97  C   UNL     1      -5.379   1.749  13.822  1.00  0.00     0.060 A 
BRANCH  97  98
ATOM     98  S   UNL     1      -6.220   1.987  15.402  1.00  0.00     0.124 S 
ATOM     99  O   UNL     1      -7.346   2.829  15.013  1.00  0.00    -0.237 OA
ATOM    100  O   UNL     1      -6.555   0.620  15.788  1.00  0.00    -0.237 OA
ATOM    101  O   UNL     1      -5.208   2.635  16.232  1.00  0.00    -0.744 OA
ENDBRANCH  97  98
ENDBRANCH  65  90
ENDBRANCH  39  40
ENDBRANCH  31  34
ENDBRANCH  29  30
ENDBRANCH  28  29
ENDBRANCH   1  28
TORSDOF 18
