REMARK SMILES COc1ccc(F)cc1[C@@H](C(=O)NCCCCNC(=O)c1ccc(-c2c3nc(c(-c4c(F)cc(S(=O)(=O)[O-])cc4F)c4ccc([nH]4)c(-c4c(F)cc(S(=O)(=O)[O-])cc4F)c4nc(c(-c5c(F)cc(S(=O)(=O)[O-])cc5F)c5ccc2[nH]5)C=C4)C=C3)cc1)[N@@H+](C)CCn1ccnc1C
REMARK SMILES IDX 15 1 14 2 13 3 11 4 12 5 10 7 9 8 3 9 4 10 5 11 8 12 6 13
REMARK SMILES IDX 7 14 2 15 1 16 87 17 88 18 89 20 90 21 91 22 92 23 95 24
REMARK SMILES IDX 93 25 94 26 96 27 16 28 17 29 18 30 19 31 20 33 21 34 22 35
REMARK SMILES IDX 86 36 23 37 85 38 24 39 25 40 26 41 79 42 27 43 84 44 78 45
REMARK SMILES IDX 80 46 28 47 83 48 77 49 76 50 29 52 63 53 42 54 62 55 43 56
REMARK SMILES IDX 46 57 61 58 81 59 44 60 45 61 60 63 82 64 47 65 30 66 31 67
REMARK SMILES IDX 40 68 32 69 33 70 39 71 41 72 34 73 35 74 36 75 37 76 38 77
REMARK SMILES IDX 64 78 65 79 74 80 66 81 67 82 73 83 75 84 68 85 69 86 70 87
REMARK SMILES IDX 71 88 72 89 48 90 49 91 58 92 50 93 51 94 57 95 59 96 52 97
REMARK SMILES IDX 53 98 54 99 55 100 56 101
REMARK H PARENT 13 6 87 19 18 32 80 51 46 62
REMARK Flexibility Score: inf
ROOT
ATOM      1  C   UNL     1       0.020   1.418  -3.103  1.00  0.00     0.023 C 
ENDROOT
BRANCH   1   2
ATOM      2  C   UNL     1      -0.818   0.788  -2.004  1.00  0.00     0.116 C 
BRANCH   2   3
ATOM      3  N   UNL     1      -1.866  -0.074  -2.476  1.00  0.00    -0.351 N 
ATOM      4  C   UNL     1      -2.278  -1.281  -2.014  1.00  0.00     0.283 C 
ATOM      5  O   UNL     1      -3.517  -1.359  -1.908  1.00  0.00    -0.268 OA
ATOM      6  H   UNL     1      -2.363   0.264  -3.256  1.00  0.00     0.163 HD
BRANCH   4   7
ATOM      7  C   UNL     1      -1.388  -2.542  -1.687  1.00  0.00     0.309 C 
BRANCH   7   8
ATOM      8  C   UNL     1       0.142  -2.542  -1.953  1.00  0.00     0.064 A 
ATOM      9  C   UNL     1       1.046  -1.773  -1.184  1.00  0.00     0.128 A 
ATOM     10  C   UNL     1       2.381  -1.599  -1.603  1.00  0.00     0.050 A 
ATOM     11  C   UNL     1       2.877  -2.284  -2.706  1.00  0.00     0.043 A 
ATOM     12  C   UNL     1       0.742  -3.368  -2.922  1.00  0.00     0.053 A 
ATOM     13  C   UNL     1       2.067  -3.213  -3.317  1.00  0.00     0.124 A 
ATOM     14  F   UNL     1       2.549  -3.972  -4.310  1.00  0.00    -0.207 F 
BRANCH   9  15
ATOM     15  O   UNL     1       0.569  -1.262   0.002  1.00  0.00    -0.496 OA
ATOM     16  C   UNL     1       1.378  -0.288   0.663  1.00  0.00     0.278 C 
ENDBRANCH   9  15
ENDBRANCH   7   8
BRANCH   7  17
ATOM     17  N   UNL     1      -2.091  -3.788  -2.196  1.00  0.00    -0.322 N 
ATOM     18  C   UNL     1      -3.280  -4.129  -1.405  1.00  0.00     0.333 C 
ATOM     19  H   UNL     1      -1.343  -4.467  -2.049  1.00  0.00     0.348 HD
BRANCH  17  20
ATOM     20  C   UNL     1      -2.355  -3.954  -3.645  1.00  0.00     0.285 C 
BRANCH  20  21
ATOM     21  C   UNL     1      -3.354  -3.150  -4.505  1.00  0.00     0.184 C 
BRANCH  21  22
ATOM     22  N   UNL     1      -3.074  -1.802  -4.959  1.00  0.00    -0.330 N 
ATOM     23  C   UNL     1      -4.079  -0.864  -5.078  1.00  0.00     0.107 A 
ATOM     24  C   UNL     1      -1.941  -1.237  -5.506  1.00  0.00     0.105 A 
ATOM     25  C   UNL     1      -3.501   0.239  -5.646  1.00  0.00     0.131 A 
ATOM     26  N   UNL     1      -2.183   0.004  -5.890  1.00  0.00    -0.242 NA
ATOM     27  C   UNL     1      -0.599  -1.849  -5.637  1.00  0.00     0.087 C 
ENDBRANCH  21  22
ENDBRANCH  20  21
ENDBRANCH  17  20
ENDBRANCH   7  17
ENDBRANCH   4   7
ENDBRANCH   2   3
ENDBRANCH   1   2
BRANCH   1  28
ATOM     28  C   UNL     1      -0.690   2.506  -3.905  1.00  0.00     0.023 C 
BRANCH  28  29
ATOM     29  C   UNL     1      -1.369   3.594  -3.082  1.00  0.00     0.116 C 
BRANCH  29  30
ATOM     30  N   UNL     1      -0.440   4.312  -2.218  1.00  0.00    -0.352 N 
ATOM     31  C   UNL     1      -0.153   5.655  -2.184  1.00  0.00     0.251 C 
ATOM     32  H   UNL     1       0.050   3.758  -1.569  1.00  0.00     0.163 HD
ATOM     33  O   UNL     1       0.786   6.067  -1.506  1.00  0.00    -0.269 OA
BRANCH  31  34
ATOM     34  C   UNL     1      -0.962   6.594  -2.989  1.00  0.00     0.039 A 
ATOM     35  C   UNL     1      -0.313   7.533  -3.794  1.00  0.00     0.014 A 
ATOM     36  C   UNL     1      -2.357   6.516  -2.981  1.00  0.00     0.014 A 
ATOM     37  C   UNL     1      -1.063   8.332  -4.661  1.00  0.00     0.010 A 
ATOM     38  C   UNL     1      -3.094   7.254  -3.902  1.00  0.00     0.010 A 
ATOM     39  C   UNL     1      -2.454   8.161  -4.759  1.00  0.00    -0.014 A 
BRANCH  39  40
ATOM     40  C   UNL     1      -3.254   8.888  -5.778  1.00  0.00     0.031 A 
ATOM     41  C   UNL     1      -4.330   9.848  -5.356  1.00  0.00     0.074 A 
ATOM     42  C   UNL     1      -3.057   8.625  -7.085  1.00  0.00     0.049 A 
ATOM     43  N   UNL     1      -5.179  10.513  -6.097  1.00  0.00    -0.248 NA
ATOM     44  C   UNL     1      -4.485  10.077  -3.911  1.00  0.00     0.031 C 
ATOM     45  C   UNL     1      -2.065   7.689  -7.618  1.00  0.00     0.029 A 
ATOM     46  N   UNL     1      -3.683   9.116  -8.205  1.00  0.00    -0.354 N 
ATOM     47  C   UNL     1      -5.966  11.238  -5.211  1.00  0.00     0.074 A 
ATOM     48  C   UNL     1      -5.537  10.881  -3.876  1.00  0.00     0.031 C 
ATOM     49  C   UNL     1      -2.123   7.702  -8.958  1.00  0.00     0.029 A 
ATOM     50  C   UNL     1      -3.189   8.604  -9.382  1.00  0.00     0.049 A 
ATOM     51  H   UNL     1      -4.416   9.772  -8.168  1.00  0.00     0.167 HD
ATOM     52  C   UNL     1      -6.939  12.139  -5.487  1.00  0.00     0.037 A 
ATOM     53  C   UNL     1      -3.556   8.828 -10.659  1.00  0.00     0.037 A 
ATOM     54  C   UNL     1      -7.360  12.486  -6.820  1.00  0.00     0.049 A 
ATOM     55  C   UNL     1      -4.683   9.781 -10.942  1.00  0.00     0.074 A 
ATOM     56  C   UNL     1      -8.314  13.410  -7.206  1.00  0.00     0.029 A 
ATOM     57  N   UNL     1      -6.860  11.918  -7.984  1.00  0.00    -0.354 N 
ATOM     58  N   UNL     1      -5.389  10.493 -10.096  1.00  0.00    -0.248 NA
ATOM     59  C   UNL     1      -5.073   9.956 -12.348  1.00  0.00     0.031 C 
ATOM     60  C   UNL     1      -8.430  13.363  -8.599  1.00  0.00     0.029 A 
ATOM     61  C   UNL     1      -7.509  12.449  -9.087  1.00  0.00     0.049 A 
ATOM     62  H   UNL     1      -6.149  11.239  -8.021  1.00  0.00     0.167 HD
ATOM     63  C   UNL     1      -6.297  11.211 -10.866  1.00  0.00     0.074 A 
ATOM     64  C   UNL     1      -6.043  10.857 -12.248  1.00  0.00     0.031 C 
ATOM     65  C   UNL     1      -7.254  12.082 -10.460  1.00  0.00     0.037 A 
BRANCH  52  66
ATOM     66  C   UNL     1      -7.610  12.816  -4.322  1.00  0.00     0.058 A 
ATOM     67  C   UNL     1      -8.958  12.566  -4.022  1.00  0.00     0.135 A 
ATOM     68  C   UNL     1      -6.921  13.735  -3.511  1.00  0.00     0.135 A 
ATOM     69  F   UNL     1      -9.667  11.697  -4.760  1.00  0.00    -0.206 F 
ATOM     70  C   UNL     1      -9.598  13.199  -2.961  1.00  0.00     0.059 A 
ATOM     71  C   UNL     1      -7.532  14.356  -2.426  1.00  0.00     0.059 A 
ATOM     72  F   UNL     1      -5.625  13.999  -3.741  1.00  0.00    -0.206 F 
ATOM     73  C   UNL     1      -8.875  14.087  -2.164  1.00  0.00     0.060 A 
BRANCH  73  74
ATOM     74  S   UNL     1      -9.698  14.842  -0.745  1.00  0.00     0.124 S 
ATOM     75  O   UNL     1     -10.621  15.768  -1.390  1.00  0.00    -0.237 OA
ATOM     76  O   UNL     1     -10.306  13.685  -0.093  1.00  0.00    -0.237 OA
ATOM     77  O   UNL     1      -8.599  15.459  -0.006  1.00  0.00    -0.744 OA
ENDBRANCH  73  74
ENDBRANCH  52  66
BRANCH  53  78
ATOM     78  C   UNL     1      -2.811   8.158 -11.758  1.00  0.00     0.058 A 
ATOM     79  C   UNL     1      -2.895   6.772 -11.966  1.00  0.00     0.135 A 
ATOM     80  C   UNL     1      -1.928   8.888 -12.568  1.00  0.00     0.135 A 
ATOM     81  F   UNL     1      -3.720   6.028 -11.214  1.00  0.00    -0.206 F 
ATOM     82  C   UNL     1      -2.098   6.128 -12.906  1.00  0.00     0.059 A 
ATOM     83  C   UNL     1      -1.138   8.269 -13.532  1.00  0.00     0.059 A 
ATOM     84  F   UNL     1      -1.825  10.217 -12.416  1.00  0.00    -0.206 F 
ATOM     85  C   UNL     1      -1.212   6.884 -13.675  1.00  0.00     0.060 A 
BRANCH  85  86
ATOM     86  S   UNL     1      -0.141   6.021 -14.845  1.00  0.00     0.124 S 
ATOM     87  O   UNL     1       0.717   5.255 -13.946  1.00  0.00    -0.237 OA
ATOM     88  O   UNL     1      -1.101   5.246 -15.623  1.00  0.00    -0.237 OA
ATOM     89  O   UNL     1       0.518   7.106 -15.565  1.00  0.00    -0.744 OA
ENDBRANCH  85  86
ENDBRANCH  53  78
BRANCH  65  90
ATOM     90  C   UNL     1      -8.114  12.723 -11.515  1.00  0.00     0.058 A 
ATOM     91  C   UNL     1      -7.998  14.094 -11.795  1.00  0.00     0.135 A 
ATOM     92  C   UNL     1      -9.128  12.004 -12.167  1.00  0.00     0.135 A 
ATOM     93  F   UNL     1      -7.047  14.830 -11.197  1.00  0.00    -0.206 F 
ATOM     94  C   UNL     1      -8.880  14.738 -12.656  1.00  0.00     0.059 A 
ATOM     95  C   UNL     1     -10.005  12.622 -13.054  1.00  0.00     0.059 A 
ATOM     96  F   UNL     1      -9.271  10.688 -11.945  1.00  0.00    -0.206 F 
ATOM     97  C   UNL     1      -9.887  13.994 -13.274  1.00  0.00     0.060 A 
BRANCH  97  98
ATOM     98  S   UNL     1     -11.043  14.852 -14.363  1.00  0.00     0.124 S 
ATOM     99  O   UNL     1     -11.776  15.691 -13.422  1.00  0.00    -0.237 OA
ATOM    100  O   UNL     1     -10.143  15.555 -15.272  1.00  0.00    -0.237 OA
ATOM    101  O   UNL     1     -11.811  13.768 -14.967  1.00  0.00    -0.744 OA
ENDBRANCH  97  98
ENDBRANCH  65  90
ENDBRANCH  39  40
ENDBRANCH  31  34
ENDBRANCH  29  30
ENDBRANCH  28  29
ENDBRANCH   1  28
TORSDOF 20
