REMARK SMILES C/C(C(=O)NCCCCNC(=O)c1ccc(-c2c3nc(c(-c4c(F)cc(S(=O)(=O)[O-])cc4F)c4ccc([nH]4)c(-c4c(F)cc(S(=O)(=O)[O-])cc4F)c4nc(c(-c5c(F)cc(S(=O)(=O)[O-])cc5F)c5ccc2[nH]5)C=C4)C=C3)cc1)=C(\C)C(=O)NCc1cscc1C
REMARK SMILES IDX 7 1 6 2 5 3 3 4 4 5 2 7 1 8 79 9 80 10 81 11 82 12 83 13
REMARK SMILES IDX 84 15 85 16 86 17 89 18 87 19 88 20 90 21 8 22 9 23 10 24
REMARK SMILES IDX 11 25 12 27 13 28 14 29 78 30 15 31 77 32 16 33 17 34 18 35
REMARK SMILES IDX 71 36 19 37 76 38 70 39 72 40 20 41 75 42 69 43 68 44 21 46
REMARK SMILES IDX 55 47 34 48 54 49 35 50 38 51 53 52 73 53 36 54 37 55 52 57
REMARK SMILES IDX 74 58 39 59 22 60 23 61 32 62 24 63 25 64 31 65 33 66 26 67
REMARK SMILES IDX 27 68 28 69 29 70 30 71 56 72 57 73 66 74 58 75 59 76 65 77
REMARK SMILES IDX 67 78 60 79 61 80 62 81 63 82 64 83 40 84 41 85 50 86 42 87
REMARK SMILES IDX 43 88 49 89 51 90 44 91 45 92 46 93 47 94 48 95
REMARK H PARENT 5 6 83 14 10 26 72 45 38 56
REMARK Flexibility Score: inf
ROOT
ATOM      1  C   UNL     1      -1.188  -1.985  -1.652  1.00  0.00     0.023 C 
ENDROOT
BRANCH   1   2
ATOM      2  C   UNL     1      -0.011  -1.167  -2.205  1.00  0.00     0.116 C 
BRANCH   2   3
ATOM      3  N   UNL     1      -0.366   0.234  -2.331  1.00  0.00    -0.352 N 
ATOM      4  C   UNL     1      -0.368   1.324  -1.513  1.00  0.00     0.247 C 
ATOM      5  O   UNL     1      -1.056   2.243  -1.948  1.00  0.00    -0.270 OA
ATOM      6  H   UNL     1      -0.687   0.453  -3.236  1.00  0.00     0.163 HD
BRANCH   4   7
ATOM      7  C   UNL     1       0.332   1.380  -0.163  1.00  0.00     0.022 C 
ATOM      8  C   UNL     1       0.526   0.052   0.528  1.00  0.00     0.051 C 
ATOM      9  C   UNL     1       0.744   2.522   0.480  1.00  0.00     0.022 C 
ATOM     10  C   UNL     1       1.472   2.412   1.794  1.00  0.00     0.051 C 
BRANCH   9  11
ATOM     11  C   UNL     1       0.574   3.948  -0.024  1.00  0.00     0.247 C 
ATOM     12  O   UNL     1      -0.059   4.234  -1.036  1.00  0.00    -0.270 OA
ATOM     13  N   UNL     1       1.084   5.055   0.571  1.00  0.00    -0.348 N 
ATOM     14  H   UNL     1       0.927   5.843   0.002  1.00  0.00     0.164 HD
BRANCH  13  15
ATOM     15  C   UNL     1       1.785   5.448   1.776  1.00  0.00     0.153 C 
BRANCH  15  16
ATOM     16  C   UNL     1       2.974   6.281   1.388  1.00  0.00    -0.015 A 
ATOM     17  C   UNL     1       2.917   7.655   1.227  1.00  0.00     0.070 A 
ATOM     18  C   UNL     1       4.316   5.789   1.143  1.00  0.00    -0.035 A 
ATOM     19  S   UNL     1       4.416   8.346   0.803  1.00  0.00    -0.152 S 
ATOM     20  C   UNL     1       5.176   6.822   0.814  1.00  0.00     0.068 A 
ATOM     21  C   UNL     1       4.750   4.362   1.214  1.00  0.00     0.045 C 
ENDBRANCH  15  16
ENDBRANCH  13  15
ENDBRANCH   9  11
ENDBRANCH   4   7
ENDBRANCH   2   3
ENDBRANCH   1   2
BRANCH   1  22
ATOM     22  C   UNL     1      -2.317  -2.265  -2.643  1.00  0.00     0.023 C 
BRANCH  22  23
ATOM     23  C   UNL     1      -1.911  -3.037  -3.888  1.00  0.00     0.116 C 
BRANCH  23  24
ATOM     24  N   UNL     1      -1.206  -4.276  -3.594  1.00  0.00    -0.352 N 
ATOM     25  C   UNL     1      -1.212  -5.446  -4.311  1.00  0.00     0.251 C 
ATOM     26  H   UNL     1      -0.655  -4.274  -2.777  1.00  0.00     0.163 HD
ATOM     27  O   UNL     1      -0.635  -6.441  -3.879  1.00  0.00    -0.269 OA
BRANCH  25  28
ATOM     28  C   UNL     1      -1.958  -5.501  -5.582  1.00  0.00     0.039 A 
ATOM     29  C   UNL     1      -2.882  -6.529  -5.776  1.00  0.00     0.014 A 
ATOM     30  C   UNL     1      -1.787  -4.505  -6.548  1.00  0.00     0.014 A 
ATOM     31  C   UNL     1      -3.687  -6.522  -6.916  1.00  0.00     0.010 A 
ATOM     32  C   UNL     1      -2.637  -4.461  -7.646  1.00  0.00     0.010 A 
ATOM     33  C   UNL     1      -3.595  -5.468  -7.840  1.00  0.00    -0.014 A 
BRANCH  33  34
ATOM     34  C   UNL     1      -4.494  -5.398  -9.018  1.00  0.00     0.031 A 
ATOM     35  C   UNL     1      -3.922  -5.502 -10.404  1.00  0.00     0.074 A 
ATOM     36  C   UNL     1      -5.809  -5.170  -8.836  1.00  0.00     0.049 A 
ATOM     37  N   UNL     1      -4.529  -5.393 -11.556  1.00  0.00    -0.248 NA
ATOM     38  C   UNL     1      -2.472  -5.731 -10.508  1.00  0.00     0.031 C 
ATOM     39  C   UNL     1      -6.468  -4.995  -7.539  1.00  0.00     0.029 A 
ATOM     40  N   UNL     1      -6.828  -5.033  -9.745  1.00  0.00    -0.354 N 
ATOM     41  C   UNL     1      -3.537  -5.523 -12.520  1.00  0.00     0.074 A 
ATOM     42  C   UNL     1      -2.281  -5.668 -11.817  1.00  0.00     0.031 C 
ATOM     43  C   UNL     1      -7.782  -4.794  -7.736  1.00  0.00     0.029 A 
ATOM     44  C   UNL     1      -8.053  -4.793  -9.170  1.00  0.00     0.049 A 
ATOM     45  H   UNL     1      -6.693  -5.100 -10.718  1.00  0.00     0.167 HD
ATOM     46  C   UNL     1      -3.664  -5.544 -13.868  1.00  0.00     0.037 A 
ATOM     47  C   UNL     1      -9.258  -4.589  -9.737  1.00  0.00     0.037 A 
ATOM     48  C   UNL     1      -4.922  -5.428 -14.557  1.00  0.00     0.049 A 
ATOM     49  C   UNL     1      -9.377  -4.633 -11.236  1.00  0.00     0.074 A 
ATOM     50  C   UNL     1      -5.168  -5.498 -15.917  1.00  0.00     0.029 A 
ATOM     51  N   UNL     1      -6.147  -5.219 -13.940  1.00  0.00    -0.354 N 
ATOM     52  N   UNL     1      -8.437  -4.823 -12.131  1.00  0.00    -0.248 NA
ATOM     53  C   UNL     1     -10.719  -4.442 -11.802  1.00  0.00     0.031 C 
ATOM     54  C   UNL     1      -6.537  -5.297 -16.124  1.00  0.00     0.029 A 
ATOM     55  C   UNL     1      -7.150  -5.144 -14.891  1.00  0.00     0.049 A 
ATOM     56  H   UNL     1      -6.282  -5.137 -12.968  1.00  0.00     0.167 HD
ATOM     57  C   UNL     1      -9.078  -4.801 -13.365  1.00  0.00     0.074 A 
ATOM     58  C   UNL     1     -10.486  -4.589 -13.100  1.00  0.00     0.031 C 
ATOM     59  C   UNL     1      -8.549  -4.942 -14.605  1.00  0.00     0.037 A 
BRANCH  46  60
ATOM     60  C   UNL     1      -2.411  -5.709 -14.682  1.00  0.00     0.058 A 
ATOM     61  C   UNL     1      -1.713  -6.927 -14.717  1.00  0.00     0.135 A 
ATOM     62  C   UNL     1      -1.915  -4.647 -15.456  1.00  0.00     0.135 A 
ATOM     63  F   UNL     1      -2.134  -7.969 -13.982  1.00  0.00    -0.206 F 
ATOM     64  C   UNL     1      -0.551  -7.078 -15.466  1.00  0.00     0.059 A 
ATOM     65  C   UNL     1      -0.769  -4.785 -16.234  1.00  0.00     0.059 A 
ATOM     66  F   UNL     1      -2.542  -3.461 -15.457  1.00  0.00    -0.206 F 
ATOM     67  C   UNL     1      -0.086  -6.000 -16.220  1.00  0.00     0.060 A 
BRANCH  67  68
ATOM     68  S   UNL     1       1.422  -6.214 -17.190  1.00  0.00     0.124 S 
ATOM     69  O   UNL     1       2.444  -6.184 -16.148  1.00  0.00    -0.237 OA
ATOM     70  O   UNL     1       1.205  -7.509 -17.826  1.00  0.00    -0.237 OA
ATOM     71  O   UNL     1       1.412  -5.066 -18.092  1.00  0.00    -0.744 OA
ENDBRANCH  67  68
ENDBRANCH  46  60
BRANCH  47  72
ATOM     72  C   UNL     1     -10.452  -4.356  -8.881  1.00  0.00     0.058 A 
ATOM     73  C   UNL     1     -11.444  -5.338  -8.749  1.00  0.00     0.135 A 
ATOM     74  C   UNL     1     -10.618  -3.158  -8.169  1.00  0.00     0.135 A 
ATOM     75  F   UNL     1     -11.332  -6.498  -9.414  1.00  0.00    -0.206 F 
ATOM     76  C   UNL     1     -12.569  -5.136  -7.955  1.00  0.00     0.059 A 
ATOM     77  C   UNL     1     -11.722  -2.942  -7.351  1.00  0.00     0.059 A 
ATOM     78  F   UNL     1      -9.687  -2.195  -8.248  1.00  0.00    -0.206 F 
ATOM     79  C   UNL     1     -12.698  -3.934  -7.258  1.00  0.00     0.060 A 
BRANCH  79  80
ATOM     80  S   UNL     1     -14.138  -3.701  -6.193  1.00  0.00     0.124 S 
ATOM     81  O   UNL     1     -15.191  -3.461  -7.172  1.00  0.00    -0.237 OA
ATOM     82  O   UNL     1     -14.204  -4.975  -5.483  1.00  0.00    -0.237 OA
ATOM     83  O   UNL     1     -13.764  -2.554  -5.371  1.00  0.00    -0.744 OA
ENDBRANCH  79  80
ENDBRANCH  47  72
BRANCH  59  84
ATOM     84  C   UNL     1      -9.498  -4.908 -15.769  1.00  0.00     0.058 A 
ATOM     85  C   UNL     1     -10.079  -3.710 -16.210  1.00  0.00     0.135 A 
ATOM     86  C   UNL     1      -9.787  -6.082 -16.484  1.00  0.00     0.135 A 
ATOM     87  F   UNL     1      -9.840  -2.562 -15.557  1.00  0.00    -0.206 F 
ATOM     88  C   UNL     1     -10.930  -3.679 -17.310  1.00  0.00     0.059 A 
ATOM     89  C   UNL     1     -10.614  -6.070 -17.602  1.00  0.00     0.059 A 
ATOM     90  F   UNL     1      -9.248  -7.253 -16.108  1.00  0.00    -0.206 F 
ATOM     91  C   UNL     1     -11.190  -4.865 -18.001  1.00  0.00     0.060 A 
BRANCH  91  92
ATOM     92  S   UNL     1     -12.266  -4.806 -19.449  1.00  0.00     0.124 S 
ATOM     93  O   UNL     1     -13.582  -4.679 -18.833  1.00  0.00    -0.237 OA
ATOM     94  O   UNL     1     -11.779  -3.624 -20.154  1.00  0.00    -0.237 OA
ATOM     95  O   UNL     1     -12.005  -6.078 -20.117  1.00  0.00    -0.744 OA
ENDBRANCH  91  92
ENDBRANCH  59  84
ENDBRANCH  33  34
ENDBRANCH  25  28
ENDBRANCH  23  24
ENDBRANCH  22  23
ENDBRANCH   1  22
TORSDOF 17
