REMARK SMILES CC(C)(C)OC(=O)N1CCC(c2c(C(=O)NCCCCNC(=O)c3ccc(-c4c5nc(c(-c6c(F)cc(S(=O)(=O)[O-])cc6F)c6ccc([nH]6)c(-c6c(F)cc(S(=O)(=O)[O-])cc6F)c6nc(c(-c7c(F)cc(S(=O)(=O)[O-])cc7F)c7ccc4[nH]7)C=C6)C=C5)cc3)cnn2-c2ccccc2)CC1
REMARK SMILES IDX 18 1 17 2 16 3 14 4 15 5 13 7 12 8 92 9 90 10 91 11 11 12
REMARK SMILES IDX 6 13 7 14 8 15 9 16 100 17 10 18 99 19 5 20 2 21 1 22 3 23
REMARK SMILES IDX 4 24 93 25 94 26 98 27 95 28 97 29 96 30 19 31 20 32 21 33
REMARK SMILES IDX 22 34 23 36 24 37 25 38 89 39 26 40 88 41 27 42 28 43 29 44
REMARK SMILES IDX 82 45 30 46 87 47 81 48 83 49 31 50 86 51 80 52 79 53 32 55
REMARK SMILES IDX 66 56 45 57 65 58 46 59 49 60 64 61 84 62 47 63 48 64 63 66
REMARK SMILES IDX 85 67 50 68 33 69 34 70 43 71 35 72 36 73 42 74 44 75 37 76
REMARK SMILES IDX 38 77 39 78 40 79 41 80 67 81 68 82 77 83 69 84 70 85 76 86
REMARK SMILES IDX 78 87 71 88 72 89 73 90 74 91 75 92 51 93 52 94 61 95 53 96
REMARK SMILES IDX 54 97 60 98 62 99 55 100 56 101 57 102 58 103 59 104
REMARK H PARENT 16 6 21 35 83 54 49 65
REMARK Flexibility Score: inf
ROOT
ATOM      1  C   UNL     1      -0.169   5.622 -11.844  1.00  0.00     0.023 C 
ENDROOT
BRANCH   1   2
ATOM      2  C   UNL     1       0.738   6.565 -11.049  1.00  0.00     0.116 C 
BRANCH   2   3
ATOM      3  N   UNL     1       0.423   6.612  -9.633  1.00  0.00    -0.352 N 
ATOM      4  C   UNL     1       0.968   6.078  -8.489  1.00  0.00     0.254 C 
ATOM      5  O   UNL     1       0.398   6.411  -7.447  1.00  0.00    -0.269 OA
ATOM      6  H   UNL     1      -0.374   7.159  -9.446  1.00  0.00     0.163 HD
BRANCH   4   7
ATOM      7  C   UNL     1       2.126   5.175  -8.470  1.00  0.00     0.081 A 
ATOM      8  C   UNL     1       2.592   4.430  -7.353  1.00  0.00     0.060 A 
ATOM      9  N   UNL     1       3.753   3.792  -7.794  1.00  0.00    -0.237 N 
ATOM     10  C   UNL     1       3.063   4.883  -9.475  1.00  0.00     0.149 A 
ATOM     11  N   UNL     1       4.053   4.101  -9.072  1.00  0.00    -0.175 NA
BRANCH   8  12
ATOM     12  C   UNL     1       1.998   4.423  -5.930  1.00  0.00     0.043 C 
ATOM     13  C   UNL     1       0.495   1.851  -3.290  1.00  0.00     0.410 C 
ATOM     14  O   UNL     1      -0.300   1.178  -3.952  1.00  0.00    -0.224 OA
ATOM     15  N   UNL     1       0.805   3.155  -3.619  1.00  0.00    -0.308 N 
ATOM     16  C   UNL     1      -0.035   3.832  -4.583  1.00  0.00     0.124 C 
ATOM     17  C   UNL     1       2.105   3.782  -3.409  1.00  0.00     0.124 C 
ATOM     18  C   UNL     1       0.615   3.738  -5.953  1.00  0.00     0.032 C 
ATOM     19  C   UNL     1       2.850   3.860  -4.760  1.00  0.00     0.032 C 
BRANCH  13  20
ATOM     20  O   UNL     1       1.077   1.416  -2.142  1.00  0.00    -0.444 OA
BRANCH  20  21
ATOM     21  C   UNL     1       0.614   0.165  -1.554  1.00  0.00     0.106 C 
ATOM     22  C   UNL     1       1.236   0.107  -0.150  1.00  0.00     0.056 C 
ATOM     23  C   UNL     1       1.118  -1.035  -2.364  1.00  0.00     0.056 C 
ATOM     24  C   UNL     1      -0.916   0.124  -1.375  1.00  0.00     0.056 C 
ENDBRANCH  20  21
ENDBRANCH  13  20
ENDBRANCH   8  12
BRANCH   9  25
ATOM     25  C   UNL     1       4.660   2.927  -7.148  1.00  0.00     0.065 A 
ATOM     26  C   UNL     1       6.013   3.294  -7.118  1.00  0.00     0.028 A 
ATOM     27  C   UNL     1       4.250   1.691  -6.644  1.00  0.00     0.028 A 
ATOM     28  C   UNL     1       6.940   2.470  -6.486  1.00  0.00     0.002 A 
ATOM     29  C   UNL     1       5.184   0.872  -6.008  1.00  0.00     0.002 A 
ATOM     30  C   UNL     1       6.522   1.267  -5.918  1.00  0.00     0.000 A 
ENDBRANCH   9  25
ENDBRANCH   4   7
ENDBRANCH   2   3
ENDBRANCH   1   2
BRANCH   1  31
ATOM     31  C   UNL     1      -1.585   6.146 -12.140  1.00  0.00     0.023 C 
BRANCH  31  32
ATOM     32  C   UNL     1      -1.648   7.432 -12.960  1.00  0.00     0.116 C 
BRANCH  32  33
ATOM     33  N   UNL     1      -1.029   7.314 -14.284  1.00  0.00    -0.352 N 
ATOM     34  C   UNL     1      -0.803   8.322 -15.208  1.00  0.00     0.251 C 
ATOM     35  H   UNL     1      -0.740   6.410 -14.547  1.00  0.00     0.163 HD
ATOM     36  O   UNL     1      -0.658   8.069 -16.396  1.00  0.00    -0.269 OA
BRANCH  34  37
ATOM     37  C   UNL     1      -0.708   9.709 -14.718  1.00  0.00     0.039 A 
ATOM     38  C   UNL     1      -1.296  10.790 -15.382  1.00  0.00     0.014 A 
ATOM     39  C   UNL     1      -0.024   9.893 -13.522  1.00  0.00     0.014 A 
ATOM     40  C   UNL     1      -1.255  12.050 -14.783  1.00  0.00     0.010 A 
ATOM     41  C   UNL     1      -0.143  11.077 -12.853  1.00  0.00     0.010 A 
ATOM     42  C   UNL     1      -0.683  12.178 -13.510  1.00  0.00    -0.014 A 
BRANCH  42  43
ATOM     43  C   UNL     1      -0.712  13.427 -12.757  1.00  0.00     0.031 A 
ATOM     44  C   UNL     1      -2.084  13.881 -12.389  1.00  0.00     0.074 A 
ATOM     45  C   UNL     1       0.418  13.900 -12.179  1.00  0.00     0.049 A 
ATOM     46  N   UNL     1      -2.715  14.938 -12.781  1.00  0.00    -0.248 NA
ATOM     47  C   UNL     1      -2.932  12.947 -11.622  1.00  0.00     0.031 C 
ATOM     48  C   UNL     1       1.757  13.288 -12.193  1.00  0.00     0.029 A 
ATOM     49  N   UNL     1       0.592  14.945 -11.328  1.00  0.00    -0.354 N 
ATOM     50  C   UNL     1      -3.929  14.930 -12.091  1.00  0.00     0.074 A 
ATOM     51  C   UNL     1      -4.104  13.584 -11.622  1.00  0.00     0.031 C 
ATOM     52  C   UNL     1       2.513  13.815 -11.206  1.00  0.00     0.029 A 
ATOM     53  C   UNL     1       1.788  14.918 -10.609  1.00  0.00     0.049 A 
ATOM     54  H   UNL     1      -0.072  15.665 -11.227  1.00  0.00     0.167 HD
ATOM     55  C   UNL     1      -4.530  16.092 -11.704  1.00  0.00     0.037 A 
ATOM     56  C   UNL     1       2.130  15.725  -9.571  1.00  0.00     0.037 A 
ATOM     57  C   UNL     1      -3.941  17.214 -12.395  1.00  0.00     0.049 A 
ATOM     58  C   UNL     1       1.223  16.900  -9.636  1.00  0.00     0.074 A 
ATOM     59  C   UNL     1      -3.815  17.598 -13.715  1.00  0.00     0.029 A 
ATOM     60  N   UNL     1      -3.017  17.948 -11.693  1.00  0.00    -0.354 N 
ATOM     61  N   UNL     1       1.207  17.753 -10.627  1.00  0.00    -0.248 NA
ATOM     62  C   UNL     1       0.013  16.857  -8.832  1.00  0.00     0.031 C 
ATOM     63  C   UNL     1      -2.525  18.199 -13.801  1.00  0.00     0.029 A 
ATOM     64  C   UNL     1      -1.965  18.227 -12.522  1.00  0.00     0.049 A 
ATOM     65  H   UNL     1      -3.098  18.227 -10.752  1.00  0.00     0.167 HD
ATOM     66  C   UNL     1      -0.137  18.039 -10.830  1.00  0.00     0.074 A 
ATOM     67  C   UNL     1      -0.814  17.527  -9.639  1.00  0.00     0.031 C 
ATOM     68  C   UNL     1      -0.600  18.393 -12.066  1.00  0.00     0.037 A 
BRANCH  55  69
ATOM     69  C   UNL     1      -5.318  16.288 -10.416  1.00  0.00     0.058 A 
ATOM     70  C   UNL     1      -5.893  17.555 -10.162  1.00  0.00     0.135 A 
ATOM     71  C   UNL     1      -5.287  15.416  -9.304  1.00  0.00     0.135 A 
ATOM     72  F   UNL     1      -6.003  18.466 -11.142  1.00  0.00    -0.206 F 
ATOM     73  C   UNL     1      -6.291  17.961  -8.887  1.00  0.00     0.059 A 
ATOM     74  C   UNL     1      -5.727  15.783  -8.036  1.00  0.00     0.059 A 
ATOM     75  F   UNL     1      -4.750  14.193  -9.354  1.00  0.00    -0.206 F 
ATOM     76  C   UNL     1      -6.181  17.072  -7.825  1.00  0.00     0.060 A 
BRANCH  76  77
ATOM     77  S   UNL     1      -6.585  17.624  -6.160  1.00  0.00     0.124 S 
ATOM     78  O   UNL     1      -5.510  18.575  -5.902  1.00  0.00    -0.237 OA
ATOM     79  O   UNL     1      -7.915  18.193  -6.346  1.00  0.00    -0.237 OA
ATOM     80  O   UNL     1      -6.540  16.391  -5.379  1.00  0.00    -0.744 OA
ENDBRANCH  76  77
ENDBRANCH  55  69
BRANCH  56  81
ATOM     81  C   UNL     1       2.900  15.368  -8.345  1.00  0.00     0.058 A 
ATOM     82  C   UNL     1       3.419  16.357  -7.488  1.00  0.00     0.135 A 
ATOM     83  C   UNL     1       2.898  14.053  -7.837  1.00  0.00     0.135 A 
ATOM     84  F   UNL     1       3.437  17.641  -7.877  1.00  0.00    -0.206 F 
ATOM     85  C   UNL     1       3.871  16.066  -6.193  1.00  0.00     0.059 A 
ATOM     86  C   UNL     1       3.349  13.737  -6.554  1.00  0.00     0.059 A 
ATOM     87  F   UNL     1       2.372  13.041  -8.545  1.00  0.00    -0.206 F 
ATOM     88  C   UNL     1       3.815  14.752  -5.727  1.00  0.00     0.060 A 
BRANCH  88  89
ATOM     89  S   UNL     1       4.250  14.393  -4.006  1.00  0.00     0.124 S 
ATOM     90  O   UNL     1       5.690  14.631  -4.003  1.00  0.00    -0.237 OA
ATOM     91  O   UNL     1       3.443  15.362  -3.273  1.00  0.00    -0.237 OA
ATOM     92  O   UNL     1       3.850  12.998  -3.839  1.00  0.00    -0.744 OA
ENDBRANCH  88  89
ENDBRANCH  56  81
BRANCH  68  93
ATOM     93  C   UNL     1       0.397  18.809 -13.117  1.00  0.00     0.058 A 
ATOM     94  C   UNL     1       1.317  17.948 -13.744  1.00  0.00     0.135 A 
ATOM     95  C   UNL     1       0.265  20.100 -13.648  1.00  0.00     0.135 A 
ATOM     96  F   UNL     1       1.444  16.673 -13.354  1.00  0.00    -0.206 F 
ATOM     97  C   UNL     1       2.076  18.360 -14.843  1.00  0.00     0.059 A 
ATOM     98  C   UNL     1       0.988  20.522 -14.758  1.00  0.00     0.059 A 
ATOM     99  F   UNL     1      -0.636  20.950 -13.127  1.00  0.00    -0.206 F 
ATOM    100  C   UNL     1       1.896  19.648 -15.350  1.00  0.00     0.060 A 
BRANCH 100 101
ATOM    101  S   UNL     1       2.791  20.149 -16.837  1.00  0.00     0.124 S 
ATOM    102  O   UNL     1       4.159  20.273 -16.345  1.00  0.00    -0.237 OA
ATOM    103  O   UNL     1       2.543  19.035 -17.748  1.00  0.00    -0.237 OA
ATOM    104  O   UNL     1       2.148  21.405 -17.215  1.00  0.00    -0.744 OA
ENDBRANCH 100 101
ENDBRANCH  68  93
ENDBRANCH  42  43
ENDBRANCH  34  37
ENDBRANCH  32  33
ENDBRANCH  31  32
ENDBRANCH   1  31
TORSDOF 18
