REMARK SMILES C[C@@H](c1ccco1)n1c(SCC(=O)NCCCCNC(=O)c2ccc(-c3c4nc(c(-c5c(F)cc(S(=O)(=O)[O-])cc5F)c5ccc([nH]5)c(-c5c(F)cc(S(=O)(=O)[O-])cc5F)c5nc(c(-c6c(F)cc(S(=O)(=O)[O-])cc6F)c6ccc3[nH]6)C=C5)C=C4)cc2)nc2cnccc21
REMARK SMILES IDX 16 1 15 2 14 3 12 4 13 5 11 7 10 8 9 9 8 10 94 11 88 12
REMARK SMILES IDX 89 13 93 14 90 15 92 16 91 17 2 18 1 19 3 20 4 21 7 22 5 23
REMARK SMILES IDX 6 24 17 25 18 26 19 27 20 28 21 30 22 31 23 32 87 33 24 34
REMARK SMILES IDX 86 35 25 36 26 37 27 38 80 39 28 40 85 41 79 42 81 43 29 44
REMARK SMILES IDX 84 45 78 46 77 47 30 49 64 50 43 51 63 52 44 53 47 54 62 55
REMARK SMILES IDX 82 56 45 57 46 58 61 60 83 61 48 62 31 63 32 64 41 65 33 66
REMARK SMILES IDX 34 67 40 68 42 69 35 70 36 71 37 72 38 73 39 74 65 75 66 76
REMARK SMILES IDX 75 77 67 78 68 79 74 80 76 81 69 82 70 83 71 84 72 85 73 86
REMARK SMILES IDX 49 87 50 88 59 89 51 90 52 91 58 92 60 93 53 94 54 95 55 96
REMARK SMILES IDX 56 97 57 98
REMARK H PARENT 14 6 19 29 81 48 47 59
REMARK Flexibility Score: inf
ROOT
ATOM      1  C   UNL     1      -1.323  -5.174  -1.043  1.00  0.00     0.023 C 
ENDROOT
BRANCH   1   2
ATOM      2  C   UNL     1      -0.164  -5.084  -0.050  1.00  0.00     0.116 C 
BRANCH   2   3
ATOM      3  N   UNL     1       0.916  -4.207  -0.462  1.00  0.00    -0.355 N 
ATOM      4  C   UNL     1       1.272  -2.987   0.036  1.00  0.00     0.230 C 
ATOM      5  O   UNL     1       2.371  -2.523  -0.288  1.00  0.00    -0.274 OA
ATOM      6  H   UNL     1       1.470  -4.539  -1.206  1.00  0.00     0.163 HD
BRANCH   4   7
ATOM      7  C   UNL     1       0.429  -2.273   1.062  1.00  0.00     0.178 C 
BRANCH   7   8
ATOM      8  S   UNL     1      -1.250  -1.918   0.629  1.00  0.00    -0.078 SA
BRANCH   8   9
ATOM      9  C   UNL     1      -1.595  -0.751  -0.596  1.00  0.00     0.170 A 
ATOM     10  N   UNL     1      -0.845   0.007  -1.474  1.00  0.00    -0.308 N 
ATOM     11  C   UNL     1      -1.748   0.717  -2.276  1.00  0.00     0.073 A 
ATOM     12  N   UNL     1      -2.883  -0.512  -0.768  1.00  0.00    -0.221 NA
ATOM     13  C   UNL     1      -3.003   0.359  -1.808  1.00  0.00     0.108 A 
ATOM     14  C   UNL     1      -1.601   1.603  -3.351  1.00  0.00     0.049 A 
ATOM     15  C   UNL     1      -4.142   0.897  -2.414  1.00  0.00     0.141 A 
ATOM     16  C   UNL     1      -2.785   2.100  -3.878  1.00  0.00     0.113 A 
ATOM     17  N   UNL     1      -4.020   1.789  -3.433  1.00  0.00    -0.262 NA
BRANCH  10  18
ATOM     18  C   UNL     1       0.591   0.161  -1.677  1.00  0.00     0.153 C 
ATOM     19  C   UNL     1       1.402   0.563  -0.452  1.00  0.00     0.040 C 
BRANCH  18  20
ATOM     20  C   UNL     1       1.170  -0.887  -2.575  1.00  0.00     0.126 A 
ATOM     21  C   UNL     1       2.241  -0.864  -3.452  1.00  0.00     0.048 A 
ATOM     22  O   UNL     1       0.517  -2.080  -2.691  1.00  0.00    -0.467 OA
ATOM     23  C   UNL     1       2.250  -2.111  -4.118  1.00  0.00     0.042 A 
ATOM     24  C   UNL     1       1.182  -2.813  -3.619  1.00  0.00     0.195 A 
ENDBRANCH  18  20
ENDBRANCH  10  18
ENDBRANCH   8   9
ENDBRANCH   7   8
ENDBRANCH   4   7
ENDBRANCH   2   3
ENDBRANCH   1   2
BRANCH   1  25
ATOM     25  C   UNL     1      -1.076  -5.882  -2.383  1.00  0.00     0.023 C 
BRANCH  25  26
ATOM     26  C   UNL     1      -0.138  -7.084  -2.371  1.00  0.00     0.116 C 
BRANCH  26  27
ATOM     27  N   UNL     1      -0.566  -8.158  -1.501  1.00  0.00    -0.352 N 
ATOM     28  C   UNL     1      -1.332  -9.280  -1.651  1.00  0.00     0.251 C 
ATOM     29  H   UNL     1      -0.225  -8.056  -0.583  1.00  0.00     0.163 HD
ATOM     30  O   UNL     1      -1.327 -10.051  -0.685  1.00  0.00    -0.269 OA
BRANCH  28  31
ATOM     31  C   UNL     1      -2.184  -9.610  -2.828  1.00  0.00     0.039 A 
ATOM     32  C   UNL     1      -2.277  -8.873  -4.007  1.00  0.00     0.014 A 
ATOM     33  C   UNL     1      -3.007 -10.747  -2.687  1.00  0.00     0.014 A 
ATOM     34  C   UNL     1      -3.227  -9.211  -4.971  1.00  0.00     0.010 A 
ATOM     35  C   UNL     1      -3.949 -11.095  -3.653  1.00  0.00     0.010 A 
ATOM     36  C   UNL     1      -4.093 -10.298  -4.780  1.00  0.00    -0.014 A 
BRANCH  36  37
ATOM     37  C   UNL     1      -5.047 -10.615  -5.846  1.00  0.00     0.031 A 
ATOM     38  C   UNL     1      -4.413 -10.825  -7.177  1.00  0.00     0.074 A 
ATOM     39  C   UNL     1      -6.381 -10.765  -5.691  1.00  0.00     0.049 A 
ATOM     40  N   UNL     1      -4.429 -10.018  -8.186  1.00  0.00    -0.248 NA
ATOM     41  C   UNL     1      -3.521 -11.980  -7.353  1.00  0.00     0.031 C 
ATOM     42  C   UNL     1      -7.155 -10.830  -4.450  1.00  0.00     0.029 A 
ATOM     43  N   UNL     1      -7.338 -10.951  -6.651  1.00  0.00    -0.354 N 
ATOM     44  C   UNL     1      -3.743 -10.664  -9.210  1.00  0.00     0.074 A 
ATOM     45  C   UNL     1      -3.066 -11.775  -8.592  1.00  0.00     0.031 C 
ATOM     46  C   UNL     1      -8.415 -11.249  -4.722  1.00  0.00     0.029 A 
ATOM     47  C   UNL     1      -8.586 -11.332  -6.162  1.00  0.00     0.049 A 
ATOM     48  H   UNL     1      -7.159 -10.825  -7.610  1.00  0.00     0.167 HD
ATOM     49  C   UNL     1      -3.983 -10.358 -10.516  1.00  0.00     0.037 A 
ATOM     50  C   UNL     1      -9.678 -11.693  -6.889  1.00  0.00     0.037 A 
ATOM     51  C   UNL     1      -4.672  -9.096 -10.631  1.00  0.00     0.049 A 
ATOM     52  C   UNL     1      -9.523 -11.079  -8.230  1.00  0.00     0.074 A 
ATOM     53  C   UNL     1      -4.397  -7.786 -10.291  1.00  0.00     0.029 A 
ATOM     54  N   UNL     1      -6.022  -9.143 -10.877  1.00  0.00    -0.354 N 
ATOM     55  N   UNL     1      -9.562  -9.794  -8.452  1.00  0.00    -0.248 NA
ATOM     56  C   UNL     1      -8.903 -11.876  -9.275  1.00  0.00     0.031 C 
ATOM     57  C   UNL     1      -5.652  -7.232  -9.900  1.00  0.00     0.029 A 
ATOM     58  C   UNL     1      -6.627  -8.214 -10.077  1.00  0.00     0.049 A 
ATOM     59  H   UNL     1      -6.474  -9.740 -11.517  1.00  0.00     0.167 HD
ATOM     60  C   UNL     1      -8.601  -9.578  -9.426  1.00  0.00     0.074 A 
ATOM     61  C   UNL     1      -8.300 -10.904  -9.962  1.00  0.00     0.031 C 
ATOM     62  C   UNL     1      -7.948  -8.384  -9.515  1.00  0.00     0.037 A 
BRANCH  49  63
ATOM     63  C   UNL     1      -4.004 -11.367 -11.649  1.00  0.00     0.058 A 
ATOM     64  C   UNL     1      -4.272 -10.906 -12.959  1.00  0.00     0.135 A 
ATOM     65  C   UNL     1      -4.117 -12.762 -11.466  1.00  0.00     0.135 A 
ATOM     66  F   UNL     1      -4.165  -9.602 -13.263  1.00  0.00    -0.206 F 
ATOM     67  C   UNL     1      -4.756 -11.743 -13.963  1.00  0.00     0.059 A 
ATOM     68  C   UNL     1      -4.551 -13.622 -12.469  1.00  0.00     0.059 A 
ATOM     69  F   UNL     1      -3.907 -13.353 -10.286  1.00  0.00    -0.206 F 
ATOM     70  C   UNL     1      -4.920 -13.098 -13.695  1.00  0.00     0.060 A 
BRANCH  70  71
ATOM     71  S   UNL     1      -5.680 -14.153 -14.940  1.00  0.00     0.124 S 
ATOM     72  O   UNL     1      -7.040 -13.635 -14.967  1.00  0.00    -0.237 OA
ATOM     73  O   UNL     1      -4.861 -13.873 -16.112  1.00  0.00    -0.237 OA
ATOM     74  O   UNL     1      -5.523 -15.495 -14.379  1.00  0.00    -0.744 OA
ENDBRANCH  70  71
ENDBRANCH  49  63
BRANCH  50  75
ATOM     75  C   UNL     1     -10.649 -12.798  -6.640  1.00  0.00     0.058 A 
ATOM     76  C   UNL     1     -11.810 -12.940  -7.427  1.00  0.00     0.135 A 
ATOM     77  C   UNL     1     -10.302 -13.911  -5.851  1.00  0.00     0.135 A 
ATOM     78  F   UNL     1     -12.215 -11.937  -8.222  1.00  0.00    -0.206 F 
ATOM     79  C   UNL     1     -12.540 -14.135  -7.483  1.00  0.00     0.059 A 
ATOM     80  C   UNL     1     -11.017 -15.110  -5.885  1.00  0.00     0.059 A 
ATOM     81  F   UNL     1      -9.196 -13.900  -5.092  1.00  0.00    -0.206 F 
ATOM     82  C   UNL     1     -12.118 -15.227  -6.726  1.00  0.00     0.060 A 
BRANCH  82  83
ATOM     83  S   UNL     1     -12.943 -16.826  -6.931  1.00  0.00     0.124 S 
ATOM     84  O   UNL     1     -14.265 -16.559  -6.376  1.00  0.00    -0.237 OA
ATOM     85  O   UNL     1     -12.886 -17.020  -8.376  1.00  0.00    -0.237 OA
ATOM     86  O   UNL     1     -12.112 -17.739  -6.149  1.00  0.00    -0.744 OA
ENDBRANCH  82  83
ENDBRANCH  50  75
BRANCH  62  87
ATOM     87  C   UNL     1      -8.530  -7.192  -8.807  1.00  0.00     0.058 A 
ATOM     88  C   UNL     1      -8.621  -7.050  -7.412  1.00  0.00     0.135 A 
ATOM     89  C   UNL     1      -8.855  -6.075  -9.593  1.00  0.00     0.135 A 
ATOM     90  F   UNL     1      -8.246  -8.041  -6.590  1.00  0.00    -0.206 F 
ATOM     91  C   UNL     1      -9.036  -5.850  -6.827  1.00  0.00     0.059 A 
ATOM     92  C   UNL     1      -9.242  -4.864  -9.031  1.00  0.00     0.059 A 
ATOM     93  F   UNL     1      -8.737  -6.137 -10.930  1.00  0.00    -0.206 F 
ATOM     94  C   UNL     1      -9.336  -4.760  -7.646  1.00  0.00     0.060 A 
BRANCH  94  95
ATOM     95  S   UNL     1      -9.775  -3.180  -6.890  1.00  0.00     0.124 S 
ATOM     96  O   UNL     1     -11.085  -3.468  -6.314  1.00  0.00    -0.237 OA
ATOM     97  O   UNL     1      -8.691  -2.978  -5.933  1.00  0.00    -0.237 OA
ATOM     98  O   UNL     1      -9.781  -2.251  -8.018  1.00  0.00    -0.744 OA
ENDBRANCH  94  95
ENDBRANCH  62  87
ENDBRANCH  36  37
ENDBRANCH  28  31
ENDBRANCH  26  27
ENDBRANCH  25  26
ENDBRANCH   1  25
TORSDOF 18
