REMARK SMILES CC(C)[C@H](C)CNC(=O)N1CC(n2cc(C(=O)NCCCCNC(=O)c3ccc(-c4c5nc(c(-c6c(F)cc(S(=O)(=O)[O-])cc6F)c6ccc([nH]6)c(-c6c(F)cc(S(=O)(=O)[O-])cc6F)c6nc(c(-c7c(F)cc(S(=O)(=O)[O-])cc7F)c7ccc4[nH]7)C=C6)C=C5)cc3)nn2)C1
REMARK SMILES IDX 20 1 19 2 18 3 16 4 17 5 15 7 13 8 14 9 93 10 92 11 12 12
REMARK SMILES IDX 7 13 8 14 9 16 10 17 11 18 94 19 6 20 4 21 5 22 2 23 1 24
REMARK SMILES IDX 3 25 21 26 22 27 23 28 24 29 25 31 26 32 27 33 91 34 28 35
REMARK SMILES IDX 90 36 29 37 30 38 31 39 84 40 32 41 89 42 83 43 85 44 33 45
REMARK SMILES IDX 88 46 82 47 81 48 34 50 68 51 47 52 67 53 48 54 51 55 66 56
REMARK SMILES IDX 86 57 49 58 50 59 65 61 87 62 52 63 35 64 36 65 45 66 37 67
REMARK SMILES IDX 38 68 44 69 46 70 39 71 40 72 41 73 42 74 43 75 69 76 70 77
REMARK SMILES IDX 79 78 71 79 72 80 78 81 80 82 73 83 74 84 75 85 76 86 77 87
REMARK SMILES IDX 53 88 54 89 63 90 55 91 56 92 62 93 64 94 57 95 58 96 59 97
REMARK SMILES IDX 60 98 61 99
REMARK H PARENT 18 6 7 15 23 30 85 49 51 60
REMARK Flexibility Score: inf
ROOT
ATOM      1  C   UNL     1      -8.831   2.293  -7.181  1.00  0.00     0.023 C 
ENDROOT
BRANCH   1   2
ATOM      2  C   UNL     1      -8.795   2.458  -5.659  1.00  0.00     0.116 C 
BRANCH   2   3
ATOM      3  N   UNL     1      -9.848   1.702  -5.011  1.00  0.00    -0.351 N 
ATOM      4  C   UNL     1      -9.841   0.514  -4.315  1.00  0.00     0.273 C 
ATOM      5  O   UNL     1     -10.910   0.168  -3.810  1.00  0.00    -0.267 OA
ATOM      6  H   UNL     1     -10.738   2.118  -5.081  1.00  0.00     0.163 HD
BRANCH   4   7
ATOM      7  C   UNL     1      -8.633  -0.293  -4.168  1.00  0.00     0.170 A 
ATOM      8  N   UNL     1      -6.682  -1.248  -4.255  1.00  0.00    -0.245 N 
ATOM      9  C   UNL     1      -7.480  -0.363  -4.926  1.00  0.00     0.145 A 
ATOM     10  N   UNL     1      -7.311  -1.765  -3.195  1.00  0.00    -0.066 NA
ATOM     11  N   UNL     1      -8.515  -1.212  -3.142  1.00  0.00    -0.125 NA
BRANCH   8  12
ATOM     12  C   UNL     1      -5.330  -1.526  -4.622  1.00  0.00     0.148 C 
ATOM     13  N   UNL     1      -1.322  -0.825  -3.701  1.00  0.00    -0.338 N 
ATOM     14  C   UNL     1      -2.186  -1.843  -3.936  1.00  0.00     0.317 C 
ATOM     15  H   UNL     1      -0.442  -0.918  -4.132  1.00  0.00     0.165 HD
ATOM     16  O   UNL     1      -1.740  -2.905  -4.367  1.00  0.00    -0.249 OA
ATOM     17  N   UNL     1      -3.507  -1.652  -3.699  1.00  0.00    -0.320 N 
ATOM     18  C   UNL     1      -4.601  -2.613  -3.821  1.00  0.00     0.150 C 
ATOM     19  C   UNL     1      -4.374  -0.513  -3.959  1.00  0.00     0.150 C 
BRANCH  13  20
ATOM     20  C   UNL     1      -1.494   0.384  -2.910  1.00  0.00     0.121 C 
BRANCH  20  21
ATOM     21  C   UNL     1      -0.863   0.280  -1.503  1.00  0.00     0.008 C 
ATOM     22  C   UNL     1       0.664   0.157  -1.608  1.00  0.00     0.010 C 
BRANCH  21  23
ATOM     23  C   UNL     1      -1.341   1.433  -0.555  1.00  0.00    -0.013 C 
ATOM     24  C   UNL     1      -0.405   1.683   0.633  1.00  0.00     0.008 C 
ATOM     25  C   UNL     1      -1.611   2.768  -1.261  1.00  0.00     0.008 C 
ENDBRANCH  21  23
ENDBRANCH  20  21
ENDBRANCH  13  20
ENDBRANCH   8  12
ENDBRANCH   4   7
ENDBRANCH   2   3
ENDBRANCH   1   2
BRANCH   1  26
ATOM     26  C   UNL     1      -9.948   3.069  -7.899  1.00  0.00     0.023 C 
BRANCH  26  27
ATOM     27  C   UNL     1      -9.837   4.591  -7.821  1.00  0.00     0.116 C 
BRANCH  27  28
ATOM     28  N   UNL     1      -8.604   5.103  -8.421  1.00  0.00    -0.352 N 
ATOM     29  C   UNL     1      -8.071   6.372  -8.313  1.00  0.00     0.251 C 
ATOM     30  H   UNL     1      -8.093   4.465  -8.968  1.00  0.00     0.163 HD
ATOM     31  O   UNL     1      -7.277   6.788  -9.156  1.00  0.00    -0.269 OA
BRANCH  29  32
ATOM     32  C   UNL     1      -8.456   7.215  -7.170  1.00  0.00     0.039 A 
ATOM     33  C   UNL     1      -8.771   8.567  -7.332  1.00  0.00     0.014 A 
ATOM     34  C   UNL     1      -8.537   6.610  -5.918  1.00  0.00     0.014 A 
ATOM     35  C   UNL     1      -9.264   9.278  -6.239  1.00  0.00     0.010 A 
ATOM     36  C   UNL     1      -9.143   7.272  -4.879  1.00  0.00     0.010 A 
ATOM     37  C   UNL     1      -9.475   8.617  -5.018  1.00  0.00    -0.014 A 
BRANCH  37  38
ATOM     38  C   UNL     1     -10.188   9.277  -3.924  1.00  0.00     0.031 A 
ATOM     39  C   UNL     1     -11.540   9.777  -4.298  1.00  0.00     0.074 A 
ATOM     40  C   UNL     1      -9.782   9.213  -2.635  1.00  0.00     0.049 A 
ATOM     41  N   UNL     1     -11.931  11.003  -4.412  1.00  0.00    -0.248 NA
ATOM     42  C   UNL     1     -12.542   8.799  -4.759  1.00  0.00     0.031 C 
ATOM     43  C   UNL     1      -8.641   8.454  -2.104  1.00  0.00     0.029 A 
ATOM     44  N   UNL     1     -10.362   9.707  -1.503  1.00  0.00    -0.354 N 
ATOM     45  C   UNL     1     -13.297  10.940  -4.685  1.00  0.00     0.074 A 
ATOM     46  C   UNL     1     -13.554   9.594  -5.117  1.00  0.00     0.031 C 
ATOM     47  C   UNL     1      -8.759   8.332  -0.765  1.00  0.00     0.029 A 
ATOM     48  C   UNL     1      -9.865   9.160  -0.323  1.00  0.00     0.049 A 
ATOM     49  H   UNL     1     -11.071  10.390  -1.519  1.00  0.00     0.167 HD
ATOM     50  C   UNL     1     -14.143  11.906  -4.228  1.00  0.00     0.037 A 
ATOM     51  C   UNL     1     -10.315   9.366   0.940  1.00  0.00     0.037 A 
ATOM     52  C   UNL     1     -13.394  13.034  -3.734  1.00  0.00     0.049 A 
ATOM     53  C   UNL     1     -11.057  10.647   0.937  1.00  0.00     0.074 A 
ATOM     54  C   UNL     1     -12.662  14.067  -4.275  1.00  0.00     0.029 A 
ATOM     55  N   UNL     1     -13.042  12.925  -2.413  1.00  0.00    -0.354 N 
ATOM     56  N   UNL     1     -10.495  11.801   0.699  1.00  0.00    -0.248 NA
ATOM     57  C   UNL     1     -12.512  10.632   0.841  1.00  0.00     0.031 C 
ATOM     58  C   UNL     1     -11.714  14.442  -3.277  1.00  0.00     0.029 A 
ATOM     59  C   UNL     1     -11.922  13.662  -2.141  1.00  0.00     0.049 A 
ATOM     60  H   UNL     1     -13.531  12.387  -1.749  1.00  0.00     0.167 HD
ATOM     61  C   UNL     1     -11.456  12.514   0.011  1.00  0.00     0.074 A 
ATOM     62  C   UNL     1     -12.713  11.831   0.287  1.00  0.00     0.031 C 
ATOM     63  C   UNL     1     -11.104  13.384  -0.979  1.00  0.00     0.037 A 
BRANCH  50  64
ATOM     64  C   UNL     1     -15.575  11.685  -3.764  1.00  0.00     0.058 A 
ATOM     65  C   UNL     1     -16.357  12.805  -3.399  1.00  0.00     0.135 A 
ATOM     66  C   UNL     1     -16.102  10.434  -3.375  1.00  0.00     0.135 A 
ATOM     67  F   UNL     1     -15.957  14.049  -3.711  1.00  0.00    -0.206 F 
ATOM     68  C   UNL     1     -17.527  12.694  -2.643  1.00  0.00     0.059 A 
ATOM     69  C   UNL     1     -17.293  10.298  -2.667  1.00  0.00     0.059 A 
ATOM     70  F   UNL     1     -15.446   9.286  -3.571  1.00  0.00    -0.206 F 
ATOM     71  C   UNL     1     -17.979  11.433  -2.270  1.00  0.00     0.060 A 
BRANCH  71  72
ATOM     72  S   UNL     1     -19.439  11.282  -1.225  1.00  0.00     0.124 S 
ATOM     73  O   UNL     1     -18.949  11.817   0.040  1.00  0.00    -0.237 OA
ATOM     74  O   UNL     1     -20.408  12.108  -1.938  1.00  0.00    -0.237 OA
ATOM     75  O   UNL     1     -19.715   9.849  -1.241  1.00  0.00    -0.744 OA
ENDBRANCH  71  72
ENDBRANCH  50  64
BRANCH  51  76
ATOM     76  C   UNL     1     -10.321   8.435   2.095  1.00  0.00     0.058 A 
ATOM     77  C   UNL     1     -10.488   8.897   3.413  1.00  0.00     0.135 A 
ATOM     78  C   UNL     1     -10.449   7.045   1.902  1.00  0.00     0.135 A 
ATOM     79  F   UNL     1     -10.396  10.208   3.684  1.00  0.00    -0.206 F 
ATOM     80  C   UNL     1     -10.818   8.040   4.468  1.00  0.00     0.059 A 
ATOM     81  C   UNL     1     -10.772   6.169   2.938  1.00  0.00     0.059 A 
ATOM     82  F   UNL     1     -10.353   6.511   0.674  1.00  0.00    -0.206 F 
ATOM     83  C   UNL     1     -10.982   6.678   4.215  1.00  0.00     0.060 A 
BRANCH  83  84
ATOM     84  S   UNL     1     -11.586   5.598   5.536  1.00  0.00     0.124 S 
ATOM     85  O   UNL     1     -10.444   5.563   6.442  1.00  0.00    -0.237 OA
ATOM     86  O   UNL     1     -12.758   6.324   6.015  1.00  0.00    -0.237 OA
ATOM     87  O   UNL     1     -11.873   4.345   4.843  1.00  0.00    -0.744 OA
ENDBRANCH  83  84
ENDBRANCH  51  76
BRANCH  63  88
ATOM     88  C   UNL     1      -9.726  13.975  -0.928  1.00  0.00     0.058 A 
ATOM     89  C   UNL     1      -8.530  13.266  -1.132  1.00  0.00     0.135 A 
ATOM     90  C   UNL     1      -9.629  15.363  -0.745  1.00  0.00     0.135 A 
ATOM     91  F   UNL     1      -8.542  11.952  -1.394  1.00  0.00    -0.206 F 
ATOM     92  C   UNL     1      -7.290  13.907  -1.118  1.00  0.00     0.059 A 
ATOM     93  C   UNL     1      -8.408  16.026  -0.758  1.00  0.00     0.059 A 
ATOM     94  F   UNL     1     -10.742  16.100  -0.591  1.00  0.00    -0.206 F 
ATOM     95  C   UNL     1      -7.240  15.289  -0.931  1.00  0.00     0.060 A 
BRANCH  95  96
ATOM     96  S   UNL     1      -5.643  16.130  -0.976  1.00  0.00     0.124 S 
ATOM     97  O   UNL     1      -5.034  15.698   0.278  1.00  0.00    -0.237 OA
ATOM     98  O   UNL     1      -5.038  15.595  -2.192  1.00  0.00    -0.237 OA
ATOM     99  O   UNL     1      -6.004  17.544  -1.040  1.00  0.00    -0.744 OA
ENDBRANCH  95  96
ENDBRANCH  63  88
ENDBRANCH  37  38
ENDBRANCH  29  32
ENDBRANCH  27  28
ENDBRANCH  26  27
ENDBRANCH   1  26
TORSDOF 18
