REMARK SMILES O=C(NCCCCNC(=O)[C@H](CO)NC(=O)[C@H](CS)NC(=O)[C@H](Cc1c[nH]c2ccccc12)NC(=O)c1ccc(F)cc1)c1ccc(-c2c3nc(c(-c4c(F)cc(S(=O)(=O)[O-])cc4F)c4ccc([nH]4)c(-c4c(F)cc(S(=O)(=O)[O-])cc4F)c4nc(c(-c5c(F)cc(S(=O)(=O)[O-])cc5F)c5ccc2[nH]5)C=C4)C=C3)cc1
REMARK SMILES IDX 7 1 6 2 5 3 4 4 3 5 1 6 2 7 44 9 45 10 109 11 46 12 108 13
REMARK SMILES IDX 47 14 48 15 49 16 102 17 50 18 107 19 101 20 103 21 51 22
REMARK SMILES IDX 106 23 100 24 99 25 52 27 86 28 65 29 85 30 66 31 69 32
REMARK SMILES IDX 84 33 104 34 67 35 68 36 83 38 105 39 70 40 53 41 54 42
REMARK SMILES IDX 63 43 55 44 56 45 62 46 64 47 57 48 58 49 59 50 60 51 61 52
REMARK SMILES IDX 87 53 88 54 97 55 89 56 90 57 96 58 98 59 91 60 92 61 93 62
REMARK SMILES IDX 94 63 95 64 71 65 72 66 81 67 73 68 74 69 80 70 82 71 75 72
REMARK SMILES IDX 76 73 77 74 78 75 79 76 8 77 9 78 10 80 11 81 14 82 15 83
REMARK SMILES IDX 16 85 17 86 20 87 21 88 22 90 23 91 34 92 35 93 36 95 37 96
REMARK SMILES IDX 38 97 43 98 39 99 42 100 40 101 41 102 24 103 25 104 26 105
REMARK SMILES IDX 33 106 27 107 28 108 32 109 29 111 31 112 30 113 18 114
REMARK SMILES IDX 19 115 12 117 13 118
REMARK H PARENT 3 8 103 26 69 37 8 79 14 84 20 89 34 94 27 110 19 116 13 119
REMARK Flexibility Score: inf
ROOT
ATOM      1  C   UNL     1       4.066 -14.170 -11.093  1.00  0.00     0.116 C 
ENDROOT
BRANCH   1   2
ATOM      2  C   UNL     1       3.387 -13.120 -11.972  1.00  0.00     0.023 C 
BRANCH   2   3
ATOM      3  C   UNL     1       4.002 -12.918 -13.359  1.00  0.00     0.023 C 
BRANCH   3   4
ATOM      4  C   UNL     1       4.283 -14.176 -14.173  1.00  0.00     0.116 C 
BRANCH   4   5
ATOM      5  N   UNL     1       3.103 -14.998 -14.377  1.00  0.00    -0.352 N 
ATOM      6  O   UNL     1       1.574 -16.192 -15.512  1.00  0.00    -0.269 OA
ATOM      7  C   UNL     1       2.661 -15.622 -15.520  1.00  0.00     0.251 C 
ATOM      8  H   UNL     1       2.537 -15.126 -13.582  1.00  0.00     0.163 HD
BRANCH   7   9
ATOM      9  C   UNL     1       3.471 -15.575 -16.759  1.00  0.00     0.039 A 
ATOM     10  C   UNL     1       4.849 -15.797 -16.733  1.00  0.00     0.014 A 
ATOM     11  C   UNL     1       2.830 -15.303 -17.972  1.00  0.00     0.014 A 
ATOM     12  C   UNL     1       5.602 -15.608 -17.890  1.00  0.00     0.010 A 
ATOM     13  C   UNL     1       3.579 -15.185 -19.147  1.00  0.00     0.010 A 
ATOM     14  C   UNL     1       4.976 -15.298 -19.109  1.00  0.00    -0.014 A 
BRANCH  14  15
ATOM     15  C   UNL     1       5.804 -15.118 -20.331  1.00  0.00     0.031 A 
ATOM     16  C   UNL     1       5.908 -13.777 -21.005  1.00  0.00     0.074 A 
ATOM     17  C   UNL     1       6.506 -16.166 -20.806  1.00  0.00     0.049 A 
ATOM     18  N   UNL     1       6.618 -13.434 -22.050  1.00  0.00    -0.248 NA
ATOM     19  C   UNL     1       5.109 -12.679 -20.440  1.00  0.00     0.031 C 
ATOM     20  C   UNL     1       6.480 -17.518 -20.243  1.00  0.00     0.029 A 
ATOM     21  N   UNL     1       7.394 -16.256 -21.847  1.00  0.00    -0.354 N 
ATOM     22  C   UNL     1       6.346 -12.090 -22.275  1.00  0.00     0.074 A 
ATOM     23  C   UNL     1       5.380 -11.685 -21.276  1.00  0.00     0.031 C 
ATOM     24  C   UNL     1       7.353 -18.287 -20.909  1.00  0.00     0.029 A 
ATOM     25  C   UNL     1       7.964 -17.500 -21.976  1.00  0.00     0.049 A 
ATOM     26  H   UNL     1       7.602 -15.502 -22.445  1.00  0.00     0.167 HD
ATOM     27  C   UNL     1       6.862 -11.266 -23.219  1.00  0.00     0.037 A 
ATOM     28  C   UNL     1       8.879 -17.960 -22.851  1.00  0.00     0.037 A 
ATOM     29  C   UNL     1       7.833 -11.669 -24.204  1.00  0.00     0.049 A 
ATOM     30  C   UNL     1       9.437 -17.029 -23.888  1.00  0.00     0.074 A 
ATOM     31  C   UNL     1       8.416 -10.906 -25.201  1.00  0.00     0.029 A 
ATOM     32  N   UNL     1       8.370 -12.944 -24.314  1.00  0.00    -0.354 N 
ATOM     33  N   UNL     1       9.165 -15.761 -24.085  1.00  0.00    -0.248 NA
ATOM     34  C   UNL     1      10.424 -17.588 -24.821  1.00  0.00     0.031 C 
ATOM     35  C   UNL     1       9.284 -11.726 -25.932  1.00  0.00     0.029 A 
ATOM     36  C   UNL     1       9.273 -12.990 -25.365  1.00  0.00     0.049 A 
ATOM     37  H   UNL     1       8.143 -13.704 -23.731  1.00  0.00     0.167 HD
ATOM     38  C   UNL     1       9.957 -15.366 -25.155  1.00  0.00     0.074 A 
ATOM     39  C   UNL     1      10.729 -16.525 -25.555  1.00  0.00     0.031 C 
ATOM     40  C   UNL     1      10.035 -14.151 -25.752  1.00  0.00     0.037 A 
BRANCH  27  41
ATOM     41  C   UNL     1       6.381  -9.841 -23.240  1.00  0.00     0.058 A 
ATOM     42  C   UNL     1       5.540  -9.385 -24.267  1.00  0.00     0.135 A 
ATOM     43  C   UNL     1       6.785  -8.914 -22.265  1.00  0.00     0.135 A 
ATOM     44  F   UNL     1       5.120 -10.229 -25.222  1.00  0.00    -0.206 F 
ATOM     45  C   UNL     1       5.119  -8.060 -24.330  1.00  0.00     0.059 A 
ATOM     46  C   UNL     1       6.359  -7.589 -22.296  1.00  0.00     0.059 A 
ATOM     47  F   UNL     1       7.572  -9.303 -21.249  1.00  0.00    -0.206 F 
ATOM     48  C   UNL     1       5.533  -7.169 -23.339  1.00  0.00     0.060 A 
BRANCH  48  49
ATOM     49  S   UNL     1       4.929  -5.468 -23.398  1.00  0.00     0.124 S 
ATOM     50  O   UNL     1       5.718  -4.907 -24.489  1.00  0.00    -0.237 OA
ATOM     51  O   UNL     1       3.507  -5.654 -23.670  1.00  0.00    -0.237 OA
ATOM     52  O   UNL     1       5.239  -4.955 -22.066  1.00  0.00    -0.744 OA
ENDBRANCH  48  49
ENDBRANCH  27  41
BRANCH  28  53
ATOM     53  C   UNL     1       9.336 -19.369 -22.747  1.00  0.00     0.058 A 
ATOM     54  C   UNL     1       8.485 -20.434 -23.077  1.00  0.00     0.135 A 
ATOM     55  C   UNL     1      10.607 -19.677 -22.239  1.00  0.00     0.135 A 
ATOM     56  F   UNL     1       7.255 -20.189 -23.556  1.00  0.00    -0.206 F 
ATOM     57  C   UNL     1       8.862 -21.756 -22.872  1.00  0.00     0.059 A 
ATOM     58  C   UNL     1      11.016 -20.992 -22.047  1.00  0.00     0.059 A 
ATOM     59  F   UNL     1      11.458 -18.689 -21.920  1.00  0.00    -0.206 F 
ATOM     60  C   UNL     1      10.126 -22.024 -22.345  1.00  0.00     0.060 A 
BRANCH  60  61
ATOM     61  S   UNL     1      10.581 -23.745 -22.041  1.00  0.00     0.124 S 
ATOM     62  O   UNL     1       9.751 -24.064 -20.884  1.00  0.00    -0.237 OA
ATOM     63  O   UNL     1      10.200 -24.390 -23.293  1.00  0.00    -0.237 OA
ATOM     64  O   UNL     1      12.016 -23.674 -21.785  1.00  0.00    -0.744 OA
ENDBRANCH  60  61
ENDBRANCH  28  53
BRANCH  40  65
ATOM     65  C   UNL     1      11.003 -14.001 -26.891  1.00  0.00     0.058 A 
ATOM     66  C   UNL     1      12.191 -13.272 -26.722  1.00  0.00     0.135 A 
ATOM     67  C   UNL     1      10.729 -14.527 -28.163  1.00  0.00     0.135 A 
ATOM     68  F   UNL     1      12.498 -12.747 -25.526  1.00  0.00    -0.206 F 
ATOM     69  C   UNL     1      13.069 -13.061 -27.779  1.00  0.00     0.059 A 
ATOM     70  C   UNL     1      11.604 -14.346 -29.229  1.00  0.00     0.059 A 
ATOM     71  F   UNL     1       9.611 -15.241 -28.371  1.00  0.00    -0.206 F 
ATOM     72  C   UNL     1      12.766 -13.599 -29.030  1.00  0.00     0.060 A 
BRANCH  72  73
ATOM     73  S   UNL     1      13.928 -13.338 -30.388  1.00  0.00     0.124 S 
ATOM     74  O   UNL     1      13.684 -11.940 -30.724  1.00  0.00    -0.237 OA
ATOM     75  O   UNL     1      15.213 -13.625 -29.757  1.00  0.00    -0.237 OA
ATOM     76  O   UNL     1      13.500 -14.310 -31.389  1.00  0.00    -0.744 OA
ENDBRANCH  72  73
ENDBRANCH  40  65
ENDBRANCH  14  15
ENDBRANCH   7   9
ENDBRANCH   4   5
ENDBRANCH   3   4
ENDBRANCH   2   3
ENDBRANCH   1   2
BRANCH   1  77
ATOM     77  N   UNL     1       5.394 -13.783 -10.661  1.00  0.00    -0.354 N 
ATOM     78  C   UNL     1       5.856 -13.325  -9.467  1.00  0.00     0.244 C 
ATOM     79  H   UNL     1       6.086 -13.866 -11.357  1.00  0.00     0.163 HD
ATOM     80  O   UNL     1       7.074 -13.395  -9.265  1.00  0.00    -0.273 OA
BRANCH  78  81
ATOM     81  C   UNL     1       4.951 -12.935  -8.285  1.00  0.00     0.197 C 
BRANCH  81  82
ATOM     82  N   UNL     1       3.688 -12.282  -8.627  1.00  0.00    -0.340 N 
ATOM     83  C   UNL     1       3.294 -10.991  -8.442  1.00  0.00     0.244 C 
ATOM     84  H   UNL     1       3.021 -12.864  -9.057  1.00  0.00     0.164 HD
ATOM     85  O   UNL     1       2.297 -10.608  -9.058  1.00  0.00    -0.273 OA
BRANCH  83  86
ATOM     86  C   UNL     1       4.000 -10.086  -7.419  1.00  0.00     0.181 C 
BRANCH  86  87
ATOM     87  N   UNL     1       4.246  -8.770  -8.008  1.00  0.00    -0.342 N 
ATOM     88  C   UNL     1       5.422  -8.137  -8.298  1.00  0.00     0.243 C 
ATOM     89  H   UNL     1       3.435  -8.258  -8.231  1.00  0.00     0.164 HD
ATOM     90  O   UNL     1       5.358  -6.964  -8.670  1.00  0.00    -0.273 OA
BRANCH  88  91
ATOM     91  C   UNL     1       6.771  -8.886  -8.160  1.00  0.00     0.176 C 
BRANCH  91  92
ATOM     92  N   UNL     1       7.785  -8.146  -8.918  1.00  0.00    -0.340 N 
ATOM     93  C   UNL     1       8.630  -8.523  -9.919  1.00  0.00     0.251 C 
ATOM     94  H   UNL     1       7.872  -7.201  -8.654  1.00  0.00     0.164 HD
ATOM     95  O   UNL     1       9.499  -7.769 -10.339  1.00  0.00    -0.269 OA
BRANCH  93  96
ATOM     96  C   UNL     1       8.513  -9.857 -10.519  1.00  0.00     0.040 A 
ATOM     97  C   UNL     1       7.551 -10.061 -11.509  1.00  0.00     0.017 A 
ATOM     98  C   UNL     1       9.465 -10.840 -10.224  1.00  0.00     0.017 A 
ATOM     99  C   UNL     1       7.538 -11.268 -12.203  1.00  0.00     0.040 A 
ATOM    100  C   UNL     1       9.426 -12.058 -10.904  1.00  0.00     0.040 A 
ATOM    101  C   UNL     1       8.461 -12.261 -11.886  1.00  0.00     0.123 A 
ATOM    102  F   UNL     1       8.404 -13.435 -12.529  1.00  0.00    -0.207 F 
ENDBRANCH  93  96
ENDBRANCH  91  92
BRANCH  91 103
ATOM    103  C   UNL     1       7.177  -9.131  -6.684  1.00  0.00     0.072 C 
BRANCH 103 104
ATOM    104  C   UNL     1       7.982  -8.061  -6.005  1.00  0.00    -0.020 A 
ATOM    105  C   UNL     1       7.545  -7.175  -5.039  1.00  0.00     0.087 A 
ATOM    106  C   UNL     1       9.377  -7.790  -6.204  1.00  0.00     0.003 A 
ATOM    107  N   UNL     1       8.594  -6.362  -4.693  1.00  0.00    -0.361 N 
ATOM    108  C   UNL     1       9.713  -6.690  -5.419  1.00  0.00     0.046 A 
ATOM    109  C   UNL     1      10.378  -8.363  -7.014  1.00  0.00     0.010 A 
ATOM    110  H   UNL     1       8.550  -5.644  -4.020  1.00  0.00     0.166 HD
ATOM    111  C   UNL     1      10.985  -6.103  -5.447  1.00  0.00     0.026 A 
ATOM    112  C   UNL     1      11.641  -7.771  -7.084  1.00  0.00     0.001 A 
ATOM    113  C   UNL     1      11.935  -6.651  -6.315  1.00  0.00     0.002 A 
ENDBRANCH 103 104
ENDBRANCH  91 103
ENDBRANCH  88  91
ENDBRANCH  86  87
BRANCH  86 114
ATOM    114  C   UNL     1       3.106 -10.043  -6.157  1.00  0.00     0.101 C 
BRANCH 114 115
ATOM    115  S   UNL     1       2.996  -8.444  -5.279  1.00  0.00    -0.177 SA
ATOM    116  H   UNL     1       4.221  -8.110  -4.791  1.00  0.00     0.102 HD
ENDBRANCH 114 115
ENDBRANCH  86 114
ENDBRANCH  83  86
ENDBRANCH  81  82
BRANCH  81 117
ATOM    117  C   UNL     1       4.772 -14.175  -7.401  1.00  0.00     0.191 C 
BRANCH 117 118
ATOM    118  O   UNL     1       5.906 -14.345  -6.544  1.00  0.00    -0.394 OA
ATOM    119  H   UNL     1       6.704 -14.461  -7.083  1.00  0.00     0.210 HD
ENDBRANCH 117 118
ENDBRANCH  81 117
ENDBRANCH  78  81
ENDBRANCH   1  77
TORSDOF 26
