REMARK SMILES O=C(NCCCCNC(=O)[C@H]1CC[C@@H](CNC(=O)c2ccc(CO)cc2)O1)c1ccc(-c2c3nc(c(-c4c(F)cc(S(=O)(=O)[O-])cc4F)c4ccc([nH]4)c(-c4c(F)cc(S(=O)(=O)[O-])cc4F)c4nc(c(-c5c(F)cc(S(=O)(=O)[O-])cc5F)c5ccc2[nH]5)C=C4)C=C3)cc1
REMARK SMILES IDX 6 1 5 2 4 3 3 4 1 5 2 6 28 8 29 9 93 10 30 11 92 12 31 13
REMARK SMILES IDX 32 14 33 15 86 16 34 17 91 18 85 19 87 20 35 21 90 22 84 23
REMARK SMILES IDX 83 24 36 26 70 27 49 28 69 29 50 30 53 31 68 32 88 33 51 34
REMARK SMILES IDX 52 35 67 37 89 38 54 39 37 40 38 41 47 42 39 43 40 44 46 45
REMARK SMILES IDX 48 46 41 47 42 48 43 49 44 50 45 51 71 52 72 53 81 54 73 55
REMARK SMILES IDX 74 56 80 57 82 58 75 59 76 60 77 61 78 62 79 63 55 64 56 65
REMARK SMILES IDX 65 66 57 67 58 68 64 69 66 70 59 71 60 72 61 73 62 74 63 75
REMARK SMILES IDX 7 76 8 77 9 78 10 80 11 81 12 82 27 83 13 84 14 85 15 86
REMARK SMILES IDX 16 87 17 88 18 90 19 91 20 92 26 93 21 94 25 95 22 96 23 97
REMARK SMILES IDX 24 98
REMARK H PARENT 3 7 87 25 53 36 8 79 16 89 24 99
REMARK Flexibility Score: inf
ROOT
ATOM      1  C   UNL     1       6.725   8.550   5.790  1.00  0.00     0.023 C 
ENDROOT
BRANCH   1   2
ATOM      2  C   UNL     1       6.422   8.948   7.232  1.00  0.00     0.023 C 
BRANCH   2   3
ATOM      3  C   UNL     1       7.658   9.303   8.049  1.00  0.00     0.116 C 
BRANCH   3   4
ATOM      4  N   UNL     1       8.391  10.459   7.549  1.00  0.00    -0.352 N 
ATOM      5  O   UNL     1       9.614  12.357   7.772  1.00  0.00    -0.269 OA
ATOM      6  C   UNL     1       9.132  11.355   8.288  1.00  0.00     0.251 C 
ATOM      7  H   UNL     1       8.352  10.617   6.578  1.00  0.00     0.163 HD
BRANCH   6   8
ATOM      8  C   UNL     1       9.296  11.107   9.735  1.00  0.00     0.039 A 
ATOM      9  C   UNL     1       9.691   9.846  10.188  1.00  0.00     0.014 A 
ATOM     10  C   UNL     1       8.994  12.125  10.643  1.00  0.00     0.014 A 
ATOM     11  C   UNL     1       9.641   9.558  11.544  1.00  0.00     0.010 A 
ATOM     12  C   UNL     1       9.030  11.858  12.013  1.00  0.00     0.010 A 
ATOM     13  C   UNL     1       9.326  10.565  12.472  1.00  0.00    -0.014 A 
BRANCH  13  14
ATOM     14  C   UNL     1       9.402  10.255  13.920  1.00  0.00     0.031 A 
ATOM     15  C   UNL     1       8.178  10.282  14.792  1.00  0.00     0.074 A 
ATOM     16  C   UNL     1      10.603   9.925  14.433  1.00  0.00     0.049 A 
ATOM     17  N   UNL     1       8.083  10.045  16.075  1.00  0.00    -0.248 NA
ATOM     18  C   UNL     1       6.898  10.624  14.151  1.00  0.00     0.031 C 
ATOM     19  C   UNL     1      11.859   9.889  13.675  1.00  0.00     0.029 A 
ATOM     20  N   UNL     1      10.970   9.546  15.697  1.00  0.00    -0.354 N 
ATOM     21  C   UNL     1       6.746  10.237  16.404  1.00  0.00     0.074 A 
ATOM     22  C   UNL     1       6.064  10.615  15.184  1.00  0.00     0.031 C 
ATOM     23  C   UNL     1      12.848   9.473  14.479  1.00  0.00     0.029 A 
ATOM     24  C   UNL     1      12.312   9.276  15.819  1.00  0.00     0.049 A 
ATOM     25  H   UNL     1      10.334   9.475  16.445  1.00  0.00     0.167 HD
ATOM     26  C   UNL     1       6.151  10.107  17.613  1.00  0.00     0.037 A 
ATOM     27  C   UNL     1      13.040   8.934  16.897  1.00  0.00     0.037 A 
ATOM     28  C   UNL     1       6.839   9.694  18.811  1.00  0.00     0.049 A 
ATOM     29  C   UNL     1      12.350   8.794  18.221  1.00  0.00     0.074 A 
ATOM     30  C   UNL     1       6.311   9.469  20.071  1.00  0.00     0.029 A 
ATOM     31  N   UNL     1       8.201   9.449  18.901  1.00  0.00    -0.354 N 
ATOM     32  N   UNL     1      11.078   8.946  18.503  1.00  0.00    -0.248 NA
ATOM     33  C   UNL     1      13.191   8.452  19.374  1.00  0.00     0.031 C 
ATOM     34  C   UNL     1       7.359   9.124  20.931  1.00  0.00     0.029 A 
ATOM     35  C   UNL     1       8.535   9.100  20.199  1.00  0.00     0.049 A 
ATOM     36  H   UNL     1       8.837   9.513  18.152  1.00  0.00     0.167 HD
ATOM     37  C   UNL     1      10.966   8.722  19.868  1.00  0.00     0.074 A 
ATOM     38  C   UNL     1      12.294   8.394  20.348  1.00  0.00     0.031 C 
ATOM     39  C   UNL     1       9.866   8.791  20.656  1.00  0.00     0.037 A 
BRANCH  26  40
ATOM     40  C   UNL     1       4.685  10.419  17.725  1.00  0.00     0.058 A 
ATOM     41  C   UNL     1       3.703   9.521  17.280  1.00  0.00     0.135 A 
ATOM     42  C   UNL     1       4.258  11.586  18.380  1.00  0.00     0.135 A 
ATOM     43  F   UNL     1       4.056   8.398  16.636  1.00  0.00    -0.206 F 
ATOM     44  C   UNL     1       2.348   9.770  17.481  1.00  0.00     0.059 A 
ATOM     45  C   UNL     1       2.910  11.847  18.606  1.00  0.00     0.059 A 
ATOM     46  F   UNL     1       5.158  12.479  18.822  1.00  0.00    -0.206 F 
ATOM     47  C   UNL     1       1.961  10.933  18.150  1.00  0.00     0.060 A 
BRANCH  47  48
ATOM     48  S   UNL     1       0.202  11.217  18.446  1.00  0.00     0.124 S 
ATOM     49  O   UNL     1      -0.260  11.593  17.114  1.00  0.00    -0.237 OA
ATOM     50  O   UNL     1      -0.249   9.915  18.928  1.00  0.00    -0.237 OA
ATOM     51  O   UNL     1       0.192  12.287  19.439  1.00  0.00    -0.744 OA
ENDBRANCH  47  48
ENDBRANCH  26  40
BRANCH  27  52
ATOM     52  C   UNL     1      14.506   8.743  16.767  1.00  0.00     0.058 A 
ATOM     53  C   UNL     1      15.084   7.471  16.868  1.00  0.00     0.135 A 
ATOM     54  C   UNL     1      15.355   9.833  16.516  1.00  0.00     0.135 A 
ATOM     55  F   UNL     1      14.312   6.400  17.109  1.00  0.00    -0.206 F 
ATOM     56  C   UNL     1      16.457   7.285  16.741  1.00  0.00     0.059 A 
ATOM     57  C   UNL     1      16.726   9.670  16.359  1.00  0.00     0.059 A 
ATOM     58  F   UNL     1      14.845  11.068  16.390  1.00  0.00    -0.206 F 
ATOM     59  C   UNL     1      17.269   8.393  16.488  1.00  0.00     0.060 A 
BRANCH  59  60
ATOM     60  S   UNL     1      19.046   8.146  16.282  1.00  0.00     0.124 S 
ATOM     61  O   UNL     1      19.490   8.059  17.668  1.00  0.00    -0.237 OA
ATOM     62  O   UNL     1      19.103   6.905  15.515  1.00  0.00    -0.237 OA
ATOM     63  O   UNL     1      19.465   9.341  15.555  1.00  0.00    -0.744 OA
ENDBRANCH  59  60
ENDBRANCH  27  52
BRANCH  39  64
ATOM     64  C   UNL     1      10.062   8.510  22.116  1.00  0.00     0.058 A 
ATOM     65  C   UNL     1      10.656   9.456  22.964  1.00  0.00     0.135 A 
ATOM     66  C   UNL     1       9.637   7.295  22.674  1.00  0.00     0.135 A 
ATOM     67  F   UNL     1      11.089  10.628  22.472  1.00  0.00    -0.206 F 
ATOM     68  C   UNL     1      10.845   9.198  24.317  1.00  0.00     0.059 A 
ATOM     69  C   UNL     1       9.795   7.025  24.029  1.00  0.00     0.059 A 
ATOM     70  F   UNL     1       9.057   6.362  21.903  1.00  0.00    -0.206 F 
ATOM     71  C   UNL     1      10.413   7.977  24.840  1.00  0.00     0.060 A 
BRANCH  71  72
ATOM     72  S   UNL     1      10.644   7.657  26.601  1.00  0.00     0.124 S 
ATOM     73  O   UNL     1      12.061   7.313  26.652  1.00  0.00    -0.237 OA
ATOM     74  O   UNL     1      10.280   8.935  27.205  1.00  0.00    -0.237 OA
ATOM     75  O   UNL     1       9.720   6.559  26.868  1.00  0.00    -0.744 OA
ENDBRANCH  71  72
ENDBRANCH  39  64
ENDBRANCH  13  14
ENDBRANCH   6   8
ENDBRANCH   3   4
ENDBRANCH   2   3
ENDBRANCH   1   2
BRANCH   1  76
ATOM     76  C   UNL     1       7.508   7.244   5.643  1.00  0.00     0.116 C 
BRANCH  76  77
ATOM     77  N   UNL     1       6.620   6.097   5.648  1.00  0.00    -0.354 N 
ATOM     78  C   UNL     1       5.976   5.486   4.613  1.00  0.00     0.249 C 
ATOM     79  H   UNL     1       6.458   5.699   6.534  1.00  0.00     0.163 HD
ATOM     80  O   UNL     1       5.227   4.543   4.888  1.00  0.00    -0.272 OA
BRANCH  78  81
ATOM     81  C   UNL     1       6.219   5.900   3.137  1.00  0.00     0.207 C 
ATOM     82  C   UNL     1       4.909   5.899   2.345  1.00  0.00     0.045 C 
ATOM     83  O   UNL     1       6.829   7.165   2.887  1.00  0.00    -0.363 OA
ATOM     84  C   UNL     1       4.600   7.373   2.207  1.00  0.00     0.037 C 
ATOM     85  C   UNL     1       5.989   7.944   2.017  1.00  0.00     0.138 C 
BRANCH  85  86
ATOM     86  C   UNL     1       6.111   9.432   2.358  1.00  0.00     0.148 C 
BRANCH  86  87
ATOM     87  N   UNL     1       7.465   9.757   2.785  1.00  0.00    -0.349 N 
ATOM     88  C   UNL     1       8.093  10.963   2.909  1.00  0.00     0.251 C 
ATOM     89  H   UNL     1       8.019   8.978   3.023  1.00  0.00     0.163 HD
ATOM     90  O   UNL     1       9.208  11.035   3.414  1.00  0.00    -0.269 OA
BRANCH  88  91
ATOM     91  C   UNL     1       7.460  12.161   2.332  1.00  0.00     0.039 A 
ATOM     92  C   UNL     1       8.180  12.851   1.355  1.00  0.00     0.014 A 
ATOM     93  C   UNL     1       6.175  12.573   2.691  1.00  0.00     0.014 A 
ATOM     94  C   UNL     1       7.577  13.899   0.665  1.00  0.00     0.007 A 
ATOM     95  C   UNL     1       5.571  13.622   1.995  1.00  0.00     0.007 A 
ATOM     96  C   UNL     1       6.255  14.268   0.954  1.00  0.00    -0.023 A 
BRANCH  96  97
ATOM     97  C   UNL     1       5.590  15.349   0.146  1.00  0.00     0.191 C 
BRANCH  97  98
ATOM     98  O   UNL     1       6.146  16.621   0.440  1.00  0.00    -0.392 OA
ATOM     99  H   UNL     1       6.013  16.822   1.379  1.00  0.00     0.211 HD
ENDBRANCH  97  98
ENDBRANCH  96  97
ENDBRANCH  88  91
ENDBRANCH  86  87
ENDBRANCH  85  86
ENDBRANCH  78  81
ENDBRANCH  76  77
ENDBRANCH   1  76
TORSDOF 19
