REMARK SMILES C#CCN(CC(=O)NCCCCNC(=O)c1ccc(-c2c3nc(c(-c4c(F)cc(S(=O)(=O)[O-])cc4F)c4ccc([nH]4)c(-c4c(F)cc(S(=O)(=O)[O-])cc4F)c4nc(c(-c5c(F)cc(S(=O)(=O)[O-])cc5F)c5ccc2[nH]5)C=C4)C=C3)cc1)C(=O)NCCc1ccco1
REMARK SMILES IDX 9 1 8 2 6 3 7 4 5 6 4 7 3 8 2 9 1 10 82 11 83 12 84 13 85 15
REMARK SMILES IDX 86 16 87 17 88 18 91 19 89 20 90 21 10 22 11 23 12 24 13 25
REMARK SMILES IDX 14 26 15 28 16 29 17 30 81 31 18 32 80 33 19 34 20 35 21 36
REMARK SMILES IDX 74 37 22 38 79 39 73 40 75 41 23 42 78 43 72 44 71 45 24 47
REMARK SMILES IDX 58 48 37 49 57 50 38 51 41 52 56 53 76 54 39 55 40 56 55 58
REMARK SMILES IDX 77 59 42 60 25 61 26 62 35 63 27 64 28 65 34 66 36 67 29 68
REMARK SMILES IDX 30 69 31 70 32 71 33 72 59 73 60 74 69 75 61 76 62 77 68 78
REMARK SMILES IDX 70 79 63 80 64 81 65 82 66 83 67 84 43 85 44 86 53 87 45 88
REMARK SMILES IDX 46 89 52 90 54 91 47 92 48 93 49 94 50 95 51 96
REMARK H PARENT 8 5 84 14 13 27 75 46 41 57
REMARK Flexibility Score: inf
ROOT
ATOM      1  C   UNL     1      -5.209   0.123   0.230  1.00  0.00     0.116 C 
ENDROOT
BRANCH   1   2
ATOM      2  N   UNL     1      -5.507  -0.124  -1.163  1.00  0.00    -0.355 N 
ATOM      3  C   UNL     1      -4.722  -0.680  -2.131  1.00  0.00     0.239 C 
ATOM      4  O   UNL     1      -5.285  -1.084  -3.154  1.00  0.00    -0.273 OA
ATOM      5  H   UNL     1      -6.406   0.148  -1.456  1.00  0.00     0.163 HD
BRANCH   3   6
ATOM      6  C   UNL     1      -3.222  -0.945  -1.916  1.00  0.00     0.222 C 
BRANCH   6   7
ATOM      7  N   UNL     1      -2.452   0.186  -1.408  1.00  0.00    -0.304 N 
BRANCH   7   8
ATOM      8  C   UNL     1      -1.889   0.032  -0.069  1.00  0.00     0.211 C 
BRANCH   8   9
ATOM      9  C   UNL     1      -0.369   0.032  -0.069  1.00  0.00    -0.085 C 
ATOM     10  C   UNL     1       0.934   0.032  -0.069  1.00  0.00     0.006 C 
ENDBRANCH   8   9
ENDBRANCH   7   8
BRANCH   7  11
ATOM     11  C   UNL     1      -2.202   1.370  -2.042  1.00  0.00     0.318 C 
ATOM     12  O   UNL     1      -1.651   2.308  -1.453  1.00  0.00    -0.249 OA
ATOM     13  N   UNL     1      -2.530   1.634  -3.314  1.00  0.00    -0.337 N 
ATOM     14  H   UNL     1      -2.277   2.555  -3.552  1.00  0.00     0.165 HD
BRANCH  13  15
ATOM     15  C   UNL     1      -3.151   0.965  -4.454  1.00  0.00     0.125 C 
BRANCH  15  16
ATOM     16  C   UNL     1      -4.552   1.509  -4.747  1.00  0.00     0.096 C 
BRANCH  16  17
ATOM     17  C   UNL     1      -4.504   2.811  -5.464  1.00  0.00     0.105 A 
ATOM     18  C   UNL     1      -4.742   4.116  -5.087  1.00  0.00     0.045 A 
ATOM     19  O   UNL     1      -4.174   2.758  -6.786  1.00  0.00    -0.469 OA
ATOM     20  C   UNL     1      -4.552   4.904  -6.248  1.00  0.00     0.042 A 
ATOM     21  C   UNL     1      -4.210   4.032  -7.254  1.00  0.00     0.195 A 
ENDBRANCH  16  17
ENDBRANCH  15  16
ENDBRANCH  13  15
ENDBRANCH   7  11
ENDBRANCH   6   7
ENDBRANCH   3   6
ENDBRANCH   1   2
BRANCH   1  22
ATOM     22  C   UNL     1      -4.913   1.589   0.537  1.00  0.00     0.023 C 
BRANCH  22  23
ATOM     23  C   UNL     1      -6.114   2.532   0.479  1.00  0.00     0.023 C 
BRANCH  23  24
ATOM     24  C   UNL     1      -7.326   2.104   1.296  1.00  0.00     0.116 C 
BRANCH  24  25
ATOM     25  N   UNL     1      -7.022   1.818   2.690  1.00  0.00    -0.352 N 
ATOM     26  C   UNL     1      -7.820   2.005   3.795  1.00  0.00     0.251 C 
ATOM     27  H   UNL     1      -6.130   1.442   2.865  1.00  0.00     0.163 HD
ATOM     28  O   UNL     1      -7.380   1.776   4.917  1.00  0.00    -0.269 OA
BRANCH  26  29
ATOM     29  C   UNL     1      -9.190   2.529   3.620  1.00  0.00     0.039 A 
ATOM     30  C   UNL     1      -9.595   3.620   4.393  1.00  0.00     0.014 A 
ATOM     31  C   UNL     1     -10.052   1.980   2.665  1.00  0.00     0.014 A 
ATOM     32  C   UNL     1     -10.838   4.210   4.155  1.00  0.00     0.010 A 
ATOM     33  C   UNL     1     -11.259   2.611   2.384  1.00  0.00     0.010 A 
ATOM     34  C   UNL     1     -11.661   3.736   3.121  1.00  0.00    -0.014 A 
BRANCH  34  35
ATOM     35  C   UNL     1     -12.937   4.414   2.780  1.00  0.00     0.031 A 
ATOM     36  C   UNL     1     -14.245   3.692   2.945  1.00  0.00     0.074 A 
ATOM     37  C   UNL     1     -12.908   5.649   2.240  1.00  0.00     0.049 A 
ATOM     38  N   UNL     1     -15.451   4.087   2.628  1.00  0.00    -0.248 NA
ATOM     39  C   UNL     1     -14.186   2.335   3.512  1.00  0.00     0.031 C 
ATOM     40  C   UNL     1     -11.696   6.425   1.968  1.00  0.00     0.029 A 
ATOM     41  N   UNL     1     -13.925   6.461   1.806  1.00  0.00    -0.354 N 
ATOM     42  C   UNL     1     -16.290   3.023   2.935  1.00  0.00     0.074 A 
ATOM     43  C   UNL     1     -15.450   1.950   3.422  1.00  0.00     0.031 C 
ATOM     44  C   UNL     1     -12.040   7.603   1.424  1.00  0.00     0.029 A 
ATOM     45  C   UNL     1     -13.492   7.655   1.279  1.00  0.00     0.049 A 
ATOM     46  H   UNL     1     -14.876   6.212   1.865  1.00  0.00     0.167 HD
ATOM     47  C   UNL     1     -17.639   2.954   2.838  1.00  0.00     0.037 A 
ATOM     48  C   UNL     1     -14.184   8.673   0.732  1.00  0.00     0.037 A 
ATOM     49  C   UNL     1     -18.471   4.039   2.386  1.00  0.00     0.049 A 
ATOM     50  C   UNL     1     -15.684   8.589   0.667  1.00  0.00     0.074 A 
ATOM     51  C   UNL     1     -19.852   4.099   2.333  1.00  0.00     0.029 A 
ATOM     52  N   UNL     1     -17.999   5.251   1.904  1.00  0.00    -0.354 N 
ATOM     53  N   UNL     1     -16.470   7.607   1.041  1.00  0.00    -0.248 NA
ATOM     54  C   UNL     1     -16.393   9.752   0.117  1.00  0.00     0.031 C 
ATOM     55  C   UNL     1     -20.215   5.334   1.784  1.00  0.00     0.029 A 
ATOM     56  C   UNL     1     -19.061   6.059   1.532  1.00  0.00     0.049 A 
ATOM     57  H   UNL     1     -17.049   5.501   1.837  1.00  0.00     0.167 HD
ATOM     58  C   UNL     1     -17.766   8.041   0.788  1.00  0.00     0.074 A 
ATOM     59  C   UNL     1     -17.660   9.379   0.242  1.00  0.00     0.031 C 
ATOM     60  C   UNL     1     -18.938   7.389   0.990  1.00  0.00     0.037 A 
BRANCH  47  61
ATOM     61  C   UNL     1     -18.299   1.662   3.232  1.00  0.00     0.058 A 
ATOM     62  C   UNL     1     -18.366   1.246   4.571  1.00  0.00     0.135 A 
ATOM     63  C   UNL     1     -18.888   0.837   2.260  1.00  0.00     0.135 A 
ATOM     64  F   UNL     1     -17.806   1.989   5.539  1.00  0.00    -0.206 F 
ATOM     65  C   UNL     1     -18.962   0.042   4.930  1.00  0.00     0.059 A 
ATOM     66  C   UNL     1     -19.514  -0.359   2.599  1.00  0.00     0.059 A 
ATOM     67  F   UNL     1     -18.853   1.187   0.965  1.00  0.00    -0.206 F 
ATOM     68  C   UNL     1     -19.529  -0.757   3.936  1.00  0.00     0.060 A 
BRANCH  68  69
ATOM     69  S   UNL     1     -20.291  -2.322   4.414  1.00  0.00     0.124 S 
ATOM     70  O   UNL     1     -19.116  -3.151   4.665  1.00  0.00    -0.237 OA
ATOM     71  O   UNL     1     -21.064  -1.947   5.594  1.00  0.00    -0.237 OA
ATOM     72  O   UNL     1     -21.080  -2.688   3.243  1.00  0.00    -0.744 OA
ENDBRANCH  68  69
ENDBRANCH  47  61
BRANCH  48  73
ATOM     73  C   UNL     1     -13.460   9.867   0.225  1.00  0.00     0.058 A 
ATOM     74  C   UNL     1     -13.499  11.084   0.919  1.00  0.00     0.135 A 
ATOM     75  C   UNL     1     -12.687   9.805  -0.946  1.00  0.00     0.135 A 
ATOM     76  F   UNL     1     -14.229  11.193   2.040  1.00  0.00    -0.206 F 
ATOM     77  C   UNL     1     -12.805  12.203   0.469  1.00  0.00     0.059 A 
ATOM     78  C   UNL     1     -11.967  10.904  -1.404  1.00  0.00     0.059 A 
ATOM     79  F   UNL     1     -12.604   8.658  -1.636  1.00  0.00    -0.206 F 
ATOM     80  C   UNL     1     -12.037  12.101  -0.692  1.00  0.00     0.060 A 
BRANCH  80  81
ATOM     81  S   UNL     1     -11.086  13.538  -1.232  1.00  0.00     0.124 S 
ATOM     82  O   UNL     1     -12.130  14.388  -1.791  1.00  0.00    -0.237 OA
ATOM     83  O   UNL     1     -10.488  13.998   0.017  1.00  0.00    -0.237 OA
ATOM     84  O   UNL     1     -10.146  12.973  -2.196  1.00  0.00    -0.744 OA
ENDBRANCH  80  81
ENDBRANCH  48  73
BRANCH  60  85
ATOM     85  C   UNL     1     -20.203   8.120   0.640  1.00  0.00     0.058 A 
ATOM     86  C   UNL     1     -20.598   8.307  -0.694  1.00  0.00     0.135 A 
ATOM     87  C   UNL     1     -21.056   8.591   1.651  1.00  0.00     0.135 A 
ATOM     88  F   UNL     1     -19.814   7.881  -1.697  1.00  0.00    -0.206 F 
ATOM     89  C   UNL     1     -21.788   8.953  -1.014  1.00  0.00     0.059 A 
ATOM     90  C   UNL     1     -22.262   9.219   1.353  1.00  0.00     0.059 A 
ATOM     91  F   UNL     1     -20.729   8.429   2.942  1.00  0.00    -0.206 F 
ATOM     92  C   UNL     1     -22.614   9.404   0.017  1.00  0.00     0.060 A 
BRANCH  92  93
ATOM     93  S   UNL     1     -24.174  10.208  -0.409  1.00  0.00     0.124 S 
ATOM     94  O   UNL     1     -23.717  11.526  -0.837  1.00  0.00    -0.237 OA
ATOM     95  O   UNL     1     -24.694   9.344  -1.465  1.00  0.00    -0.237 OA
ATOM     96  O   UNL     1     -24.924  10.179   0.843  1.00  0.00    -0.744 OA
ENDBRANCH  92  93
ENDBRANCH  60  85
ENDBRANCH  34  35
ENDBRANCH  26  29
ENDBRANCH  24  25
ENDBRANCH  23  24
ENDBRANCH  22  23
ENDBRANCH   1  22
TORSDOF 21
