REMARK SMILES COC(=O)c1c(NC(=O)[C@@H]2C[C@@H]2C(=O)NCCCCNC(=O)c2ccc(-c3c4nc(c(-c5c(F)cc(S(=O)(=O)[O-])cc5F)c5ccc([nH]5)c(-c5c(F)cc(S(=O)(=O)[O-])cc5F)c5nc(c(-c6c(F)cc(S(=O)(=O)[O-])cc6F)c6ccc3[nH]6)C=C5)C=C4)cc2)sc2c1CC[N@@H+](Cc1ccccc1)C2
REMARK SMILES IDX 17 1 16 2 15 3 13 4 14 5 12 7 10 8 11 9 8 10 7 11 9 13 6 14
REMARK SMILES IDX 5 15 91 16 89 17 90 18 92 19 102 20 93 21 94 22 3 24 4 25
REMARK SMILES IDX 2 26 1 27 95 28 96 29 97 30 101 31 98 32 100 33 99 34 18 35
REMARK SMILES IDX 19 36 20 37 21 38 22 40 23 41 24 42 88 43 25 44 87 45 26 46
REMARK SMILES IDX 27 47 28 48 81 49 29 50 86 51 80 52 82 53 30 54 85 55 79 56
REMARK SMILES IDX 78 57 31 59 65 60 44 61 64 62 45 63 48 64 63 65 83 66 46 67
REMARK SMILES IDX 47 68 62 70 84 71 49 72 32 73 33 74 42 75 34 76 35 77 41 78
REMARK SMILES IDX 43 79 36 80 37 81 38 82 39 83 40 84 66 85 67 86 76 87 68 88
REMARK SMILES IDX 69 89 75 90 77 91 70 92 71 93 72 94 73 95 74 96 50 97 51 98
REMARK SMILES IDX 60 99 52 100 53 101 59 102 61 103 54 104 55 105 56 106
REMARK SMILES IDX 57 107 58 108
REMARK H PARENT 15 6 7 12 94 23 20 39 82 58 48 69
REMARK Flexibility Score: inf
ROOT
ATOM      1  C   UNL     1      -4.652  -2.419  -3.357  1.00  0.00     0.023 C 
ENDROOT
BRANCH   1   2
ATOM      2  C   UNL     1      -3.177  -2.435  -3.748  1.00  0.00     0.116 C 
BRANCH   2   3
ATOM      3  N   UNL     1      -2.753  -1.349  -4.585  1.00  0.00    -0.356 N 
ATOM      4  C   UNL     1      -1.745  -0.441  -4.423  1.00  0.00     0.223 C 
ATOM      5  O   UNL     1      -1.430   0.217  -5.415  1.00  0.00    -0.275 OA
ATOM      6  H   UNL     1      -3.276  -1.240  -5.413  1.00  0.00     0.163 HD
BRANCH   4   7
ATOM      7  C   UNL     1      -1.023  -0.125  -3.159  1.00  0.00     0.091 C 
ATOM      8  C   UNL     1      -1.130  -0.284  -1.663  1.00  0.00     0.092 C 
ATOM      9  C   UNL     1      -1.823   0.864  -2.312  1.00  0.00     0.028 C 
BRANCH   8  10
ATOM     10  C   UNL     1      -1.848  -1.309  -0.890  1.00  0.00     0.228 C 
ATOM     11  N   UNL     1      -1.420  -2.614  -0.881  1.00  0.00    -0.317 N 
ATOM     12  H   UNL     1      -1.876  -3.212  -0.245  1.00  0.00     0.170 HD
ATOM     13  O   UNL     1      -2.846  -0.992  -0.248  1.00  0.00    -0.274 OA
BRANCH  11  14
ATOM     14  C   UNL     1      -0.435  -3.190  -1.649  1.00  0.00     0.110 A 
ATOM     15  C   UNL     1       0.826  -2.857  -2.110  1.00  0.00     0.098 A 
ATOM     16  C   UNL     1       1.289  -3.849  -3.058  1.00  0.00    -0.006 A 
ATOM     17  S   UNL     1      -0.938  -4.732  -2.158  1.00  0.00    -0.116 S 
ATOM     18  C   UNL     1       0.427  -4.923  -3.128  1.00  0.00     0.065 A 
ATOM     19  C   UNL     1       2.635  -3.922  -3.736  1.00  0.00     0.099 C 
ATOM     20  C   UNL     1       0.748  -6.204  -3.822  1.00  0.00     0.310 C 
ATOM     21  C   UNL     1       2.953  -5.330  -4.314  1.00  0.00     0.267 C 
ATOM     22  N   UNL     1       2.186  -6.471  -3.790  1.00  0.00    -0.326 N 
ATOM     23  H   UNL     1       2.364  -7.226  -4.452  1.00  0.00     0.348 HD
BRANCH  15  24
ATOM     24  C   UNL     1       1.644  -1.755  -1.631  1.00  0.00     0.341 C 
ATOM     25  O   UNL     1       2.485  -1.182  -2.318  1.00  0.00    -0.246 OA
BRANCH  24  26
ATOM     26  O   UNL     1       1.391  -1.447  -0.325  1.00  0.00    -0.465 OA
ATOM     27  C   UNL     1       2.149  -0.348   0.175  1.00  0.00     0.282 C 
ENDBRANCH  24  26
ENDBRANCH  15  24
BRANCH  22  28
ATOM     28  C   UNL     1       2.684  -7.122  -2.572  1.00  0.00     0.299 C 
BRANCH  28  29
ATOM     29  C   UNL     1       2.592  -6.341  -1.278  1.00  0.00     0.006 A 
ATOM     30  C   UNL     1       3.604  -5.444  -0.916  1.00  0.00     0.009 A 
ATOM     31  C   UNL     1       1.458  -6.440  -0.457  1.00  0.00     0.009 A 
ATOM     32  C   UNL     1       3.439  -4.590   0.176  1.00  0.00     0.001 A 
ATOM     33  C   UNL     1       1.288  -5.579   0.630  1.00  0.00     0.001 A 
ATOM     34  C   UNL     1       2.271  -4.641   0.933  1.00  0.00     0.000 A 
ENDBRANCH  28  29
ENDBRANCH  22  28
ENDBRANCH  11  14
ENDBRANCH   8  10
ENDBRANCH   4   7
ENDBRANCH   2   3
ENDBRANCH   1   2
BRANCH   1  35
ATOM     35  C   UNL     1      -5.564  -3.286  -4.234  1.00  0.00     0.023 C 
BRANCH  35  36
ATOM     36  C   UNL     1      -5.259  -4.786  -4.213  1.00  0.00     0.116 C 
BRANCH  36  37
ATOM     37  N   UNL     1      -5.589  -5.448  -2.954  1.00  0.00    -0.352 N 
ATOM     38  C   UNL     1      -5.455  -6.799  -2.670  1.00  0.00     0.251 C 
ATOM     39  H   UNL     1      -5.943  -4.878  -2.233  1.00  0.00     0.163 HD
ATOM     40  O   UNL     1      -6.073  -7.312  -1.745  1.00  0.00    -0.269 OA
BRANCH  38  41
ATOM     41  C   UNL     1      -4.538  -7.610  -3.500  1.00  0.00     0.039 A 
ATOM     42  C   UNL     1      -4.925  -8.831  -4.055  1.00  0.00     0.014 A 
ATOM     43  C   UNL     1      -3.272  -7.097  -3.755  1.00  0.00     0.014 A 
ATOM     44  C   UNL     1      -4.058  -9.480  -4.942  1.00  0.00     0.010 A 
ATOM     45  C   UNL     1      -2.452  -7.695  -4.689  1.00  0.00     0.010 A 
ATOM     46  C   UNL     1      -2.825  -8.899  -5.277  1.00  0.00    -0.014 A 
BRANCH  46  47
ATOM     47  C   UNL     1      -2.006  -9.436  -6.370  1.00  0.00     0.031 A 
ATOM     48  C   UNL     1      -2.674  -9.508  -7.700  1.00  0.00     0.074 A 
ATOM     49  C   UNL     1      -0.666  -9.604  -6.316  1.00  0.00     0.049 A 
ATOM     50  N   UNL     1      -2.896 -10.560  -8.416  1.00  0.00    -0.248 NA
ATOM     51  C   UNL     1      -3.226  -8.271  -8.275  1.00  0.00     0.031 C 
ATOM     52  C   UNL     1       0.237  -9.283  -5.211  1.00  0.00     0.029 A 
ATOM     53  N   UNL     1       0.196  -9.980  -7.306  1.00  0.00    -0.354 N 
ATOM     54  C   UNL     1      -3.436 -10.110  -9.617  1.00  0.00     0.074 A 
ATOM     55  C   UNL     1      -3.751  -8.717  -9.418  1.00  0.00     0.031 C 
ATOM     56  C   UNL     1       1.509  -9.232  -5.667  1.00  0.00     0.029 A 
ATOM     57  C   UNL     1       1.530  -9.694  -7.042  1.00  0.00     0.049 A 
ATOM     58  H   UNL     1      -0.103 -10.417  -8.136  1.00  0.00     0.167 HD
ATOM     59  C   UNL     1      -3.405 -10.869 -10.749  1.00  0.00     0.037 A 
ATOM     60  C   UNL     1       2.583  -9.804  -7.890  1.00  0.00     0.037 A 
ATOM     61  C   UNL     1      -3.071 -12.241 -10.459  1.00  0.00     0.049 A 
ATOM     62  C   UNL     1       2.194 -10.762  -8.950  1.00  0.00     0.074 A 
ATOM     63  C   UNL     1      -3.614 -13.226  -9.655  1.00  0.00     0.029 A 
ATOM     64  N   UNL     1      -1.805 -12.676 -10.766  1.00  0.00    -0.354 N 
ATOM     65  N   UNL     1       1.985 -12.033  -8.742  1.00  0.00    -0.248 NA
ATOM     66  C   UNL     1       1.638 -10.233 -10.184  1.00  0.00     0.031 C 
ATOM     67  C   UNL     1      -2.493 -13.928  -9.122  1.00  0.00     0.029 A 
ATOM     68  C   UNL     1      -1.342 -13.365  -9.674  1.00  0.00     0.049 A 
ATOM     69  H   UNL     1      -1.322 -12.522 -11.610  1.00  0.00     0.167 HD
ATOM     70  C   UNL     1       0.916 -12.350  -9.563  1.00  0.00     0.074 A 
ATOM     71  C   UNL     1       0.829 -11.243 -10.512  1.00  0.00     0.031 C 
ATOM     72  C   UNL     1       0.031 -13.332  -9.222  1.00  0.00     0.037 A 
BRANCH  59  73
ATOM     73  C   UNL     1      -3.362 -10.321 -12.156  1.00  0.00     0.058 A 
ATOM     74  C   UNL     1      -3.582 -11.186 -13.248  1.00  0.00     0.135 A 
ATOM     75  C   UNL     1      -2.847  -9.047 -12.481  1.00  0.00     0.135 A 
ATOM     76  F   UNL     1      -4.056 -12.427 -13.053  1.00  0.00    -0.206 F 
ATOM     77  C   UNL     1      -3.251 -10.836 -14.558  1.00  0.00     0.059 A 
ATOM     78  C   UNL     1      -2.563  -8.657 -13.786  1.00  0.00     0.059 A 
ATOM     79  F   UNL     1      -2.502  -8.160 -11.539  1.00  0.00    -0.206 F 
ATOM     80  C   UNL     1      -2.726  -9.573 -14.813  1.00  0.00     0.060 A 
BRANCH  80  81
ATOM     81  S   UNL     1      -2.193  -9.158 -16.484  1.00  0.00     0.124 S 
ATOM     82  O   UNL     1      -0.987  -9.968 -16.610  1.00  0.00    -0.237 OA
ATOM     83  O   UNL     1      -3.336  -9.584 -17.285  1.00  0.00    -0.237 OA
ATOM     84  O   UNL     1      -1.984  -7.715 -16.419  1.00  0.00    -0.744 OA
ENDBRANCH  80  81
ENDBRANCH  59  73
BRANCH  60  85
ATOM     85  C   UNL     1       3.781  -8.935  -8.002  1.00  0.00     0.058 A 
ATOM     86  C   UNL     1       4.910  -9.334  -8.739  1.00  0.00     0.135 A 
ATOM     87  C   UNL     1       3.722  -7.574  -7.643  1.00  0.00     0.135 A 
ATOM     88  F   UNL     1       5.034 -10.606  -9.148  1.00  0.00    -0.206 F 
ATOM     89  C   UNL     1       5.895  -8.427  -9.143  1.00  0.00     0.059 A 
ATOM     90  C   UNL     1       4.702  -6.655  -8.015  1.00  0.00     0.059 A 
ATOM     91  F   UNL     1       2.646  -7.077  -7.017  1.00  0.00    -0.206 F 
ATOM     92  C   UNL     1       5.770  -7.082  -8.794  1.00  0.00     0.060 A 
BRANCH  92  93
ATOM     93  S   UNL     1       6.923  -5.874  -9.489  1.00  0.00     0.124 S 
ATOM     94  O   UNL     1       8.164  -6.209  -8.800  1.00  0.00    -0.237 OA
ATOM     95  O   UNL     1       6.877  -6.189 -10.913  1.00  0.00    -0.237 OA
ATOM     96  O   UNL     1       6.331  -4.591  -9.118  1.00  0.00    -0.744 OA
ENDBRANCH  92  93
ENDBRANCH  60  85
BRANCH  72  97
ATOM     97  C   UNL     1       0.419 -14.296  -8.129  1.00  0.00     0.058 A 
ATOM     98  C   UNL     1       0.686 -13.935  -6.796  1.00  0.00     0.135 A 
ATOM     99  C   UNL     1       0.402 -15.669  -8.423  1.00  0.00     0.135 A 
ATOM    100  F   UNL     1       0.614 -12.658  -6.397  1.00  0.00    -0.206 F 
ATOM    101  C   UNL     1       0.980 -14.887  -5.818  1.00  0.00     0.059 A 
ATOM    102  C   UNL     1       0.657 -16.638  -7.457  1.00  0.00     0.059 A 
ATOM    103  F   UNL     1       0.091 -16.087  -9.662  1.00  0.00    -0.206 F 
ATOM    104  C   UNL     1       0.966 -16.239  -6.159  1.00  0.00     0.060 A 
BRANCH 104 105
ATOM    105  S   UNL     1       1.291 -17.472  -4.880  1.00  0.00     0.124 S 
ATOM    106  O   UNL     1       2.726 -17.320  -4.666  1.00  0.00    -0.237 OA
ATOM    107  O   UNL     1       0.436 -17.027  -3.783  1.00  0.00    -0.237 OA
ATOM    108  O   UNL     1       0.883 -18.727  -5.506  1.00  0.00    -0.744 OA
ENDBRANCH 104 105
ENDBRANCH  72  97
ENDBRANCH  46  47
ENDBRANCH  38  41
ENDBRANCH  36  37
ENDBRANCH  35  36
ENDBRANCH   1  35
TORSDOF 20
