REMARK SMILES O=C(NCCCCNC(=O)c1cn(C2CC2)c2cc(N3CC[NH2+]CC3)ccc2c1=O)c1ccc(-c2c3nc(c(-c4c(F)cc(S(=O)(=O)[O-])cc4F)c4ccc([nH]4)c(-c4c(F)cc(S(=O)(=O)[O-])cc4F)c4nc(c(-c5c(F)cc(S(=O)(=O)[O-])cc5F)c5ccc2[nH]5)C=C4)C=C3)cc1
REMARK SMILES IDX 4 1 3 2 1 3 2 4 31 6 32 7 96 8 33 9 95 10 34 11 35 12 36 13
REMARK SMILES IDX 89 14 37 15 94 16 88 17 90 18 38 19 93 20 87 21 86 22 39 24
REMARK SMILES IDX 73 25 52 26 72 27 53 28 56 29 71 30 91 31 54 32 55 33 70 35
REMARK SMILES IDX 92 36 57 37 40 38 41 39 50 40 42 41 43 42 49 43 51 44 44 45
REMARK SMILES IDX 45 46 46 47 47 48 48 49 74 50 75 51 84 52 76 53 77 54 83 55
REMARK SMILES IDX 85 56 78 57 79 58 80 59 81 60 82 61 58 62 59 63 68 64 60 65
REMARK SMILES IDX 61 66 67 67 69 68 62 69 63 70 64 71 65 72 66 73 5 74 6 75
REMARK SMILES IDX 7 76 8 77 9 78 10 80 11 81 12 82 29 83 13 84 28 85 30 86
REMARK SMILES IDX 17 87 27 88 18 89 26 90 19 91 14 92 15 93 16 94 20 95 21 96
REMARK SMILES IDX 25 97 22 98 24 99 23 100
REMARK H PARENT 3 5 90 23 56 34 8 79 23 101 23 102
REMARK Flexibility Score: inf
ROOT
ATOM      1  C   UNL     1       4.566   0.456  -1.231  1.00  0.00     0.116 C 
ENDROOT
BRANCH   1   2
ATOM      2  N   UNL     1       3.139   0.582  -0.987  1.00  0.00    -0.352 N 
ATOM      3  O   UNL     1       1.153   0.150  -0.023  1.00  0.00    -0.269 OA
ATOM      4  C   UNL     1       2.370  -0.008  -0.011  1.00  0.00     0.251 C 
ATOM      5  H   UNL     1       2.654   1.172  -1.608  1.00  0.00     0.163 HD
BRANCH   4   6
ATOM      6  C   UNL     1       3.000  -0.859   1.027  1.00  0.00     0.039 A 
ATOM      7  C   UNL     1       2.383  -2.064   1.371  1.00  0.00     0.014 A 
ATOM      8  C   UNL     1       4.185  -0.478   1.663  1.00  0.00     0.014 A 
ATOM      9  C   UNL     1       2.979  -2.909   2.312  1.00  0.00     0.010 A 
ATOM     10  C   UNL     1       4.820  -1.356   2.539  1.00  0.00     0.010 A 
ATOM     11  C   UNL     1       4.217  -2.574   2.886  1.00  0.00    -0.014 A 
BRANCH  11  12
ATOM     12  C   UNL     1       4.865  -3.463   3.885  1.00  0.00     0.031 A 
ATOM     13  C   UNL     1       5.061  -2.982   5.300  1.00  0.00     0.074 A 
ATOM     14  C   UNL     1       5.301  -4.686   3.522  1.00  0.00     0.049 A 
ATOM     15  N   UNL     1       5.641  -3.587   6.304  1.00  0.00    -0.248 NA
ATOM     16  C   UNL     1       4.567  -1.632   5.622  1.00  0.00     0.031 C 
ATOM     17  C   UNL     1       5.213  -5.251   2.173  1.00  0.00     0.029 A 
ATOM     18  N   UNL     1       5.905  -5.678   4.255  1.00  0.00    -0.354 N 
ATOM     19  C   UNL     1       5.594  -2.690   7.365  1.00  0.00     0.074 A 
ATOM     20  C   UNL     1       4.981  -1.478   6.871  1.00  0.00     0.031 C 
ATOM     21  C   UNL     1       5.706  -6.501   2.186  1.00  0.00     0.029 A 
ATOM     22  C   UNL     1       6.173  -6.817   3.533  1.00  0.00     0.049 A 
ATOM     23  H   UNL     1       6.125  -5.582   5.210  1.00  0.00     0.167 HD
ATOM     24  C   UNL     1       5.993  -2.871   8.645  1.00  0.00     0.037 A 
ATOM     25  C   UNL     1       6.724  -7.987   3.914  1.00  0.00     0.037 A 
ATOM     26  C   UNL     1       6.546  -4.098   9.150  1.00  0.00     0.049 A 
ATOM     27  C   UNL     1       7.138  -8.173   5.350  1.00  0.00     0.074 A 
ATOM     28  C   UNL     1       6.927  -4.397  10.446  1.00  0.00     0.029 A 
ATOM     29  N   UNL     1       6.779  -5.233   8.390  1.00  0.00    -0.354 N 
ATOM     30  N   UNL     1       7.043  -7.327   6.348  1.00  0.00    -0.248 NA
ATOM     31  C   UNL     1       7.732  -9.468   5.714  1.00  0.00     0.031 C 
ATOM     32  C   UNL     1       7.412  -5.707  10.466  1.00  0.00     0.029 A 
ATOM     33  C   UNL     1       7.304  -6.233   9.188  1.00  0.00     0.049 A 
ATOM     34  H   UNL     1       6.599  -5.314   7.425  1.00  0.00     0.167 HD
ATOM     35  C   UNL     1       7.540  -7.996   7.461  1.00  0.00     0.074 A 
ATOM     36  C   UNL     1       7.931  -9.318   7.018  1.00  0.00     0.031 C 
ATOM     37  C   UNL     1       7.661  -7.553   8.735  1.00  0.00     0.037 A 
BRANCH  24  38
ATOM     38  C   UNL     1       5.811  -1.732   9.606  1.00  0.00     0.058 A 
ATOM     39  C   UNL     1       4.540  -1.385  10.090  1.00  0.00     0.135 A 
ATOM     40  C   UNL     1       6.919  -1.027  10.104  1.00  0.00     0.135 A 
ATOM     41  F   UNL     1       3.447  -2.016   9.633  1.00  0.00    -0.206 F 
ATOM     42  C   UNL     1       4.371  -0.370  11.024  1.00  0.00     0.059 A 
ATOM     43  C   UNL     1       6.776  -0.023  11.057  1.00  0.00     0.059 A 
ATOM     44  F   UNL     1       8.156  -1.319   9.671  1.00  0.00    -0.206 F 
ATOM     45  C   UNL     1       5.496   0.303  11.506  1.00  0.00     0.060 A 
BRANCH  45  46
ATOM     46  S   UNL     1       5.259   1.595  12.743  1.00  0.00     0.124 S 
ATOM     47  O   UNL     1       4.673   2.663  11.939  1.00  0.00    -0.237 OA
ATOM     48  O   UNL     1       4.358   0.953  13.696  1.00  0.00    -0.237 OA
ATOM     49  O   UNL     1       6.609   1.849  13.234  1.00  0.00    -0.744 OA
ENDBRANCH  45  46
ENDBRANCH  24  38
BRANCH  25  50
ATOM     50  C   UNL     1       6.877  -9.093   2.933  1.00  0.00     0.058 A 
ATOM     51  C   UNL     1       6.053 -10.227   2.999  1.00  0.00     0.135 A 
ATOM     52  C   UNL     1       7.834  -9.039   1.909  1.00  0.00     0.135 A 
ATOM     53  F   UNL     1       5.127 -10.327   3.964  1.00  0.00    -0.206 F 
ATOM     54  C   UNL     1       6.182 -11.275   2.094  1.00  0.00     0.059 A 
ATOM     55  C   UNL     1       7.969 -10.066   0.979  1.00  0.00     0.059 A 
ATOM     56  F   UNL     1       8.636  -7.969   1.794  1.00  0.00    -0.206 F 
ATOM     57  C   UNL     1       7.143 -11.185   1.086  1.00  0.00     0.060 A 
BRANCH  57  58
ATOM     58  S   UNL     1       7.273 -12.534  -0.109  1.00  0.00     0.124 S 
ATOM     59  O   UNL     1       7.915 -13.572   0.689  1.00  0.00    -0.237 OA
ATOM     60  O   UNL     1       5.875 -12.770  -0.459  1.00  0.00    -0.237 OA
ATOM     61  O   UNL     1       8.089 -11.960  -1.174  1.00  0.00    -0.744 OA
ENDBRANCH  57  58
ENDBRANCH  25  50
BRANCH  37  62
ATOM     62  C   UNL     1       8.211  -8.496   9.764  1.00  0.00     0.058 A 
ATOM     63  C   UNL     1       9.589  -8.730   9.873  1.00  0.00     0.135 A 
ATOM     64  C   UNL     1       7.365  -9.056  10.735  1.00  0.00     0.135 A 
ATOM     65  F   UNL     1      10.434  -8.220   8.963  1.00  0.00    -0.206 F 
ATOM     66  C   UNL     1      10.114  -9.476  10.921  1.00  0.00     0.059 A 
ATOM     67  C   UNL     1       7.871  -9.790  11.803  1.00  0.00     0.059 A 
ATOM     68  F   UNL     1       6.040  -8.851  10.676  1.00  0.00    -0.206 F 
ATOM     69  C   UNL     1       9.248  -9.991  11.890  1.00  0.00     0.060 A 
BRANCH  69  70
ATOM     70  S   UNL     1       9.955 -10.868  13.300  1.00  0.00     0.124 S 
ATOM     71  O   UNL     1      10.362 -12.129  12.690  1.00  0.00    -0.237 OA
ATOM     72  O   UNL     1      11.041  -9.981  13.707  1.00  0.00    -0.237 OA
ATOM     73  O   UNL     1       8.841 -10.956  14.240  1.00  0.00    -0.744 OA
ENDBRANCH  69  70
ENDBRANCH  37  62
ENDBRANCH  11  12
ENDBRANCH   4   6
ENDBRANCH   1   2
BRANCH   1  74
ATOM     74  C   UNL     1       4.923   0.312  -2.705  1.00  0.00     0.023 C 
BRANCH  74  75
ATOM     75  C   UNL     1       4.470   1.453  -3.613  1.00  0.00     0.023 C 
BRANCH  75  76
ATOM     76  C   UNL     1       4.830   2.853  -3.130  1.00  0.00     0.116 C 
BRANCH  76  77
ATOM     77  N   UNL     1       6.266   3.072  -3.010  1.00  0.00    -0.352 N 
ATOM     78  C   UNL     1       7.074   3.933  -3.708  1.00  0.00     0.256 C 
ATOM     79  H   UNL     1       6.721   2.523  -2.332  1.00  0.00     0.163 HD
ATOM     80  O   UNL     1       8.271   4.015  -3.448  1.00  0.00    -0.269 OA
BRANCH  78  81
ATOM     81  C   UNL     1       6.447   4.777  -4.737  1.00  0.00     0.104 A 
ATOM     82  C   UNL     1       5.566   5.709  -4.349  1.00  0.00     0.104 A 
ATOM     83  C   UNL     1       6.672   4.577  -6.180  1.00  0.00     0.202 A 
ATOM     84  N   UNL     1       4.744   6.446  -5.179  1.00  0.00    -0.343 N 
ATOM     85  C   UNL     1       5.870   5.414  -7.105  1.00  0.00     0.047 A 
ATOM     86  O   UNL     1       7.450   3.735  -6.614  1.00  0.00    -0.288 OA
ATOM     87  C   UNL     1       4.927   6.328  -6.594  1.00  0.00     0.054 A 
ATOM     88  C   UNL     1       6.029   5.231  -8.482  1.00  0.00     0.016 A 
ATOM     89  C   UNL     1       4.175   7.067  -7.523  1.00  0.00     0.053 A 
ATOM     90  C   UNL     1       5.223   5.937  -9.372  1.00  0.00     0.027 A 
ATOM     91  C   UNL     1       4.278   6.857  -8.910  1.00  0.00     0.039 A 
BRANCH  84  92
ATOM     92  C   UNL     1       3.552   7.131  -4.612  1.00  0.00     0.087 C 
ATOM     93  C   UNL     1       3.067   7.031  -3.185  1.00  0.00     0.027 C 
ATOM     94  C   UNL     1       3.696   8.301  -3.676  1.00  0.00     0.027 C 
ENDBRANCH  84  92
BRANCH  91  95
ATOM     95  N   UNL     1       3.442   7.531  -9.774  1.00  0.00    -0.360 N 
ATOM     96  C   UNL     1       3.498   8.993  -9.855  1.00  0.00     0.178 C 
ATOM     97  C   UNL     1       2.732   6.833 -10.850  1.00  0.00     0.178 C 
ATOM     98  C   UNL     1       3.927   9.428 -11.277  1.00  0.00     0.282 C 
ATOM     99  C   UNL     1       3.174   7.355 -12.233  1.00  0.00     0.282 C 
ATOM    100  N   UNL     1       3.108   8.829 -12.356  1.00  0.00    -0.343 N 
ATOM    101  H   UNL     1       3.473   9.116 -13.265  1.00  0.00     0.346 HD
ATOM    102  H   UNL     1       2.141   9.144 -12.277  1.00  0.00     0.346 HD
ENDBRANCH  91  95
ENDBRANCH  78  81
ENDBRANCH  76  77
ENDBRANCH  75  76
ENDBRANCH  74  75
ENDBRANCH   1  74
TORSDOF 16
