REMARK SMILES C[C@H](NC(=O)OCc1ccccc1)C(=O)NCC(=O)N1CCC[C@H]1C(=O)NCCCCNC(=O)c1ccc(-c2c3nc(c(-c4c(F)cc(S(=O)(=O)[O-])cc4F)c4ccc([nH]4)c(-c4c(F)cc(S(=O)(=O)[O-])cc4F)c4nc(c(-c5c(F)cc(S(=O)(=O)[O-])cc5F)c5ccc2[nH]5)C=C4)C=C3)cc1
REMARK SMILES IDX 25 1 26 2 27 3 24 5 20 6 21 7 22 8 23 9 18 10 19 11 17 12
REMARK SMILES IDX 16 13 14 14 15 15 2 17 1 18 3 19 4 20 5 22 6 23 7 24 8 25
REMARK SMILES IDX 9 26 13 27 10 28 12 29 11 30 28 31 29 32 30 33 31 34 32 35
REMARK SMILES IDX 33 36 34 38 35 39 36 40 100 41 37 42 99 43 38 44 39 45 40 46
REMARK SMILES IDX 93 47 41 48 98 49 92 50 94 51 42 52 97 53 91 54 90 55 43 57
REMARK SMILES IDX 77 58 56 59 76 60 57 61 60 62 75 63 95 64 58 65 59 66 74 68
REMARK SMILES IDX 96 69 61 70 44 71 45 72 54 73 46 74 47 75 53 76 55 77 48 78
REMARK SMILES IDX 49 79 50 80 51 81 52 82 78 83 79 84 88 85 80 86 81 87 87 88
REMARK SMILES IDX 89 89 82 90 83 91 84 92 85 93 86 94 62 95 63 96 72 97 64 98
REMARK SMILES IDX 65 99 71 100 73 101 66 102 67 103 68 104 69 105 70 106
REMARK H PARENT 27 4 16 16 3 21 32 37 94 56 60 67
REMARK Flexibility Score: inf
ROOT
ATOM      1  C   UNL     1      -1.464  -4.553  -1.589  1.00  0.00     0.242 C 
ATOM      2  O   UNL     1      -2.531  -4.214  -2.111  1.00  0.00    -0.273 OA
ATOM      3  N   UNL     1      -1.232  -5.896  -1.486  1.00  0.00    -0.354 N 
ATOM      4  H   UNL     1      -1.824  -6.465  -2.029  1.00  0.00     0.163 HD
ENDROOT
BRANCH   1   5
ATOM      5  C   UNL     1      -0.384  -3.522  -1.149  1.00  0.00     0.174 C 
ATOM      6  N   UNL     1      -0.927  -2.155  -1.175  1.00  0.00    -0.329 N 
ATOM      7  C   UNL     1      -1.334  -1.793   0.168  1.00  0.00     0.120 C 
ATOM      8  C   UNL     1      -0.201  -2.350   0.997  1.00  0.00     0.024 C 
ATOM      9  C   UNL     1       0.111  -3.664   0.299  1.00  0.00     0.037 C 
BRANCH   6  10
ATOM     10  C   UNL     1      -0.972  -1.463  -2.359  1.00  0.00     0.242 C 
ATOM     11  O   UNL     1      -0.638  -2.013  -3.417  1.00  0.00    -0.273 OA
BRANCH  10  12
ATOM     12  C   UNL     1      -1.203   0.058  -2.405  1.00  0.00     0.216 C 
BRANCH  12  13
ATOM     13  N   UNL     1      -1.781   0.788  -1.298  1.00  0.00    -0.345 N 
ATOM     14  C   UNL     1      -1.214   1.595  -0.358  1.00  0.00     0.242 C 
ATOM     15  O   UNL     1      -1.983   2.151   0.433  1.00  0.00    -0.273 OA
ATOM     16  H   UNL     1      -2.756   0.684  -1.208  1.00  0.00     0.164 HD
BRANCH  14  17
ATOM     17  C   UNL     1       0.295   1.911  -0.316  1.00  0.00     0.171 C 
ATOM     18  C   UNL     1       0.683   2.880  -1.430  1.00  0.00     0.042 C 
BRANCH  17  19
ATOM     19  N   UNL     1       1.186   0.755  -0.333  1.00  0.00    -0.310 N 
ATOM     20  C   UNL     1       2.387   0.698   0.312  1.00  0.00     0.408 C 
ATOM     21  H   UNL     1       0.901  -0.037  -0.844  1.00  0.00     0.167 HD
ATOM     22  O   UNL     1       3.213  -0.168   0.036  1.00  0.00    -0.225 OA
BRANCH  20  23
ATOM     23  O   UNL     1       2.538   1.657   1.253  1.00  0.00    -0.445 OA
BRANCH  23  24
ATOM     24  C   UNL     1       3.821   1.754   1.889  1.00  0.00     0.270 C 
BRANCH  24  25
ATOM     25  C   UNL     1       3.952   0.953   3.167  1.00  0.00    -0.011 A 
ATOM     26  C   UNL     1       3.510  -0.375   3.259  1.00  0.00     0.007 A 
ATOM     27  C   UNL     1       4.634   1.501   4.267  1.00  0.00     0.007 A 
ATOM     28  C   UNL     1       3.738  -1.131   4.410  1.00  0.00     0.000 A 
ATOM     29  C   UNL     1       4.862   0.744   5.419  1.00  0.00     0.000 A 
ATOM     30  C   UNL     1       4.417  -0.574   5.489  1.00  0.00     0.000 A 
ENDBRANCH  24  25
ENDBRANCH  23  24
ENDBRANCH  20  23
ENDBRANCH  17  19
ENDBRANCH  14  17
ENDBRANCH  12  13
ENDBRANCH  10  12
ENDBRANCH   6  10
ENDBRANCH   1   5
BRANCH   3  31
ATOM     31  C   UNL     1      -0.247  -6.608  -0.699  1.00  0.00     0.116 C 
BRANCH  31  32
ATOM     32  C   UNL     1      -0.828  -6.989   0.669  1.00  0.00     0.023 C 
BRANCH  32  33
ATOM     33  C   UNL     1      -1.904  -8.069   0.621  1.00  0.00     0.023 C 
BRANCH  33  34
ATOM     34  C   UNL     1      -1.435  -9.394   0.051  1.00  0.00     0.116 C 
BRANCH  34  35
ATOM     35  N   UNL     1      -0.311  -9.953   0.788  1.00  0.00    -0.352 N 
ATOM     36  C   UNL     1      -0.121 -11.252   1.193  1.00  0.00     0.251 C 
ATOM     37  H   UNL     1       0.403  -9.320   1.027  1.00  0.00     0.163 HD
ATOM     38  O   UNL     1       0.806 -11.536   1.944  1.00  0.00    -0.269 OA
BRANCH  36  39
ATOM     39  C   UNL     1      -1.071 -12.285   0.737  1.00  0.00     0.039 A 
ATOM     40  C   UNL     1      -1.619 -13.162   1.674  1.00  0.00     0.014 A 
ATOM     41  C   UNL     1      -1.464 -12.340  -0.603  1.00  0.00     0.014 A 
ATOM     42  C   UNL     1      -2.614 -14.055   1.275  1.00  0.00     0.010 A 
ATOM     43  C   UNL     1      -2.518 -13.164  -0.977  1.00  0.00     0.010 A 
ATOM     44  C   UNL     1      -3.100 -14.034  -0.044  1.00  0.00    -0.014 A 
BRANCH  44  45
ATOM     45  C   UNL     1      -4.209 -14.924  -0.471  1.00  0.00     0.031 A 
ATOM     46  C   UNL     1      -3.970 -15.954  -1.543  1.00  0.00     0.074 A 
ATOM     47  C   UNL     1      -5.436 -14.770   0.065  1.00  0.00     0.049 A 
ATOM     48  N   UNL     1      -4.820 -16.773  -2.104  1.00  0.00    -0.248 NA
ATOM     49  C   UNL     1      -2.599 -16.058  -2.072  1.00  0.00     0.031 C 
ATOM     50  C   UNL     1      -5.800 -13.778   1.081  1.00  0.00     0.029 A 
ATOM     51  N   UNL     1      -6.609 -15.441  -0.173  1.00  0.00    -0.354 N 
ATOM     52  C   UNL     1      -4.090 -17.490  -3.044  1.00  0.00     0.074 A 
ATOM     53  C   UNL     1      -2.746 -16.958  -3.033  1.00  0.00     0.031 C 
ATOM     54  C   UNL     1      -7.096 -13.926   1.398  1.00  0.00     0.029 A 
ATOM     55  C   UNL     1      -7.668 -14.990   0.579  1.00  0.00     0.049 A 
ATOM     56  H   UNL     1      -6.684 -16.177  -0.823  1.00  0.00     0.167 HD
ATOM     57  C   UNL     1      -4.493 -18.523  -3.821  1.00  0.00     0.037 A 
ATOM     58  C   UNL     1      -8.956 -15.385   0.599  1.00  0.00     0.037 A 
ATOM     59  C   UNL     1      -5.829 -19.056  -3.819  1.00  0.00     0.049 A 
ATOM     60  C   UNL     1      -9.388 -16.507  -0.310  1.00  0.00     0.074 A 
ATOM     61  C   UNL     1      -6.335 -20.114  -4.554  1.00  0.00     0.029 A 
ATOM     62  N   UNL     1      -6.872 -18.576  -3.040  1.00  0.00    -0.354 N 
ATOM     63  N   UNL     1      -8.671 -17.206  -1.158  1.00  0.00    -0.248 NA
ATOM     64  C   UNL     1     -10.804 -16.898  -0.256  1.00  0.00     0.031 C 
ATOM     65  C   UNL     1      -7.694 -20.247  -4.251  1.00  0.00     0.029 A 
ATOM     66  C   UNL     1      -8.022 -19.307  -3.287  1.00  0.00     0.049 A 
ATOM     67  H   UNL     1      -6.805 -17.826  -2.405  1.00  0.00     0.167 HD
ATOM     68  C   UNL     1      -9.540 -18.143  -1.707  1.00  0.00     0.074 A 
ATOM     69  C   UNL     1     -10.831 -17.930  -1.087  1.00  0.00     0.031 C 
ATOM     70  C   UNL     1      -9.293 -19.095  -2.642  1.00  0.00     0.037 A 
BRANCH  57  71
ATOM     71  C   UNL     1      -3.469 -19.159  -4.722  1.00  0.00     0.058 A 
ATOM     72  C   UNL     1      -2.408 -19.918  -4.201  1.00  0.00     0.135 A 
ATOM     73  C   UNL     1      -3.571 -19.052  -6.118  1.00  0.00     0.135 A 
ATOM     74  F   UNL     1      -2.251 -20.038  -2.873  1.00  0.00    -0.206 F 
ATOM     75  C   UNL     1      -1.472 -20.527  -5.029  1.00  0.00     0.059 A 
ATOM     76  C   UNL     1      -2.664 -19.679  -6.968  1.00  0.00     0.059 A 
ATOM     77  F   UNL     1      -4.563 -18.336  -6.671  1.00  0.00    -0.206 F 
ATOM     78  C   UNL     1      -1.611 -20.406  -6.412  1.00  0.00     0.060 A 
BRANCH  78  79
ATOM     79  S   UNL     1      -0.399 -21.223  -7.470  1.00  0.00     0.124 S 
ATOM     80  O   UNL     1       0.788 -20.405  -7.239  1.00  0.00    -0.237 OA
ATOM     81  O   UNL     1      -0.358 -22.571  -6.912  1.00  0.00    -0.237 OA
ATOM     82  O   UNL     1      -0.983 -21.117  -8.803  1.00  0.00    -0.744 OA
ENDBRANCH  78  79
ENDBRANCH  57  71
BRANCH  58  83
ATOM     83  C   UNL     1      -9.935 -14.732   1.512  1.00  0.00     0.058 A 
ATOM     84  C   UNL     1     -10.517 -15.443   2.573  1.00  0.00     0.135 A 
ATOM     85  C   UNL     1     -10.334 -13.400   1.325  1.00  0.00     0.135 A 
ATOM     86  F   UNL     1     -10.171 -16.721   2.793  1.00  0.00    -0.206 F 
ATOM     87  C   UNL     1     -11.489 -14.873   3.388  1.00  0.00     0.059 A 
ATOM     88  C   UNL     1     -11.281 -12.797   2.147  1.00  0.00     0.059 A 
ATOM     89  F   UNL     1      -9.795 -12.667   0.338  1.00  0.00    -0.206 F 
ATOM     90  C   UNL     1     -11.868 -13.549   3.163  1.00  0.00     0.060 A 
BRANCH  90  91
ATOM     91  S   UNL     1     -13.130 -12.817   4.227  1.00  0.00     0.124 S 
ATOM     92  O   UNL     1     -14.336 -13.489   3.756  1.00  0.00    -0.237 OA
ATOM     93  O   UNL     1     -12.667 -13.196   5.558  1.00  0.00    -0.237 OA
ATOM     94  O   UNL     1     -13.041 -11.392   3.922  1.00  0.00    -0.744 OA
ENDBRANCH  90  91
ENDBRANCH  58  83
BRANCH  70  95
ATOM     95  C   UNL     1     -10.425 -20.014  -3.011  1.00  0.00     0.058 A 
ATOM     96  C   UNL     1     -11.523 -19.573  -3.767  1.00  0.00     0.135 A 
ATOM     97  C   UNL     1     -10.383 -21.370  -2.647  1.00  0.00     0.135 A 
ATOM     98  F   UNL     1     -11.616 -18.286  -4.136  1.00  0.00    -0.206 F 
ATOM     99  C   UNL     1     -12.551 -20.438  -4.126  1.00  0.00     0.059 A 
ATOM    100  C   UNL     1     -11.384 -22.260  -3.022  1.00  0.00     0.059 A 
ATOM    101  F   UNL     1      -9.351 -21.847  -1.933  1.00  0.00    -0.206 F 
ATOM    102  C   UNL     1     -12.471 -21.781  -3.752  1.00  0.00     0.060 A 
BRANCH 102 103
ATOM    103  S   UNL     1     -13.795 -22.899  -4.256  1.00  0.00     0.124 S 
ATOM    104  O   UNL     1     -14.886 -22.478  -3.383  1.00  0.00    -0.237 OA
ATOM    105  O   UNL     1     -13.954 -22.575  -5.671  1.00  0.00    -0.237 OA
ATOM    106  O   UNL     1     -13.246 -24.224  -3.981  1.00  0.00    -0.744 OA
ENDBRANCH 102 103
ENDBRANCH  70  95
ENDBRANCH  44  45
ENDBRANCH  36  39
ENDBRANCH  34  35
ENDBRANCH  33  34
ENDBRANCH  32  33
ENDBRANCH  31  32
ENDBRANCH   3  31
TORSDOF 22
