REMARK SMILES C[C@]12C(=O)N(c3ccc(C(=O)NCCCCNC(=O)c4ccc(-c5c6nc(c(-c7c(F)cc(S(=O)(=O)[O-])cc7F)c7ccc([nH]7)c(-c7c(F)cc(S(=O)(=O)[O-])cc7F)c7nc(c(-c8c(F)cc(S(=O)(=O)[O-])cc8F)c8ccc5[nH]8)C=C7)C=C6)cc4)cc3)C(=O)[C@H]1[C@H]1c3ccccc3[C@@H]2c2ccccc21
REMARK SMILES IDX 15 1 14 2 13 3 12 4 10 5 11 6 9 8 6 9 7 10 87 11 8 12 86 13
REMARK SMILES IDX 5 14 1 15 2 16 3 17 90 18 98 19 4 20 88 21 91 22 97 23 99 24
REMARK SMILES IDX 89 25 92 26 104 27 96 28 100 29 93 30 103 31 95 32 101 33
REMARK SMILES IDX 94 34 102 35 16 36 17 37 18 38 19 40 20 41 21 42 85 43 22 44
REMARK SMILES IDX 84 45 23 46 24 47 25 48 78 49 26 50 83 51 77 52 79 53 27 54
REMARK SMILES IDX 82 55 76 56 75 57 28 59 62 60 41 61 61 62 42 63 45 64 60 65
REMARK SMILES IDX 80 66 43 67 44 68 59 70 81 71 46 72 29 73 30 74 39 75 31 76
REMARK SMILES IDX 32 77 38 78 40 79 33 80 34 81 35 82 36 83 37 84 63 85 64 86
REMARK SMILES IDX 73 87 65 88 66 89 72 90 74 91 67 92 68 93 69 94 70 95 71 96
REMARK SMILES IDX 47 97 48 98 57 99 49 100 50 101 56 102 58 103 51 104 52 105
REMARK SMILES IDX 53 106 54 107 55 108
REMARK H PARENT 12 7 17 39 79 58 45 69
REMARK Flexibility Score: inf
ROOT
ATOM      1  C   UNL     1       0.981   6.158 -10.344  1.00  0.00     0.023 C 
ENDROOT
BRANCH   1   2
ATOM      2  C   UNL     1       0.702   5.672  -8.928  1.00  0.00     0.023 C 
BRANCH   2   3
ATOM      3  C   UNL     1       0.058   4.297  -8.821  1.00  0.00     0.116 C 
BRANCH   3   4
ATOM      4  N   UNL     1       0.903   3.226  -9.319  1.00  0.00    -0.352 N 
ATOM      5  C   UNL     1       1.478   2.173  -8.654  1.00  0.00     0.251 C 
ATOM      6  O   UNL     1       2.246   1.419  -9.245  1.00  0.00    -0.269 OA
ATOM      7  H   UNL     1       1.093   3.261 -10.285  1.00  0.00     0.163 HD
BRANCH   5   8
ATOM      8  C   UNL     1       1.202   1.944  -7.220  1.00  0.00     0.039 A 
ATOM      9  C   UNL     1       0.745   1.434  -4.470  1.00  0.00     0.052 A 
ATOM     10  C   UNL     1       2.035   1.357  -5.028  1.00  0.00     0.027 A 
ATOM     11  C   UNL     1      -0.306   1.777  -5.332  1.00  0.00     0.027 A 
ATOM     12  C   UNL     1       2.264   1.607  -6.386  1.00  0.00     0.016 A 
ATOM     13  C   UNL     1      -0.088   1.986  -6.697  1.00  0.00     0.016 A 
BRANCH   9  14
ATOM     14  N   UNL     1       0.480   0.985  -3.141  1.00  0.00    -0.250 N 
ATOM     15  C   UNL     1       1.253  -0.252   0.064  1.00  0.00     0.024 C 
ATOM     16  C   UNL     1       0.761  -0.510  -1.366  1.00  0.00     0.071 C 
ATOM     17  C   UNL     1       1.438   0.454  -2.306  1.00  0.00     0.241 C 
ATOM     18  C   UNL     1      -0.751  -0.183  -1.507  1.00  0.00     0.107 C 
ATOM     19  C   UNL     1       1.042  -1.964  -1.890  1.00  0.00     0.066 C 
ATOM     20  O   UNL     1       2.641   0.654  -2.278  1.00  0.00    -0.273 OA
ATOM     21  C   UNL     1      -0.773   0.892  -2.568  1.00  0.00     0.238 C 
ATOM     22  C   UNL     1      -1.544  -1.446  -1.976  1.00  0.00     0.063 C 
ATOM     23  C   UNL     1       0.432  -2.097  -3.297  1.00  0.00    -0.036 A 
ATOM     24  C   UNL     1       0.216  -2.870  -0.983  1.00  0.00    -0.036 A 
ATOM     25  O   UNL     1      -1.790   1.528  -2.818  1.00  0.00    -0.274 OA
ATOM     26  C   UNL     1      -0.965  -1.840  -3.336  1.00  0.00    -0.036 A 
ATOM     27  C   UNL     1      -1.175  -2.574  -1.006  1.00  0.00    -0.036 A 
ATOM     28  C   UNL     1       1.127  -2.350  -4.471  1.00  0.00     0.005 A 
ATOM     29  C   UNL     1       0.723  -3.894  -0.198  1.00  0.00     0.005 A 
ATOM     30  C   UNL     1      -1.665  -1.855  -4.535  1.00  0.00     0.004 A 
ATOM     31  C   UNL     1      -2.056  -3.315  -0.235  1.00  0.00     0.004 A 
ATOM     32  C   UNL     1       0.423  -2.352  -5.679  1.00  0.00     0.000 A 
ATOM     33  C   UNL     1      -0.168  -4.631   0.578  1.00  0.00     0.000 A 
ATOM     34  C   UNL     1      -0.960  -2.113  -5.711  1.00  0.00     0.000 A 
ATOM     35  C   UNL     1      -1.542  -4.345   0.560  1.00  0.00     0.000 A 
ENDBRANCH   9  14
ENDBRANCH   5   8
ENDBRANCH   3   4
ENDBRANCH   2   3
ENDBRANCH   1   2
BRANCH   1  36
ATOM     36  C   UNL     1      -0.164   6.003 -11.337  1.00  0.00     0.116 C 
BRANCH  36  37
ATOM     37  N   UNL     1      -1.423   6.594 -10.898  1.00  0.00    -0.352 N 
ATOM     38  C   UNL     1      -2.282   7.427 -11.579  1.00  0.00     0.251 C 
ATOM     39  H   UNL     1      -1.698   6.364  -9.981  1.00  0.00     0.163 HD
ATOM     40  O   UNL     1      -3.286   7.863 -11.026  1.00  0.00    -0.269 OA
BRANCH  38  41
ATOM     41  C   UNL     1      -1.949   7.836 -12.959  1.00  0.00     0.039 A 
ATOM     42  C   UNL     1      -1.550   6.889 -13.901  1.00  0.00     0.014 A 
ATOM     43  C   UNL     1      -1.946   9.196 -13.280  1.00  0.00     0.014 A 
ATOM     44  C   UNL     1      -0.947   7.313 -15.079  1.00  0.00     0.010 A 
ATOM     45  C   UNL     1      -1.428   9.615 -14.508  1.00  0.00     0.010 A 
ATOM     46  C   UNL     1      -0.861   8.681 -15.389  1.00  0.00    -0.014 A 
BRANCH  46  47
ATOM     47  C   UNL     1      -0.140   9.104 -16.619  1.00  0.00     0.031 A 
ATOM     48  C   UNL     1       1.124   9.924 -16.527  1.00  0.00     0.074 A 
ATOM     49  C   UNL     1      -0.579   8.674 -17.818  1.00  0.00     0.049 A 
ATOM     50  N   UNL     1       1.889  10.366 -17.493  1.00  0.00    -0.248 NA
ATOM     51  C   UNL     1       1.591  10.300 -15.181  1.00  0.00     0.031 C 
ATOM     52  C   UNL     1      -1.777   7.857 -18.033  1.00  0.00     0.029 A 
ATOM     53  N   UNL     1      -0.056   8.830 -19.076  1.00  0.00    -0.354 N 
ATOM     54  C   UNL     1       2.912  11.081 -16.878  1.00  0.00     0.074 A 
ATOM     55  C   UNL     1       2.658  11.038 -15.455  1.00  0.00     0.031 C 
ATOM     56  C   UNL     1      -1.859   7.530 -19.331  1.00  0.00     0.029 A 
ATOM     57  C   UNL     1      -0.763   8.167 -20.052  1.00  0.00     0.049 A 
ATOM     58  H   UNL     1       0.749   9.366 -19.263  1.00  0.00     0.167 HD
ATOM     59  C   UNL     1       3.972  11.702 -17.447  1.00  0.00     0.037 A 
ATOM     60  C   UNL     1      -0.560   8.089 -21.381  1.00  0.00     0.037 A 
ATOM     61  C   UNL     1       4.242  11.712 -18.862  1.00  0.00     0.049 A 
ATOM     62  C   UNL     1       0.604   8.819 -21.987  1.00  0.00     0.074 A 
ATOM     63  C   UNL     1       5.292  12.316 -19.533  1.00  0.00     0.029 A 
ATOM     64  N   UNL     1       3.469  11.077 -19.821  1.00  0.00    -0.354 N 
ATOM     65  N   UNL     1       1.541   9.514 -21.389  1.00  0.00    -0.248 NA
ATOM     66  C   UNL     1       0.731   8.767 -23.450  1.00  0.00     0.031 C 
ATOM     67  C   UNL     1       5.138  12.069 -20.900  1.00  0.00     0.029 A 
ATOM     68  C   UNL     1       4.013  11.281 -21.078  1.00  0.00     0.049 A 
ATOM     69  H   UNL     1       2.653  10.557 -19.637  1.00  0.00     0.167 HD
ATOM     70  C   UNL     1       2.373   9.975 -22.401  1.00  0.00     0.074 A 
ATOM     71  C   UNL     1       1.842   9.464 -23.648  1.00  0.00     0.031 C 
ATOM     72  C   UNL     1       3.474  10.759 -22.307  1.00  0.00     0.037 A 
BRANCH  59  73
ATOM     73  C   UNL     1       4.939  12.425 -16.550  1.00  0.00     0.058 A 
ATOM     74  C   UNL     1       5.883  11.730 -15.781  1.00  0.00     0.135 A 
ATOM     75  C   UNL     1       4.986  13.829 -16.537  1.00  0.00     0.135 A 
ATOM     76  F   UNL     1       5.870  10.389 -15.744  1.00  0.00    -0.206 F 
ATOM     77  C   UNL     1       6.843  12.401 -15.030  1.00  0.00     0.059 A 
ATOM     78  C   UNL     1       5.950  14.521 -15.809  1.00  0.00     0.059 A 
ATOM     79  F   UNL     1       4.103  14.541 -17.254  1.00  0.00    -0.206 F 
ATOM     80  C   UNL     1       6.873  13.797 -15.056  1.00  0.00     0.060 A 
BRANCH  80  81
ATOM     81  S   UNL     1       8.157  14.649 -14.113  1.00  0.00     0.124 S 
ATOM     82  O   UNL     1       7.708  14.425 -12.742  1.00  0.00    -0.237 OA
ATOM     83  O   UNL     1       9.363  13.931 -14.509  1.00  0.00    -0.237 OA
ATOM     84  O   UNL     1       8.068  16.028 -14.583  1.00  0.00    -0.744 OA
ENDBRANCH  80  81
ENDBRANCH  59  73
BRANCH  60  85
ATOM     85  C   UNL     1      -1.490   7.299 -22.228  1.00  0.00     0.058 A 
ATOM     86  C   UNL     1      -1.074   6.106 -22.835  1.00  0.00     0.135 A 
ATOM     87  C   UNL     1      -2.812   7.717 -22.440  1.00  0.00     0.135 A 
ATOM     88  F   UNL     1       0.183   5.669 -22.665  1.00  0.00    -0.206 F 
ATOM     89  C   UNL     1      -1.932   5.361 -23.637  1.00  0.00     0.059 A 
ATOM     90  C   UNL     1      -3.697   6.976 -23.216  1.00  0.00     0.059 A 
ATOM     91  F   UNL     1      -3.262   8.845 -21.867  1.00  0.00    -0.206 F 
ATOM     92  C   UNL     1      -3.243   5.805 -23.821  1.00  0.00     0.060 A 
BRANCH  92  93
ATOM     93  S   UNL     1      -4.363   4.814 -24.832  1.00  0.00     0.124 S 
ATOM     94  O   UNL     1      -3.894   5.125 -26.177  1.00  0.00    -0.237 OA
ATOM     95  O   UNL     1      -4.091   3.461 -24.358  1.00  0.00    -0.237 OA
ATOM     96  O   UNL     1      -5.680   5.339 -24.484  1.00  0.00    -0.744 OA
ENDBRANCH  92  93
ENDBRANCH  60  85
BRANCH  72  97
ATOM     97  C   UNL     1       4.189  11.100 -23.581  1.00  0.00     0.058 A 
ATOM     98  C   UNL     1       3.681  12.061 -24.468  1.00  0.00     0.135 A 
ATOM     99  C   UNL     1       5.425  10.507 -23.887  1.00  0.00     0.135 A 
ATOM    100  F   UNL     1       2.500  12.649 -24.223  1.00  0.00    -0.206 F 
ATOM    101  C   UNL     1       4.369  12.414 -25.624  1.00  0.00     0.059 A 
ATOM    102  C   UNL     1       6.139  10.861 -25.026  1.00  0.00     0.059 A 
ATOM    103  F   UNL     1       5.955   9.588 -23.065  1.00  0.00    -0.206 F 
ATOM    104  C   UNL     1       5.599  11.811 -25.893  1.00  0.00     0.060 A 
BRANCH 104 105
ATOM    105  S   UNL     1       6.501  12.313 -27.373  1.00  0.00     0.124 S 
ATOM    106  O   UNL     1       5.726  11.663 -28.425  1.00  0.00    -0.237 OA
ATOM    107  O   UNL     1       6.404  13.768 -27.321  1.00  0.00    -0.237 OA
ATOM    108  O   UNL     1       7.840  11.772 -27.155  1.00  0.00    -0.744 OA
ENDBRANCH 104 105
ENDBRANCH  72  97
ENDBRANCH  46  47
ENDBRANCH  38  41
ENDBRANCH  36  37
ENDBRANCH   1  36
TORSDOF 15
