REMARK SMILES O=C(NCCCCNC(=O)c1ccc(-c2c3nc(c(-c4c(F)cc(S(=O)(=O)[O-])cc4F)c4ccc([nH]4)c(-c4c(F)cc(S(=O)(=O)[O-])cc4F)c4nc(c(-c5c(F)cc(S(=O)(=O)[O-])cc5F)c5ccc2[nH]5)C=C4)C=C3)cc1)c1ccc(Cn2cc(Cl)c(=O)[nH]c2=O)cc1
REMARK SMILES IDX 6 1 5 2 4 3 3 4 1 5 2 6 77 8 78 9 92 10 79 11 91 12 80 13
REMARK SMILES IDX 81 14 82 15 83 16 89 17 84 18 88 19 90 20 85 21 86 22 87 24
REMARK SMILES IDX 7 25 8 26 9 27 10 29 11 30 12 31 76 32 13 33 75 34 14 35
REMARK SMILES IDX 15 36 16 37 69 38 17 39 74 40 68 41 70 42 18 43 73 44 67 45
REMARK SMILES IDX 66 46 19 48 53 49 32 50 52 51 33 52 36 53 51 54 71 55 34 56
REMARK SMILES IDX 35 57 50 59 72 60 37 61 20 62 21 63 30 64 22 65 23 66 29 67
REMARK SMILES IDX 31 68 24 69 25 70 26 71 27 72 28 73 54 74 55 75 64 76 56 77
REMARK SMILES IDX 57 78 63 79 65 80 58 81 59 82 60 83 61 84 62 85 38 86 39 87
REMARK SMILES IDX 48 88 40 89 41 90 47 91 49 92 42 93 43 94 44 95 45 96 46 97
REMARK H PARENT 3 7 88 23 8 28 70 47 36 58
REMARK Flexibility Score: inf
ROOT
ATOM      1  C   UNL     1       4.539  -3.550   0.827  1.00  0.00     0.023 C 
ENDROOT
BRANCH   1   2
ATOM      2  C   UNL     1       4.998  -2.102   0.998  1.00  0.00     0.023 C 
BRANCH   2   3
ATOM      3  C   UNL     1       4.576  -1.149  -0.118  1.00  0.00     0.116 C 
BRANCH   3   4
ATOM      4  N   UNL     1       3.131  -0.990  -0.198  1.00  0.00    -0.352 N 
ATOM      5  O   UNL     1       1.159   0.113  -0.003  1.00  0.00    -0.269 OA
ATOM      6  C   UNL     1       2.384   0.150  -0.029  1.00  0.00     0.251 C 
ATOM      7  H   UNL     1       2.623  -1.808  -0.400  1.00  0.00     0.163 HD
BRANCH   6   8
ATOM      8  C   UNL     1       3.081   1.437   0.136  1.00  0.00     0.039 A 
ATOM      9  C   UNL     1       3.881   1.934  -0.895  1.00  0.00     0.014 A 
ATOM     10  C   UNL     1       2.958   2.129   1.342  1.00  0.00     0.014 A 
ATOM     11  C   UNL     1       4.623   3.095  -0.689  1.00  0.00     0.006 A 
ATOM     12  C   UNL     1       3.716   3.284   1.551  1.00  0.00     0.006 A 
ATOM     13  C   UNL     1       4.573   3.763   0.546  1.00  0.00    -0.028 A 
BRANCH  13  14
ATOM     14  C   UNL     1       5.471   4.953   0.808  1.00  0.00     0.162 C 
BRANCH  14  15
ATOM     15  N   UNL     1       6.768   4.568   1.381  1.00  0.00    -0.295 N 
ATOM     16  C   UNL     1       7.691   3.892   0.598  1.00  0.00     0.117 A 
ATOM     17  C   UNL     1       7.044   4.898   2.703  1.00  0.00     0.328 A 
ATOM     18  C   UNL     1       8.886   3.513   1.056  1.00  0.00     0.122 A 
ATOM     19  N   UNL     1       8.280   4.513   3.162  1.00  0.00    -0.273 N 
ATOM     20  O   UNL     1       6.275   5.504   3.443  1.00  0.00    -0.248 OA
ATOM     21  Cl  UNL     1      10.011   2.666   0.077  1.00  0.00    -0.077 Cl
ATOM     22  C   UNL     1       9.247   3.851   2.453  1.00  0.00     0.272 A 
ATOM     23  H   UNL     1       8.492   4.735   4.097  1.00  0.00     0.175 HD
ATOM     24  O   UNL     1      10.334   3.580   2.952  1.00  0.00    -0.268 OA
ENDBRANCH  14  15
ENDBRANCH  13  14
ENDBRANCH   6   8
ENDBRANCH   3   4
ENDBRANCH   2   3
ENDBRANCH   1   2
BRANCH   1  25
ATOM     25  C   UNL     1       4.921  -4.212  -0.493  1.00  0.00     0.116 C 
BRANCH  25  26
ATOM     26  N   UNL     1       6.358  -4.258  -0.718  1.00  0.00    -0.352 N 
ATOM     27  C   UNL     1       7.145  -5.316  -1.107  1.00  0.00     0.251 C 
ATOM     28  H   UNL     1       6.835  -3.409  -0.571  1.00  0.00     0.163 HD
ATOM     29  O   UNL     1       8.366  -5.189  -1.133  1.00  0.00    -0.269 OA
BRANCH  27  30
ATOM     30  C   UNL     1       6.525  -6.614  -1.458  1.00  0.00     0.039 A 
ATOM     31  C   UNL     1       7.067  -7.787  -0.924  1.00  0.00     0.014 A 
ATOM     32  C   UNL     1       5.408  -6.676  -2.295  1.00  0.00     0.014 A 
ATOM     33  C   UNL     1       6.443  -9.014  -1.168  1.00  0.00     0.010 A 
ATOM     34  C   UNL     1       4.749  -7.889  -2.480  1.00  0.00     0.010 A 
ATOM     35  C   UNL     1       5.256  -9.070  -1.916  1.00  0.00    -0.014 A 
BRANCH  35  36
ATOM     36  C   UNL     1       4.523 -10.348  -2.114  1.00  0.00     0.031 A 
ATOM     37  C   UNL     1       4.361 -10.918  -3.497  1.00  0.00     0.074 A 
ATOM     38  C   UNL     1       3.938 -10.955  -1.062  1.00  0.00     0.049 A 
ATOM     39  N   UNL     1       3.672 -11.960  -3.886  1.00  0.00    -0.248 NA
ATOM     40  C   UNL     1       5.039 -10.205  -4.591  1.00  0.00     0.031 C 
ATOM     41  C   UNL     1       3.982 -10.478   0.323  1.00  0.00     0.029 A 
ATOM     42  N   UNL     1       3.177 -12.095  -0.994  1.00  0.00    -0.354 N 
ATOM     43  C   UNL     1       3.816 -12.017  -5.267  1.00  0.00     0.074 A 
ATOM     44  C   UNL     1       4.621 -10.878  -5.654  1.00  0.00     0.031 C 
ATOM     45  C   UNL     1       3.292 -11.327   1.103  1.00  0.00     0.029 A 
ATOM     46  C   UNL     1       2.726 -12.386   0.273  1.00  0.00     0.049 A 
ATOM     47  H   UNL     1       2.972 -12.653  -1.779  1.00  0.00     0.167 HD
ATOM     48  C   UNL     1       3.339 -12.944  -6.132  1.00  0.00     0.037 A 
ATOM     49  C   UNL     1       1.939 -13.386   0.715  1.00  0.00     0.037 A 
ATOM     50  C   UNL     1       2.567 -14.094  -5.740  1.00  0.00     0.049 A 
ATOM     51  C   UNL     1       1.433 -14.412  -0.263  1.00  0.00     0.074 A 
ATOM     52  C   UNL     1       2.088 -15.120  -6.535  1.00  0.00     0.029 A 
ATOM     53  N   UNL     1       2.164 -14.372  -4.442  1.00  0.00    -0.354 N 
ATOM     54  N   UNL     1       1.625 -14.479  -1.559  1.00  0.00    -0.248 NA
ATOM     55  C   UNL     1       0.609 -15.500   0.280  1.00  0.00     0.031 C 
ATOM     56  C   UNL     1       1.367 -16.003  -5.723  1.00  0.00     0.029 A 
ATOM     57  C   UNL     1       1.432 -15.548  -4.416  1.00  0.00     0.049 A 
ATOM     58  H   UNL     1       2.368 -13.816  -3.656  1.00  0.00     0.167 HD
ATOM     59  C   UNL     1       0.970 -15.630  -1.981  1.00  0.00     0.074 A 
ATOM     60  C   UNL     1       0.383 -16.233  -0.802  1.00  0.00     0.031 C 
ATOM     61  C   UNL     1       0.866 -16.143  -3.232  1.00  0.00     0.037 A 
BRANCH  48  62
ATOM     62  C   UNL     1       3.646 -12.755  -7.592  1.00  0.00     0.058 A 
ATOM     63  C   UNL     1       4.941 -12.946  -8.101  1.00  0.00     0.135 A 
ATOM     64  C   UNL     1       2.630 -12.411  -8.498  1.00  0.00     0.135 A 
ATOM     65  F   UNL     1       5.952 -13.261  -7.277  1.00  0.00    -0.206 F 
ATOM     66  C   UNL     1       5.224 -12.771  -9.451  1.00  0.00     0.059 A 
ATOM     67  C   UNL     1       2.886 -12.256  -9.858  1.00  0.00     0.059 A 
ATOM     68  F   UNL     1       1.375 -12.217  -8.065  1.00  0.00    -0.206 F 
ATOM     69  C   UNL     1       4.190 -12.423 -10.322  1.00  0.00     0.060 A 
BRANCH  69  70
ATOM     70  S   UNL     1       4.573 -12.199 -12.072  1.00  0.00     0.124 S 
ATOM     71  O   UNL     1       5.251 -10.906 -12.056  1.00  0.00    -0.237 OA
ATOM     72  O   UNL     1       5.419 -13.354 -12.358  1.00  0.00    -0.237 OA
ATOM     73  O   UNL     1       3.262 -12.212 -12.711  1.00  0.00    -0.744 OA
ENDBRANCH  69  70
ENDBRANCH  48  62
BRANCH  49  74
ATOM     74  C   UNL     1       1.598 -13.480   2.159  1.00  0.00     0.058 A 
ATOM     75  C   UNL     1       2.156 -14.483   2.965  1.00  0.00     0.135 A 
ATOM     76  C   UNL     1       0.720 -12.568   2.763  1.00  0.00     0.135 A 
ATOM     77  F   UNL     1       2.997 -15.382   2.431  1.00  0.00    -0.206 F 
ATOM     78  C   UNL     1       1.844 -14.590   4.316  1.00  0.00     0.059 A 
ATOM     79  C   UNL     1       0.409 -12.641   4.118  1.00  0.00     0.059 A 
ATOM     80  F   UNL     1       0.172 -11.580   2.038  1.00  0.00    -0.206 F 
ATOM     81  C   UNL     1       0.969 -13.663   4.884  1.00  0.00     0.060 A 
BRANCH  81  82
ATOM     82  S   UNL     1       0.606 -13.781   6.649  1.00  0.00     0.124 S 
ATOM     83  O   UNL     1      -0.303 -14.921   6.686  1.00  0.00    -0.237 OA
ATOM     84  O   UNL     1       1.930 -14.001   7.222  1.00  0.00    -0.237 OA
ATOM     85  O   UNL     1       0.008 -12.485   6.955  1.00  0.00    -0.744 OA
ENDBRANCH  81  82
ENDBRANCH  49  74
BRANCH  61  86
ATOM     86  C   UNL     1       0.124 -17.440  -3.389  1.00  0.00     0.058 A 
ATOM     87  C   UNL     1      -1.276 -17.504  -3.314  1.00  0.00     0.135 A 
ATOM     88  C   UNL     1       0.822 -18.625  -3.677  1.00  0.00     0.135 A 
ATOM     89  F   UNL     1      -1.988 -16.401  -3.035  1.00  0.00    -0.206 F 
ATOM     90  C   UNL     1      -1.958 -18.701  -3.501  1.00  0.00     0.059 A 
ATOM     91  C   UNL     1       0.158 -19.829  -3.890  1.00  0.00     0.059 A 
ATOM     92  F   UNL     1       2.161 -18.616  -3.768  1.00  0.00    -0.206 F 
ATOM     93  C   UNL     1      -1.232 -19.859  -3.791  1.00  0.00     0.060 A 
BRANCH  93  94
ATOM     94  S   UNL     1      -2.131 -21.399  -4.072  1.00  0.00     0.124 S 
ATOM     95  O   UNL     1      -2.500 -21.777  -2.712  1.00  0.00    -0.237 OA
ATOM     96  O   UNL     1      -3.231 -20.969  -4.930  1.00  0.00    -0.237 OA
ATOM     97  O   UNL     1      -1.141 -22.257  -4.716  1.00  0.00    -0.744 OA
ENDBRANCH  93  94
ENDBRANCH  61  86
ENDBRANCH  35  36
ENDBRANCH  27  30
ENDBRANCH  25  26
ENDBRANCH   1  25
TORSDOF 16
