REMARK SMILES COc1ccc([C@H]2[NH2+][C@@H](C(=O)NCCCCNC(=O)c3ccc(-c4c5nc(c(-c6c(F)cc(S(=O)(=O)[O-])cc6F)c6ccc([nH]6)c(-c6c(F)cc(S(=O)(=O)[O-])cc6F)c6nc(c(-c7c(F)cc(S(=O)(=O)[O-])cc7F)c7ccc4[nH]7)C=C6)C=C5)cc3)CC3=c4ccccc4=N[C@H]32)cc1Cn1cc([N+](=O)[O-])cn1
REMARK SMILES IDX 14 1 13 2 12 3 10 4 11 5 9 7 7 8 8 9 95 10 87 13 94 14 86 15
REMARK SMILES IDX 88 16 93 17 89 18 92 19 90 20 91 21 6 22 3 23 4 24 97 25
REMARK SMILES IDX 5 26 96 27 2 28 1 29 98 30 99 31 100 32 106 33 101 34 105 35
REMARK SMILES IDX 102 36 103 37 104 38 15 39 16 40 17 41 18 42 19 44 20 45
REMARK SMILES IDX 21 46 85 47 22 48 84 49 23 50 24 51 25 52 78 53 26 54 83 55
REMARK SMILES IDX 77 56 79 57 27 58 82 59 76 60 75 61 28 63 62 64 41 65 61 66
REMARK SMILES IDX 42 67 45 68 60 69 80 70 43 71 44 72 59 74 81 75 46 76 29 77
REMARK SMILES IDX 30 78 39 79 31 80 32 81 38 82 40 83 33 84 34 85 35 86 36 87
REMARK SMILES IDX 37 88 63 89 64 90 73 91 65 92 66 93 72 94 74 95 67 96 68 97
REMARK SMILES IDX 69 98 70 99 71 100 47 101 48 102 57 103 49 104 50 105 56 106
REMARK SMILES IDX 58 107 51 108 52 109 53 110 54 111 55 112
REMARK H PARENT 12 6 8 11 8 12 17 43 79 62 45 73
REMARK Flexibility Score: inf
ROOT
ATOM      1  C   UNL     1       4.774  -4.811  -9.305  1.00  0.00     0.023 C 
ENDROOT
BRANCH   1   2
ATOM      2  C   UNL     1       3.841  -4.138  -8.287  1.00  0.00     0.116 C 
BRANCH   2   3
ATOM      3  N   UNL     1       3.252  -2.868  -8.691  1.00  0.00    -0.351 N 
ATOM      4  C   UNL     1       2.171  -2.162  -8.240  1.00  0.00     0.278 C 
ATOM      5  O   UNL     1       2.260  -0.932  -8.402  1.00  0.00    -0.268 OA
ATOM      6  H   UNL     1       3.726  -2.432  -9.436  1.00  0.00     0.163 HD
BRANCH   4   7
ATOM      7  C   UNL     1       0.866  -2.705  -7.574  1.00  0.00     0.277 C 
ATOM      8  C   UNL     1       1.544  -3.853  -5.440  1.00  0.00     0.243 C 
ATOM      9  N   UNL     1       0.819  -2.735  -6.091  1.00  0.00    -0.327 N 
ATOM     10  C   UNL     1       1.016  -5.225  -6.096  1.00  0.00     0.196 C 
ATOM     11  H   UNL     1       1.220  -1.862  -5.748  1.00  0.00     0.347 HD
ATOM     12  H   UNL     1      -0.163  -2.867  -5.849  1.00  0.00     0.347 HD
ATOM     13  C   UNL     1       0.709  -5.174  -7.575  1.00  0.00    -0.024 C 
ATOM     14  N   UNL     1       1.857  -6.458  -5.952  1.00  0.00    -0.270 NA
ATOM     15  C   UNL     1       0.209  -3.927  -8.196  1.00  0.00     0.109 C 
ATOM     16  C   UNL     1       1.111  -6.269  -8.204  1.00  0.00     0.002 A 
ATOM     17  C   UNL     1       1.771  -7.024  -7.127  1.00  0.00     0.066 A 
ATOM     18  C   UNL     1       1.233  -6.612  -9.586  1.00  0.00     0.010 A 
ATOM     19  C   UNL     1       2.373  -8.312  -7.562  1.00  0.00     0.028 A 
ATOM     20  C   UNL     1       1.937  -7.706  -9.910  1.00  0.00     0.001 A 
ATOM     21  C   UNL     1       2.470  -8.581  -8.880  1.00  0.00     0.002 A 
BRANCH   8  22
ATOM     22  C   UNL     1       3.027  -3.505  -5.210  1.00  0.00     0.012 A 
ATOM     23  C   UNL     1       5.789  -2.998  -5.117  1.00  0.00     0.123 A 
ATOM     24  C   UNL     1       4.926  -1.980  -5.483  1.00  0.00     0.047 A 
ATOM     25  C   UNL     1       5.304  -4.207  -4.577  1.00  0.00     0.016 A 
ATOM     26  C   UNL     1       3.559  -2.228  -5.498  1.00  0.00     0.014 A 
ATOM     27  C   UNL     1       3.908  -4.419  -4.606  1.00  0.00     0.019 A 
BRANCH  23  28
ATOM     28  O   UNL     1       7.137  -2.775  -5.238  1.00  0.00    -0.496 OA
ATOM     29  C   UNL     1       7.559  -2.918  -6.602  1.00  0.00     0.278 C 
ENDBRANCH  23  28
BRANCH  25  30
ATOM     30  C   UNL     1       6.349  -5.137  -4.004  1.00  0.00     0.183 C 
BRANCH  30  31
ATOM     31  N   UNL     1       6.056  -6.525  -3.629  1.00  0.00    -0.261 N 
ATOM     32  C   UNL     1       5.033  -7.365  -3.963  1.00  0.00     0.194 A 
ATOM     33  N   UNL     1       7.048  -7.178  -2.968  1.00  0.00    -0.174 NA
ATOM     34  C   UNL     1       5.329  -8.589  -3.400  1.00  0.00     0.307 A 
ATOM     35  C   UNL     1       6.600  -8.429  -2.838  1.00  0.00     0.220 A 
BRANCH  34  36
ATOM     36  N   UNL     1       4.515  -9.761  -3.420  1.00  0.00     0.066 N 
ATOM     37  O   UNL     1       4.943 -10.752  -2.815  1.00  0.00    -0.258 OA
ATOM     38  O   UNL     1       3.424  -9.683  -4.004  1.00  0.00    -0.258 OA
ENDBRANCH  34  36
ENDBRANCH  30  31
ENDBRANCH  25  30
ENDBRANCH   8  22
ENDBRANCH   4   7
ENDBRANCH   2   3
ENDBRANCH   1   2
BRANCH   1  39
ATOM     39  C   UNL     1       5.821  -5.803  -8.708  1.00  0.00     0.023 C 
BRANCH  39  40
ATOM     40  C   UNL     1       5.393  -6.549  -7.444  1.00  0.00     0.116 C 
BRANCH  40  41
ATOM     41  N   UNL     1       5.721  -7.964  -7.355  1.00  0.00    -0.352 N 
ATOM     42  C   UNL     1       6.761  -8.743  -6.930  1.00  0.00     0.251 C 
ATOM     43  H   UNL     1       4.984  -8.518  -7.700  1.00  0.00     0.163 HD
ATOM     44  O   UNL     1       6.498  -9.940  -6.779  1.00  0.00    -0.269 OA
BRANCH  42  45
ATOM     45  C   UNL     1       8.144  -8.283  -6.651  1.00  0.00     0.039 A 
ATOM     46  C   UNL     1       9.148  -9.265  -6.585  1.00  0.00     0.014 A 
ATOM     47  C   UNL     1       8.505  -6.958  -6.443  1.00  0.00     0.014 A 
ATOM     48  C   UNL     1      10.479  -8.918  -6.330  1.00  0.00     0.010 A 
ATOM     49  C   UNL     1       9.828  -6.602  -6.167  1.00  0.00     0.010 A 
ATOM     50  C   UNL     1      10.830  -7.576  -6.136  1.00  0.00    -0.014 A 
BRANCH  50  51
ATOM     51  C   UNL     1      12.251  -7.159  -6.156  1.00  0.00     0.031 A 
ATOM     52  C   UNL     1      12.965  -6.673  -4.931  1.00  0.00     0.074 A 
ATOM     53  C   UNL     1      12.851  -7.135  -7.362  1.00  0.00     0.049 A 
ATOM     54  N   UNL     1      14.222  -6.333  -4.798  1.00  0.00    -0.248 NA
ATOM     55  C   UNL     1      12.166  -6.512  -3.708  1.00  0.00     0.031 C 
ATOM     56  C   UNL     1      12.188  -7.465  -8.629  1.00  0.00     0.029 A 
ATOM     57  N   UNL     1      14.129  -6.815  -7.732  1.00  0.00    -0.354 N 
ATOM     58  C   UNL     1      14.373  -5.924  -3.477  1.00  0.00     0.074 A 
ATOM     59  C   UNL     1      13.063  -6.012  -2.864  1.00  0.00     0.031 C 
ATOM     60  C   UNL     1      13.070  -7.355  -9.631  1.00  0.00     0.029 A 
ATOM     61  C   UNL     1      14.354  -6.939  -9.083  1.00  0.00     0.049 A 
ATOM     62  H   UNL     1      14.819  -6.523  -7.094  1.00  0.00     0.167 HD
ATOM     63  C   UNL     1      15.506  -5.526  -2.846  1.00  0.00     0.037 A 
ATOM     64  C   UNL     1      15.478  -6.759  -9.799  1.00  0.00     0.037 A 
ATOM     65  C   UNL     1      16.793  -5.441  -3.501  1.00  0.00     0.049 A 
ATOM     66  C   UNL     1      16.737  -6.410  -9.062  1.00  0.00     0.074 A 
ATOM     67  C   UNL     1      18.027  -5.139  -2.950  1.00  0.00     0.029 A 
ATOM     68  N   UNL     1      17.006  -5.644  -4.859  1.00  0.00    -0.354 N 
ATOM     69  N   UNL     1      16.896  -6.158  -7.784  1.00  0.00    -0.248 NA
ATOM     70  C   UNL     1      17.971  -6.353  -9.851  1.00  0.00     0.031 C 
ATOM     71  C   UNL     1      18.974  -5.110  -3.981  1.00  0.00     0.029 A 
ATOM     72  C   UNL     1      18.345  -5.455  -5.167  1.00  0.00     0.049 A 
ATOM     73  H   UNL     1      16.308  -5.887  -5.509  1.00  0.00     0.167 HD
ATOM     74  C   UNL     1      18.255  -5.934  -7.608  1.00  0.00     0.074 A 
ATOM     75  C   UNL     1      18.872  -6.107  -8.910  1.00  0.00     0.031 C 
ATOM     76  C   UNL     1      18.932  -5.615  -6.476  1.00  0.00     0.037 A 
BRANCH  63  77
ATOM     77  C   UNL     1      15.425  -5.167  -1.381  1.00  0.00     0.058 A 
ATOM     78  C   UNL     1      15.154  -6.133  -0.397  1.00  0.00     0.135 A 
ATOM     79  C   UNL     1      15.698  -3.859  -0.941  1.00  0.00     0.135 A 
ATOM     80  F   UNL     1      14.884  -7.400  -0.751  1.00  0.00    -0.206 F 
ATOM     81  C   UNL     1      15.132  -5.814   0.959  1.00  0.00     0.059 A 
ATOM     82  C   UNL     1      15.711  -3.524   0.412  1.00  0.00     0.059 A 
ATOM     83  F   UNL     1      15.971  -2.890  -1.829  1.00  0.00    -0.206 F 
ATOM     84  C   UNL     1      15.415  -4.506   1.355  1.00  0.00     0.060 A 
BRANCH  84  85
ATOM     85  S   UNL     1      15.409  -4.122   3.120  1.00  0.00     0.124 S 
ATOM     86  O   UNL     1      13.986  -4.194   3.432  1.00  0.00    -0.237 OA
ATOM     87  O   UNL     1      16.235  -5.186   3.676  1.00  0.00    -0.237 OA
ATOM     88  O   UNL     1      15.995  -2.782   3.179  1.00  0.00    -0.744 OA
ENDBRANCH  84  85
ENDBRANCH  63  77
BRANCH  64  89
ATOM     89  C   UNL     1      15.458  -6.988 -11.267  1.00  0.00     0.058 A 
ATOM     90  C   UNL     1      16.081  -8.109 -11.834  1.00  0.00     0.135 A 
ATOM     91  C   UNL     1      14.760  -6.125 -12.127  1.00  0.00     0.135 A 
ATOM     92  F   UNL     1      16.750  -8.971 -11.052  1.00  0.00    -0.206 F 
ATOM     93  C   UNL     1      16.033  -8.357 -13.202  1.00  0.00     0.059 A 
ATOM     94  C   UNL     1      14.673  -6.367 -13.495  1.00  0.00     0.059 A 
ATOM     95  F   UNL     1      14.115  -5.057 -11.631  1.00  0.00    -0.206 F 
ATOM     96  C   UNL     1      15.323  -7.481 -14.024  1.00  0.00     0.060 A 
BRANCH  96  97
ATOM     97  S   UNL     1      15.225  -7.839 -15.791  1.00  0.00     0.124 S 
ATOM     98  O   UNL     1      16.580  -7.528 -16.229  1.00  0.00    -0.237 OA
ATOM     99  O   UNL     1      14.859  -9.252 -15.797  1.00  0.00    -0.237 OA
ATOM    100  O   UNL     1      14.184  -6.929 -16.260  1.00  0.00    -0.744 OA
ENDBRANCH  96  97
ENDBRANCH  64  89
BRANCH  76 101
ATOM    101  C   UNL     1      20.422  -5.457  -6.608  1.00  0.00     0.058 A 
ATOM    102  C   UNL     1      20.993  -4.381  -7.307  1.00  0.00     0.135 A 
ATOM    103  C   UNL     1      21.289  -6.401  -6.034  1.00  0.00     0.135 A 
ATOM    104  F   UNL     1      20.209  -3.454  -7.880  1.00  0.00    -0.206 F 
ATOM    105  C   UNL     1      22.369  -4.276  -7.479  1.00  0.00     0.059 A 
ATOM    106  C   UNL     1      22.669  -6.296  -6.162  1.00  0.00     0.059 A 
ATOM    107  F   UNL     1      20.796  -7.441  -5.344  1.00  0.00    -0.206 F 
ATOM    108  C   UNL     1      23.198  -5.243  -6.907  1.00  0.00     0.060 A 
BRANCH 108 109
ATOM    109  S   UNL     1      24.981  -5.106  -7.152  1.00  0.00     0.124 S 
ATOM    110  O   UNL     1      25.117  -5.514  -8.546  1.00  0.00    -0.237 OA
ATOM    111  O   UNL     1      25.226  -3.693  -6.878  1.00  0.00    -0.237 OA
ATOM    112  O   UNL     1      25.531  -6.034  -6.168  1.00  0.00    -0.744 OA
ENDBRANCH 108 109
ENDBRANCH  76 101
ENDBRANCH  50  51
ENDBRANCH  42  45
ENDBRANCH  40  41
ENDBRANCH  39  40
ENDBRANCH   1  39
TORSDOF 19
