REMARK SMILES NC(=O)c1ccc(NC(=O)Cc2ccccc2C(=O)NCCCCNC(=O)c2ccc(-c3c4nc(c(-c5c(F)cc(S(=O)(=O)[O-])cc5F)c5ccc([nH]5)c(-c5c(F)cc(S(=O)(=O)[O-])cc5F)c5nc(c(-c6c(F)cc(S(=O)(=O)[O-])cc6F)c6ccc3[nH]6)C=C5)C=C4)cc2)cc1
REMARK SMILES IDX 22 1 21 2 20 3 18 4 19 5 17 7 12 8 13 9 14 10 16 11 15 12
REMARK SMILES IDX 11 13 9 14 8 15 10 17 7 18 4 19 5 20 95 21 6 22 94 23 2 24
REMARK SMILES IDX 1 25 3 28 23 29 24 30 25 31 26 32 27 34 28 35 29 36 93 37
REMARK SMILES IDX 30 38 92 39 31 40 32 41 33 42 86 43 34 44 91 45 85 46 87 47
REMARK SMILES IDX 35 48 90 49 84 50 83 51 36 53 70 54 49 55 69 56 50 57 53 58
REMARK SMILES IDX 68 59 88 60 51 61 52 62 67 64 89 65 54 66 37 67 38 68 47 69
REMARK SMILES IDX 39 70 40 71 46 72 48 73 41 74 42 75 43 76 44 77 45 78 71 79
REMARK SMILES IDX 72 80 81 81 73 82 74 83 80 84 82 85 75 86 76 87 77 88 78 89
REMARK SMILES IDX 79 90 55 91 56 92 65 93 57 94 58 95 64 96 66 97 59 98 60 99
REMARK SMILES IDX 61 100 62 101 63 102
REMARK H PARENT 20 6 8 16 1 26 1 27 25 33 87 52 53 63
REMARK Flexibility Score: inf
ROOT
ATOM      1  C   UNL     1       3.072  -7.707  -5.464  1.00  0.00     0.023 C 
ENDROOT
BRANCH   1   2
ATOM      2  C   UNL     1       1.645  -8.219  -5.721  1.00  0.00     0.116 C 
BRANCH   2   3
ATOM      3  N   UNL     1       1.149  -8.936  -4.559  1.00  0.00    -0.352 N 
ATOM      4  C   UNL     1       0.346  -8.685  -3.479  1.00  0.00     0.251 C 
ATOM      5  O   UNL     1       0.200  -9.649  -2.715  1.00  0.00    -0.269 OA
ATOM      6  H   UNL     1       1.485  -9.861  -4.543  1.00  0.00     0.163 HD
BRANCH   4   7
ATOM      7  C   UNL     1      -0.447  -7.444  -3.166  1.00  0.00     0.043 A 
ATOM      8  C   UNL     1      -0.101  -6.084  -3.302  1.00  0.00    -0.026 A 
ATOM      9  C   UNL     1      -1.018  -5.089  -2.872  1.00  0.00     0.005 A 
ATOM     10  C   UNL     1      -2.208  -5.407  -2.229  1.00  0.00     0.000 A 
ATOM     11  C   UNL     1      -1.666  -7.731  -2.499  1.00  0.00     0.014 A 
ATOM     12  C   UNL     1      -2.524  -6.735  -2.021  1.00  0.00     0.001 A 
BRANCH   8  13
ATOM     13  C   UNL     1       1.230  -5.559  -3.754  1.00  0.00     0.136 C 
BRANCH  13  14
ATOM     14  C   UNL     1       2.347  -5.780  -2.757  1.00  0.00     0.228 C 
ATOM     15  N   UNL     1       2.936  -4.795  -2.031  1.00  0.00    -0.326 N 
ATOM     16  H   UNL     1       3.862  -4.984  -1.755  1.00  0.00     0.169 HD
ATOM     17  O   UNL     1       2.760  -6.917  -2.502  1.00  0.00    -0.274 OA
BRANCH  15  18
ATOM     18  C   UNL     1       2.442  -3.557  -1.614  1.00  0.00     0.041 A 
ATOM     19  C   UNL     1       1.197  -1.375  -0.425  1.00  0.00     0.039 A 
ATOM     20  C   UNL     1       1.021  -1.614  -1.787  1.00  0.00     0.016 A 
ATOM     21  C   UNL     1       2.062  -2.163   0.333  1.00  0.00     0.016 A 
ATOM     22  C   UNL     1       1.678  -2.687  -2.387  1.00  0.00     0.027 A 
ATOM     23  C   UNL     1       2.692  -3.247  -0.271  1.00  0.00     0.027 A 
BRANCH  19  24
ATOM     24  C   UNL     1       0.441  -0.285   0.205  1.00  0.00     0.248 C 
ATOM     25  N   UNL     1       1.198   0.690   0.780  1.00  0.00    -0.366 N 
ATOM     26  H   UNL     1       0.762   1.454   1.223  1.00  0.00     0.159 HD
ATOM     27  H   UNL     1       2.180   0.631   0.754  1.00  0.00     0.159 HD
ATOM     28  O   UNL     1      -0.781  -0.253   0.176  1.00  0.00    -0.270 OA
ENDBRANCH  19  24
ENDBRANCH  15  18
ENDBRANCH  13  14
ENDBRANCH   8  13
ENDBRANCH   4   7
ENDBRANCH   2   3
ENDBRANCH   1   2
BRANCH   1  29
ATOM     29  C   UNL     1       4.199  -8.428  -6.178  1.00  0.00     0.023 C 
BRANCH  29  30
ATOM     30  C   UNL     1       4.226  -8.198  -7.673  1.00  0.00     0.116 C 
BRANCH  30  31
ATOM     31  N   UNL     1       4.470  -6.811  -8.064  1.00  0.00    -0.352 N 
ATOM     32  C   UNL     1       5.254  -6.356  -9.104  1.00  0.00     0.251 C 
ATOM     33  H   UNL     1       4.024  -6.121  -7.521  1.00  0.00     0.163 HD
ATOM     34  O   UNL     1       5.419  -5.158  -9.299  1.00  0.00    -0.269 OA
BRANCH  32  35
ATOM     35  C   UNL     1       5.942  -7.366  -9.935  1.00  0.00     0.039 A 
ATOM     36  C   UNL     1       7.335  -7.346 -10.004  1.00  0.00     0.014 A 
ATOM     37  C   UNL     1       5.213  -8.437 -10.455  1.00  0.00     0.014 A 
ATOM     38  C   UNL     1       8.007  -8.468 -10.491  1.00  0.00     0.010 A 
ATOM     39  C   UNL     1       5.886  -9.591 -10.831  1.00  0.00     0.010 A 
ATOM     40  C   UNL     1       7.289  -9.625 -10.840  1.00  0.00    -0.014 A 
BRANCH  40  41
ATOM     41  C   UNL     1       7.980 -10.893 -11.190  1.00  0.00     0.031 A 
ATOM     42  C   UNL     1       7.745 -11.524 -12.535  1.00  0.00     0.074 A 
ATOM     43  C   UNL     1       8.740 -11.522 -10.269  1.00  0.00     0.049 A 
ATOM     44  N   UNL     1       8.176 -12.668 -12.996  1.00  0.00    -0.248 NA
ATOM     45  C   UNL     1       6.875 -10.790 -13.470  1.00  0.00     0.031 C 
ATOM     46  C   UNL     1       8.982 -11.054  -8.901  1.00  0.00     0.029 A 
ATOM     47  N   UNL     1       9.444 -12.699 -10.339  1.00  0.00    -0.354 N 
ATOM     48  C   UNL     1       7.614 -12.800 -14.260  1.00  0.00     0.074 A 
ATOM     49  C   UNL     1       6.760 -11.652 -14.467  1.00  0.00     0.031 C 
ATOM     50  C   UNL     1       9.802 -11.915  -8.276  1.00  0.00     0.029 A 
ATOM     51  C   UNL     1      10.116 -13.015  -9.181  1.00  0.00     0.049 A 
ATOM     52  H   UNL     1       9.466 -13.265 -11.145  1.00  0.00     0.167 HD
ATOM     53  C   UNL     1       7.816 -13.772 -15.180  1.00  0.00     0.037 A 
ATOM     54  C   UNL     1      10.895 -14.073  -8.882  1.00  0.00     0.037 A 
ATOM     55  C   UNL     1       8.703 -14.887 -14.987  1.00  0.00     0.049 A 
ATOM     56  C   UNL     1      11.128 -15.127  -9.930  1.00  0.00     0.074 A 
ATOM     57  C   UNL     1       9.043 -15.881 -15.886  1.00  0.00     0.029 A 
ATOM     58  N   UNL     1       9.393 -15.154 -13.813  1.00  0.00    -0.354 N 
ATOM     59  N   UNL     1      10.651 -15.194 -11.151  1.00  0.00    -0.248 NA
ATOM     60  C   UNL     1      12.006 -16.247  -9.565  1.00  0.00     0.031 C 
ATOM     61  C   UNL     1       9.912 -16.770 -15.244  1.00  0.00     0.029 A 
ATOM     62  C   UNL     1      10.144 -16.308 -13.958  1.00  0.00     0.049 A 
ATOM     63  H   UNL     1       9.354 -14.603 -12.998  1.00  0.00     0.167 HD
ATOM     64  C   UNL     1      11.183 -16.353 -11.704  1.00  0.00     0.074 A 
ATOM     65  C   UNL     1      12.032 -16.947 -10.692  1.00  0.00     0.031 C 
ATOM     66  C   UNL     1      10.984 -16.881 -12.937  1.00  0.00     0.037 A 
BRANCH  53  67
ATOM     67  C   UNL     1       7.079 -13.654 -16.484  1.00  0.00     0.058 A 
ATOM     68  C   UNL     1       7.405 -12.662 -17.424  1.00  0.00     0.135 A 
ATOM     69  C   UNL     1       6.047 -14.549 -16.807  1.00  0.00     0.135 A 
ATOM     70  F   UNL     1       8.370 -11.768 -17.157  1.00  0.00    -0.206 F 
ATOM     71  C   UNL     1       6.711 -12.540 -18.623  1.00  0.00     0.059 A 
ATOM     72  C   UNL     1       5.358 -14.463 -18.014  1.00  0.00     0.059 A 
ATOM     73  F   UNL     1       5.693 -15.513 -15.943  1.00  0.00    -0.206 F 
ATOM     74  C   UNL     1       5.687 -13.445 -18.908  1.00  0.00     0.060 A 
BRANCH  74  75
ATOM     75  S   UNL     1       4.798 -13.274 -20.469  1.00  0.00     0.124 S 
ATOM     76  O   UNL     1       3.961 -12.108 -20.199  1.00  0.00    -0.237 OA
ATOM     77  O   UNL     1       5.881 -13.068 -21.425  1.00  0.00    -0.237 OA
ATOM     78  O   UNL     1       4.086 -14.542 -20.595  1.00  0.00    -0.744 OA
ENDBRANCH  74  75
ENDBRANCH  53  67
BRANCH  54  79
ATOM     79  C   UNL     1      11.536 -14.175  -7.543  1.00  0.00     0.058 A 
ATOM     80  C   UNL     1      12.918 -13.987  -7.392  1.00  0.00     0.135 A 
ATOM     81  C   UNL     1      10.784 -14.451  -6.390  1.00  0.00     0.135 A 
ATOM     82  F   UNL     1      13.680 -13.729  -8.465  1.00  0.00    -0.206 F 
ATOM     83  C   UNL     1      13.536 -14.081  -6.149  1.00  0.00     0.059 A 
ATOM     84  C   UNL     1      11.376 -14.527  -5.132  1.00  0.00     0.059 A 
ATOM     85  F   UNL     1       9.457 -14.624  -6.478  1.00  0.00    -0.206 F 
ATOM     86  C   UNL     1      12.755 -14.350  -5.023  1.00  0.00     0.060 A 
BRANCH  86  87
ATOM     87  S   UNL     1      13.560 -14.417  -3.407  1.00  0.00     0.124 S 
ATOM     88  O   UNL     1      14.239 -15.706  -3.470  1.00  0.00    -0.237 OA
ATOM     89  O   UNL     1      14.421 -13.239  -3.443  1.00  0.00    -0.237 OA
ATOM     90  O   UNL     1      12.441 -14.336  -2.473  1.00  0.00    -0.744 OA
ENDBRANCH  86  87
ENDBRANCH  54  79
BRANCH  66  91
ATOM     91  C   UNL     1      11.707 -18.155 -13.266  1.00  0.00     0.058 A 
ATOM     92  C   UNL     1      11.302 -19.387 -12.729  1.00  0.00     0.135 A 
ATOM     93  C   UNL     1      12.780 -18.152 -14.171  1.00  0.00     0.135 A 
ATOM     94  F   UNL     1      10.285 -19.441 -11.854  1.00  0.00    -0.206 F 
ATOM     95  C   UNL     1      11.948 -20.571 -13.065  1.00  0.00     0.059 A 
ATOM     96  C   UNL     1      13.425 -19.328 -14.540  1.00  0.00     0.059 A 
ATOM     97  F   UNL     1      13.199 -17.001 -14.720  1.00  0.00    -0.206 F 
ATOM     98  C   UNL     1      13.008 -20.532 -13.973  1.00  0.00     0.060 A 
BRANCH  98  99
ATOM     99  S   UNL     1      13.815 -22.081 -14.430  1.00  0.00     0.124 S 
ATOM    100  O   UNL     1      14.617 -22.355 -13.243  1.00  0.00    -0.237 OA
ATOM    101  O   UNL     1      12.680 -22.973 -14.648  1.00  0.00    -0.237 OA
ATOM    102  O   UNL     1      14.567 -21.730 -15.631  1.00  0.00    -0.744 OA
ENDBRANCH  98  99
ENDBRANCH  66  91
ENDBRANCH  40  41
ENDBRANCH  32  35
ENDBRANCH  30  31
ENDBRANCH  29  30
ENDBRANCH   1  29
TORSDOF 18
