REMARK SMILES Cc1ccc(C2=NN(C(=O)CCC(=O)NCCCCNC(=O)c3ccc(-c4c5nc(c(-c6c(F)cc(S(=O)(=O)[O-])cc6F)c6ccc([nH]6)c(-c6c(F)cc(S(=O)(=O)[O-])cc6F)c6nc(c(-c7c(F)cc(S(=O)(=O)[O-])cc7F)c7ccc4[nH]7)C=C6)C=C5)cc3)[C@H](C[C@@H]3C=c4cccc(C)c4=NC3=O)C2)cc1
REMARK SMILES IDX 16 1 15 2 13 3 14 4 12 6 11 7 9 8 10 9 8 10 6 11 7 12 103 13
REMARK SMILES IDX 89 14 5 15 1 16 2 17 3 18 105 19 4 20 104 21 90 22 91 23
REMARK SMILES IDX 92 24 101 25 93 26 100 27 102 28 94 29 99 30 95 31 97 32
REMARK SMILES IDX 96 33 98 34 17 35 18 36 19 37 20 38 21 39 22 41 23 42 24 43
REMARK SMILES IDX 88 44 25 45 87 46 26 47 27 48 28 49 81 50 29 51 86 52 80 53
REMARK SMILES IDX 82 54 30 55 85 56 79 57 78 58 31 60 65 61 44 62 64 63 45 64
REMARK SMILES IDX 48 65 63 66 83 67 46 68 47 69 62 71 84 72 49 73 32 74 33 75
REMARK SMILES IDX 42 76 34 77 35 78 41 79 43 80 36 81 37 82 38 83 39 84 40 85
REMARK SMILES IDX 66 86 67 87 76 88 68 89 69 90 75 91 77 92 70 93 71 94 72 95
REMARK SMILES IDX 73 96 74 97 50 98 51 99 60 100 52 101 53 102 59 103 61 104
REMARK SMILES IDX 54 105 55 106 56 107 57 108 58 109
REMARK H PARENT 15 5 20 40 82 59 48 70
REMARK Flexibility Score: inf
ROOT
ATOM      1  C   UNL     1      -4.886   1.371  -0.207  1.00  0.00     0.116 C 
ENDROOT
BRANCH   1   2
ATOM      2  N   UNL     1      -6.212   2.168  -0.565  1.00  0.00    -0.356 N 
ATOM      3  C   UNL     1      -7.418   2.430   0.019  1.00  0.00     0.220 C 
ATOM      4  O   UNL     1      -8.195   3.142  -0.630  1.00  0.00    -0.275 OA
ATOM      5  H   UNL     1      -6.147   2.588  -1.452  1.00  0.00     0.163 HD
BRANCH   3   6
ATOM      6  C   UNL     1      -7.869   1.901   1.371  1.00  0.00     0.110 C 
BRANCH   6   7
ATOM      7  C   UNL     1      -7.714   0.419   1.620  1.00  0.00     0.112 C 
BRANCH   7   8
ATOM      8  C   UNL     1      -6.283   0.111   1.976  1.00  0.00     0.243 C 
ATOM      9  O   UNL     1      -5.909   0.036   3.139  1.00  0.00    -0.273 OA
BRANCH   8  10
ATOM     10  N   UNL     1      -5.510  -0.013   0.847  1.00  0.00    -0.230 N 
ATOM     11  C   UNL     1      -3.069   0.663  -0.681  1.00  0.00     0.070 C 
ATOM     12  N   UNL     1      -3.627   0.509   0.862  1.00  0.00    -0.174 NA
ATOM     13  C   UNL     1      -4.463   0.452  -2.007  1.00  0.00     0.086 C 
ATOM     14  C   UNL     1      -6.025  -0.117  -1.050  1.00  0.00     0.118 C 
BRANCH  11  15
ATOM     15  C   UNL     1      -1.760   0.728  -1.429  1.00  0.00    -0.002 A 
ATOM     16  C   UNL     1       2.411   0.225  -1.745  1.00  0.00     0.044 C 
ATOM     17  C   UNL     1       0.948   0.469  -1.978  1.00  0.00    -0.051 A 
ATOM     18  C   UNL     1       0.118  -0.645  -2.081  1.00  0.00     0.004 A 
ATOM     19  C   UNL     1       0.378   1.748  -1.859  1.00  0.00     0.004 A 
ATOM     20  C   UNL     1      -1.236  -0.512  -1.815  1.00  0.00     0.010 A 
ATOM     21  C   UNL     1      -0.999   1.890  -1.614  1.00  0.00     0.010 A 
ENDBRANCH  11  15
BRANCH  14  22
ATOM     22  C   UNL     1      -6.478  -1.377  -1.868  1.00  0.00     0.045 C 
BRANCH  22  23
ATOM     23  C   UNL     1      -7.845  -1.868  -1.448  1.00  0.00     0.106 C 
ATOM     24  C   UNL     1      -7.694  -2.525  -0.129  1.00  0.00    -0.003 C 
ATOM     25  C   UNL     1      -8.479  -2.751  -2.531  1.00  0.00     0.253 C 
ATOM     26  C   UNL     1      -8.253  -3.689   0.165  1.00  0.00    -0.003 A 
ATOM     27  N   UNL     1      -9.063  -3.941  -2.165  1.00  0.00    -0.212 NA
ATOM     28  O   UNL     1      -8.510  -2.360  -3.698  1.00  0.00    -0.272 OA
ATOM     29  C   UNL     1      -8.202  -4.230   1.493  1.00  0.00     0.010 A 
ATOM     30  C   UNL     1      -8.959  -4.374  -0.949  1.00  0.00     0.077 A 
ATOM     31  C   UNL     1      -8.828  -5.378   1.759  1.00  0.00     0.001 A 
ATOM     32  C   UNL     1      -9.556  -5.695  -0.568  1.00  0.00    -0.025 A 
ATOM     33  C   UNL     1      -9.486  -6.119   0.708  1.00  0.00     0.005 A 
ATOM     34  C   UNL     1     -10.149  -6.497  -1.679  1.00  0.00     0.047 C 
ENDBRANCH  22  23
ENDBRANCH  14  22
ENDBRANCH   8  10
ENDBRANCH   7   8
ENDBRANCH   6   7
ENDBRANCH   3   6
ENDBRANCH   1   2
BRANCH   1  35
ATOM     35  C   UNL     1      -4.274  -0.816  -0.242  1.00  0.00     0.023 C 
BRANCH  35  36
ATOM     36  C   UNL     1      -3.487  -1.885   1.181  1.00  0.00     0.023 C 
BRANCH  36  37
ATOM     37  C   UNL     1      -2.521  -1.663   2.790  1.00  0.00     0.116 C 
BRANCH  37  38
ATOM     38  N   UNL     1      -0.820  -1.471   3.545  1.00  0.00    -0.352 N 
ATOM     39  C   UNL     1       0.610  -0.567   3.901  1.00  0.00     0.251 C 
ATOM     40  H   UNL     1      -0.648  -2.348   3.958  1.00  0.00     0.163 HD
ATOM     41  O   UNL     1       1.118  -1.015   4.959  1.00  0.00    -0.269 OA
BRANCH  39  42
ATOM     42  C   UNL     1       1.548   0.937   3.291  1.00  0.00     0.039 A 
ATOM     43  C   UNL     1       2.171   1.901   4.111  1.00  0.00     0.014 A 
ATOM     44  C   UNL     1       1.324   1.720   2.090  1.00  0.00     0.014 A 
ATOM     45  C   UNL     1       1.983   3.397   3.839  1.00  0.00     0.010 A 
ATOM     46  C   UNL     1       1.397   3.065   1.641  1.00  0.00     0.010 A 
ATOM     47  C   UNL     1       1.312   3.917   2.685  1.00  0.00    -0.014 A 
BRANCH  47  48
ATOM     48  C   UNL     1       0.207   4.976   2.558  1.00  0.00     0.031 A 
ATOM     49  C   UNL     1       0.518   6.199   1.807  1.00  0.00     0.074 A 
ATOM     50  C   UNL     1      -1.137   4.906   2.855  1.00  0.00     0.049 A 
ATOM     51  N   UNL     1       0.613   7.372   2.329  1.00  0.00    -0.248 NA
ATOM     52  C   UNL     1       0.680   6.173   0.356  1.00  0.00     0.031 C 
ATOM     53  C   UNL     1      -2.184   5.956   2.854  1.00  0.00     0.029 A 
ATOM     54  N   UNL     1      -1.857   3.871   3.422  1.00  0.00    -0.354 N 
ATOM     55  C   UNL     1       0.535   8.259   1.273  1.00  0.00     0.074 A 
ATOM     56  C   UNL     1       0.819   7.476   0.089  1.00  0.00     0.031 C 
ATOM     57  C   UNL     1      -3.136   5.641   3.766  1.00  0.00     0.029 A 
ATOM     58  C   UNL     1      -2.779   4.372   4.361  1.00  0.00     0.049 A 
ATOM     59  H   UNL     1      -1.742   2.919   3.200  1.00  0.00     0.167 HD
ATOM     60  C   UNL     1      -0.068   9.477   1.430  1.00  0.00     0.037 A 
ATOM     61  C   UNL     1      -2.600   4.070   5.689  1.00  0.00     0.037 A 
ATOM     62  C   UNL     1      -0.854   9.490   2.676  1.00  0.00     0.049 A 
ATOM     63  C   UNL     1      -1.981   5.287   6.415  1.00  0.00     0.074 A 
ATOM     64  C   UNL     1      -2.222   9.458   2.912  1.00  0.00     0.029 A 
ATOM     65  N   UNL     1      -0.255   9.199   3.898  1.00  0.00    -0.354 N 
ATOM     66  N   UNL     1      -1.701   6.413   5.807  1.00  0.00    -0.248 NA
ATOM     67  C   UNL     1      -1.661   5.379   7.841  1.00  0.00     0.031 C 
ATOM     68  C   UNL     1      -2.436   9.084   4.266  1.00  0.00     0.029 A 
ATOM     69  C   UNL     1      -1.201   8.905   4.864  1.00  0.00     0.049 A 
ATOM     70  H   UNL     1       0.717   9.202   4.055  1.00  0.00     0.167 HD
ATOM     71  C   UNL     1      -1.177   7.342   6.672  1.00  0.00     0.074 A 
ATOM     72  C   UNL     1      -1.208   6.648   7.947  1.00  0.00     0.031 C 
ATOM     73  C   UNL     1      -0.792   8.588   6.235  1.00  0.00     0.037 A 
BRANCH  60  74
ATOM     74  C   UNL     1      -0.235  10.523   0.331  1.00  0.00     0.058 A 
ATOM     75  C   UNL     1      -1.141  11.599   0.472  1.00  0.00     0.135 A 
ATOM     76  C   UNL     1       0.533  10.572  -0.855  1.00  0.00     0.135 A 
ATOM     77  F   UNL     1      -1.857  11.771   1.591  1.00  0.00    -0.206 F 
ATOM     78  C   UNL     1      -1.331  12.580  -0.508  1.00  0.00     0.059 A 
ATOM     79  C   UNL     1       0.324  11.510  -1.875  1.00  0.00     0.059 A 
ATOM     80  F   UNL     1       1.581   9.761  -1.048  1.00  0.00    -0.206 F 
ATOM     81  C   UNL     1      -0.608  12.518  -1.690  1.00  0.00     0.060 A 
BRANCH  81  82
ATOM     82  S   UNL     1      -0.840  13.808  -2.928  1.00  0.00     0.124 S 
ATOM     83  O   UNL     1      -2.261  13.688  -3.236  1.00  0.00    -0.237 OA
ATOM     84  O   UNL     1      -0.446  15.008  -2.197  1.00  0.00    -0.237 OA
ATOM     85  O   UNL     1       0.063  13.413  -4.007  1.00  0.00    -0.744 OA
ENDBRANCH  81  82
ENDBRANCH  60  74
BRANCH  61  86
ATOM     86  C   UNL     1      -2.223   2.579   5.857  1.00  0.00     0.058 A 
ATOM     87  C   UNL     1      -3.114   1.633   5.303  1.00  0.00     0.135 A 
ATOM     88  C   UNL     1      -0.933   2.306   5.520  1.00  0.00     0.135 A 
ATOM     89  F   UNL     1      -4.340   1.531   5.837  1.00  0.00    -0.206 F 
ATOM     90  C   UNL     1      -2.835   0.838   4.124  1.00  0.00     0.059 A 
ATOM     91  C   UNL     1      -0.753   1.676   4.256  1.00  0.00     0.059 A 
ATOM     92  F   UNL     1       0.049   3.105   5.975  1.00  0.00    -0.206 F 
ATOM     93  C   UNL     1      -1.593   0.881   3.457  1.00  0.00     0.060 A 
BRANCH  93  94
ATOM     94  S   UNL     1      -0.854   0.020   1.510  1.00  0.00     0.124 S 
ATOM     95  O   UNL     1       0.551  -0.410   1.569  1.00  0.00    -0.237 OA
ATOM     96  O   UNL     1      -1.465  -1.148   0.922  1.00  0.00    -0.237 OA
ATOM     97  O   UNL     1      -1.129   1.269   0.828  1.00  0.00    -0.744 OA
ENDBRANCH  93  94
ENDBRANCH  61  86
BRANCH  73  98
ATOM     98  C   UNL     1      -0.095   9.705   7.015  1.00  0.00     0.058 A 
ATOM     99  C   UNL     1       0.577   9.550   8.236  1.00  0.00     0.135 A 
ATOM    100  C   UNL     1      -0.016  11.021   6.466  1.00  0.00     0.135 A 
ATOM    101  F   UNL     1       0.700   8.356   8.826  1.00  0.00    -0.206 F 
ATOM    102  C   UNL     1       1.199  10.618   8.896  1.00  0.00     0.059 A 
ATOM    103  C   UNL     1       0.667  12.075   7.065  1.00  0.00     0.059 A 
ATOM    104  F   UNL     1      -0.606  11.351   5.309  1.00  0.00    -0.206 F 
ATOM    105  C   UNL     1       1.241  11.876   8.304  1.00  0.00     0.060 A 
BRANCH 105 106
ATOM    106  S   UNL     1       2.068  13.233   9.147  1.00  0.00     0.124 S 
ATOM    107  O   UNL     1       1.085  13.585  10.166  1.00  0.00    -0.237 OA
ATOM    108  O   UNL     1       3.288  12.599   9.638  1.00  0.00    -0.237 OA
ATOM    109  O   UNL     1       2.265  14.225   8.095  1.00  0.00    -0.744 OA
ENDBRANCH 105 106
ENDBRANCH  73  98
ENDBRANCH  47  48
ENDBRANCH  39  42
ENDBRANCH  37  38
ENDBRANCH  36  37
ENDBRANCH  35  36
ENDBRANCH   1  35
TORSDOF 20
