REMARK SMILES C=CCn1nc(C(=O)NCCCCNC(=O)c2ccc(-c3c4nc(c(-c5c(F)cc(S(=O)(=O)[O-])cc5F)c5ccc([nH]5)c(-c5c(F)cc(S(=O)(=O)[O-])cc5F)c5nc(c(-c6c(F)cc(S(=O)(=O)[O-])cc6F)c6ccc3[nH]6)C=C5)C=C4)cc2)c2c1CC[C@@H]([NH2+]Cc1nc(C)cc(=O)[nH]1)C2
REMARK SMILES IDX 11 1 10 2 9 3 7 4 8 5 6 7 4 8 5 9 84 10 83 11 85 12 98 13
REMARK SMILES IDX 86 14 87 15 3 16 2 17 1 18 88 19 89 22 90 23 91 24 97 25
REMARK SMILES IDX 92 26 95 27 93 29 94 30 96 31 12 32 13 33 14 34 15 35 16 37
REMARK SMILES IDX 17 38 18 39 82 40 19 41 81 42 20 43 21 44 22 45 75 46 23 47
REMARK SMILES IDX 80 48 74 49 76 50 24 51 79 52 73 53 72 54 25 56 59 57 38 58
REMARK SMILES IDX 58 59 39 60 42 61 57 62 77 63 40 64 41 65 56 67 78 68 43 69
REMARK SMILES IDX 26 70 27 71 36 72 28 73 29 74 35 75 37 76 30 77 31 78 32 79
REMARK SMILES IDX 33 80 34 81 60 82 61 83 70 84 62 85 63 86 69 87 71 88 64 89
REMARK SMILES IDX 65 90 66 91 67 92 68 93 44 94 45 95 54 96 46 97 47 98 53 99
REMARK SMILES IDX 55 100 48 101 49 102 50 103 51 104 52 105
REMARK H PARENT 9 6 88 20 88 21 97 28 14 36 76 55 42 66
REMARK Flexibility Score: inf
ROOT
ATOM      1  C   UNL     1      -4.301  -2.392   7.362  1.00  0.00     0.023 C 
ENDROOT
BRANCH   1   2
ATOM      2  C   UNL     1      -2.790  -2.640   7.170  1.00  0.00     0.116 C 
BRANCH   2   3
ATOM      3  N   UNL     1      -2.479  -3.272   5.899  1.00  0.00    -0.351 N 
ATOM      4  C   UNL     1      -2.090  -2.871   4.638  1.00  0.00     0.272 C 
ATOM      5  O   UNL     1      -1.811  -3.830   3.904  1.00  0.00    -0.267 OA
ATOM      6  H   UNL     1      -2.569  -4.250   5.953  1.00  0.00     0.163 HD
BRANCH   4   7
ATOM      7  C   UNL     1      -2.023  -1.471   4.117  1.00  0.00     0.153 A 
ATOM      8  N   UNL     1      -1.647   0.000   2.569  1.00  0.00    -0.265 N 
ATOM      9  N   UNL     1      -1.550  -1.308   2.855  1.00  0.00    -0.167 NA
ATOM     10  C   UNL     1      -2.214   0.710   3.579  1.00  0.00     0.043 A 
ATOM     11  C   UNL     1      -2.416  -0.187   4.611  1.00  0.00     0.012 A 
ATOM     12  C   UNL     1      -2.636   2.138   3.545  1.00  0.00     0.062 C 
ATOM     13  C   UNL     1      -3.018   0.271   5.877  1.00  0.00     0.105 C 
ATOM     14  C   UNL     1      -3.042   2.614   4.951  1.00  0.00     0.072 C 
ATOM     15  C   UNL     1      -3.849   1.567   5.747  1.00  0.00     0.187 C 
BRANCH   8  16
ATOM     16  C   UNL     1      -1.243   0.482   1.250  1.00  0.00     0.171 C 
BRANCH  16  17
ATOM     17  C   UNL     1       0.251   0.567   1.101  1.00  0.00    -0.011 C 
ATOM     18  C   UNL     1       0.944  -0.009   0.109  1.00  0.00     0.006 C 
ENDBRANCH  16  17
ENDBRANCH   8  16
BRANCH  15  19
ATOM     19  N   UNL     1      -5.167   1.230   5.153  1.00  0.00    -0.337 N 
ATOM     20  H   UNL     1      -5.497   0.353   5.558  1.00  0.00     0.346 HD
ATOM     21  H   UNL     1      -5.047   1.147   4.144  1.00  0.00     0.346 HD
BRANCH  19  22
ATOM     22  C   UNL     1      -6.167   2.275   5.407  1.00  0.00     0.337 C 
BRANCH  22  23
ATOM     23  C   UNL     1      -7.424   2.030   4.579  1.00  0.00     0.164 A 
ATOM     24  N   UNL     1      -8.293   2.982   4.443  1.00  0.00    -0.234 NA
ATOM     25  N   UNL     1      -7.593   0.786   4.039  1.00  0.00    -0.306 N 
ATOM     26  C   UNL     1      -9.409   2.719   3.688  1.00  0.00     0.045 A 
ATOM     27  C   UNL     1      -8.707   0.439   3.336  1.00  0.00     0.251 A 
ATOM     28  H   UNL     1      -6.883   0.116   4.162  1.00  0.00     0.171 HD
ATOM     29  C   UNL     1     -10.330   3.883   3.473  1.00  0.00     0.067 C 
ATOM     30  C   UNL     1      -9.680   1.524   3.146  1.00  0.00     0.095 A 
ATOM     31  O   UNL     1      -8.901  -0.679   2.880  1.00  0.00    -0.270 OA
ENDBRANCH  22  23
ENDBRANCH  19  22
ENDBRANCH  15  19
ENDBRANCH   4   7
ENDBRANCH   2   3
ENDBRANCH   1   2
BRANCH   1  32
ATOM     32  C   UNL     1      -5.039  -3.328   8.322  1.00  0.00     0.023 C 
BRANCH  32  33
ATOM     33  C   UNL     1      -4.698  -3.089   9.791  1.00  0.00     0.116 C 
BRANCH  33  34
ATOM     34  N   UNL     1      -5.173  -1.797  10.296  1.00  0.00    -0.352 N 
ATOM     35  C   UNL     1      -4.826  -1.196  11.496  1.00  0.00     0.251 C 
ATOM     36  H   UNL     1      -5.804  -1.304   9.723  1.00  0.00     0.163 HD
ATOM     37  O   UNL     1      -5.548  -0.362  12.021  1.00  0.00    -0.269 OA
BRANCH  35  38
ATOM     38  C   UNL     1      -3.541  -1.579  12.105  1.00  0.00     0.039 A 
ATOM     39  C   UNL     1      -3.447  -1.949  13.449  1.00  0.00     0.014 A 
ATOM     40  C   UNL     1      -2.436  -1.641  11.257  1.00  0.00     0.014 A 
ATOM     41  C   UNL     1      -2.243  -2.478  13.911  1.00  0.00     0.010 A 
ATOM     42  C   UNL     1      -1.294  -2.273  11.682  1.00  0.00     0.010 A 
ATOM     43  C   UNL     1      -1.176  -2.663  13.014  1.00  0.00    -0.014 A 
BRANCH  43  44
ATOM     44  C   UNL     1       0.013  -3.417  13.411  1.00  0.00     0.031 A 
ATOM     45  C   UNL     1      -0.276  -4.794  13.912  1.00  0.00     0.074 A 
ATOM     46  C   UNL     1       1.269  -3.013  13.116  1.00  0.00     0.049 A 
ATOM     47  N   UNL     1      -0.132  -5.249  15.112  1.00  0.00    -0.248 NA
ATOM     48  C   UNL     1      -0.963  -5.735  13.008  1.00  0.00     0.031 C 
ATOM     49  C   UNL     1       1.686  -1.845  12.330  1.00  0.00     0.029 A 
ATOM     50  N   UNL     1       2.456  -3.629  13.367  1.00  0.00    -0.354 N 
ATOM     51  C   UNL     1      -0.467  -6.602  15.055  1.00  0.00     0.074 A 
ATOM     52  C   UNL     1      -1.170  -6.780  13.813  1.00  0.00     0.031 C 
ATOM     53  C   UNL     1       2.983  -1.974  11.972  1.00  0.00     0.029 A 
ATOM     54  C   UNL     1       3.539  -3.136  12.639  1.00  0.00     0.049 A 
ATOM     55  H   UNL     1       2.544  -4.366  14.014  1.00  0.00     0.167 HD
ATOM     56  C   UNL     1       0.090  -7.504  15.915  1.00  0.00     0.037 A 
ATOM     57  C   UNL     1       4.791  -3.664  12.579  1.00  0.00     0.037 A 
ATOM     58  C   UNL     1       0.707  -6.825  17.030  1.00  0.00     0.049 A 
ATOM     59  C   UNL     1       4.935  -4.559  13.757  1.00  0.00     0.074 A 
ATOM     60  C   UNL     1       0.261  -5.954  18.007  1.00  0.00     0.029 A 
ATOM     61  N   UNL     1       2.075  -6.698  17.017  1.00  0.00    -0.354 N 
ATOM     62  N   UNL     1       4.961  -4.134  14.990  1.00  0.00    -0.248 NA
ATOM     63  C   UNL     1       4.574  -5.957  13.586  1.00  0.00     0.031 C 
ATOM     64  C   UNL     1       1.315  -5.004  18.159  1.00  0.00     0.029 A 
ATOM     65  C   UNL     1       2.373  -5.399  17.340  1.00  0.00     0.049 A 
ATOM     66  H   UNL     1       2.724  -7.410  16.814  1.00  0.00     0.167 HD
ATOM     67  C   UNL     1       4.202  -5.054  15.696  1.00  0.00     0.074 A 
ATOM     68  C   UNL     1       4.059  -6.198  14.794  1.00  0.00     0.031 C 
ATOM     69  C   UNL     1       3.520  -4.689  16.822  1.00  0.00     0.037 A 
BRANCH  56  70
ATOM     70  C   UNL     1       0.429  -8.944  15.573  1.00  0.00     0.058 A 
ATOM     71  C   UNL     1       0.964  -9.778  16.581  1.00  0.00     0.135 A 
ATOM     72  C   UNL     1       0.522  -9.459  14.261  1.00  0.00     0.135 A 
ATOM     73  F   UNL     1       0.926  -9.406  17.871  1.00  0.00    -0.206 F 
ATOM     74  C   UNL     1       1.626 -10.974  16.298  1.00  0.00     0.059 A 
ATOM     75  C   UNL     1       1.131 -10.675  13.962  1.00  0.00     0.059 A 
ATOM     76  F   UNL     1       0.112  -8.777  13.187  1.00  0.00    -0.206 F 
ATOM     77  C   UNL     1       1.719 -11.405  14.980  1.00  0.00     0.060 A 
BRANCH  77  78
ATOM     78  S   UNL     1       2.650 -12.898  14.600  1.00  0.00     0.124 S 
ATOM     79  O   UNL     1       4.013 -12.473  14.896  1.00  0.00    -0.237 OA
ATOM     80  O   UNL     1       2.063 -13.861  15.526  1.00  0.00    -0.237 OA
ATOM     81  O   UNL     1       2.350 -13.129  13.190  1.00  0.00    -0.744 OA
ENDBRANCH  77  78
ENDBRANCH  56  70
BRANCH  57  82
ATOM     82  C   UNL     1       5.749  -3.721  11.438  1.00  0.00     0.058 A 
ATOM     83  C   UNL     1       7.073  -4.163  11.634  1.00  0.00     0.135 A 
ATOM     84  C   UNL     1       5.309  -3.662  10.102  1.00  0.00     0.135 A 
ATOM     85  F   UNL     1       7.579  -4.251  12.873  1.00  0.00    -0.206 F 
ATOM     86  C   UNL     1       7.879  -4.604  10.579  1.00  0.00     0.059 A 
ATOM     87  C   UNL     1       6.099  -4.089   9.032  1.00  0.00     0.059 A 
ATOM     88  F   UNL     1       4.057  -3.283   9.803  1.00  0.00    -0.206 F 
ATOM     89  C   UNL     1       7.370  -4.594   9.282  1.00  0.00     0.060 A 
BRANCH  89  90
ATOM     90  S   UNL     1       8.315  -5.378   7.952  1.00  0.00     0.124 S 
ATOM     91  O   UNL     1       9.423  -4.445   7.777  1.00  0.00    -0.237 OA
ATOM     92  O   UNL     1       8.657  -6.670   8.537  1.00  0.00    -0.237 OA
ATOM     93  O   UNL     1       7.362  -5.431   6.847  1.00  0.00    -0.744 OA
ENDBRANCH  89  90
ENDBRANCH  57  82
BRANCH  69  94
ATOM     94  C   UNL     1       3.854  -3.364  17.462  1.00  0.00     0.058 A 
ATOM     95  C   UNL     1       3.719  -2.106  16.845  1.00  0.00     0.135 A 
ATOM     96  C   UNL     1       4.224  -3.372  18.815  1.00  0.00     0.135 A 
ATOM     97  F   UNL     1       3.262  -1.995  15.590  1.00  0.00    -0.206 F 
ATOM     98  C   UNL     1       4.002  -0.919  17.526  1.00  0.00     0.059 A 
ATOM     99  C   UNL     1       4.474  -2.201  19.523  1.00  0.00     0.059 A 
ATOM    100  F   UNL     1       4.309  -4.535  19.483  1.00  0.00    -0.206 F 
ATOM    101  C   UNL     1       4.385  -0.978  18.865  1.00  0.00     0.060 A 
BRANCH 101 102
ATOM    102  S   UNL     1       4.728   0.554  19.756  1.00  0.00     0.124 S 
ATOM    103  O   UNL     1       5.974   0.995  19.140  1.00  0.00    -0.237 OA
ATOM    104  O   UNL     1       3.551   1.365  19.459  1.00  0.00    -0.237 OA
ATOM    105  O   UNL     1       4.840   0.122  21.148  1.00  0.00    -0.744 OA
ENDBRANCH 101 102
ENDBRANCH  69  94
ENDBRANCH  43  44
ENDBRANCH  35  38
ENDBRANCH  33  34
ENDBRANCH  32  33
ENDBRANCH   1  32
TORSDOF 19
