REMARK SMILES CCOC[C@@H](O)C[C@@]1(C(=O)NCCCCNC(=O)c2ccc(-c3c4nc(c(-c5c(F)cc(S(=O)(=O)[O-])cc5F)c5ccc([nH]5)c(-c5c(F)cc(S(=O)(=O)[O-])cc5F)c5nc(c(-c6c(F)cc(S(=O)(=O)[O-])cc6F)c6ccc3[nH]6)C=C5)C=C4)cc2)CC[C@H](C)C1
REMARK SMILES IDX 12 1 11 2 9 3 10 4 8 6 85 7 89 8 86 9 87 10 88 11 7 12 5 13
REMARK SMILES IDX 4 14 3 15 2 16 1 17 6 18 13 20 14 21 15 22 16 23 17 24 18 26
REMARK SMILES IDX 19 27 20 28 84 29 21 30 83 31 22 32 23 33 24 34 77 35 25 36
REMARK SMILES IDX 82 37 76 38 78 39 26 40 81 41 75 42 74 43 27 45 61 46 40 47
REMARK SMILES IDX 60 48 41 49 44 50 59 51 79 52 42 53 43 54 58 56 80 57 45 58
REMARK SMILES IDX 28 59 29 60 38 61 30 62 31 63 37 64 39 65 32 66 33 67 34 68
REMARK SMILES IDX 35 69 36 70 62 71 63 72 72 73 64 74 65 75 71 76 73 77 66 78
REMARK SMILES IDX 67 79 68 80 69 81 70 82 46 83 47 84 56 85 48 86 49 87 55 88
REMARK SMILES IDX 57 89 50 90 51 91 52 92 53 93 54 94
REMARK H PARENT 11 5 6 19 16 25 78 44 44 55
REMARK Flexibility Score: inf
ROOT
ATOM      1  C   UNL     1       2.042  -0.921  -1.252  1.00  0.00     0.116 C 
ENDROOT
BRANCH   1   2
ATOM      2  N   UNL     1       2.862  -0.915  -0.017  1.00  0.00    -0.356 N 
ATOM      3  C   UNL     1       4.151  -0.994   0.464  1.00  0.00     0.226 C 
ATOM      4  O   UNL     1       4.412  -0.921   1.663  1.00  0.00    -0.274 OA
ATOM      5  H   UNL     1       2.255  -0.817   0.752  1.00  0.00     0.163 HD
BRANCH   3   6
ATOM      6  C   UNL     1       5.204  -1.236  -0.525  1.00  0.00     0.052 C 
ATOM      7  C   UNL     1       6.667  -1.312  -0.030  1.00  0.00     0.017 C 
ATOM      8  C   UNL     1       5.185   0.135  -1.255  1.00  0.00     0.020 C 
ATOM      9  C   UNL     1       7.484  -0.593  -1.110  1.00  0.00     0.004 C 
ATOM     10  C   UNL     1       6.611   0.560  -1.585  1.00  0.00    -0.013 C 
ATOM     11  C   UNL     1       6.979   1.893  -0.921  1.00  0.00     0.007 C 
BRANCH   6  12
ATOM     12  C   UNL     1       4.738  -2.569  -1.155  1.00  0.00     0.051 C 
BRANCH  12  13
ATOM     13  C   UNL     1       3.542  -3.498  -0.518  1.00  0.00     0.141 C 
BRANCH  13  14
ATOM     14  C   UNL     1       2.629  -3.455   0.945  1.00  0.00     0.191 C 
BRANCH  14  15
ATOM     15  O   UNL     1       2.163  -2.293   1.735  1.00  0.00    -0.379 OA
BRANCH  15  16
ATOM     16  C   UNL     1       0.812  -1.764   1.747  1.00  0.00     0.157 C 
ATOM     17  C   UNL     1       0.723  -0.212   1.964  1.00  0.00     0.035 C 
ENDBRANCH  15  16
ENDBRANCH  14  15
ENDBRANCH  13  14
BRANCH  13  18
ATOM     18  O   UNL     1       2.686  -3.858  -1.630  1.00  0.00    -0.391 OA
ATOM     19  H   UNL     1       2.169  -3.085  -1.904  1.00  0.00     0.211 HD
ENDBRANCH  13  18
ENDBRANCH  12  13
ENDBRANCH   6  12
ENDBRANCH   3   6
ENDBRANCH   1   2
BRANCH   1  20
ATOM     20  C   UNL     1       0.716  -1.801  -1.628  1.00  0.00     0.023 C 
BRANCH  20  21
ATOM     21  C   UNL     1      -0.009  -3.130  -1.128  1.00  0.00     0.023 C 
BRANCH  21  22
ATOM     22  C   UNL     1      -1.306  -3.140  -0.258  1.00  0.00     0.116 C 
BRANCH  22  23
ATOM     23  N   UNL     1      -2.242  -2.094  -0.594  1.00  0.00    -0.352 N 
ATOM     24  C   UNL     1      -3.479  -1.805  -0.060  1.00  0.00     0.251 C 
ATOM     25  H   UNL     1      -1.951  -1.494  -1.318  1.00  0.00     0.163 HD
ATOM     26  O   UNL     1      -4.190  -0.998  -0.627  1.00  0.00    -0.269 OA
BRANCH  24  27
ATOM     27  C   UNL     1      -3.982  -2.492   1.157  1.00  0.00     0.039 A 
ATOM     28  C   UNL     1      -5.247  -3.085   1.088  1.00  0.00     0.014 A 
ATOM     29  C   UNL     1      -3.306  -2.447   2.379  1.00  0.00     0.014 A 
ATOM     30  C   UNL     1      -5.825  -3.649   2.229  1.00  0.00     0.010 A 
ATOM     31  C   UNL     1      -3.870  -3.049   3.515  1.00  0.00     0.010 A 
ATOM     32  C   UNL     1      -5.141  -3.645   3.456  1.00  0.00    -0.014 A 
BRANCH  32  33
ATOM     33  C   UNL     1      -5.787  -4.245   4.659  1.00  0.00     0.031 A 
ATOM     34  C   UNL     1      -6.240  -3.376   5.803  1.00  0.00     0.074 A 
ATOM     35  C   UNL     1      -6.003  -5.577   4.700  1.00  0.00     0.049 A 
ATOM     36  N   UNL     1      -6.912  -3.707   6.878  1.00  0.00    -0.248 NA
ATOM     37  C   UNL     1      -5.881  -1.952   5.740  1.00  0.00     0.031 C 
ATOM     38  C   UNL     1      -5.582  -6.527   3.668  1.00  0.00     0.029 A 
ATOM     39  N   UNL     1      -6.643  -6.361   5.628  1.00  0.00    -0.354 N 
ATOM     40  C   UNL     1      -7.051  -2.537   7.619  1.00  0.00     0.074 A 
ATOM     41  C   UNL     1      -6.349  -1.499   6.895  1.00  0.00     0.031 C 
ATOM     42  C   UNL     1      -6.015  -7.755   3.996  1.00  0.00     0.029 A 
ATOM     43  C   UNL     1      -6.716  -7.689   5.275  1.00  0.00     0.049 A 
ATOM     44  H   UNL     1      -7.015  -6.006   6.468  1.00  0.00     0.167 HD
ATOM     45  C   UNL     1      -7.719  -2.341   8.783  1.00  0.00     0.037 A 
ATOM     46  C   UNL     1      -7.294  -8.733   5.902  1.00  0.00     0.037 A 
ATOM     47  C   UNL     1      -8.426  -3.381   9.488  1.00  0.00     0.049 A 
ATOM     48  C   UNL     1      -8.027  -8.491   7.195  1.00  0.00     0.074 A 
ATOM     49  C   UNL     1      -9.177  -3.280  10.646  1.00  0.00     0.029 A 
ATOM     50  N   UNL     1      -8.460  -4.715   9.107  1.00  0.00    -0.354 N 
ATOM     51  N   UNL     1      -8.210  -7.364   7.841  1.00  0.00    -0.248 NA
ATOM     52  C   UNL     1      -8.641  -9.660   7.839  1.00  0.00     0.031 C 
ATOM     53  C   UNL     1      -9.616  -4.561  10.997  1.00  0.00     0.029 A 
ATOM     54  C   UNL     1      -9.195  -5.452  10.022  1.00  0.00     0.049 A 
ATOM     55  H   UNL     1      -8.025  -5.084   8.305  1.00  0.00     0.167 HD
ATOM     56  C   UNL     1      -8.991  -7.681   8.948  1.00  0.00     0.074 A 
ATOM     57  C   UNL     1      -9.254  -9.105   8.875  1.00  0.00     0.031 C 
ATOM     58  C   UNL     1      -9.452  -6.869   9.932  1.00  0.00     0.037 A 
BRANCH  45  59
ATOM     59  C   UNL     1      -7.704  -0.955   9.376  1.00  0.00     0.058 A 
ATOM     60  C   UNL     1      -8.372   0.122   8.769  1.00  0.00     0.135 A 
ATOM     61  C   UNL     1      -7.033  -0.704  10.585  1.00  0.00     0.135 A 
ATOM     62  F   UNL     1      -9.023  -0.053   7.608  1.00  0.00    -0.206 F 
ATOM     63  C   UNL     1      -8.343   1.402   9.316  1.00  0.00     0.059 A 
ATOM     64  C   UNL     1      -7.017   0.561  11.167  1.00  0.00     0.059 A 
ATOM     65  F   UNL     1      -6.380  -1.694  11.214  1.00  0.00    -0.206 F 
ATOM     66  C   UNL     1      -7.660   1.612  10.515  1.00  0.00     0.060 A 
BRANCH  66  67
ATOM     67  S   UNL     1      -7.625   3.279  11.208  1.00  0.00     0.124 S 
ATOM     68  O   UNL     1      -6.732   3.963  10.278  1.00  0.00    -0.237 OA
ATOM     69  O   UNL     1      -9.029   3.673  11.143  1.00  0.00    -0.237 OA
ATOM     70  O   UNL     1      -7.095   3.079  12.553  1.00  0.00    -0.744 OA
ENDBRANCH  66  67
ENDBRANCH  45  59
BRANCH  46  71
ATOM     71  C   UNL     1      -7.238 -10.095   5.298  1.00  0.00     0.058 A 
ATOM     72  C   UNL     1      -8.393 -10.718   4.802  1.00  0.00     0.135 A 
ATOM     73  C   UNL     1      -6.027 -10.799   5.199  1.00  0.00     0.135 A 
ATOM     74  F   UNL     1      -9.578 -10.092   4.877  1.00  0.00    -0.206 F 
ATOM     75  C   UNL     1      -8.356 -11.994   4.248  1.00  0.00     0.059 A 
ATOM     76  C   UNL     1      -5.959 -12.064   4.622  1.00  0.00     0.059 A 
ATOM     77  F   UNL     1      -4.889 -10.245   5.644  1.00  0.00    -0.206 F 
ATOM     78  C   UNL     1      -7.132 -12.658   4.160  1.00  0.00     0.060 A 
BRANCH  78  79
ATOM     79  S   UNL     1      -7.087 -14.296   3.398  1.00  0.00     0.124 S 
ATOM     80  O   UNL     1      -7.747 -15.110   4.412  1.00  0.00    -0.237 OA
ATOM     81  O   UNL     1      -7.836 -14.080   2.165  1.00  0.00    -0.237 OA
ATOM     82  O   UNL     1      -5.660 -14.545   3.220  1.00  0.00    -0.744 OA
ENDBRANCH  78  79
ENDBRANCH  46  71
BRANCH  58  83
ATOM     83  C   UNL     1     -10.328  -7.491  10.987  1.00  0.00     0.058 A 
ATOM     84  C   UNL     1      -9.822  -8.383  11.945  1.00  0.00     0.135 A 
ATOM     85  C   UNL     1     -11.692  -7.159  11.058  1.00  0.00     0.135 A 
ATOM     86  F   UNL     1      -8.527  -8.737  11.922  1.00  0.00    -0.206 F 
ATOM     87  C   UNL     1     -10.643  -8.952  12.913  1.00  0.00     0.059 A 
ATOM     88  C   UNL     1     -12.524  -7.690  12.038  1.00  0.00     0.059 A 
ATOM     89  F   UNL     1     -12.227  -6.301  10.175  1.00  0.00    -0.206 F 
ATOM     90  C   UNL     1     -11.994  -8.600  12.951  1.00  0.00     0.060 A 
BRANCH  90  91
ATOM     91  S   UNL     1     -13.046  -9.335  14.220  1.00  0.00     0.124 S 
ATOM     92  O   UNL     1     -13.187 -10.702  13.728  1.00  0.00    -0.237 OA
ATOM     93  O   UNL     1     -12.239  -9.176  15.426  1.00  0.00    -0.237 OA
ATOM     94  O   UNL     1     -14.257  -8.522  14.172  1.00  0.00    -0.744 OA
ENDBRANCH  90  91
ENDBRANCH  58  83
ENDBRANCH  32  33
ENDBRANCH  24  27
ENDBRANCH  22  23
ENDBRANCH  21  22
ENDBRANCH  20  21
ENDBRANCH   1  20
TORSDOF 20
