REMARK SMILES Cn1cc(-c2ccn(Cc3ccc(C(=O)NCCCCNC(=O)c4ccc(-c5c6nc(c(-c7c(F)cc(S(=O)(=O)[O-])cc7F)c7ccc([nH]7)c(-c7c(F)cc(S(=O)(=O)[O-])cc7F)c7nc(c(-c8c(F)cc(S(=O)(=O)[O-])cc8F)c8ccc5[nH]8)C=C7)C=C6)cc4)cc3)n2)cn1
REMARK SMILES IDX 18 1 17 2 16 3 14 4 15 5 13 7 10 8 11 9 91 10 12 11 90 12
REMARK SMILES IDX 9 13 8 14 5 15 6 16 92 17 7 18 4 19 1 20 2 21 3 22 94 23
REMARK SMILES IDX 93 24 19 25 20 26 21 27 22 28 23 30 24 31 25 32 89 33 26 34
REMARK SMILES IDX 88 35 27 36 28 37 29 38 82 39 30 40 87 41 81 42 83 43 31 44
REMARK SMILES IDX 86 45 80 46 79 47 32 49 66 50 45 51 65 52 46 53 49 54 64 55
REMARK SMILES IDX 84 56 47 57 48 58 63 60 85 61 50 62 33 63 34 64 43 65 35 66
REMARK SMILES IDX 36 67 42 68 44 69 37 70 38 71 39 72 40 73 41 74 67 75 68 76
REMARK SMILES IDX 77 77 69 78 70 79 76 80 78 81 71 82 72 83 73 84 74 85 75 86
REMARK SMILES IDX 51 87 52 88 61 89 53 90 54 91 60 92 62 93 55 94 56 95 57 96
REMARK SMILES IDX 58 97 59 98
REMARK H PARENT 16 6 21 29 83 48 49 59
REMARK Flexibility Score: inf
ROOT
ATOM      1  C   UNL     1       6.450   3.184   4.997  1.00  0.00     0.023 C 
ENDROOT
BRANCH   1   2
ATOM      2  C   UNL     1       6.817   3.323   3.512  1.00  0.00     0.116 C 
BRANCH   2   3
ATOM      3  N   UNL     1       8.194   2.931   3.269  1.00  0.00    -0.352 N 
ATOM      4  C   UNL     1       8.759   1.760   2.827  1.00  0.00     0.251 C 
ATOM      5  O   UNL     1       9.984   1.722   2.709  1.00  0.00    -0.269 OA
ATOM      6  H   UNL     1       8.848   3.642   3.457  1.00  0.00     0.163 HD
BRANCH   4   7
ATOM      7  C   UNL     1       7.967   0.555   2.449  1.00  0.00     0.039 A 
ATOM      8  C   UNL     1       6.531  -1.709   1.540  1.00  0.00    -0.026 A 
ATOM      9  C   UNL     1       7.802  -1.423   1.026  1.00  0.00     0.006 A 
ATOM     10  C   UNL     1       6.025  -0.892   2.558  1.00  0.00     0.006 A 
ATOM     11  C   UNL     1       8.510  -0.301   1.477  1.00  0.00     0.014 A 
ATOM     12  C   UNL     1       6.742   0.212   3.019  1.00  0.00     0.014 A 
BRANCH   8  13
ATOM     13  C   UNL     1       5.721  -2.880   1.040  1.00  0.00     0.179 C 
BRANCH  13  14
ATOM     14  N   UNL     1       4.550  -2.494   0.253  1.00  0.00    -0.268 N 
ATOM     15  C   UNL     1       2.653  -1.653  -0.175  1.00  0.00     0.095 A 
ATOM     16  C   UNL     1       2.968  -2.478  -1.272  1.00  0.00     0.050 A 
ATOM     17  N   UNL     1       3.590  -1.695   0.775  1.00  0.00    -0.172 NA
ATOM     18  C   UNL     1       4.201  -3.008  -0.970  1.00  0.00     0.110 A 
BRANCH  15  19
ATOM     19  C   UNL     1       1.441  -0.861  -0.074  1.00  0.00     0.040 A 
ATOM     20  C   UNL     1      -2.054  -0.031  -0.036  1.00  0.00     0.173 C 
ATOM     21  N   UNL     1      -0.615  -0.133  -0.016  1.00  0.00    -0.275 N 
ATOM     22  C   UNL     1       0.129  -1.272  -0.127  1.00  0.00     0.118 A 
ATOM     23  N   UNL     1       0.123   0.986   0.103  1.00  0.00    -0.181 NA
ATOM     24  C   UNL     1       1.384   0.536   0.076  1.00  0.00     0.145 A 
ENDBRANCH  15  19
ENDBRANCH  13  14
ENDBRANCH   8  13
ENDBRANCH   4   7
ENDBRANCH   2   3
ENDBRANCH   1   2
BRANCH   1  25
ATOM     25  C   UNL     1       7.038   4.253   5.929  1.00  0.00     0.023 C 
BRANCH  25  26
ATOM     26  C   UNL     1       6.492   5.660   5.718  1.00  0.00     0.116 C 
BRANCH  26  27
ATOM     27  N   UNL     1       5.050   5.761   5.962  1.00  0.00    -0.352 N 
ATOM     28  C   UNL     1       4.209   6.806   5.628  1.00  0.00     0.251 C 
ATOM     29  H   UNL     1       4.631   4.994   6.417  1.00  0.00     0.163 HD
ATOM     30  O   UNL     1       3.152   6.987   6.234  1.00  0.00    -0.269 OA
BRANCH  28  31
ATOM     31  C   UNL     1       4.596   7.683   4.515  1.00  0.00     0.039 A 
ATOM     32  C   UNL     1       4.457   9.072   4.564  1.00  0.00     0.014 A 
ATOM     33  C   UNL     1       5.180   7.061   3.416  1.00  0.00     0.014 A 
ATOM     34  C   UNL     1       4.992   9.831   3.524  1.00  0.00     0.010 A 
ATOM     35  C   UNL     1       5.874   7.810   2.508  1.00  0.00     0.010 A 
ATOM     36  C   UNL     1       5.719   9.189   2.507  1.00  0.00    -0.014 A 
BRANCH  36  37
ATOM     37  C   UNL     1       6.425   9.941   1.478  1.00  0.00     0.031 A 
ATOM     38  C   UNL     1       7.366  10.965   2.005  1.00  0.00     0.074 A 
ATOM     39  C   UNL     1       6.409   9.580   0.175  1.00  0.00     0.049 A 
ATOM     40  N   UNL     1       7.234  12.249   1.959  1.00  0.00    -0.248 NA
ATOM     41  C   UNL     1       8.501  10.519   2.832  1.00  0.00     0.031 C 
ATOM     42  C   UNL     1       5.788   8.403  -0.447  1.00  0.00     0.029 A 
ATOM     43  N   UNL     1       7.055  10.152  -0.874  1.00  0.00    -0.354 N 
ATOM     44  C   UNL     1       8.396  12.772   2.518  1.00  0.00     0.074 A 
ATOM     45  C   UNL     1       9.018  11.685   3.228  1.00  0.00     0.031 C 
ATOM     46  C   UNL     1       6.294   8.221  -1.687  1.00  0.00     0.029 A 
ATOM     47  C   UNL     1       7.132   9.357  -2.015  1.00  0.00     0.049 A 
ATOM     48  H   UNL     1       7.439  11.057  -0.831  1.00  0.00     0.167 HD
ATOM     49  C   UNL     1       8.877  13.987   2.127  1.00  0.00     0.037 A 
ATOM     50  C   UNL     1       7.867   9.611  -3.129  1.00  0.00     0.037 A 
ATOM     51  C   UNL     1       7.874  14.727   1.397  1.00  0.00     0.049 A 
ATOM     52  C   UNL     1       8.134  11.078  -3.130  1.00  0.00     0.074 A 
ATOM     53  C   UNL     1       6.585  15.140   1.681  1.00  0.00     0.029 A 
ATOM     54  N   UNL     1       7.984  14.778   0.026  1.00  0.00    -0.354 N 
ATOM     55  N   UNL     1       7.194  11.981  -3.250  1.00  0.00    -0.248 NA
ATOM     56  C   UNL     1       9.353  11.534  -2.475  1.00  0.00     0.031 C 
ATOM     57  C   UNL     1       5.854  14.900   0.479  1.00  0.00     0.029 A 
ATOM     58  C   UNL     1       6.753  14.454  -0.490  1.00  0.00     0.049 A 
ATOM     59  H   UNL     1       8.792  15.004  -0.488  1.00  0.00     0.167 HD
ATOM     60  C   UNL     1       7.520  12.963  -2.324  1.00  0.00     0.074 A 
ATOM     61  C   UNL     1       8.893  12.658  -1.918  1.00  0.00     0.031 C 
ATOM     62  C   UNL     1       6.564  13.750  -1.742  1.00  0.00     0.037 A 
BRANCH  49  63
ATOM     63  C   UNL     1      10.343  14.352   2.063  1.00  0.00     0.058 A 
ATOM     64  C   UNL     1      10.705  15.685   1.773  1.00  0.00     0.135 A 
ATOM     65  C   UNL     1      11.395  13.411   1.996  1.00  0.00     0.135 A 
ATOM     66  F   UNL     1       9.789  16.666   1.804  1.00  0.00    -0.206 F 
ATOM     67  C   UNL     1      11.992  16.040   1.366  1.00  0.00     0.059 A 
ATOM     68  C   UNL     1      12.696  13.752   1.646  1.00  0.00     0.059 A 
ATOM     69  F   UNL     1      11.198  12.099   2.169  1.00  0.00    -0.206 F 
ATOM     70  C   UNL     1      12.977  15.060   1.291  1.00  0.00     0.060 A 
BRANCH  70  71
ATOM     71  S   UNL     1      14.611  15.496   0.674  1.00  0.00     0.124 S 
ATOM     72  O   UNL     1      14.325  15.780  -0.728  1.00  0.00    -0.237 OA
ATOM     73  O   UNL     1      14.949  16.647   1.505  1.00  0.00    -0.237 OA
ATOM     74  O   UNL     1      15.397  14.293   0.929  1.00  0.00    -0.744 OA
ENDBRANCH  70  71
ENDBRANCH  49  63
BRANCH  50  75
ATOM     75  C   UNL     1       8.663   8.630  -3.924  1.00  0.00     0.058 A 
ATOM     76  C   UNL     1       9.246   8.979  -5.156  1.00  0.00     0.135 A 
ATOM     77  C   UNL     1       9.098   7.410  -3.365  1.00  0.00     0.135 A 
ATOM     78  F   UNL     1       8.912  10.132  -5.756  1.00  0.00    -0.206 F 
ATOM     79  C   UNL     1      10.230   8.191  -5.772  1.00  0.00     0.059 A 
ATOM     80  C   UNL     1      10.068   6.605  -3.963  1.00  0.00     0.059 A 
ATOM     81  F   UNL     1       8.658   7.000  -2.166  1.00  0.00    -0.206 F 
ATOM     82  C   UNL     1      10.649   7.012  -5.155  1.00  0.00     0.060 A 
BRANCH  82  83
ATOM     83  S   UNL     1      12.033   6.075  -5.851  1.00  0.00     0.124 S 
ATOM     84  O   UNL     1      11.454   5.546  -7.081  1.00  0.00    -0.237 OA
ATOM     85  O   UNL     1      13.052   7.105  -6.019  1.00  0.00    -0.237 OA
ATOM     86  O   UNL     1      12.322   5.080  -4.821  1.00  0.00    -0.744 OA
ENDBRANCH  82  83
ENDBRANCH  50  75
BRANCH  62  87
ATOM     87  C   UNL     1       5.158  13.734  -2.294  1.00  0.00     0.058 A 
ATOM     88  C   UNL     1       4.312  12.609  -2.309  1.00  0.00     0.135 A 
ATOM     89  C   UNL     1       4.582  14.963  -2.650  1.00  0.00     0.135 A 
ATOM     90  F   UNL     1       4.745  11.414  -1.886  1.00  0.00    -0.206 F 
ATOM     91  C   UNL     1       2.970  12.698  -2.693  1.00  0.00     0.059 A 
ATOM     92  C   UNL     1       3.241  15.082  -3.005  1.00  0.00     0.059 A 
ATOM     93  F   UNL     1       5.315  16.088  -2.597  1.00  0.00    -0.206 F 
ATOM     94  C   UNL     1       2.442  13.943  -3.037  1.00  0.00     0.060 A 
BRANCH  94  95
ATOM     95  S   UNL     1       0.693  14.075  -3.469  1.00  0.00     0.124 S 
ATOM     96  O   UNL     1       0.642  13.388  -4.755  1.00  0.00    -0.237 OA
ATOM     97  O   UNL     1       0.038  13.391  -2.358  1.00  0.00    -0.237 OA
ATOM     98  O   UNL     1       0.463  15.517  -3.525  1.00  0.00    -0.744 OA
ENDBRANCH  94  95
ENDBRANCH  62  87
ENDBRANCH  36  37
ENDBRANCH  28  31
ENDBRANCH  26  27
ENDBRANCH  25  26
ENDBRANCH   1  25
TORSDOF 17
