REMARK SMILES Cc1ccc(C(=O)N2C[C@H](C(=O)NCCCCNC(=O)c3ccc(-c4c5nc(c(-c6c(F)cc(S(=O)(=O)[O-])cc6F)c6ccc([nH]6)c(-c6c(F)cc(S(=O)(=O)[O-])cc6F)c6nc(c(-c7c(F)cc(S(=O)(=O)[O-])cc7F)c7ccc4[nH]7)C=C6)C=C5)cc3)Oc3ccccc32)o1
REMARK SMILES IDX 16 1 15 2 14 3 13 4 11 5 12 6 10 8 8 9 9 10 93 11 88 12
REMARK SMILES IDX 92 13 87 14 89 15 91 16 90 17 6 18 7 19 5 20 1 21 2 22 3 23
REMARK SMILES IDX 94 24 4 25 17 26 18 27 19 28 20 30 21 31 22 32 86 33 23 34
REMARK SMILES IDX 85 35 24 36 25 37 26 38 79 39 27 40 84 41 78 42 80 43 28 44
REMARK SMILES IDX 83 45 77 46 76 47 29 49 63 50 42 51 62 52 43 53 46 54 61 55
REMARK SMILES IDX 81 56 44 57 45 58 60 60 82 61 47 62 30 63 31 64 40 65 32 66
REMARK SMILES IDX 33 67 39 68 41 69 34 70 35 71 36 72 37 73 38 74 64 75 65 76
REMARK SMILES IDX 74 77 66 78 67 79 73 80 75 81 68 82 69 83 70 84 71 85 72 86
REMARK SMILES IDX 48 87 49 88 58 89 50 90 51 91 57 92 59 93 52 94 53 95 54 96
REMARK SMILES IDX 55 97 56 98
REMARK H PARENT 13 7 18 29 80 48 46 59
REMARK Flexibility Score: inf
ROOT
ATOM      1  C   UNL     1      -5.752  -3.962   2.288  1.00  0.00     0.023 C 
ENDROOT
BRANCH   1   2
ATOM      2  C   UNL     1      -5.489  -2.819   1.305  1.00  0.00     0.023 C 
BRANCH   2   3
ATOM      3  C   UNL     1      -6.516  -1.687   1.340  1.00  0.00     0.116 C 
BRANCH   3   4
ATOM      4  N   UNL     1      -6.383  -0.881   2.543  1.00  0.00    -0.353 N 
ATOM      5  C   UNL     1      -5.952   0.408   2.697  1.00  0.00     0.262 C 
ATOM      6  O   UNL     1      -5.902   0.864   3.843  1.00  0.00    -0.271 OA
ATOM      7  H   UNL     1      -6.644  -1.334   3.377  1.00  0.00     0.163 HD
BRANCH   5   8
ATOM      8  C   UNL     1      -5.484   1.246   1.502  1.00  0.00     0.281 C 
ATOM      9  N   UNL     1      -3.680   1.444  -0.179  1.00  0.00    -0.298 N 
ATOM     10  C   UNL     1      -4.137   0.730   1.013  1.00  0.00     0.181 C 
ATOM     11  C   UNL     1      -4.711   1.833  -1.091  1.00  0.00     0.087 A 
ATOM     12  C   UNL     1      -6.060   1.668  -0.734  1.00  0.00     0.144 A 
ATOM     13  C   UNL     1      -4.421   2.272  -2.391  1.00  0.00     0.030 A 
ATOM     14  O   UNL     1      -6.491   1.229   0.491  1.00  0.00    -0.477 OA
ATOM     15  C   UNL     1      -7.081   1.910  -1.657  1.00  0.00     0.049 A 
ATOM     16  C   UNL     1      -5.445   2.519  -3.311  1.00  0.00     0.002 A 
ATOM     17  C   UNL     1      -6.774   2.333  -2.947  1.00  0.00     0.004 A 
BRANCH   9  18
ATOM     18  C   UNL     1      -2.325   1.709  -0.412  1.00  0.00     0.294 C 
ATOM     19  O   UNL     1      -1.959   2.782  -0.913  1.00  0.00    -0.265 OA
BRANCH  18  20
ATOM     20  C   UNL     1      -1.369   0.656  -0.101  1.00  0.00     0.192 A 
ATOM     21  C   UNL     1       2.143   0.014   0.213  1.00  0.00     0.087 C 
ATOM     22  C   UNL     1       0.677  -0.141   0.158  1.00  0.00     0.101 A 
ATOM     23  C   UNL     1      -0.165  -1.227   0.219  1.00  0.00     0.046 A 
ATOM     24  O   UNL     1      -0.042   0.999  -0.023  1.00  0.00    -0.456 OA
ATOM     25  C   UNL     1      -1.476  -0.720   0.040  1.00  0.00     0.056 A 
ENDBRANCH  18  20
ENDBRANCH   9  18
ENDBRANCH   5   8
ENDBRANCH   3   4
ENDBRANCH   2   3
ENDBRANCH   1   2
BRANCH   1  26
ATOM     26  C   UNL     1      -7.094  -4.672   2.124  1.00  0.00     0.116 C 
BRANCH  26  27
ATOM     27  N   UNL     1      -7.295  -5.208   0.789  1.00  0.00    -0.352 N 
ATOM     28  C   UNL     1      -7.950  -6.350   0.400  1.00  0.00     0.251 C 
ATOM     29  H   UNL     1      -6.907  -4.675   0.058  1.00  0.00     0.163 HD
ATOM     30  O   UNL     1      -7.909  -6.692  -0.779  1.00  0.00    -0.269 OA
BRANCH  28  31
ATOM     31  C   UNL     1      -8.671  -7.182   1.390  1.00  0.00     0.039 A 
ATOM     32  C   UNL     1      -8.550  -8.572   1.304  1.00  0.00     0.014 A 
ATOM     33  C   UNL     1      -9.489  -6.612   2.370  1.00  0.00     0.014 A 
ATOM     34  C   UNL     1      -9.212  -9.388   2.225  1.00  0.00     0.010 A 
ATOM     35  C   UNL     1     -10.107  -7.423   3.321  1.00  0.00     0.010 A 
ATOM     36  C   UNL     1      -9.982  -8.818   3.251  1.00  0.00    -0.014 A 
BRANCH  36  37
ATOM     37  C   UNL     1     -10.690  -9.672   4.235  1.00  0.00     0.031 A 
ATOM     38  C   UNL     1     -12.193  -9.742   4.226  1.00  0.00     0.074 A 
ATOM     39  C   UNL     1      -9.986 -10.347   5.164  1.00  0.00     0.049 A 
ATOM     40  N   UNL     1     -12.994 -10.387   5.033  1.00  0.00    -0.248 NA
ATOM     41  C   UNL     1     -12.885  -8.964   3.187  1.00  0.00     0.031 C 
ATOM     42  C   UNL     1      -8.529 -10.322   5.308  1.00  0.00     0.029 A 
ATOM     43  N   UNL     1     -10.405 -11.183   6.168  1.00  0.00    -0.354 N 
ATOM     44  C   UNL     1     -14.283 -10.075   4.617  1.00  0.00     0.074 A 
ATOM     45  C   UNL     1     -14.156  -9.157   3.505  1.00  0.00     0.031 C 
ATOM     46  C   UNL     1      -8.175 -11.121   6.328  1.00  0.00     0.029 A 
ATOM     47  C   UNL     1      -9.377 -11.701   6.918  1.00  0.00     0.049 A 
ATOM     48  H   UNL     1     -11.352 -11.393   6.334  1.00  0.00     0.167 HD
ATOM     49  C   UNL     1     -15.464 -10.524   5.105  1.00  0.00     0.037 A 
ATOM     50  C   UNL     1      -9.403 -12.555   7.959  1.00  0.00     0.037 A 
ATOM     51  C   UNL     1     -15.588 -11.466   6.185  1.00  0.00     0.049 A 
ATOM     52  C   UNL     1     -10.721 -13.102   8.431  1.00  0.00     0.074 A 
ATOM     53  C   UNL     1     -16.739 -12.003   6.737  1.00  0.00     0.029 A 
ATOM     54  N   UNL     1     -14.519 -12.028   6.866  1.00  0.00    -0.354 N 
ATOM     55  N   UNL     1     -11.929 -12.818   8.006  1.00  0.00    -0.248 NA
ATOM     56  C   UNL     1     -10.679 -14.097   9.511  1.00  0.00     0.031 C 
ATOM     57  C   UNL     1     -16.364 -12.887   7.757  1.00  0.00     0.029 A 
ATOM     58  C   UNL     1     -14.980 -12.915   7.824  1.00  0.00     0.049 A 
ATOM     59  H   UNL     1     -13.571 -11.826   6.694  1.00  0.00     0.167 HD
ATOM     60  C   UNL     1     -12.789 -13.620   8.747  1.00  0.00     0.074 A 
ATOM     61  C   UNL     1     -11.963 -14.403   9.644  1.00  0.00     0.031 C 
ATOM     62  C   UNL     1     -14.140 -13.701   8.690  1.00  0.00     0.037 A 
BRANCH  49  63
ATOM     63  C   UNL     1     -16.715  -9.998   4.462  1.00  0.00     0.058 A 
ATOM     64  C   UNL     1     -17.123 -10.437   3.193  1.00  0.00     0.135 A 
ATOM     65  C   UNL     1     -17.511  -9.047   5.117  1.00  0.00     0.135 A 
ATOM     66  F   UNL     1     -16.385 -11.332   2.518  1.00  0.00    -0.206 F 
ATOM     67  C   UNL     1     -18.262  -9.926   2.580  1.00  0.00     0.059 A 
ATOM     68  C   UNL     1     -18.666  -8.536   4.531  1.00  0.00     0.059 A 
ATOM     69  F   UNL     1     -17.162  -8.593   6.331  1.00  0.00    -0.206 F 
ATOM     70  C   UNL     1     -19.022  -8.968   3.253  1.00  0.00     0.060 A 
BRANCH  70  71
ATOM     71  S   UNL     1     -20.488  -8.293   2.445  1.00  0.00     0.124 S 
ATOM     72  O   UNL     1     -19.895  -7.291   1.564  1.00  0.00    -0.237 OA
ATOM     73  O   UNL     1     -21.054  -9.463   1.781  1.00  0.00    -0.237 OA
ATOM     74  O   UNL     1     -21.273  -7.767   3.557  1.00  0.00    -0.744 OA
ENDBRANCH  70  71
ENDBRANCH  49  63
BRANCH  50  75
ATOM     75  C   UNL     1      -8.132 -12.989   8.590  1.00  0.00     0.058 A 
ATOM     76  C   UNL     1      -7.601 -14.261   8.328  1.00  0.00     0.135 A 
ATOM     77  C   UNL     1      -7.417 -12.141   9.447  1.00  0.00     0.135 A 
ATOM     78  F   UNL     1      -8.255 -15.105   7.515  1.00  0.00    -0.206 F 
ATOM     79  C   UNL     1      -6.410 -14.685   8.906  1.00  0.00     0.059 A 
ATOM     80  C   UNL     1      -6.215 -12.537  10.025  1.00  0.00     0.059 A 
ATOM     81  F   UNL     1      -7.877 -10.909   9.711  1.00  0.00    -0.206 F 
ATOM     82  C   UNL     1      -5.724 -13.815   9.755  1.00  0.00     0.060 A 
BRANCH  82  83
ATOM     83  S   UNL     1      -4.149 -14.347  10.461  1.00  0.00     0.124 S 
ATOM     84  O   UNL     1      -4.593 -15.168  11.581  1.00  0.00    -0.237 OA
ATOM     85  O   UNL     1      -3.533 -15.063   9.348  1.00  0.00    -0.237 OA
ATOM     86  O   UNL     1      -3.504 -13.086  10.816  1.00  0.00    -0.744 OA
ENDBRANCH  82  83
ENDBRANCH  50  75
BRANCH  62  87
ATOM     87  C   UNL     1     -14.803 -14.703   9.588  1.00  0.00     0.058 A 
ATOM     88  C   UNL     1     -14.992 -14.451  10.955  1.00  0.00     0.135 A 
ATOM     89  C   UNL     1     -15.281 -15.915   9.066  1.00  0.00     0.135 A 
ATOM     90  F   UNL     1     -14.547 -13.308  11.499  1.00  0.00    -0.206 F 
ATOM     91  C   UNL     1     -15.614 -15.380  11.782  1.00  0.00     0.059 A 
ATOM     92  C   UNL     1     -15.919 -16.851   9.872  1.00  0.00     0.059 A 
ATOM     93  F   UNL     1     -15.128 -16.196   7.762  1.00  0.00    -0.206 F 
ATOM     94  C   UNL     1     -16.070 -16.580  11.232  1.00  0.00     0.060 A 
BRANCH  94  95
ATOM     95  S   UNL     1     -16.896 -17.776  12.303  1.00  0.00     0.124 S 
ATOM     96  O   UNL     1     -15.759 -18.459  12.910  1.00  0.00    -0.237 OA
ATOM     97  O   UNL     1     -17.673 -16.922  13.196  1.00  0.00    -0.237 OA
ATOM     98  O   UNL     1     -17.685 -18.574  11.368  1.00  0.00    -0.744 OA
ENDBRANCH  94  95
ENDBRANCH  62  87
ENDBRANCH  36  37
ENDBRANCH  28  31
ENDBRANCH  26  27
ENDBRANCH   1  26
TORSDOF 16
