REMARK SMILES C[C@@H](CCCO)[NH2+][C@@H](C)CC(=O)NCCCCNC(=O)c1ccc(-c2c3nc(c(-c4c(F)cc(S(=O)(=O)[O-])cc4F)c4ccc([nH]4)c(-c4c(F)cc(S(=O)(=O)[O-])cc4F)c4nc(c(-c5c(F)cc(S(=O)(=O)[O-])cc5F)c5ccc2[nH]5)C=C4)C=C3)cc1
REMARK SMILES IDX 11 1 12 2 13 3 10 5 8 6 9 7 7 8 2 11 1 12 3 13 4 14 5 15
REMARK SMILES IDX 6 16 14 18 15 19 16 20 17 21 18 22 19 23 20 25 21 26 22 27
REMARK SMILES IDX 86 28 23 29 85 30 24 31 25 32 26 33 79 34 27 35 84 36 78 37
REMARK SMILES IDX 80 38 28 39 83 40 77 41 76 42 29 44 63 45 42 46 62 47 43 48
REMARK SMILES IDX 46 49 61 50 81 51 44 52 45 53 60 55 82 56 47 57 30 58 31 59
REMARK SMILES IDX 40 60 32 61 33 62 39 63 41 64 34 65 35 66 36 67 37 68 38 69
REMARK SMILES IDX 64 70 65 71 74 72 66 73 67 74 73 75 75 76 68 77 69 78 70 79
REMARK SMILES IDX 71 80 72 81 48 82 49 83 58 84 50 85 51 86 57 87 59 88 52 89
REMARK SMILES IDX 53 90 54 91 55 92 56 93
REMARK H PARENT 13 4 7 9 7 10 6 17 18 24 80 43 46 54
REMARK Flexibility Score: inf
ROOT
ATOM      1  C   UNL     1      -3.461   2.012   1.918  1.00  0.00     0.225 C 
ATOM      2  O   UNL     1      -3.860   2.563   2.946  1.00  0.00    -0.275 OA
ATOM      3  N   UNL     1      -3.597   0.661   1.803  1.00  0.00    -0.356 N 
ATOM      4  H   UNL     1      -4.138   0.223   2.499  1.00  0.00     0.163 HD
ENDROOT
BRANCH   1   5
ATOM      5  C   UNL     1      -2.879   2.827   0.779  1.00  0.00     0.164 C 
BRANCH   5   6
ATOM      6  C   UNL     1      -1.344   3.007   0.845  1.00  0.00     0.188 C 
ATOM      7  C   UNL     1      -1.000   4.418   0.346  1.00  0.00     0.075 C 
BRANCH   6   8
ATOM      8  N   UNL     1      -0.717   1.967   0.005  1.00  0.00    -0.341 N 
ATOM      9  H   UNL     1      -0.962   1.061   0.404  1.00  0.00     0.346 HD
ATOM     10  H   UNL     1      -1.074   2.137  -0.935  1.00  0.00     0.346 HD
BRANCH   8  11
ATOM     11  C   UNL     1       0.745   2.008  -0.132  1.00  0.00     0.179 C 
ATOM     12  C   UNL     1       1.313   0.592   0.030  1.00  0.00     0.075 C 
BRANCH  11  13
ATOM     13  C   UNL     1       1.190   2.603  -1.490  1.00  0.00     0.067 C 
BRANCH  13  14
ATOM     14  C   UNL     1       0.864   1.816  -2.776  1.00  0.00     0.034 C 
BRANCH  14  15
ATOM     15  C   UNL     1      -0.611   1.585  -3.096  1.00  0.00     0.156 C 
BRANCH  15  16
ATOM     16  O   UNL     1      -1.363   2.758  -2.810  1.00  0.00    -0.396 OA
ATOM     17  H   UNL     1      -1.276   2.976  -1.869  1.00  0.00     0.210 HD
ENDBRANCH  15  16
ENDBRANCH  14  15
ENDBRANCH  13  14
ENDBRANCH  11  13
ENDBRANCH   8  11
ENDBRANCH   6   8
ENDBRANCH   5   6
ENDBRANCH   1   5
BRANCH   3  18
ATOM     18  C   UNL     1      -3.047  -0.214   0.787  1.00  0.00     0.116 C 
BRANCH  18  19
ATOM     19  C   UNL     1      -1.662  -0.710   1.190  1.00  0.00     0.023 C 
BRANCH  19  20
ATOM     20  C   UNL     1      -1.639  -1.882   2.162  1.00  0.00     0.023 C 
BRANCH  20  21
ATOM     21  C   UNL     1      -2.172  -3.182   1.587  1.00  0.00     0.116 C 
BRANCH  21  22
ATOM     22  N   UNL     1      -1.428  -3.659   0.429  1.00  0.00    -0.352 N 
ATOM     23  C   UNL     1      -1.165  -4.957   0.059  1.00  0.00     0.251 C 
ATOM     24  H   UNL     1      -1.067  -2.963  -0.165  1.00  0.00     0.163 HD
ATOM     25  O   UNL     1      -0.442  -5.187  -0.906  1.00  0.00    -0.269 OA
BRANCH  23  26
ATOM     26  C   UNL     1      -1.725  -6.068   0.860  1.00  0.00     0.039 A 
ATOM     27  C   UNL     1      -0.904  -7.149   1.188  1.00  0.00     0.014 A 
ATOM     28  C   UNL     1      -3.045  -6.026   1.317  1.00  0.00     0.014 A 
ATOM     29  C   UNL     1      -1.394  -8.160   2.018  1.00  0.00     0.010 A 
ATOM     30  C   UNL     1      -3.494  -6.973   2.226  1.00  0.00     0.010 A 
ATOM     31  C   UNL     1      -2.685  -8.067   2.563  1.00  0.00    -0.014 A 
BRANCH  31  32
ATOM     32  C   UNL     1      -3.238  -9.134   3.432  1.00  0.00     0.031 A 
ATOM     33  C   UNL     1      -4.456  -9.899   2.981  1.00  0.00     0.074 A 
ATOM     34  C   UNL     1      -2.687  -9.377   4.637  1.00  0.00     0.049 A 
ATOM     35  N   UNL     1      -5.131 -10.826   3.609  1.00  0.00    -0.248 NA
ATOM     36  C   UNL     1      -5.015  -9.544   1.664  1.00  0.00     0.031 C 
ATOM     37  C   UNL     1      -1.550  -8.656   5.213  1.00  0.00     0.029 A 
ATOM     38  N   UNL     1      -3.015 -10.299   5.599  1.00  0.00    -0.354 N 
ATOM     39  C   UNL     1      -6.199 -11.144   2.778  1.00  0.00     0.074 A 
ATOM     40  C   UNL     1      -6.125 -10.263   1.635  1.00  0.00     0.031 C 
ATOM     41  C   UNL     1      -1.254  -9.184   6.412  1.00  0.00     0.029 A 
ATOM     42  C   UNL     1      -2.195 -10.263   6.702  1.00  0.00     0.049 A 
ATOM     43  H   UNL     1      -3.766 -10.928   5.508  1.00  0.00     0.167 HD
ATOM     44  C   UNL     1      -7.138 -12.108   2.933  1.00  0.00     0.037 A 
ATOM     45  C   UNL     1      -2.198 -11.022   7.814  1.00  0.00     0.037 A 
ATOM     46  C   UNL     1      -7.173 -13.015   4.048  1.00  0.00     0.049 A 
ATOM     47  C   UNL     1      -3.212 -12.128   7.937  1.00  0.00     0.074 A 
ATOM     48  C   UNL     1      -8.043 -14.065   4.279  1.00  0.00     0.029 A 
ATOM     49  N   UNL     1      -6.285 -12.987   5.114  1.00  0.00    -0.354 N 
ATOM     50  N   UNL     1      -4.181 -12.453   7.114  1.00  0.00    -0.248 NA
ATOM     51  C   UNL     1      -3.121 -12.983   9.127  1.00  0.00     0.031 C 
ATOM     52  C   UNL     1      -7.696 -14.658   5.498  1.00  0.00     0.029 A 
ATOM     53  C   UNL     1      -6.584 -14.003   6.004  1.00  0.00     0.049 A 
ATOM     54  H   UNL     1      -5.550 -12.341   5.220  1.00  0.00     0.167 HD
ATOM     55  C   UNL     1      -4.791 -13.574   7.668  1.00  0.00     0.074 A 
ATOM     56  C   UNL     1      -4.076 -13.873   8.892  1.00  0.00     0.031 C 
ATOM     57  C   UNL     1      -5.844 -14.293   7.206  1.00  0.00     0.037 A 
BRANCH  44  58
ATOM     58  C   UNL     1      -8.183 -12.238   1.859  1.00  0.00     0.058 A 
ATOM     59  C   UNL     1      -7.863 -12.702   0.572  1.00  0.00     0.135 A 
ATOM     60  C   UNL     1      -9.522 -11.906   2.119  1.00  0.00     0.135 A 
ATOM     61  F   UNL     1      -6.595 -13.014   0.261  1.00  0.00    -0.206 F 
ATOM     62  C   UNL     1      -8.825 -12.798  -0.428  1.00  0.00     0.059 A 
ATOM     63  C   UNL     1     -10.507 -12.023   1.142  1.00  0.00     0.059 A 
ATOM     64  F   UNL     1      -9.884 -11.454   3.330  1.00  0.00    -0.206 F 
ATOM     65  C   UNL     1     -10.145 -12.454  -0.134  1.00  0.00     0.060 A 
BRANCH  65  66
ATOM     66  S   UNL     1     -11.382 -12.585  -1.442  1.00  0.00     0.124 S 
ATOM     67  O   UNL     1     -11.057 -11.423  -2.265  1.00  0.00    -0.237 OA
ATOM     68  O   UNL     1     -11.078 -13.884  -2.032  1.00  0.00    -0.237 OA
ATOM     69  O   UNL     1     -12.648 -12.508  -0.720  1.00  0.00    -0.744 OA
ENDBRANCH  65  66
ENDBRANCH  44  58
BRANCH  45  70
ATOM     70  C   UNL     1      -1.174 -10.804   8.870  1.00  0.00     0.058 A 
ATOM     71  C   UNL     1      -0.135 -11.726   9.069  1.00  0.00     0.135 A 
ATOM     72  C   UNL     1      -1.206  -9.670   9.696  1.00  0.00     0.135 A 
ATOM     73  F   UNL     1      -0.063 -12.827   8.305  1.00  0.00    -0.206 F 
ATOM     74  C   UNL     1       0.821 -11.547  10.063  1.00  0.00     0.059 A 
ATOM     75  C   UNL     1      -0.247  -9.455  10.681  1.00  0.00     0.059 A 
ATOM     76  F   UNL     1      -2.166  -8.746   9.533  1.00  0.00    -0.206 F 
ATOM     77  C   UNL     1       0.756 -10.407  10.866  1.00  0.00     0.060 A 
BRANCH  77  78
ATOM     78  S   UNL     1       2.025 -10.164  12.128  1.00  0.00     0.124 S 
ATOM     79  O   UNL     1       1.620 -11.131  13.141  1.00  0.00    -0.237 OA
ATOM     80  O   UNL     1       3.249 -10.477  11.399  1.00  0.00    -0.237 OA
ATOM     81  O   UNL     1       1.865  -8.760  12.496  1.00  0.00    -0.744 OA
ENDBRANCH  77  78
ENDBRANCH  45  70
BRANCH  57  82
ATOM     82  C   UNL     1      -6.247 -15.506   7.996  1.00  0.00     0.058 A 
ATOM     83  C   UNL     1      -6.898 -15.402   9.235  1.00  0.00     0.135 A 
ATOM     84  C   UNL     1      -6.003 -16.791   7.486  1.00  0.00     0.135 A 
ATOM     85  F   UNL     1      -7.153 -14.196   9.765  1.00  0.00    -0.206 F 
ATOM     86  C   UNL     1      -7.261 -16.533   9.959  1.00  0.00     0.059 A 
ATOM     87  C   UNL     1      -6.382 -17.935   8.180  1.00  0.00     0.059 A 
ATOM     88  F   UNL     1      -5.396 -16.945   6.298  1.00  0.00    -0.206 F 
ATOM     89  C   UNL     1      -6.994 -17.795   9.425  1.00  0.00     0.060 A 
BRANCH  89  90
ATOM     90  S   UNL     1      -7.474 -19.256  10.369  1.00  0.00     0.124 S 
ATOM     91  O   UNL     1      -6.431 -19.302  11.388  1.00  0.00    -0.237 OA
ATOM     92  O   UNL     1      -8.809 -18.900  10.843  1.00  0.00    -0.237 OA
ATOM     93  O   UNL     1      -7.434 -20.328   9.378  1.00  0.00    -0.744 OA
ENDBRANCH  89  90
ENDBRANCH  57  82
ENDBRANCH  31  32
ENDBRANCH  23  26
ENDBRANCH  21  22
ENDBRANCH  20  21
ENDBRANCH  19  20
ENDBRANCH  18  19
ENDBRANCH   3  18
TORSDOF 21
