REMARK SMILES O=C(NCCCCNC(=O)c1cc(Cl)c2c(c1)[C@H]1C=CC[C@H]1[C@H](c1ccc(S(=O)(=O)N3CCOCC3)cc1)N2)c1ccc(-c2c3nc(c(-c4c(F)cc(S(=O)(=O)[O-])cc4F)c4ccc([nH]4)c(-c4c(F)cc(S(=O)(=O)[O-])cc4F)c4nc(c(-c5c(F)cc(S(=O)(=O)[O-])cc5F)c5ccc2[nH]5)C=C4)C=C3)cc1
REMARK SMILES IDX 5 1 4 2 3 3 1 4 2 5 40 7 41 8 105 9 42 10 104 11 43 12 44 13
REMARK SMILES IDX 45 14 98 15 46 16 103 17 97 18 99 19 47 20 102 21 96 22
REMARK SMILES IDX 95 23 48 25 82 26 61 27 81 28 62 29 65 30 80 31 100 32 63 33
REMARK SMILES IDX 64 34 79 36 101 37 66 38 49 39 50 40 59 41 51 42 52 43 58 44
REMARK SMILES IDX 60 45 53 46 54 47 55 48 56 49 57 50 83 51 84 52 93 53 85 54
REMARK SMILES IDX 86 55 92 56 94 57 87 58 88 59 89 60 90 61 91 62 67 63 68 64
REMARK SMILES IDX 77 65 69 66 70 67 76 68 78 69 71 70 72 71 73 72 74 73 75 74
REMARK SMILES IDX 6 75 7 76 8 77 9 78 10 80 11 81 12 82 17 83 13 84 16 85
REMARK SMILES IDX 14 86 15 87 18 88 39 89 19 90 22 91 23 92 20 94 21 95 24 96
REMARK SMILES IDX 25 97 38 98 26 99 37 100 27 101 28 102 29 103 30 104 31 105
REMARK SMILES IDX 32 106 36 107 33 108 35 109 34 110
REMARK H PARENT 3 6 99 24 65 35 8 79 39 93
REMARK Flexibility Score: inf
ROOT
ATOM      1  C   UNL     1       5.033   0.591   2.416  1.00  0.00     0.023 C 
ENDROOT
BRANCH   1   2
ATOM      2  C   UNL     1       4.647  -0.193   1.167  1.00  0.00     0.116 C 
BRANCH   2   3
ATOM      3  N   UNL     1       3.208  -0.364   1.031  1.00  0.00    -0.352 N 
ATOM      4  O   UNL     1       1.191  -0.153   0.036  1.00  0.00    -0.269 OA
ATOM      5  C   UNL     1       2.411  -0.075  -0.052  1.00  0.00     0.251 C 
ATOM      6  H   UNL     1       2.745  -0.734   1.816  1.00  0.00     0.163 HD
BRANCH   5   7
ATOM      7  C   UNL     1       3.047   0.366  -1.309  1.00  0.00     0.039 A 
ATOM      8  C   UNL     1       4.066  -0.395  -1.890  1.00  0.00     0.014 A 
ATOM      9  C   UNL     1       2.652   1.579  -1.877  1.00  0.00     0.014 A 
ATOM     10  C   UNL     1       4.776   0.119  -2.970  1.00  0.00     0.010 A 
ATOM     11  C   UNL     1       3.336   2.071  -2.991  1.00  0.00     0.010 A 
ATOM     12  C   UNL     1       4.426   1.362  -3.521  1.00  0.00    -0.014 A 
BRANCH  12  13
ATOM     13  C   UNL     1       5.213   1.917  -4.649  1.00  0.00     0.031 A 
ATOM     14  C   UNL     1       6.130   3.090  -4.431  1.00  0.00     0.074 A 
ATOM     15  C   UNL     1       5.130   1.331  -5.858  1.00  0.00     0.049 A 
ATOM     16  N   UNL     1       6.878   3.722  -5.298  1.00  0.00    -0.248 NA
ATOM     17  C   UNL     1       6.226   3.617  -3.059  1.00  0.00     0.031 C 
ATOM     18  C   UNL     1       4.303   0.165  -6.176  1.00  0.00     0.029 A 
ATOM     19  N   UNL     1       5.759   1.627  -7.040  1.00  0.00    -0.354 N 
ATOM     20  C   UNL     1       7.543   4.710  -4.580  1.00  0.00     0.074 A 
ATOM     21  C   UNL     1       7.081   4.620  -3.212  1.00  0.00     0.031 C 
ATOM     22  C   UNL     1       4.496  -0.172  -7.462  1.00  0.00     0.029 A 
ATOM     23  C   UNL     1       5.422   0.780  -8.068  1.00  0.00     0.049 A 
ATOM     24  H   UNL     1       6.391   2.374  -7.142  1.00  0.00     0.167 HD
ATOM     25  C   UNL     1       8.466   5.597  -5.022  1.00  0.00     0.037 A 
ATOM     26  C   UNL     1       5.806   0.781  -9.358  1.00  0.00     0.037 A 
ATOM     27  C   UNL     1       8.917   5.687  -6.387  1.00  0.00     0.049 A 
ATOM     28  C   UNL     1       6.756   1.843  -9.838  1.00  0.00     0.074 A 
ATOM     29  C   UNL     1       9.827   6.574  -6.937  1.00  0.00     0.029 A 
ATOM     30  N   UNL     1       8.500   4.857  -7.416  1.00  0.00    -0.354 N 
ATOM     31  N   UNL     1       7.351   2.790  -9.153  1.00  0.00    -0.248 NA
ATOM     32  C   UNL     1       7.079   1.842 -11.272  1.00  0.00     0.031 C 
ATOM     33  C   UNL     1       9.939   6.298  -8.304  1.00  0.00     0.029 A 
ATOM     34  C   UNL     1       9.126   5.216  -8.598  1.00  0.00     0.049 A 
ATOM     35  H   UNL     1       7.853   4.120  -7.320  1.00  0.00     0.167 HD
ATOM     36  C   UNL     1       8.134   3.483 -10.068  1.00  0.00     0.074 A 
ATOM     37  C   UNL     1       7.949   2.838 -11.352  1.00  0.00     0.031 C 
ATOM     38  C   UNL     1       8.932   4.560  -9.865  1.00  0.00     0.037 A 
BRANCH  25  39
ATOM     39  C   UNL     1       9.070   6.542  -4.021  1.00  0.00     0.058 A 
ATOM     40  C   UNL     1      10.046   6.108  -3.111  1.00  0.00     0.135 A 
ATOM     41  C   UNL     1       8.741   7.907  -4.030  1.00  0.00     0.135 A 
ATOM     42  F   UNL     1      10.382   4.810  -3.049  1.00  0.00    -0.206 F 
ATOM     43  C   UNL     1      10.678   6.995  -2.246  1.00  0.00     0.059 A 
ATOM     44  C   UNL     1       9.374   8.816  -3.186  1.00  0.00     0.059 A 
ATOM     45  F   UNL     1       7.810   8.372  -4.878  1.00  0.00    -0.206 F 
ATOM     46  C   UNL     1      10.340   8.349  -2.296  1.00  0.00     0.060 A 
BRANCH  46  47
ATOM     47  S   UNL     1      11.203   9.491  -1.194  1.00  0.00     0.124 S 
ATOM     48  O   UNL     1      10.657   9.111   0.105  1.00  0.00    -0.237 OA
ATOM     49  O   UNL     1      12.602   9.142  -1.420  1.00  0.00    -0.237 OA
ATOM     50  O   UNL     1      10.800  10.806  -1.682  1.00  0.00    -0.744 OA
ENDBRANCH  46  47
ENDBRANCH  25  39
BRANCH  26  51
ATOM     51  C   UNL     1       5.290  -0.248 -10.297  1.00  0.00     0.058 A 
ATOM     52  C   UNL     1       6.140  -1.232 -10.820  1.00  0.00     0.135 A 
ATOM     53  C   UNL     1       3.949  -0.250 -10.711  1.00  0.00     0.135 A 
ATOM     54  F   UNL     1       7.431  -1.265 -10.457  1.00  0.00    -0.206 F 
ATOM     55  C   UNL     1       5.687  -2.167 -11.744  1.00  0.00     0.059 A 
ATOM     56  C   UNL     1       3.467  -1.190 -11.615  1.00  0.00     0.059 A 
ATOM     57  F   UNL     1       3.094   0.664 -10.227  1.00  0.00    -0.206 F 
ATOM     58  C   UNL     1       4.349  -2.134 -12.139  1.00  0.00     0.060 A 
BRANCH  58  59
ATOM     59  S   UNL     1       3.767  -3.357 -13.333  1.00  0.00     0.124 S 
ATOM     60  O   UNL     1       4.338  -2.848 -14.574  1.00  0.00    -0.237 OA
ATOM     61  O   UNL     1       4.353  -4.592 -12.819  1.00  0.00    -0.237 OA
ATOM     62  O   UNL     1       2.314  -3.268 -13.221  1.00  0.00    -0.744 OA
ENDBRANCH  58  59
ENDBRANCH  26  51
BRANCH  38  63
ATOM     63  C   UNL     1       9.682   5.089 -11.054  1.00  0.00     0.058 A 
ATOM     64  C   UNL     1       9.034   5.819 -12.063  1.00  0.00     0.135 A 
ATOM     65  C   UNL     1      11.066   4.886 -11.173  1.00  0.00     0.135 A 
ATOM     66  F   UNL     1       7.710   6.032 -11.998  1.00  0.00    -0.206 F 
ATOM     67  C   UNL     1       9.729   6.307 -13.164  1.00  0.00     0.059 A 
ATOM     68  C   UNL     1      11.785   5.386 -12.254  1.00  0.00     0.059 A 
ATOM     69  F   UNL     1      11.733   4.203 -10.229  1.00  0.00    -0.206 F 
ATOM     70  C   UNL     1      11.104   6.083 -13.252  1.00  0.00     0.060 A 
BRANCH  70  71
ATOM     71  S   UNL     1      11.998   6.736 -14.678  1.00  0.00     0.124 S 
ATOM     72  O   UNL     1      11.596   5.805 -15.728  1.00  0.00    -0.237 OA
ATOM     73  O   UNL     1      11.461   8.089 -14.791  1.00  0.00    -0.237 OA
ATOM     74  O   UNL     1      13.396   6.656 -14.269  1.00  0.00    -0.744 OA
ENDBRANCH  70  71
ENDBRANCH  38  63
ENDBRANCH  12  13
ENDBRANCH   5   7
ENDBRANCH   2   3
ENDBRANCH   1   2
BRANCH   1  75
ATOM     75  C   UNL     1       4.602  -0.040   3.738  1.00  0.00     0.023 C 
BRANCH  75  76
ATOM     76  C   UNL     1       4.982  -1.507   3.907  1.00  0.00     0.116 C 
BRANCH  76  77
ATOM     77  N   UNL     1       6.419  -1.729   3.853  1.00  0.00    -0.352 N 
ATOM     78  C   UNL     1       7.223  -2.339   4.782  1.00  0.00     0.251 C 
ATOM     79  H   UNL     1       6.873  -1.399   3.044  1.00  0.00     0.163 HD
ATOM     80  O   UNL     1       8.440  -2.378   4.658  1.00  0.00    -0.269 OA
BRANCH  78  81
ATOM     81  C   UNL     1       6.590  -2.917   5.976  1.00  0.00     0.041 A 
ATOM     82  C   UNL     1       5.642  -3.930   5.854  1.00  0.00     0.036 A 
ATOM     83  C   UNL     1       6.911  -2.380   7.220  1.00  0.00     0.020 A 
ATOM     84  C   UNL     1       4.930  -4.320   6.982  1.00  0.00     0.065 A 
ATOM     85  C   UNL     1       6.212  -2.796   8.362  1.00  0.00    -0.015 A 
ATOM     86  Cl  UNL     1       3.691  -5.514   6.791  1.00  0.00    -0.082 Cl
ATOM     87  C   UNL     1       5.170  -3.729   8.240  1.00  0.00     0.057 A 
ATOM     88  C   UNL     1       6.617  -2.252   9.701  1.00  0.00     0.049 C 
ATOM     89  N   UNL     1       4.438  -4.113   9.355  1.00  0.00    -0.376 N 
ATOM     90  C   UNL     1       6.276  -0.804   9.935  1.00  0.00    -0.023 C 
ATOM     91  C   UNL     1       5.953  -2.939  10.913  1.00  0.00     0.031 C 
ATOM     92  C   UNL     1       4.491  -3.329  10.578  1.00  0.00     0.114 C 
ATOM     93  H   UNL     1       3.880  -4.923   9.317  1.00  0.00     0.161 HD
ATOM     94  C   UNL     1       5.989  -0.585  11.223  1.00  0.00    -0.030 C 
ATOM     95  C   UNL     1       6.082  -1.856  12.006  1.00  0.00     0.034 C 
BRANCH  92  96
ATOM     96  C   UNL     1       3.841  -4.129  11.701  1.00  0.00    -0.025 A 
ATOM     97  C   UNL     1       3.850  -5.537  11.751  1.00  0.00     0.007 A 
ATOM     98  C   UNL     1       3.237  -3.434  12.751  1.00  0.00     0.007 A 
ATOM     99  C   UNL     1       3.298  -6.223  12.839  1.00  0.00     0.022 A 
ATOM    100  C   UNL     1       2.731  -4.113  13.851  1.00  0.00     0.022 A 
ATOM    101  C   UNL     1       2.758  -5.502  13.903  1.00  0.00     0.082 A 
BRANCH 101 102
ATOM    102  S   UNL     1       2.146  -6.379  15.324  1.00  0.00     0.243 S 
ATOM    103  O   UNL     1       0.831  -6.872  14.964  1.00  0.00    -0.207 OA
ATOM    104  O   UNL     1       3.204  -7.268  15.745  1.00  0.00    -0.207 OA
BRANCH 102 105
ATOM    105  N   UNL     1       1.956  -5.212  16.512  1.00  0.00    -0.193 NA
ATOM    106  C   UNL     1       0.700  -4.454  16.683  1.00  0.00     0.131 C 
ATOM    107  C   UNL     1       3.053  -4.846  17.426  1.00  0.00     0.131 C 
ATOM    108  C   UNL     1       0.960  -2.949  16.869  1.00  0.00     0.177 C 
ATOM    109  C   UNL     1       3.221  -3.326  17.473  1.00  0.00     0.177 C 
ATOM    110  O   UNL     1       1.991  -2.678  17.827  1.00  0.00    -0.379 OA
ENDBRANCH 102 105
ENDBRANCH 101 102
ENDBRANCH  92  96
ENDBRANCH  78  81
ENDBRANCH  76  77
ENDBRANCH  75  76
ENDBRANCH   1  75
TORSDOF 17
