REMARK SMILES CC(C)CN(C)c1ccc([N+](=O)[O-])cc1C(=O)NCCCCNC(=O)c1ccc(-c2c3nc(c(-c4c(F)cc(S(=O)(=O)[O-])cc4F)c4ccc([nH]4)c(-c4c(F)cc(S(=O)(=O)[O-])cc4F)c4nc(c(-c5c(F)cc(S(=O)(=O)[O-])cc5F)c5ccc2[nH]5)C=C4)C=C3)cc1
REMARK SMILES IDX 20 1 19 2 18 3 16 4 17 5 15 7 7 8 8 9 9 10 14 11 10 12 5 13
REMARK SMILES IDX 6 14 4 15 2 16 1 17 3 18 11 19 12 20 13 21 21 22 22 23 23 24
REMARK SMILES IDX 24 25 25 27 26 28 27 29 91 30 28 31 90 32 29 33 30 34 31 35
REMARK SMILES IDX 84 36 32 37 89 38 83 39 85 40 33 41 88 42 82 43 81 44 34 46
REMARK SMILES IDX 68 47 47 48 67 49 48 50 51 51 66 52 86 53 49 54 50 55 65 57
REMARK SMILES IDX 87 58 52 59 35 60 36 61 45 62 37 63 38 64 44 65 46 66 39 67
REMARK SMILES IDX 40 68 41 69 42 70 43 71 69 72 70 73 79 74 71 75 72 76 78 77
REMARK SMILES IDX 80 78 73 79 74 80 75 81 76 82 77 83 53 84 54 85 63 86 55 87
REMARK SMILES IDX 56 88 62 89 64 90 57 91 58 92 59 93 60 94 61 95
REMARK H PARENT 18 6 23 26 85 45 51 56
REMARK Flexibility Score: inf
ROOT
ATOM      1  C   UNL     1       0.107  -3.385   3.280  1.00  0.00     0.023 C 
ENDROOT
BRANCH   1   2
ATOM      2  C   UNL     1      -0.077  -2.800   1.882  1.00  0.00     0.116 C 
BRANCH   2   3
ATOM      3  N   UNL     1       1.135  -2.416   1.196  1.00  0.00    -0.352 N 
ATOM      4  C   UNL     1       1.310  -1.882  -0.063  1.00  0.00     0.253 C 
ATOM      5  O   UNL     1       2.471  -1.630  -0.401  1.00  0.00    -0.269 OA
ATOM      6  H   UNL     1       1.964  -2.557   1.707  1.00  0.00     0.163 HD
BRANCH   4   7
ATOM      7  C   UNL     1       0.220  -1.640  -1.074  1.00  0.00     0.069 A 
ATOM      8  C   UNL     1      -1.103  -1.182  -0.839  1.00  0.00     0.050 A 
ATOM      9  C   UNL     1      -1.983  -1.095  -1.948  1.00  0.00     0.034 A 
ATOM     10  C   UNL     1      -1.567  -1.330  -3.257  1.00  0.00     0.088 A 
ATOM     11  C   UNL     1       0.649  -1.817  -2.415  1.00  0.00     0.101 A 
ATOM     12  C   UNL     1      -0.233  -1.639  -3.487  1.00  0.00     0.270 A 
BRANCH   8  13
ATOM     13  N   UNL     1      -1.578  -0.733   0.397  1.00  0.00    -0.374 N 
ATOM     14  C   UNL     1      -2.858  -1.307   0.838  1.00  0.00     0.143 C 
BRANCH  13  15
ATOM     15  C   UNL     1      -1.338   0.679   0.792  1.00  0.00     0.119 C 
BRANCH  15  16
ATOM     16  C   UNL     1       0.146   1.050   0.997  1.00  0.00     0.002 C 
ATOM     17  C   UNL     1       0.766   1.662  -0.263  1.00  0.00     0.009 C 
ATOM     18  C   UNL     1       0.332   2.035   2.157  1.00  0.00     0.009 C 
ENDBRANCH  15  16
ENDBRANCH  13  15
ENDBRANCH   8  13
BRANCH  12  19
ATOM     19  N   UNL     1       0.250  -1.734  -4.868  1.00  0.00     0.062 N 
ATOM     20  O   UNL     1      -0.592  -1.935  -5.756  1.00  0.00    -0.258 OA
ATOM     21  O   UNL     1       1.462  -1.585  -5.068  1.00  0.00    -0.258 OA
ENDBRANCH  12  19
ENDBRANCH   4   7
ENDBRANCH   2   3
ENDBRANCH   1   2
BRANCH   1  22
ATOM     22  C   UNL     1       0.612  -2.403   4.351  1.00  0.00     0.023 C 
BRANCH  22  23
ATOM     23  C   UNL     1      -0.146  -1.082   4.511  1.00  0.00     0.116 C 
BRANCH  23  24
ATOM     24  N   UNL     1      -1.507  -1.210   5.007  1.00  0.00    -0.352 N 
ATOM     25  C   UNL     1      -2.082  -0.837   6.205  1.00  0.00     0.251 C 
ATOM     26  H   UNL     1      -2.130  -1.639   4.376  1.00  0.00     0.163 HD
ATOM     27  O   UNL     1      -3.269  -1.068   6.389  1.00  0.00    -0.269 OA
BRANCH  25  28
ATOM     28  C   UNL     1      -1.280  -0.216   7.290  1.00  0.00     0.039 A 
ATOM     29  C   UNL     1      -1.433  -0.717   8.588  1.00  0.00     0.014 A 
ATOM     30  C   UNL     1      -0.411   0.854   7.068  1.00  0.00     0.014 A 
ATOM     31  C   UNL     1      -0.646  -0.220   9.632  1.00  0.00     0.010 A 
ATOM     32  C   UNL     1       0.425   1.303   8.097  1.00  0.00     0.010 A 
ATOM     33  C   UNL     1       0.331   0.759   9.387  1.00  0.00    -0.014 A 
BRANCH  33  34
ATOM     34  C   UNL     1       1.282   1.173  10.459  1.00  0.00     0.031 A 
ATOM     35  C   UNL     1       1.306   2.588  10.976  1.00  0.00     0.074 A 
ATOM     36  C   UNL     1       2.171   0.277  10.938  1.00  0.00     0.049 A 
ATOM     37  N   UNL     1       2.086   3.123  11.882  1.00  0.00    -0.248 NA
ATOM     38  C   UNL     1       0.342   3.529  10.387  1.00  0.00     0.031 C 
ATOM     39  C   UNL     1       2.295  -1.112  10.489  1.00  0.00     0.029 A 
ATOM     40  N   UNL     1       3.144   0.399  11.900  1.00  0.00    -0.354 N 
ATOM     41  C   UNL     1       1.717   4.460  11.964  1.00  0.00     0.074 A 
ATOM     42  C   UNL     1       0.673   4.666  10.982  1.00  0.00     0.031 C 
ATOM     43  C   UNL     1       3.268  -1.717  11.188  1.00  0.00     0.029 A 
ATOM     44  C   UNL     1       3.864  -0.755  12.110  1.00  0.00     0.049 A 
ATOM     45  H   UNL     1       3.311   1.234  12.394  1.00  0.00     0.167 HD
ATOM     46  C   UNL     1       2.189   5.424  12.793  1.00  0.00     0.037 A 
ATOM     47  C   UNL     1       4.893  -1.014  12.942  1.00  0.00     0.037 A 
ATOM     48  C   UNL     1       3.216   5.215  13.784  1.00  0.00     0.049 A 
ATOM     49  C   UNL     1       5.395   0.070  13.857  1.00  0.00     0.074 A 
ATOM     50  C   UNL     1       3.716   6.118  14.707  1.00  0.00     0.029 A 
ATOM     51  N   UNL     1       3.904   4.027  13.979  1.00  0.00    -0.354 N 
ATOM     52  N   UNL     1       4.984   1.310  13.967  1.00  0.00    -0.248 NA
ATOM     53  C   UNL     1       6.492  -0.283  14.768  1.00  0.00     0.031 C 
ATOM     54  C   UNL     1       4.737   5.490  15.429  1.00  0.00     0.029 A 
ATOM     55  C   UNL     1       4.837   4.179  14.993  1.00  0.00     0.049 A 
ATOM     56  H   UNL     1       3.752   3.197  13.472  1.00  0.00     0.167 HD
ATOM     57  C   UNL     1       5.752   1.877  14.979  1.00  0.00     0.074 A 
ATOM     58  C   UNL     1       6.644   0.840  15.456  1.00  0.00     0.031 C 
ATOM     59  C   UNL     1       5.718   3.141  15.469  1.00  0.00     0.037 A 
BRANCH  46  60
ATOM     60  C   UNL     1       1.597   6.804  12.670  1.00  0.00     0.058 A 
ATOM     61  C   UNL     1       0.282   7.081  13.076  1.00  0.00     0.135 A 
ATOM     62  C   UNL     1       2.369   7.872  12.183  1.00  0.00     0.135 A 
ATOM     63  F   UNL     1      -0.504   6.097  13.539  1.00  0.00    -0.206 F 
ATOM     64  C   UNL     1      -0.258   8.359  12.974  1.00  0.00     0.059 A 
ATOM     65  C   UNL     1       1.859   9.165  12.099  1.00  0.00     0.059 A 
ATOM     66  F   UNL     1       3.634   7.666  11.784  1.00  0.00    -0.206 F 
ATOM     67  C   UNL     1       0.539   9.395  12.483  1.00  0.00     0.060 A 
BRANCH  67  68
ATOM     68  S   UNL     1      -0.177  11.048  12.358  1.00  0.00     0.124 S 
ATOM     69  O   UNL     1      -1.080  10.888  11.222  1.00  0.00    -0.237 OA
ATOM     70  O   UNL     1      -0.820  11.209  13.659  1.00  0.00    -0.237 OA
ATOM     71  O   UNL     1       0.981  11.904  12.123  1.00  0.00    -0.744 OA
ENDBRANCH  67  68
ENDBRANCH  46  60
BRANCH  47  72
ATOM     72  C   UNL     1       5.505  -2.371  12.965  1.00  0.00     0.058 A 
ATOM     73  C   UNL     1       5.328  -3.226  14.063  1.00  0.00     0.135 A 
ATOM     74  C   UNL     1       6.268  -2.843  11.886  1.00  0.00     0.135 A 
ATOM     75  F   UNL     1       4.613  -2.817  15.122  1.00  0.00    -0.206 F 
ATOM     76  C   UNL     1       5.899  -4.494  14.099  1.00  0.00     0.059 A 
ATOM     77  C   UNL     1       6.827  -4.117  11.886  1.00  0.00     0.059 A 
ATOM     78  F   UNL     1       6.454  -2.070  10.804  1.00  0.00    -0.206 F 
ATOM     79  C   UNL     1       6.644  -4.933  13.003  1.00  0.00     0.060 A 
BRANCH  79  80
ATOM     80  S   UNL     1       7.335  -6.601  13.037  1.00  0.00     0.124 S 
ATOM     81  O   UNL     1       8.430  -6.446  13.988  1.00  0.00    -0.237 OA
ATOM     82  O   UNL     1       6.198  -7.394  13.494  1.00  0.00    -0.237 OA
ATOM     83  O   UNL     1       7.730  -6.828  11.650  1.00  0.00    -0.744 OA
ENDBRANCH  79  80
ENDBRANCH  47  72
BRANCH  59  84
ATOM     84  C   UNL     1       6.644   3.469  16.609  1.00  0.00     0.058 A 
ATOM     85  C   UNL     1       8.030   3.594  16.428  1.00  0.00     0.135 A 
ATOM     86  C   UNL     1       6.130   3.699  17.896  1.00  0.00     0.135 A 
ATOM     87  F   UNL     1       8.575   3.379  15.220  1.00  0.00    -0.206 F 
ATOM     88  C   UNL     1       8.877   3.908  17.487  1.00  0.00     0.059 A 
ATOM     89  C   UNL     1       6.955   4.042  18.964  1.00  0.00     0.059 A 
ATOM     90  F   UNL     1       4.810   3.603  18.125  1.00  0.00    -0.206 F 
ATOM     91  C   UNL     1       8.330   4.129  18.752  1.00  0.00     0.060 A 
BRANCH  91  92
ATOM     92  S   UNL     1       9.436   4.557  20.113  1.00  0.00     0.124 S 
ATOM     93  O   UNL     1      10.066   3.271  20.395  1.00  0.00    -0.237 OA
ATOM     94  O   UNL     1      10.300   5.567  19.510  1.00  0.00    -0.237 OA
ATOM     95  O   UNL     1       8.530   5.052  21.145  1.00  0.00    -0.744 OA
ENDBRANCH  91  92
ENDBRANCH  59  84
ENDBRANCH  33  34
ENDBRANCH  25  28
ENDBRANCH  23  24
ENDBRANCH  22  23
ENDBRANCH   1  22
TORSDOF 18
