REMARK SMILES O=C(NCCCCNC(=O)c1nccnc1C(=O)Nc1ccc2c(c1)OCO2)c1ccc(-c2c3nc(c(-c4c(F)cc(S(=O)(=O)[O-])cc4F)c4ccc([nH]4)c(-c4c(F)cc(S(=O)(=O)[O-])cc4F)c4nc(c(-c5c(F)cc(S(=O)(=O)[O-])cc5F)c5ccc2[nH]5)C=C4)C=C3)cc1
REMARK SMILES IDX 5 1 4 2 3 3 1 4 2 5 29 7 30 8 94 9 31 10 93 11 32 12 33 13
REMARK SMILES IDX 34 14 87 15 35 16 92 17 86 18 88 19 36 20 91 21 85 22 84 23
REMARK SMILES IDX 37 25 71 26 50 27 70 28 51 29 54 30 69 31 89 32 52 33 53 34
REMARK SMILES IDX 68 36 90 37 55 38 38 39 39 40 48 41 40 42 41 43 47 44 49 45
REMARK SMILES IDX 42 46 43 47 44 48 45 49 46 50 72 51 73 52 82 53 74 54 75 55
REMARK SMILES IDX 81 56 83 57 76 58 77 59 78 60 79 61 80 62 56 63 57 64 66 65
REMARK SMILES IDX 58 66 59 67 65 68 67 69 60 70 61 71 62 72 63 73 64 74 6 75
REMARK SMILES IDX 7 76 8 77 9 78 10 80 11 81 12 82 16 83 13 84 15 85 14 86
REMARK SMILES IDX 17 87 18 88 19 89 20 91 21 92 25 93 22 94 24 95 23 96 26 97
REMARK SMILES IDX 28 98 27 99
REMARK H PARENT 3 6 88 24 54 35 8 79 19 90
REMARK Flexibility Score: inf
ROOT
ATOM      1  C   UNL     1       4.035   0.404  -3.103  1.00  0.00     0.023 C 
ENDROOT
BRANCH   1   2
ATOM      2  C   UNL     1       4.091   0.562  -1.587  1.00  0.00     0.116 C 
BRANCH   2   3
ATOM      3  N   UNL     1       2.773   0.699  -0.993  1.00  0.00    -0.352 N 
ATOM      4  O   UNL     1       1.044   0.123   0.331  1.00  0.00    -0.269 OA
ATOM      5  C   UNL     1       2.246   0.031   0.091  1.00  0.00     0.251 C 
ATOM      6  H   UNL     1       2.177   1.357  -1.421  1.00  0.00     0.163 HD
BRANCH   5   7
ATOM      7  C   UNL     1       3.112  -0.806   0.960  1.00  0.00     0.039 A 
ATOM      8  C   UNL     1       4.374  -0.361   1.362  1.00  0.00     0.014 A 
ATOM      9  C   UNL     1       2.631  -2.034   1.433  1.00  0.00     0.014 A 
ATOM     10  C   UNL     1       5.184  -1.175   2.153  1.00  0.00     0.010 A 
ATOM     11  C   UNL     1       3.422  -2.825   2.279  1.00  0.00     0.010 A 
ATOM     12  C   UNL     1       4.711  -2.407   2.638  1.00  0.00    -0.014 A 
BRANCH  12  13
ATOM     13  C   UNL     1       5.553  -3.176   3.595  1.00  0.00     0.031 A 
ATOM     14  C   UNL     1       6.175  -4.493   3.223  1.00  0.00     0.074 A 
ATOM     15  C   UNL     1       5.792  -2.640   4.809  1.00  0.00     0.049 A 
ATOM     16  N   UNL     1       7.002  -5.235   3.916  1.00  0.00    -0.248 NA
ATOM     17  C   UNL     1       5.819  -5.057   1.912  1.00  0.00     0.031 C 
ATOM     18  C   UNL     1       5.209  -1.389   5.304  1.00  0.00     0.029 A 
ATOM     19  N   UNL     1       6.598  -3.059   5.836  1.00  0.00    -0.354 N 
ATOM     20  C   UNL     1       7.271  -6.350   3.130  1.00  0.00     0.074 A 
ATOM     21  C   UNL     1       6.490  -6.203   1.919  1.00  0.00     0.031 C 
ATOM     22  C   UNL     1       5.711  -1.121   6.519  1.00  0.00     0.029 A 
ATOM     23  C   UNL     1       6.622  -2.193   6.904  1.00  0.00     0.049 A 
ATOM     24  H   UNL     1       7.111  -3.899   5.811  1.00  0.00     0.167 HD
ATOM     25  C   UNL     1       8.101  -7.390   3.390  1.00  0.00     0.037 A 
ATOM     26  C   UNL     1       7.300  -2.251   8.066  1.00  0.00     0.037 A 
ATOM     27  C   UNL     1       8.877  -7.534   4.597  1.00  0.00     0.049 A 
ATOM     28  C   UNL     1       8.231  -3.401   8.316  1.00  0.00     0.074 A 
ATOM     29  C   UNL     1       9.752  -8.551   4.944  1.00  0.00     0.029 A 
ATOM     30  N   UNL     1       8.876  -6.636   5.654  1.00  0.00    -0.354 N 
ATOM     31  N   UNL     1       8.495  -4.428   7.544  1.00  0.00    -0.248 NA
ATOM     32  C   UNL     1       8.962  -3.398   9.590  1.00  0.00     0.031 C 
ATOM     33  C   UNL     1      10.259  -8.280   6.221  1.00  0.00     0.029 A 
ATOM     34  C   UNL     1       9.729  -7.077   6.655  1.00  0.00     0.049 A 
ATOM     35  H   UNL     1       8.348  -5.806   5.689  1.00  0.00     0.167 HD
ATOM     36  C   UNL     1       9.421  -5.195   8.239  1.00  0.00     0.074 A 
ATOM     37  C   UNL     1       9.697  -4.497   9.478  1.00  0.00     0.031 C 
ATOM     38  C   UNL     1       9.984  -6.378   7.888  1.00  0.00     0.037 A 
BRANCH  25  39
ATOM     39  C   UNL     1       8.223  -8.464   2.343  1.00  0.00     0.058 A 
ATOM     40  C   UNL     1       8.948  -8.250   1.160  1.00  0.00     0.135 A 
ATOM     41  C   UNL     1       7.664  -9.736   2.547  1.00  0.00     0.135 A 
ATOM     42  F   UNL     1       9.492  -7.049   0.909  1.00  0.00    -0.206 F 
ATOM     43  C   UNL     1       9.101  -9.254   0.209  1.00  0.00     0.059 A 
ATOM     44  C   UNL     1       7.821 -10.761   1.618  1.00  0.00     0.059 A 
ATOM     45  F   UNL     1       6.962  -9.994   3.662  1.00  0.00    -0.206 F 
ATOM     46  C   UNL     1       8.532 -10.507   0.447  1.00  0.00     0.060 A 
BRANCH  46  47
ATOM     47  S   UNL     1       8.751 -11.803  -0.792  1.00  0.00     0.124 S 
ATOM     48  O   UNL     1       7.820 -11.372  -1.830  1.00  0.00    -0.237 OA
ATOM     49  O   UNL     1      10.166 -11.688  -1.122  1.00  0.00    -0.237 OA
ATOM     50  O   UNL     1       8.374 -13.021  -0.078  1.00  0.00    -0.744 OA
ENDBRANCH  46  47
ENDBRANCH  25  39
BRANCH  26  51
ATOM     51  C   UNL     1       7.120  -1.177   9.076  1.00  0.00     0.058 A 
ATOM     52  C   UNL     1       8.132  -0.240   9.327  1.00  0.00     0.135 A 
ATOM     53  C   UNL     1       5.920  -1.057   9.793  1.00  0.00     0.135 A 
ATOM     54  F   UNL     1       9.297  -0.317   8.667  1.00  0.00    -0.206 F 
ATOM     55  C   UNL     1       7.966   0.774  10.265  1.00  0.00     0.059 A 
ATOM     56  C   UNL     1       5.722  -0.039  10.718  1.00  0.00     0.059 A 
ATOM     57  F   UNL     1       4.916  -1.920   9.573  1.00  0.00    -0.206 F 
ATOM     58  C   UNL     1       6.756   0.866  10.956  1.00  0.00     0.060 A 
BRANCH  58  59
ATOM     59  S   UNL     1       6.521   2.215  12.132  1.00  0.00     0.124 S 
ATOM     60  O   UNL     1       7.226   1.707  13.303  1.00  0.00    -0.237 OA
ATOM     61  O   UNL     1       7.150   3.340  11.447  1.00  0.00    -0.237 OA
ATOM     62  O   UNL     1       5.069   2.300  12.254  1.00  0.00    -0.744 OA
ENDBRANCH  58  59
ENDBRANCH  26  51
BRANCH  38  63
ATOM     63  C   UNL     1      10.953  -6.982   8.864  1.00  0.00     0.058 A 
ATOM     64  C   UNL     1      10.512  -7.585  10.052  1.00  0.00     0.135 A 
ATOM     65  C   UNL     1      12.333  -6.960   8.609  1.00  0.00     0.135 A 
ATOM     66  F   UNL     1       9.203  -7.625  10.344  1.00  0.00    -0.206 F 
ATOM     67  C   UNL     1      11.410  -8.116  10.973  1.00  0.00     0.059 A 
ATOM     68  C   UNL     1      13.247  -7.504   9.506  1.00  0.00     0.059 A 
ATOM     69  F   UNL     1      12.804  -6.402   7.483  1.00  0.00    -0.206 F 
ATOM     70  C   UNL     1      12.777  -8.063  10.694  1.00  0.00     0.060 A 
BRANCH  70  71
ATOM     71  S   UNL     1      13.936  -8.751  11.895  1.00  0.00     0.124 S 
ATOM     72  O   UNL     1      13.994  -7.685  12.889  1.00  0.00    -0.237 OA
ATOM     73  O   UNL     1      13.265  -9.976  12.318  1.00  0.00    -0.237 OA
ATOM     74  O   UNL     1      15.153  -8.949  11.113  1.00  0.00    -0.744 OA
ENDBRANCH  70  71
ENDBRANCH  38  63
ENDBRANCH  12  13
ENDBRANCH   5   7
ENDBRANCH   2   3
ENDBRANCH   1   2
BRANCH   1  75
ATOM     75  C   UNL     1       3.841   1.657  -3.969  1.00  0.00     0.023 C 
BRANCH  75  76
ATOM     76  C   UNL     1       4.188   3.025  -3.383  1.00  0.00     0.116 C 
BRANCH  76  77
ATOM     77  N   UNL     1       5.609   3.320  -3.245  1.00  0.00    -0.351 N 
ATOM     78  C   UNL     1       6.447   4.022  -4.099  1.00  0.00     0.272 C 
ATOM     79  H   UNL     1       6.035   2.970  -2.429  1.00  0.00     0.163 HD
ATOM     80  O   UNL     1       7.505   4.491  -3.687  1.00  0.00    -0.267 OA
BRANCH  78  81
ATOM     81  C   UNL     1       6.032   4.300  -5.486  1.00  0.00     0.159 A 
ATOM     82  N   UNL     1       4.908   5.102  -5.516  1.00  0.00    -0.247 NA
ATOM     83  C   UNL     1       6.715   3.928  -6.641  1.00  0.00     0.159 A 
ATOM     84  C   UNL     1       4.483   5.524  -6.717  1.00  0.00     0.132 A 
ATOM     85  N   UNL     1       6.196   4.336  -7.857  1.00  0.00    -0.247 NA
ATOM     86  C   UNL     1       5.111   5.137  -7.872  1.00  0.00     0.132 A 
BRANCH  83  87
ATOM     87  C   UNL     1       8.065   3.268  -6.861  1.00  0.00     0.276 C 
ATOM     88  O   UNL     1       8.521   3.270  -8.015  1.00  0.00    -0.267 OA
ATOM     89  N   UNL     1       8.950   2.830  -5.911  1.00  0.00    -0.320 N 
ATOM     90  H   UNL     1       9.888   3.020  -6.145  1.00  0.00     0.170 HD
BRANCH  89  91
ATOM     91  C   UNL     1       8.819   2.177  -4.690  1.00  0.00     0.045 A 
ATOM     92  C   UNL     1       7.818   1.226  -4.438  1.00  0.00     0.030 A 
ATOM     93  C   UNL     1       9.763   2.502  -3.706  1.00  0.00     0.076 A 
ATOM     94  C   UNL     1       7.705   0.667  -3.159  1.00  0.00     0.053 A 
ATOM     95  C   UNL     1       9.554   2.015  -2.438  1.00  0.00     0.167 A 
ATOM     96  C   UNL     1       8.538   1.134  -2.167  1.00  0.00     0.165 A 
ATOM     97  O   UNL     1      10.248   2.367  -1.323  1.00  0.00    -0.454 OA
ATOM     98  O   UNL     1       8.452   0.834  -0.845  1.00  0.00    -0.454 OA
ATOM     99  C   UNL     1       9.439   1.742  -0.305  1.00  0.00     0.468 C 
ENDBRANCH  89  91
ENDBRANCH  83  87
ENDBRANCH  78  81
ENDBRANCH  76  77
ENDBRANCH  75  76
ENDBRANCH   1  75
TORSDOF 16
