REMARK SMILES Cc1ccc2c(c1)OCCN2c1sc(C(=O)NCCCCNC(=O)c2ccc(-c3c4nc(c(-c5c(F)cc(S(=O)(=O)[O-])cc5F)c5ccc([nH]5)c(-c5c(F)cc(S(=O)(=O)[O-])cc5F)c5nc(c(-c6c(F)cc(S(=O)(=O)[O-])cc6F)c6ccc3[nH]6)C=C5)C=C4)cc2)cc1C
REMARK SMILES IDX 20 1 19 2 18 3 17 4 15 5 16 6 14 8 12 9 13 10 92 11 91 12
REMARK SMILES IDX 93 13 11 14 1 15 2 16 3 17 7 18 4 19 6 20 5 21 8 22 9 23
REMARK SMILES IDX 10 24 21 25 22 26 23 27 24 29 25 30 26 31 90 32 27 33 89 34
REMARK SMILES IDX 28 35 29 36 30 37 83 38 31 39 88 40 82 41 84 42 32 43 87 44
REMARK SMILES IDX 81 45 80 46 33 48 67 49 46 50 66 51 47 52 50 53 65 54 85 55
REMARK SMILES IDX 48 56 49 57 64 59 86 60 51 61 34 62 35 63 44 64 36 65 37 66
REMARK SMILES IDX 43 67 45 68 38 69 39 70 40 71 41 72 42 73 68 74 69 75 78 76
REMARK SMILES IDX 70 77 71 78 77 79 79 80 72 81 73 82 74 83 75 84 76 85 52 86
REMARK SMILES IDX 53 87 62 88 54 89 55 90 61 91 63 92 56 93 57 94 58 95 59 96
REMARK SMILES IDX 60 97
REMARK H PARENT 17 7 22 28 84 47 50 58
REMARK Flexibility Score: inf
ROOT
ATOM      1  C   UNL     1       1.594  -5.760   8.683  1.00  0.00     0.023 C 
ENDROOT
BRANCH   1   2
ATOM      2  C   UNL     1       1.185  -4.607   7.759  1.00  0.00     0.023 C 
BRANCH   2   3
ATOM      3  C   UNL     1      -0.057  -4.886   6.912  1.00  0.00     0.116 C 
BRANCH   3   4
ATOM      4  N   UNL     1      -1.264  -4.856   7.716  1.00  0.00    -0.351 N 
ATOM      5  C   UNL     1      -2.212  -3.887   7.936  1.00  0.00     0.261 C 
ATOM      6  O   UNL     1      -3.170  -4.246   8.629  1.00  0.00    -0.268 OA
ATOM      7  H   UNL     1      -1.438  -5.697   8.198  1.00  0.00     0.163 HD
BRANCH   5   8
ATOM      8  C   UNL     1      -2.164  -2.549   7.360  1.00  0.00     0.094 A 
ATOM      9  C   UNL     1      -1.644  -0.418   6.185  1.00  0.00     0.099 A 
ATOM     10  S   UNL     1      -0.761  -1.728   6.855  1.00  0.00    -0.112 S 
ATOM     11  C   UNL     1      -2.975  -0.476   6.567  1.00  0.00    -0.015 A 
ATOM     12  C   UNL     1      -3.260  -1.709   7.240  1.00  0.00     0.031 A 
ATOM     13  C   UNL     1      -4.016   0.555   6.285  1.00  0.00     0.047 C 
BRANCH   9  14
ATOM     14  N   UNL     1      -1.055   0.553   5.432  1.00  0.00    -0.327 N 
ATOM     15  C   UNL     1       1.068  -0.030   0.105  1.00  0.00     0.044 C 
ATOM     16  C   UNL     1       0.486   0.121   1.479  1.00  0.00    -0.047 A 
ATOM     17  C   UNL     1      -0.071  -0.973   2.144  1.00  0.00     0.006 A 
ATOM     18  C   UNL     1       0.525   1.356   2.131  1.00  0.00     0.052 A 
ATOM     19  C   UNL     1      -0.594  -0.831   3.436  1.00  0.00     0.030 A 
ATOM     20  C   UNL     1       0.001   1.496   3.421  1.00  0.00     0.143 A 
ATOM     21  C   UNL     1      -0.549   0.397   4.117  1.00  0.00     0.085 A 
ATOM     22  O   UNL     1       0.071   2.769   3.946  1.00  0.00    -0.490 OA
ATOM     23  C   UNL     1      -0.816   2.943   5.057  1.00  0.00     0.251 C 
ATOM     24  C   UNL     1      -0.672   1.813   6.068  1.00  0.00     0.165 C 
ENDBRANCH   9  14
ENDBRANCH   5   8
ENDBRANCH   3   4
ENDBRANCH   2   3
ENDBRANCH   1   2
BRANCH   1  25
ATOM     25  C   UNL     1       1.952  -7.066   7.979  1.00  0.00     0.116 C 
BRANCH  25  26
ATOM     26  N   UNL     1       3.046  -6.941   7.025  1.00  0.00    -0.352 N 
ATOM     27  C   UNL     1       3.930  -7.915   6.616  1.00  0.00     0.251 C 
ATOM     28  H   UNL     1       3.168  -6.051   6.623  1.00  0.00     0.163 HD
ATOM     29  O   UNL     1       4.861  -7.636   5.866  1.00  0.00    -0.269 OA
BRANCH  27  30
ATOM     30  C   UNL     1       3.775  -9.290   7.138  1.00  0.00     0.039 A 
ATOM     31  C   UNL     1       2.531  -9.921   7.106  1.00  0.00     0.014 A 
ATOM     32  C   UNL     1       4.870  -9.919   7.737  1.00  0.00     0.014 A 
ATOM     33  C   UNL     1       2.340 -11.093   7.830  1.00  0.00     0.010 A 
ATOM     34  C   UNL     1       4.691 -11.137   8.402  1.00  0.00     0.010 A 
ATOM     35  C   UNL     1       3.410 -11.700   8.509  1.00  0.00    -0.014 A 
BRANCH  35  36
ATOM     36  C   UNL     1       3.137 -12.880   9.372  1.00  0.00     0.031 A 
ATOM     37  C   UNL     1       3.272 -12.775  10.871  1.00  0.00     0.074 A 
ATOM     38  C   UNL     1       2.659 -14.010   8.815  1.00  0.00     0.049 A 
ATOM     39  N   UNL     1       2.989 -13.668  11.786  1.00  0.00    -0.248 NA
ATOM     40  C   UNL     1       3.786 -11.507  11.417  1.00  0.00     0.031 C 
ATOM     41  C   UNL     1       2.467 -14.226   7.379  1.00  0.00     0.029 A 
ATOM     42  N   UNL     1       2.203 -15.171   9.388  1.00  0.00    -0.354 N 
ATOM     43  C   UNL     1       3.295 -13.076  13.007  1.00  0.00     0.074 A 
ATOM     44  C   UNL     1       3.817 -11.759  12.719  1.00  0.00     0.031 C 
ATOM     45  C   UNL     1       1.870 -15.413   7.188  1.00  0.00     0.029 A 
ATOM     46  C   UNL     1       1.681 -16.064   8.481  1.00  0.00     0.049 A 
ATOM     47  H   UNL     1       2.247 -15.348  10.355  1.00  0.00     0.167 HD
ATOM     48  C   UNL     1       3.132 -13.574  14.255  1.00  0.00     0.037 A 
ATOM     49  C   UNL     1       1.111 -17.270   8.669  1.00  0.00     0.037 A 
ATOM     50  C   UNL     1       2.576 -14.869  14.545  1.00  0.00     0.049 A 
ATOM     51  C   UNL     1       0.993 -17.819  10.063  1.00  0.00     0.074 A 
ATOM     52  C   UNL     1       2.355 -15.450  15.782  1.00  0.00     0.029 A 
ATOM     53  N   UNL     1       2.145 -15.777  13.592  1.00  0.00    -0.354 N 
ATOM     54  N   UNL     1       1.292 -17.242  11.201  1.00  0.00    -0.248 NA
ATOM     55  C   UNL     1       0.481 -19.190  10.196  1.00  0.00     0.031 C 
ATOM     56  C   UNL     1       1.815 -16.723  15.576  1.00  0.00     0.029 A 
ATOM     57  C   UNL     1       1.676 -16.923  14.213  1.00  0.00     0.049 A 
ATOM     58  H   UNL     1       2.168 -15.630  12.619  1.00  0.00     0.167 HD
ATOM     59  C   UNL     1       1.004 -18.180  12.186  1.00  0.00     0.074 A 
ATOM     60  C   UNL     1       0.486 -19.353  11.513  1.00  0.00     0.031 C 
ATOM     61  C   UNL     1       1.166 -18.081  13.527  1.00  0.00     0.037 A 
BRANCH  48  62
ATOM     62  C   UNL     1       3.541 -12.718  15.419  1.00  0.00     0.058 A 
ATOM     63  C   UNL     1       2.734 -11.659  15.862  1.00  0.00     0.135 A 
ATOM     64  C   UNL     1       4.697 -13.018  16.158  1.00  0.00     0.135 A 
ATOM     65  F   UNL     1       1.628 -11.322  15.180  1.00  0.00    -0.206 F 
ATOM     66  C   UNL     1       3.058 -10.928  17.000  1.00  0.00     0.059 A 
ATOM     67  C   UNL     1       5.031 -12.310  17.309  1.00  0.00     0.059 A 
ATOM     68  F   UNL     1       5.503 -14.020  15.773  1.00  0.00    -0.206 F 
ATOM     69  C   UNL     1       4.205 -11.265  17.720  1.00  0.00     0.060 A 
BRANCH  69  70
ATOM     70  S   UNL     1       4.584 -10.332  19.219  1.00  0.00     0.124 S 
ATOM     71  O   UNL     1       5.009  -9.050  18.665  1.00  0.00    -0.237 OA
ATOM     72  O   UNL     1       3.302 -10.326  19.915  1.00  0.00    -0.237 OA
ATOM     73  O   UNL     1       5.636 -11.120  19.854  1.00  0.00    -0.744 OA
ENDBRANCH  69  70
ENDBRANCH  48  62
BRANCH  49  74
ATOM     74  C   UNL     1       0.611 -18.048   7.507  1.00  0.00     0.058 A 
ATOM     75  C   UNL     1      -0.764 -18.235   7.304  1.00  0.00     0.135 A 
ATOM     76  C   UNL     1       1.495 -18.625   6.583  1.00  0.00     0.135 A 
ATOM     77  F   UNL     1      -1.647 -17.706   8.165  1.00  0.00    -0.206 F 
ATOM     78  C   UNL     1      -1.246 -18.980   6.234  1.00  0.00     0.059 A 
ATOM     79  C   UNL     1       1.037 -19.357   5.494  1.00  0.00     0.059 A 
ATOM     80  F   UNL     1       2.820 -18.464   6.729  1.00  0.00    -0.206 F 
ATOM     81  C   UNL     1      -0.337 -19.541   5.335  1.00  0.00     0.060 A 
BRANCH  81  82
ATOM     82  S   UNL     1      -0.969 -20.484   3.931  1.00  0.00     0.124 S 
ATOM     83  O   UNL     1      -1.322 -21.748   4.565  1.00  0.00    -0.237 OA
ATOM     84  O   UNL     1      -2.086 -19.660   3.481  1.00  0.00    -0.237 OA
ATOM     85  O   UNL     1       0.172 -20.529   3.021  1.00  0.00    -0.744 OA
ENDBRANCH  81  82
ENDBRANCH  49  74
BRANCH  61  86
ATOM     86  C   UNL     1       0.796 -19.270  14.362  1.00  0.00     0.058 A 
ATOM     87  C   UNL     1       1.656 -20.374  14.464  1.00  0.00     0.135 A 
ATOM     88  C   UNL     1      -0.371 -19.267  15.141  1.00  0.00     0.135 A 
ATOM     89  F   UNL     1       2.780 -20.425  13.732  1.00  0.00    -0.206 F 
ATOM     90  C   UNL     1       1.372 -21.436  15.315  1.00  0.00     0.059 A 
ATOM     91  C   UNL     1      -0.666 -20.310  16.012  1.00  0.00     0.059 A 
ATOM     92  F   UNL     1      -1.221 -18.229  15.080  1.00  0.00    -0.206 F 
ATOM     93  C   UNL     1       0.213 -21.391  16.092  1.00  0.00     0.060 A 
BRANCH  93  94
ATOM     94  S   UNL     1      -0.102 -22.741  17.249  1.00  0.00     0.124 S 
ATOM     95  O   UNL     1      -0.506 -23.814  16.347  1.00  0.00    -0.237 OA
ATOM     96  O   UNL     1       1.197 -22.909  17.893  1.00  0.00    -0.237 OA
ATOM     97  O   UNL     1      -1.157 -22.212  18.109  1.00  0.00    -0.744 OA
ENDBRANCH  93  94
ENDBRANCH  61  86
ENDBRANCH  35  36
ENDBRANCH  27  30
ENDBRANCH  25  26
ENDBRANCH   1  25
TORSDOF 15
