REMARK SMILES C[C@H](O)C[C@@]1(C(=O)NCCCCNC(=O)c2ccc(-c3c4nc(c(-c5c(F)cc(S(=O)(=O)[O-])cc5F)c5ccc([nH]5)c(-c5c(F)cc(S(=O)(=O)[O-])cc5F)c5nc(c(-c6c(F)cc(S(=O)(=O)[O-])cc6F)c6ccc3[nH]6)C=C5)C=C4)cc2)CCN(C(=O)OC(C)(C)C)C1
REMARK SMILES IDX 10 1 9 2 8 3 6 4 7 5 5 7 82 8 92 9 83 10 84 11 4 12 2 13
REMARK SMILES IDX 1 14 3 15 85 17 86 18 87 19 88 20 89 21 90 22 91 23 11 24
REMARK SMILES IDX 12 25 13 26 14 27 15 29 16 30 17 31 81 32 18 33 80 34 19 35
REMARK SMILES IDX 20 36 21 37 74 38 22 39 79 40 73 41 75 42 23 43 78 44 72 45
REMARK SMILES IDX 71 46 24 48 58 49 37 50 57 51 38 52 41 53 56 54 76 55 39 56
REMARK SMILES IDX 40 57 55 59 77 60 42 61 25 62 26 63 35 64 27 65 28 66 34 67
REMARK SMILES IDX 36 68 29 69 30 70 31 71 32 72 33 73 59 74 60 75 69 76 61 77
REMARK SMILES IDX 62 78 68 79 70 80 63 81 64 82 65 83 66 84 67 85 43 86 44 87
REMARK SMILES IDX 53 88 45 89 46 90 52 91 54 92 47 93 48 94 49 95 50 96 51 97
REMARK H PARENT 8 6 3 16 13 28 75 47 41 58
REMARK Flexibility Score: inf
ROOT
ATOM      1  C   UNL     1       2.310  -0.253  -0.193  1.00  0.00     0.023 C 
ENDROOT
BRANCH   1   2
ATOM      2  C   UNL     1       1.369   0.855   0.253  1.00  0.00     0.116 C 
BRANCH   2   3
ATOM      3  N   UNL     1       0.289   1.115  -0.685  1.00  0.00    -0.356 N 
ATOM      4  C   UNL     1      -1.030   1.398  -0.468  1.00  0.00     0.228 C 
ATOM      5  O   UNL     1      -1.698   1.691  -1.461  1.00  0.00    -0.274 OA
ATOM      6  H   UNL     1       0.552   1.082  -1.633  1.00  0.00     0.163 HD
BRANCH   4   7
ATOM      7  C   UNL     1      -1.650   1.315   0.949  1.00  0.00     0.071 C 
ATOM      8  C   UNL     1      -1.673  -0.186   1.366  1.00  0.00     0.040 C 
ATOM      9  C   UNL     1      -3.158   1.681   0.890  1.00  0.00     0.140 C 
ATOM     10  C   UNL     1      -3.029  -0.699   0.903  1.00  0.00     0.124 C 
ATOM     11  N   UNL     1      -3.880   0.442   1.119  1.00  0.00    -0.307 N 
BRANCH   7  12
ATOM     12  C   UNL     1      -0.806   2.197   1.924  1.00  0.00     0.050 C 
BRANCH  12  13
ATOM     13  C   UNL     1      -1.484   3.106   2.951  1.00  0.00     0.112 C 
ATOM     14  C   UNL     1      -0.426   3.959   3.653  1.00  0.00     0.038 C 
BRANCH  13  15
ATOM     15  O   UNL     1      -2.127   2.326   3.952  1.00  0.00    -0.393 OA
ATOM     16  H   UNL     1      -1.468   1.778   4.407  1.00  0.00     0.210 HD
ENDBRANCH  13  15
ENDBRANCH  12  13
ENDBRANCH   7  12
BRANCH  11  17
ATOM     17  C   UNL     1      -5.204   0.429   1.473  1.00  0.00     0.410 C 
ATOM     18  O   UNL     1      -5.837   1.456   1.698  1.00  0.00    -0.224 OA
BRANCH  17  19
ATOM     19  O   UNL     1      -5.707  -0.828   1.582  1.00  0.00    -0.444 OA
BRANCH  19  20
ATOM     20  C   UNL     1      -7.076  -1.027   2.025  1.00  0.00     0.106 C 
ATOM     21  C   UNL     1      -7.253  -0.558   3.475  1.00  0.00     0.056 C 
ATOM     22  C   UNL     1      -8.086  -0.364   1.079  1.00  0.00     0.056 C 
ATOM     23  C   UNL     1      -7.306  -2.546   1.978  1.00  0.00     0.056 C 
ENDBRANCH  19  20
ENDBRANCH  17  19
ENDBRANCH  11  17
ENDBRANCH   4   7
ENDBRANCH   2   3
ENDBRANCH   1   2
BRANCH   1  24
ATOM     24  C   UNL     1       3.091   0.029  -1.471  1.00  0.00     0.023 C 
BRANCH  24  25
ATOM     25  C   UNL     1       3.883   1.330  -1.474  1.00  0.00     0.116 C 
BRANCH  25  26
ATOM     26  N   UNL     1       4.876   1.396  -0.412  1.00  0.00    -0.352 N 
ATOM     27  C   UNL     1       6.232   1.608  -0.500  1.00  0.00     0.251 C 
ATOM     28  H   UNL     1       4.527   1.272   0.500  1.00  0.00     0.163 HD
ATOM     29  O   UNL     1       6.935   1.479   0.498  1.00  0.00    -0.269 OA
BRANCH  27  30
ATOM     30  C   UNL     1       6.841   1.964  -1.801  1.00  0.00     0.039 A 
ATOM     31  C   UNL     1       8.027   1.338  -2.191  1.00  0.00     0.014 A 
ATOM     32  C   UNL     1       6.237   2.903  -2.640  1.00  0.00     0.014 A 
ATOM     33  C   UNL     1       8.573   1.614  -3.447  1.00  0.00     0.010 A 
ATOM     34  C   UNL     1       6.725   3.098  -3.927  1.00  0.00     0.010 A 
ATOM     35  C   UNL     1       7.911   2.473  -4.339  1.00  0.00    -0.014 A 
BRANCH  35  36
ATOM     36  C   UNL     1       8.465   2.765  -5.688  1.00  0.00     0.031 A 
ATOM     37  C   UNL     1       8.847   4.177  -6.051  1.00  0.00     0.074 A 
ATOM     38  C   UNL     1       8.579   1.778  -6.599  1.00  0.00     0.049 A 
ATOM     39  N   UNL     1       9.302   4.645  -7.185  1.00  0.00    -0.248 NA
ATOM     40  C   UNL     1       8.664   5.205  -5.013  1.00  0.00     0.031 C 
ATOM     41  C   UNL     1       8.194   0.381  -6.388  1.00  0.00     0.029 A 
ATOM     42  N   UNL     1       9.049   1.799  -7.888  1.00  0.00    -0.354 N 
ATOM     43  C   UNL     1       9.445   6.016  -6.999  1.00  0.00     0.074 A 
ATOM     44  C   UNL     1       8.962   6.315  -5.670  1.00  0.00     0.031 C 
ATOM     45  C   UNL     1       8.471  -0.325  -7.496  1.00  0.00     0.029 A 
ATOM     46  C   UNL     1       9.017   0.573  -8.510  1.00  0.00     0.049 A 
ATOM     47  H   UNL     1       9.379   2.616  -8.327  1.00  0.00     0.167 HD
ATOM     48  C   UNL     1       9.960   6.939  -7.846  1.00  0.00     0.037 A 
ATOM     49  C   UNL     1       9.384   0.213  -9.756  1.00  0.00     0.037 A 
ATOM     50  C   UNL     1      10.462   6.631  -9.160  1.00  0.00     0.049 A 
ATOM     51  C   UNL     1       9.960   1.255 -10.678  1.00  0.00     0.074 A 
ATOM     52  C   UNL     1      11.049   7.483 -10.079  1.00  0.00     0.029 A 
ATOM     53  N   UNL     1      10.437   5.372  -9.742  1.00  0.00    -0.354 N 
ATOM     54  N   UNL     1      10.142   2.537 -10.464  1.00  0.00    -0.248 NA
ATOM     55  C   UNL     1      10.396   0.799 -12.004  1.00  0.00     0.031 C 
ATOM     56  C   UNL     1      11.331   6.750 -11.236  1.00  0.00     0.029 A 
ATOM     57  C   UNL     1      10.984   5.428 -11.014  1.00  0.00     0.049 A 
ATOM     58  H   UNL     1      10.083   4.559  -9.315  1.00  0.00     0.167 HD
ATOM     59  C   UNL     1      10.754   3.031 -11.613  1.00  0.00     0.074 A 
ATOM     60  C   UNL     1      10.915   1.907 -12.512  1.00  0.00     0.031 C 
ATOM     61  C   UNL     1      11.151   4.297 -11.894  1.00  0.00     0.037 A 
BRANCH  48  62
ATOM     62  C   UNL     1      10.008   8.369  -7.375  1.00  0.00     0.058 A 
ATOM     63  C   UNL     1      10.855   8.777  -6.331  1.00  0.00     0.135 A 
ATOM     64  C   UNL     1       9.219   9.352  -7.995  1.00  0.00     0.135 A 
ATOM     65  F   UNL     1      11.620   7.880  -5.689  1.00  0.00    -0.206 F 
ATOM     66  C   UNL     1      10.893  10.098  -5.897  1.00  0.00     0.059 A 
ATOM     67  C   UNL     1       9.266  10.686  -7.600  1.00  0.00     0.059 A 
ATOM     68  F   UNL     1       8.389   9.021  -8.997  1.00  0.00    -0.206 F 
ATOM     69  C   UNL     1      10.095  11.046  -6.539  1.00  0.00     0.060 A 
BRANCH  69  70
ATOM     70  S   UNL     1      10.164  12.757  -5.968  1.00  0.00     0.124 S 
ATOM     71  O   UNL     1       9.479  12.662  -4.682  1.00  0.00    -0.237 OA
ATOM     72  O   UNL     1      11.600  13.006  -5.904  1.00  0.00    -0.237 OA
ATOM     73  O   UNL     1       9.448  13.492  -7.006  1.00  0.00    -0.744 OA
ENDBRANCH  69  70
ENDBRANCH  48  62
BRANCH  49  74
ATOM     74  C   UNL     1       9.251  -1.204 -10.194  1.00  0.00     0.058 A 
ATOM     75  C   UNL     1      10.382  -2.002 -10.423  1.00  0.00     0.135 A 
ATOM     76  C   UNL     1       7.990  -1.791 -10.388  1.00  0.00     0.135 A 
ATOM     77  F   UNL     1      11.610  -1.487 -10.257  1.00  0.00    -0.206 F 
ATOM     78  C   UNL     1      10.272  -3.321 -10.853  1.00  0.00     0.059 A 
ATOM     79  C   UNL     1       7.854  -3.117 -10.788  1.00  0.00     0.059 A 
ATOM     80  F   UNL     1       6.875  -1.079 -10.164  1.00  0.00    -0.206 F 
ATOM     81  C   UNL     1       9.001  -3.871 -11.029  1.00  0.00     0.060 A 
BRANCH  81  82
ATOM     82  S   UNL     1       8.869  -5.596 -11.545  1.00  0.00     0.124 S 
ATOM     83  O   UNL     1       9.310  -5.524 -12.933  1.00  0.00    -0.237 OA
ATOM     84  O   UNL     1       9.780  -6.262 -10.618  1.00  0.00    -0.237 OA
ATOM     85  O   UNL     1       7.455  -5.898 -11.346  1.00  0.00    -0.744 OA
ENDBRANCH  81  82
ENDBRANCH  49  74
BRANCH  61  86
ATOM     86  C   UNL     1      11.863   4.526 -13.201  1.00  0.00     0.058 A 
ATOM     87  C   UNL     1      11.205   4.442 -14.438  1.00  0.00     0.135 A 
ATOM     88  C   UNL     1      13.227   4.864 -13.208  1.00  0.00     0.135 A 
ATOM     89  F   UNL     1       9.902   4.122 -14.491  1.00  0.00    -0.206 F 
ATOM     90  C   UNL     1      11.884   4.638 -15.637  1.00  0.00     0.059 A 
ATOM     91  C   UNL     1      13.917   5.101 -14.392  1.00  0.00     0.059 A 
ATOM     92  F   UNL     1      13.903   4.976 -12.053  1.00  0.00    -0.206 F 
ATOM     93  C   UNL     1      13.241   4.965 -15.603  1.00  0.00     0.060 A 
BRANCH  93  94
ATOM     94  S   UNL     1      14.111   5.217 -17.165  1.00  0.00     0.124 S 
ATOM     95  O   UNL     1      14.219   3.851 -17.664  1.00  0.00    -0.237 OA
ATOM     96  O   UNL     1      13.195   6.089 -17.895  1.00  0.00    -0.237 OA
ATOM     97  O   UNL     1      15.368   5.839 -16.758  1.00  0.00    -0.744 OA
ENDBRANCH  93  94
ENDBRANCH  61  86
ENDBRANCH  35  36
ENDBRANCH  27  30
ENDBRANCH  25  26
ENDBRANCH  24  25
ENDBRANCH   1  24
TORSDOF 20
