REMARK SMILES C[C@H](C[N@H+](C)[C@H]1CC[C@H]([NH3+])CC1)C(=O)NCCCCNC(=O)c1ccc(-c2c3nc(c(-c4c(F)cc(S(=O)(=O)[O-])cc4F)c4ccc([nH]4)c(-c4c(F)cc(S(=O)(=O)[O-])cc4F)c4nc(c(-c5c(F)cc(S(=O)(=O)[O-])cc5F)c5ccc2[nH]5)C=C4)C=C3)cc1
REMARK SMILES IDX 17 1 16 2 15 3 13 4 14 5 2 7 1 8 3 9 4 10 5 11 6 13 7 14
REMARK SMILES IDX 12 15 8 16 11 17 9 18 10 19 18 23 19 24 20 25 21 26 22 28
REMARK SMILES IDX 23 29 24 30 88 31 25 32 87 33 26 34 27 35 28 36 81 37 29 38
REMARK SMILES IDX 86 39 80 40 82 41 30 42 85 43 79 44 78 45 31 47 65 48 44 49
REMARK SMILES IDX 64 50 45 51 48 52 63 53 83 54 46 55 47 56 62 58 84 59 49 60
REMARK SMILES IDX 32 61 33 62 42 63 34 64 35 65 41 66 43 67 36 68 37 69 38 70
REMARK SMILES IDX 39 71 40 72 66 73 67 74 76 75 68 76 69 77 75 78 77 79 70 80
REMARK SMILES IDX 71 81 72 82 73 83 74 84 50 85 51 86 60 87 52 88 53 89 59 90
REMARK SMILES IDX 61 91 54 92 55 93 56 94 57 95 58 96
REMARK H PARENT 15 6 4 12 10 20 10 21 10 22 20 27 82 46 48 57
REMARK Flexibility Score: inf
ROOT
ATOM      1  C   UNL     1      -2.518  -0.758  -2.224  1.00  0.00     0.023 C 
ENDROOT
BRANCH   1   2
ATOM      2  C   UNL     1      -2.819  -0.067  -0.886  1.00  0.00     0.116 C 
BRANCH   2   3
ATOM      3  N   UNL     1      -1.678  -0.271  -0.010  1.00  0.00    -0.356 N 
ATOM      4  C   UNL     1      -1.062   0.747   0.689  1.00  0.00     0.228 C 
ATOM      5  O   UNL     1      -1.648   1.761   1.046  1.00  0.00    -0.275 OA
ATOM      6  H   UNL     1      -1.326  -1.184   0.091  1.00  0.00     0.163 HD
BRANCH   4   7
ATOM      7  C   UNL     1       0.431   0.488   0.912  1.00  0.00     0.130 C 
ATOM      8  C   UNL     1       1.131   1.499   1.817  1.00  0.00     0.024 C 
BRANCH   7   9
ATOM      9  C   UNL     1       1.177   0.267  -0.434  1.00  0.00     0.275 C 
BRANCH   9  10
ATOM     10  N   UNL     1       1.383   1.334  -1.423  1.00  0.00    -0.334 N 
ATOM     11  C   UNL     1       2.708   1.915  -1.474  1.00  0.00     0.332 C 
ATOM     12  H   UNL     1       1.376   0.766  -2.270  1.00  0.00     0.348 HD
BRANCH  10  13
ATOM     13  C   UNL     1       0.253   2.192  -1.788  1.00  0.00     0.184 C 
ATOM     14  C   UNL     1       0.298   2.607  -3.273  1.00  0.00     0.071 C 
ATOM     15  C   UNL     1       0.069   3.475  -0.955  1.00  0.00     0.071 C 
ATOM     16  C   UNL     1      -1.014   3.289  -3.670  1.00  0.00     0.071 C 
ATOM     17  C   UNL     1      -1.264   4.146  -1.298  1.00  0.00     0.071 C 
ATOM     18  C   UNL     1      -1.353   4.493  -2.786  1.00  0.00     0.181 C 
BRANCH  18  19
ATOM     19  N   UNL     1      -2.700   4.979  -3.088  1.00  0.00    -0.355 N 
ATOM     20  H   UNL     1      -3.379   4.246  -2.884  1.00  0.00     0.344 HD
ATOM     21  H   UNL     1      -2.757   5.231  -4.075  1.00  0.00     0.344 HD
ATOM     22  H   UNL     1      -2.902   5.799  -2.516  1.00  0.00     0.344 HD
ENDBRANCH  18  19
ENDBRANCH  10  13
ENDBRANCH   9  10
ENDBRANCH   7   9
ENDBRANCH   4   7
ENDBRANCH   2   3
ENDBRANCH   1   2
BRANCH   1  23
ATOM     23  C   UNL     1      -3.698  -0.838  -3.187  1.00  0.00     0.023 C 
BRANCH  23  24
ATOM     24  C   UNL     1      -4.095   0.481  -3.834  1.00  0.00     0.116 C 
BRANCH  24  25
ATOM     25  N   UNL     1      -3.195   0.901  -4.900  1.00  0.00    -0.352 N 
ATOM     26  C   UNL     1      -3.486   1.700  -5.990  1.00  0.00     0.251 C 
ATOM     27  H   UNL     1      -2.268   0.577  -4.836  1.00  0.00     0.163 HD
ATOM     28  O   UNL     1      -2.631   1.980  -6.812  1.00  0.00    -0.269 OA
BRANCH  26  29
ATOM     29  C   UNL     1      -4.883   2.157  -6.172  1.00  0.00     0.039 A 
ATOM     30  C   UNL     1      -5.555   1.787  -7.338  1.00  0.00     0.014 A 
ATOM     31  C   UNL     1      -5.554   2.827  -5.146  1.00  0.00     0.014 A 
ATOM     32  C   UNL     1      -6.936   1.978  -7.423  1.00  0.00     0.010 A 
ATOM     33  C   UNL     1      -6.938   2.966  -5.208  1.00  0.00     0.010 A 
ATOM     34  C   UNL     1      -7.644   2.506  -6.330  1.00  0.00    -0.014 A 
BRANCH  34  35
ATOM     35  C   UNL     1      -9.128   2.477  -6.301  1.00  0.00     0.031 A 
ATOM     36  C   UNL     1      -9.923   3.749  -6.307  1.00  0.00     0.074 A 
ATOM     37  C   UNL     1      -9.751   1.287  -6.181  1.00  0.00     0.049 A 
ATOM     38  N   UNL     1     -11.220   3.907  -6.254  1.00  0.00    -0.248 NA
ATOM     39  C   UNL     1      -9.163   5.007  -6.356  1.00  0.00     0.031 C 
ATOM     40  C   UNL     1      -9.080  -0.014  -6.092  1.00  0.00     0.029 A 
ATOM     41  N   UNL     1     -11.085   0.974  -6.102  1.00  0.00    -0.354 N 
ATOM     42  C   UNL     1     -11.435   5.279  -6.256  1.00  0.00     0.074 A 
ATOM     43  C   UNL     1     -10.131   5.909  -6.272  1.00  0.00     0.031 C 
ATOM     44  C   UNL     1     -10.005  -0.982  -5.997  1.00  0.00     0.029 A 
ATOM     45  C   UNL     1     -11.331  -0.375  -5.990  1.00  0.00     0.049 A 
ATOM     46  H   UNL     1     -11.799   1.651  -6.124  1.00  0.00     0.167 HD
ATOM     47  C   UNL     1     -12.612   5.950  -6.262  1.00  0.00     0.037 A 
ATOM     48  C   UNL     1     -12.494  -1.048  -5.896  1.00  0.00     0.037 A 
ATOM     49  C   UNL     1     -13.904   5.315  -6.260  1.00  0.00     0.049 A 
ATOM     50  C   UNL     1     -13.787  -0.281  -5.926  1.00  0.00     0.074 A 
ATOM     51  C   UNL     1     -15.154   5.906  -6.333  1.00  0.00     0.029 A 
ATOM     52  N   UNL     1     -14.115   3.946  -6.177  1.00  0.00    -0.354 N 
ATOM     53  N   UNL     1     -13.973   1.014  -6.013  1.00  0.00    -0.248 NA
ATOM     54  C   UNL     1     -15.027  -1.065  -5.853  1.00  0.00     0.031 C 
ATOM     55  C   UNL     1     -16.121   4.896  -6.259  1.00  0.00     0.029 A 
ATOM     56  C   UNL     1     -15.473   3.674  -6.179  1.00  0.00     0.049 A 
ATOM     57  H   UNL     1     -13.403   3.268  -6.124  1.00  0.00     0.167 HD
ATOM     58  C   UNL     1     -15.350   1.200  -6.032  1.00  0.00     0.074 A 
ATOM     59  C   UNL     1     -15.950  -0.117  -5.955  1.00  0.00     0.031 C 
ATOM     60  C   UNL     1     -16.053   2.356  -6.108  1.00  0.00     0.037 A 
BRANCH  47  61
ATOM     61  C   UNL     1     -12.553   7.452  -6.279  1.00  0.00     0.058 A 
ATOM     62  C   UNL     1     -12.153   8.156  -7.426  1.00  0.00     0.135 A 
ATOM     63  C   UNL     1     -12.929   8.197  -5.150  1.00  0.00     0.135 A 
ATOM     64  F   UNL     1     -11.771   7.492  -8.528  1.00  0.00    -0.206 F 
ATOM     65  C   UNL     1     -12.098   9.546  -7.443  1.00  0.00     0.059 A 
ATOM     66  C   UNL     1     -12.905   9.589  -5.153  1.00  0.00     0.059 A 
ATOM     67  F   UNL     1     -13.320   7.573  -4.028  1.00  0.00    -0.206 F 
ATOM     68  C   UNL     1     -12.473  10.254  -6.300  1.00  0.00     0.060 A 
BRANCH  68  69
ATOM     69  S   UNL     1     -12.396  12.057  -6.338  1.00  0.00     0.124 S 
ATOM     70  O   UNL     1     -10.960  12.289  -6.228  1.00  0.00    -0.237 OA
ATOM     71  O   UNL     1     -12.991  12.370  -7.634  1.00  0.00    -0.237 OA
ATOM     72  O   UNL     1     -13.187  12.455  -5.177  1.00  0.00    -0.744 OA
ENDBRANCH  68  69
ENDBRANCH  47  61
BRANCH  48  73
ATOM     73  C   UNL     1     -12.488  -2.531  -5.809  1.00  0.00     0.058 A 
ATOM     74  C   UNL     1     -12.883  -3.314  -6.904  1.00  0.00     0.135 A 
ATOM     75  C   UNL     1     -12.067  -3.195  -4.647  1.00  0.00     0.135 A 
ATOM     76  F   UNL     1     -13.297  -2.724  -8.035  1.00  0.00    -0.206 F 
ATOM     77  C   UNL     1     -12.873  -4.704  -6.847  1.00  0.00     0.059 A 
ATOM     78  C   UNL     1     -12.029  -4.584  -4.572  1.00  0.00     0.059 A 
ATOM     79  F   UNL     1     -11.662  -2.490  -3.579  1.00  0.00    -0.206 F 
ATOM     80  C   UNL     1     -12.442  -5.330  -5.676  1.00  0.00     0.060 A 
BRANCH  80  81
ATOM     81  S   UNL     1     -12.376  -7.135  -5.631  1.00  0.00     0.124 S 
ATOM     82  O   UNL     1     -13.787  -7.477  -5.491  1.00  0.00    -0.237 OA
ATOM     83  O   UNL     1     -11.766  -7.453  -6.919  1.00  0.00    -0.237 OA
ATOM     84  O   UNL     1     -11.539  -7.409  -4.467  1.00  0.00    -0.744 OA
ENDBRANCH  80  81
ENDBRANCH  48  73
BRANCH  60  85
ATOM     85  C   UNL     1     -17.551   2.249  -6.140  1.00  0.00     0.058 A 
ATOM     86  C   UNL     1     -18.292   1.950  -4.987  1.00  0.00     0.135 A 
ATOM     87  C   UNL     1     -18.255   2.499  -7.329  1.00  0.00     0.135 A 
ATOM     88  F   UNL     1     -17.665   1.695  -3.828  1.00  0.00    -0.206 F 
ATOM     89  C   UNL     1     -19.681   1.885  -5.014  1.00  0.00     0.059 A 
ATOM     90  C   UNL     1     -19.645   2.461  -7.374  1.00  0.00     0.059 A 
ATOM     91  F   UNL     1     -17.592   2.797  -8.458  1.00  0.00    -0.206 F 
ATOM     92  C   UNL     1     -20.349   2.143  -6.213  1.00  0.00     0.060 A 
BRANCH  92  93
ATOM     93  S   UNL     1     -22.154   2.093  -6.230  1.00  0.00     0.124 S 
ATOM     94  O   UNL     1     -22.408   0.656  -6.235  1.00  0.00    -0.237 OA
ATOM     95  O   UNL     1     -22.500   2.793  -4.997  1.00  0.00    -0.237 OA
ATOM     96  O   UNL     1     -22.501   2.798  -7.461  1.00  0.00    -0.744 OA
ENDBRANCH  92  93
ENDBRANCH  60  85
ENDBRANCH  34  35
ENDBRANCH  26  29
ENDBRANCH  24  25
ENDBRANCH  23  24
ENDBRANCH   1  23
TORSDOF 18
