REMARK SMILES Cc1ccc(Oc2ccc(NC(=O)CCCC(=O)NCCCCNC(=O)c3ccc(-c4c5nc(c(-c6c(F)cc(S(=O)(=O)[O-])cc6F)c6ccc([nH]6)c(-c6c(F)cc(S(=O)(=O)[O-])cc6F)c6nc(c(-c7c(F)cc(S(=O)(=O)[O-])cc7F)c7ccc4[nH]7)C=C6)C=C5)cc3)cc2)cc1C
REMARK SMILES IDX 20 1 19 2 17 3 18 4 16 6 15 7 14 8 12 9 11 10 13 12 10 13
REMARK SMILES IDX 7 14 8 15 94 16 9 17 93 18 6 19 5 20 1 21 2 22 3 23 96 24
REMARK SMILES IDX 4 25 95 26 97 27 21 28 22 29 23 30 24 31 25 32 26 34 27 35
REMARK SMILES IDX 28 36 92 37 29 38 91 39 30 40 31 41 32 42 85 43 33 44 90 45
REMARK SMILES IDX 84 46 86 47 34 48 89 49 83 50 82 51 35 53 69 54 48 55 68 56
REMARK SMILES IDX 49 57 52 58 67 59 87 60 50 61 51 62 66 64 88 65 53 66 36 67
REMARK SMILES IDX 37 68 46 69 38 70 39 71 45 72 47 73 40 74 41 75 42 76 43 77
REMARK SMILES IDX 44 78 70 79 71 80 80 81 72 82 73 83 79 84 81 85 74 86 75 87
REMARK SMILES IDX 76 88 77 89 78 90 54 91 55 92 64 93 56 94 57 95 63 96 65 97
REMARK SMILES IDX 58 98 59 99 60 100 61 101 62 102
REMARK H PARENT 19 5 11 11 24 33 86 52 52 63
REMARK Flexibility Score: inf
ROOT
ATOM      1  C   UNL     1      -6.923   0.380   3.196  1.00  0.00     0.116 C 
ENDROOT
BRANCH   1   2
ATOM      2  N   UNL     1      -6.947  -1.061   3.380  1.00  0.00    -0.356 N 
ATOM      3  C   UNL     1      -7.167  -2.166   2.635  1.00  0.00     0.220 C 
ATOM      4  O   UNL     1      -6.769  -3.218   3.158  1.00  0.00    -0.275 OA
ATOM      5  H   UNL     1      -6.746  -1.300   4.313  1.00  0.00     0.163 HD
BRANCH   3   6
ATOM      6  C   UNL     1      -7.765  -2.253   1.232  1.00  0.00     0.100 C 
BRANCH   6   7
ATOM      7  C   UNL     1      -9.123  -1.659   0.883  1.00  0.00     0.020 C 
BRANCH   7   8
ATOM      8  C   UNL     1      -9.337  -0.157   0.731  1.00  0.00     0.101 C 
BRANCH   8   9
ATOM      9  C   UNL     1      -9.162   0.574  -0.598  1.00  0.00     0.224 C 
ATOM     10  N   UNL     1      -8.034   0.789  -1.319  1.00  0.00    -0.326 N 
ATOM     11  H   UNL     1      -8.236   1.288  -2.143  1.00  0.00     0.169 HD
ATOM     12  O   UNL     1     -10.180   1.088  -1.096  1.00  0.00    -0.275 OA
BRANCH  10  13
ATOM     13  C   UNL     1      -6.662   0.508  -1.235  1.00  0.00     0.041 A 
ATOM     14  C   UNL     1      -3.959  -0.276  -1.285  1.00  0.00     0.127 A 
ATOM     15  C   UNL     1      -4.694  -0.398  -0.120  1.00  0.00     0.049 A 
ATOM     16  C   UNL     1      -4.537   0.301  -2.412  1.00  0.00     0.049 A 
ATOM     17  C   UNL     1      -6.026   0.022  -0.113  1.00  0.00     0.030 A 
ATOM     18  C   UNL     1      -5.880   0.709  -2.378  1.00  0.00     0.030 A 
BRANCH  14  19
ATOM     19  O   UNL     1      -2.730  -0.869  -1.377  1.00  0.00    -0.457 OA
BRANCH  19  20
ATOM     20  C   UNL     1      -1.646  -0.238  -0.812  1.00  0.00     0.127 A 
ATOM     21  C   UNL     1       2.106   1.548   0.336  1.00  0.00     0.044 C 
ATOM     22  C   UNL     1       0.798   0.877   0.016  1.00  0.00    -0.048 A 
ATOM     23  C   UNL     1      -0.361   1.666  -0.085  1.00  0.00     0.007 A 
ATOM     24  C   UNL     1       0.712  -0.505  -0.231  1.00  0.00    -0.045 A 
ATOM     25  C   UNL     1      -1.577   1.115  -0.497  1.00  0.00     0.047 A 
ATOM     26  C   UNL     1      -0.517  -1.046  -0.642  1.00  0.00     0.050 A 
ATOM     27  C   UNL     1       1.873  -1.446  -0.051  1.00  0.00     0.045 C 
ENDBRANCH  19  20
ENDBRANCH  14  19
ENDBRANCH  10  13
ENDBRANCH   8   9
ENDBRANCH   7   8
ENDBRANCH   6   7
ENDBRANCH   3   6
ENDBRANCH   1   2
BRANCH   1  28
ATOM     28  C   UNL     1      -7.677   1.134   4.290  1.00  0.00     0.023 C 
BRANCH  28  29
ATOM     29  C   UNL     1      -6.809   2.216   4.933  1.00  0.00     0.023 C 
BRANCH  29  30
ATOM     30  C   UNL     1      -6.343   3.302   3.964  1.00  0.00     0.116 C 
BRANCH  30  31
ATOM     31  N   UNL     1      -7.371   4.294   3.692  1.00  0.00    -0.352 N 
ATOM     32  C   UNL     1      -7.429   5.611   4.089  1.00  0.00     0.251 C 
ATOM     33  H   UNL     1      -8.130   3.981   3.148  1.00  0.00     0.163 HD
ATOM     34  O   UNL     1      -8.447   6.271   3.899  1.00  0.00    -0.269 OA
BRANCH  32  35
ATOM     35  C   UNL     1      -6.270   6.215   4.781  1.00  0.00     0.039 A 
ATOM     36  C   UNL     1      -6.469   6.866   6.000  1.00  0.00     0.014 A 
ATOM     37  C   UNL     1      -4.984   6.093   4.250  1.00  0.00     0.014 A 
ATOM     38  C   UNL     1      -5.366   7.319   6.728  1.00  0.00     0.010 A 
ATOM     39  C   UNL     1      -3.883   6.465   5.018  1.00  0.00     0.010 A 
ATOM     40  C   UNL     1      -4.060   7.081   6.266  1.00  0.00    -0.014 A 
BRANCH  40  41
ATOM     41  C   UNL     1      -2.871   7.470   7.072  1.00  0.00     0.031 A 
ATOM     42  C   UNL     1      -1.881   8.464   6.522  1.00  0.00     0.074 A 
ATOM     43  C   UNL     1      -2.643   6.878   8.263  1.00  0.00     0.049 A 
ATOM     44  N   UNL     1      -0.750   8.872   7.036  1.00  0.00    -0.248 NA
ATOM     45  C   UNL     1      -2.184   9.054   5.206  1.00  0.00     0.031 C 
ATOM     46  C   UNL     1      -3.490   5.849   8.876  1.00  0.00     0.029 A 
ATOM     47  N   UNL     1      -1.624   7.043   9.169  1.00  0.00    -0.354 N 
ATOM     48  C   UNL     1      -0.197   9.739   6.100  1.00  0.00     0.074 A 
ATOM     49  C   UNL     1      -1.093   9.767   4.966  1.00  0.00     0.031 C 
ATOM     50  C   UNL     1      -2.966   5.493  10.061  1.00  0.00     0.029 A 
ATOM     51  C   UNL     1      -1.731   6.238  10.280  1.00  0.00     0.049 A 
ATOM     52  H   UNL     1      -0.885   7.680   9.036  1.00  0.00     0.167 HD
ATOM     53  C   UNL     1       0.942  10.465   6.188  1.00  0.00     0.037 A 
ATOM     54  C   UNL     1      -0.921   6.108  11.350  1.00  0.00     0.037 A 
ATOM     55  C   UNL     1       1.798  10.483   7.345  1.00  0.00     0.049 A 
ATOM     56  C   UNL     1       0.319   6.962  11.438  1.00  0.00     0.074 A 
ATOM     57  C   UNL     1       2.921  11.261   7.567  1.00  0.00     0.029 A 
ATOM     58  N   UNL     1       1.627   9.695   8.471  1.00  0.00    -0.354 N 
ATOM     59  N   UNL     1       0.774   7.844  10.580  1.00  0.00    -0.248 NA
ATOM     60  C   UNL     1       1.149   6.811  12.642  1.00  0.00     0.031 C 
ATOM     61  C   UNL     1       3.455  10.912   8.811  1.00  0.00     0.029 A 
ATOM     62  C   UNL     1       2.635   9.953   9.384  1.00  0.00     0.049 A 
ATOM     63  H   UNL     1       0.896   9.048   8.603  1.00  0.00     0.167 HD
ATOM     64  C   UNL     1       1.922   8.377  11.158  1.00  0.00     0.074 A 
ATOM     65  C   UNL     1       2.084   7.729  12.442  1.00  0.00     0.031 C 
ATOM     66  C   UNL     1       2.767   9.318  10.670  1.00  0.00     0.037 A 
BRANCH  53  67
ATOM     67  C   UNL     1       1.332  11.322   5.017  1.00  0.00     0.058 A 
ATOM     68  C   UNL     1       0.641  12.504   4.705  1.00  0.00     0.135 A 
ATOM     69  C   UNL     1       2.467  11.005   4.252  1.00  0.00     0.135 A 
ATOM     70  F   UNL     1      -0.461  12.845   5.392  1.00  0.00    -0.206 F 
ATOM     71  C   UNL     1       1.060  13.339   3.675  1.00  0.00     0.059 A 
ATOM     72  C   UNL     1       2.918  11.839   3.234  1.00  0.00     0.059 A 
ATOM     73  F   UNL     1       3.159   9.883   4.505  1.00  0.00    -0.206 F 
ATOM     74  C   UNL     1       2.205  13.003   2.951  1.00  0.00     0.060 A 
BRANCH  74  75
ATOM     75  S   UNL     1       2.767  14.129   1.657  1.00  0.00     0.124 S 
ATOM     76  O   UNL     1       1.761  13.909   0.623  1.00  0.00    -0.237 OA
ATOM     77  O   UNL     1       2.714  15.425   2.327  1.00  0.00    -0.237 OA
ATOM     78  O   UNL     1       4.107  13.644   1.342  1.00  0.00    -0.744 OA
ENDBRANCH  74  75
ENDBRANCH  53  67
BRANCH  54  79
ATOM     79  C   UNL     1      -1.245   5.142  12.436  1.00  0.00     0.058 A 
ATOM     80  C   UNL     1      -1.598   5.586  13.720  1.00  0.00     0.135 A 
ATOM     81  C   UNL     1      -1.166   3.757  12.226  1.00  0.00     0.135 A 
ATOM     82  F   UNL     1      -1.685   6.901  13.973  1.00  0.00    -0.206 F 
ATOM     83  C   UNL     1      -1.814   4.697  14.768  1.00  0.00     0.059 A 
ATOM     84  C   UNL     1      -1.407   2.846  13.250  1.00  0.00     0.059 A 
ATOM     85  F   UNL     1      -0.854   3.277  11.012  1.00  0.00    -0.206 F 
ATOM     86  C   UNL     1      -1.708   3.327  14.524  1.00  0.00     0.060 A 
BRANCH  86  87
ATOM     87  S   UNL     1      -1.984   2.177  15.889  1.00  0.00     0.124 S 
ATOM     88  O   UNL     1      -0.746   2.320  16.646  1.00  0.00    -0.237 OA
ATOM     89  O   UNL     1      -3.183   2.723  16.515  1.00  0.00    -0.237 OA
ATOM     90  O   UNL     1      -2.168   0.895  15.213  1.00  0.00    -0.744 OA
ENDBRANCH  86  87
ENDBRANCH  54  79
BRANCH  66  91
ATOM     91  C   UNL     1       3.912   9.746  11.545  1.00  0.00     0.058 A 
ATOM     92  C   UNL     1       5.020   8.916  11.773  1.00  0.00     0.135 A 
ATOM     93  C   UNL     1       3.922  11.028  12.118  1.00  0.00     0.135 A 
ATOM     94  F   UNL     1       5.057   7.679  11.250  1.00  0.00    -0.206 F 
ATOM     95  C   UNL     1       6.087   9.332  12.561  1.00  0.00     0.059 A 
ATOM     96  C   UNL     1       4.992  11.475  12.886  1.00  0.00     0.059 A 
ATOM     97  F   UNL     1       2.892  11.866  11.920  1.00  0.00    -0.206 F 
ATOM     98  C   UNL     1       6.064  10.614  13.113  1.00  0.00     0.060 A 
BRANCH  98  99
ATOM     99  S   UNL     1       7.469  11.154  14.109  1.00  0.00     0.124 S 
ATOM    100  O   UNL     1       7.250  10.416  15.349  1.00  0.00    -0.237 OA
ATOM    101  O   UNL     1       8.608  10.720  13.306  1.00  0.00    -0.237 OA
ATOM    102  O   UNL     1       7.287  12.600  14.198  1.00  0.00    -0.744 OA
ENDBRANCH  98  99
ENDBRANCH  66  91
ENDBRANCH  40  41
ENDBRANCH  32  35
ENDBRANCH  30  31
ENDBRANCH  29  30
ENDBRANCH  28  29
ENDBRANCH   1  28
TORSDOF 20
