REMARK SMILES Nc1oc2ccc(F)cc2c(=O)c1[C@@H]1[NH2+][C@H](C(=O)NCCCCNC(=O)c2ccc(-c3c4nc(c(-c5c(F)cc(S(=O)(=O)[O-])cc5F)c5ccc([nH]5)c(-c5c(F)cc(S(=O)(=O)[O-])cc5F)c5nc(c(-c6c(F)cc(S(=O)(=O)[O-])cc6F)c6ccc3[nH]6)C=C5)C=C4)cc2)CS1
REMARK SMILES IDX 22 1 21 2 20 3 19 4 17 5 18 6 16 8 14 9 15 10 94 11 93 14
REMARK SMILES IDX 13 15 2 16 3 17 4 18 11 19 5 20 10 21 12 22 6 23 9 24 7 25
REMARK SMILES IDX 8 26 1 27 23 30 24 31 25 32 26 34 27 35 28 36 92 37 29 38
REMARK SMILES IDX 91 39 30 40 31 41 32 42 85 43 33 44 90 45 84 46 86 47 34 48
REMARK SMILES IDX 89 49 83 50 82 51 35 53 69 54 48 55 68 56 49 57 52 58 67 59
REMARK SMILES IDX 87 60 50 61 51 62 66 64 88 65 53 66 36 67 37 68 46 69 38 70
REMARK SMILES IDX 39 71 45 72 47 73 40 74 41 75 42 76 43 77 44 78 70 79 71 80
REMARK SMILES IDX 80 81 72 82 73 83 79 84 81 85 74 86 75 87 76 88 77 89 78 90
REMARK SMILES IDX 54 91 55 92 64 93 56 94 57 95 63 96 65 97 58 98 59 99 60 100
REMARK SMILES IDX 61 101 62 102
REMARK H PARENT 19 7 15 12 15 13 1 28 1 29 24 33 86 52 52 63
REMARK Flexibility Score: inf
ROOT
ATOM      1  C   UNL     1      -0.690  -1.683   1.264  1.00  0.00     0.023 C 
ENDROOT
BRANCH   1   2
ATOM      2  C   UNL     1       0.807  -1.415   1.404  1.00  0.00     0.023 C 
BRANCH   2   3
ATOM      3  C   UNL     1       1.583  -1.347   0.093  1.00  0.00     0.116 C 
BRANCH   3   4
ATOM      4  N   UNL     1       1.071  -0.444  -0.914  1.00  0.00    -0.351 N 
ATOM      5  C   UNL     1       1.515   0.727  -1.428  1.00  0.00     0.279 C 
ATOM      6  O   UNL     1       1.077   1.002  -2.557  1.00  0.00    -0.268 OA
ATOM      7  H   UNL     1       0.221  -0.744  -1.309  1.00  0.00     0.163 HD
BRANCH   5   8
ATOM      8  C   UNL     1       2.340   1.802  -0.686  1.00  0.00     0.283 C 
ATOM      9  C   UNL     1       1.341   2.742   1.342  1.00  0.00     0.283 C 
ATOM     10  N   UNL     1       1.411   2.819  -0.126  1.00  0.00    -0.320 N 
ATOM     11  S   UNL     1       2.653   1.610   1.918  1.00  0.00    -0.087 SA
ATOM     12  H   UNL     1       1.738   3.748  -0.393  1.00  0.00     0.348 HD
ATOM     13  H   UNL     1       0.479   2.639  -0.499  1.00  0.00     0.348 HD
ATOM     14  C   UNL     1       3.419   1.440   0.304  1.00  0.00     0.151 C 
BRANCH   9  15
ATOM     15  C   UNL     1      -0.006   2.385   1.933  1.00  0.00     0.128 A 
ATOM     16  C   UNL     1      -1.117   1.927   1.312  1.00  0.00     0.205 A 
ATOM     17  O   UNL     1      -2.298   1.623   1.974  1.00  0.00    -0.440 OA
ATOM     18  C   UNL     1      -2.262   1.452   3.326  1.00  0.00     0.140 A 
ATOM     19  C   UNL     1      -0.135   2.648   3.400  1.00  0.00     0.205 A 
ATOM     20  C   UNL     1      -3.305   0.739   3.916  1.00  0.00     0.051 A 
ATOM     21  C   UNL     1      -1.231   1.965   4.098  1.00  0.00     0.068 A 
ATOM     22  O   UNL     1       0.644   3.370   4.013  1.00  0.00    -0.288 OA
ATOM     23  C   UNL     1      -3.296   0.529   5.293  1.00  0.00     0.043 A 
ATOM     24  C   UNL     1      -1.234   1.796   5.482  1.00  0.00     0.055 A 
ATOM     25  C   UNL     1      -2.266   1.066   6.064  1.00  0.00     0.124 A 
ATOM     26  F   UNL     1      -2.268   0.871   7.388  1.00  0.00    -0.207 F 
BRANCH  16  27
ATOM     27  N   UNL     1      -1.229   1.677  -0.017  1.00  0.00    -0.369 N 
ATOM     28  H   UNL     1      -2.079   1.343  -0.385  1.00  0.00     0.159 HD
ATOM     29  H   UNL     1      -0.461   1.830  -0.613  1.00  0.00     0.159 HD
ENDBRANCH  16  27
ENDBRANCH   9  15
ENDBRANCH   5   8
ENDBRANCH   3   4
ENDBRANCH   2   3
ENDBRANCH   1   2
BRANCH   1  30
ATOM     30  C   UNL     1      -1.177  -2.809   2.160  1.00  0.00     0.116 C 
BRANCH  30  31
ATOM     31  N   UNL     1      -0.852  -2.684   3.576  1.00  0.00    -0.352 N 
ATOM     32  C   UNL     1      -1.382  -3.397   4.637  1.00  0.00     0.251 C 
ATOM     33  H   UNL     1      -0.173  -2.009   3.806  1.00  0.00     0.163 HD
ATOM     34  O   UNL     1      -1.004  -3.175   5.784  1.00  0.00    -0.269 OA
BRANCH  32  35
ATOM     35  C   UNL     1      -2.475  -4.369   4.383  1.00  0.00     0.039 A 
ATOM     36  C   UNL     1      -2.435  -5.204   3.272  1.00  0.00     0.014 A 
ATOM     37  C   UNL     1      -3.614  -4.351   5.192  1.00  0.00     0.014 A 
ATOM     38  C   UNL     1      -3.609  -5.771   2.803  1.00  0.00     0.010 A 
ATOM     39  C   UNL     1      -4.758  -5.057   4.797  1.00  0.00     0.010 A 
ATOM     40  C   UNL     1      -4.794  -5.702   3.550  1.00  0.00    -0.014 A 
BRANCH  40  41
ATOM     41  C   UNL     1      -6.049  -6.266   2.973  1.00  0.00     0.031 A 
ATOM     42  C   UNL     1      -7.268  -5.396   2.773  1.00  0.00     0.074 A 
ATOM     43  C   UNL     1      -6.060  -7.540   2.529  1.00  0.00     0.049 A 
ATOM     44  N   UNL     1      -8.450  -5.727   2.318  1.00  0.00    -0.248 NA
ATOM     45  C   UNL     1      -7.154  -3.973   3.138  1.00  0.00     0.031 C 
ATOM     46  C   UNL     1      -4.939  -8.479   2.634  1.00  0.00     0.029 A 
ATOM     47  N   UNL     1      -7.021  -8.255   1.861  1.00  0.00    -0.354 N 
ATOM     48  C   UNL     1      -9.230  -4.577   2.392  1.00  0.00     0.074 A 
ATOM     49  C   UNL     1      -8.390  -3.535   2.941  1.00  0.00     0.031 C 
ATOM     50  C   UNL     1      -5.239  -9.603   1.969  1.00  0.00     0.029 A 
ATOM     51  C   UNL     1      -6.611  -9.514   1.488  1.00  0.00     0.049 A 
ATOM     52  H   UNL     1      -7.919  -7.901   1.666  1.00  0.00     0.167 HD
ATOM     53  C   UNL     1     -10.524  -4.405   2.030  1.00  0.00     0.037 A 
ATOM     54  C   UNL     1      -7.270 -10.505   0.858  1.00  0.00     0.037 A 
ATOM     55  C   UNL     1     -11.336  -5.431   1.428  1.00  0.00     0.049 A 
ATOM     56  C   UNL     1      -8.706 -10.296   0.481  1.00  0.00     0.074 A 
ATOM     57  C   UNL     1     -12.656  -5.354   1.016  1.00  0.00     0.029 A 
ATOM     58  N   UNL     1     -10.902  -6.715   1.132  1.00  0.00    -0.354 N 
ATOM     59  N   UNL     1      -9.441  -9.220   0.621  1.00  0.00    -0.248 NA
ATOM     60  C   UNL     1      -9.411 -11.441  -0.107  1.00  0.00     0.031 C 
ATOM     61  C   UNL     1     -13.029  -6.600   0.502  1.00  0.00     0.029 A 
ATOM     62  C   UNL     1     -11.930  -7.443   0.557  1.00  0.00     0.049 A 
ATOM     63  H   UNL     1      -9.996  -7.059   1.306  1.00  0.00     0.167 HD
ATOM     64  C   UNL     1     -10.703  -9.562   0.151  1.00  0.00     0.074 A 
ATOM     65  C   UNL     1     -10.620 -10.934  -0.309  1.00  0.00     0.031 C 
ATOM     66  C   UNL     1     -11.831  -8.812   0.119  1.00  0.00     0.037 A 
BRANCH  53  67
ATOM     67  C   UNL     1     -11.161  -3.067   2.292  1.00  0.00     0.058 A 
ATOM     68  C   UNL     1     -10.871  -1.938   1.510  1.00  0.00     0.135 A 
ATOM     69  C   UNL     1     -12.126  -2.929   3.305  1.00  0.00     0.135 A 
ATOM     70  F   UNL     1      -9.944  -2.007   0.542  1.00  0.00    -0.206 F 
ATOM     71  C   UNL     1     -11.505  -0.718   1.731  1.00  0.00     0.059 A 
ATOM     72  C   UNL     1     -12.788  -1.725   3.529  1.00  0.00     0.059 A 
ATOM     73  F   UNL     1     -12.441  -3.976   4.084  1.00  0.00    -0.206 F 
ATOM     74  C   UNL     1     -12.464  -0.622   2.741  1.00  0.00     0.060 A 
BRANCH  74  75
ATOM     75  S   UNL     1     -13.289   0.964   3.001  1.00  0.00     0.124 S 
ATOM     76  O   UNL     1     -12.215   1.755   3.593  1.00  0.00    -0.237 OA
ATOM     77  O   UNL     1     -13.678   1.338   1.645  1.00  0.00    -0.237 OA
ATOM     78  O   UNL     1     -14.391   0.632   3.898  1.00  0.00    -0.744 OA
ENDBRANCH  74  75
ENDBRANCH  53  67
BRANCH  54  79
ATOM     79  C   UNL     1      -6.577 -11.793   0.591  1.00  0.00     0.058 A 
ATOM     80  C   UNL     1      -6.229 -12.172  -0.713  1.00  0.00     0.135 A 
ATOM     81  C   UNL     1      -6.193 -12.640   1.643  1.00  0.00     0.135 A 
ATOM     82  F   UNL     1      -6.583 -11.401  -1.753  1.00  0.00    -0.206 F 
ATOM     83  C   UNL     1      -5.515 -13.339  -0.965  1.00  0.00     0.059 A 
ATOM     84  C   UNL     1      -5.454 -13.796   1.420  1.00  0.00     0.059 A 
ATOM     85  F   UNL     1      -6.491 -12.315   2.911  1.00  0.00    -0.206 F 
ATOM     86  C   UNL     1      -5.122 -14.139   0.110  1.00  0.00     0.060 A 
BRANCH  86  87
ATOM     87  S   UNL     1      -4.112 -15.600  -0.216  1.00  0.00     0.124 S 
ATOM     88  O   UNL     1      -5.098 -16.522  -0.766  1.00  0.00    -0.237 OA
ATOM     89  O   UNL     1      -3.122 -15.085  -1.158  1.00  0.00    -0.237 OA
ATOM     90  O   UNL     1      -3.588 -15.946   1.102  1.00  0.00    -0.744 OA
ENDBRANCH  86  87
ENDBRANCH  54  79
BRANCH  66  91
ATOM     91  C   UNL     1     -13.067  -9.464  -0.427  1.00  0.00     0.058 A 
ATOM     92  C   UNL     1     -13.788 -10.401   0.329  1.00  0.00     0.135 A 
ATOM     93  C   UNL     1     -13.559  -9.118  -1.695  1.00  0.00     0.135 A 
ATOM     94  F   UNL     1     -13.351 -10.770   1.543  1.00  0.00    -0.206 F 
ATOM     95  C   UNL     1     -14.947 -10.989  -0.163  1.00  0.00     0.059 A 
ATOM     96  C   UNL     1     -14.729  -9.678  -2.198  1.00  0.00     0.059 A 
ATOM     97  F   UNL     1     -12.908  -8.221  -2.451  1.00  0.00    -0.206 F 
ATOM     98  C   UNL     1     -15.410 -10.621  -1.428  1.00  0.00     0.060 A 
BRANCH  98  99
ATOM     99  S   UNL     1     -16.931 -11.373  -2.043  1.00  0.00     0.124 S 
ATOM    100  O   UNL     1     -16.480 -12.721  -2.370  1.00  0.00    -0.237 OA
ATOM    101  O   UNL     1     -17.822 -11.263  -0.892  1.00  0.00    -0.237 OA
ATOM    102  O   UNL     1     -17.287 -10.535  -3.185  1.00  0.00    -0.744 OA
ENDBRANCH  98  99
ENDBRANCH  66  91
ENDBRANCH  40  41
ENDBRANCH  32  35
ENDBRANCH  30  31
ENDBRANCH   1  30
TORSDOF 16
