REMARK SMILES CC(C)Cc1cc2c(cc1Cl)C=C(C(=O)NCCCCNC(=O)c1ccc(-c3c4nc(c(-c5c(F)cc(S(=O)(=O)[O-])cc5F)c5ccc([nH]5)c(-c5c(F)cc(S(=O)(=O)[O-])cc5F)c5nc(c(-c6c(F)cc(S(=O)(=O)[O-])cc6F)c6ccc3[nH]6)C=C5)C=C4)cc1)[C@@H](C(F)(F)F)O2
REMARK SMILES IDX 19 1 18 2 17 3 16 4 14 5 15 6 13 8 5 9 6 10 10 11 7 12 9 13
REMARK SMILES IDX 11 14 8 15 95 16 12 17 90 18 4 19 2 20 1 21 3 22 91 23 92 24
REMARK SMILES IDX 93 25 94 26 20 27 21 28 22 29 23 31 24 32 25 33 89 34 26 35
REMARK SMILES IDX 88 36 27 37 28 38 29 39 82 40 30 41 87 42 81 43 83 44 31 45
REMARK SMILES IDX 86 46 80 47 79 48 32 50 66 51 45 52 65 53 46 54 49 55 64 56
REMARK SMILES IDX 84 57 47 58 48 59 63 61 85 62 50 63 33 64 34 65 43 66 35 67
REMARK SMILES IDX 36 68 42 69 44 70 37 71 38 72 39 73 40 74 41 75 67 76 68 77
REMARK SMILES IDX 77 78 69 79 70 80 76 81 78 82 71 83 72 84 73 85 74 86 75 87
REMARK SMILES IDX 51 88 52 89 61 90 53 91 54 92 60 93 62 94 55 95 56 96 57 97
REMARK SMILES IDX 58 98 59 99
REMARK H PARENT 16 7 21 30 83 49 49 60
REMARK Flexibility Score: inf
ROOT
ATOM      1  C   UNL     1      -1.956  -4.434   8.839  1.00  0.00     0.023 C 
ENDROOT
BRANCH   1   2
ATOM      2  C   UNL     1      -1.985  -3.925   7.396  1.00  0.00     0.023 C 
BRANCH   2   3
ATOM      3  C   UNL     1      -3.336  -3.371   6.950  1.00  0.00     0.116 C 
BRANCH   3   4
ATOM      4  N   UNL     1      -3.495  -1.966   7.284  1.00  0.00    -0.352 N 
ATOM      5  C   UNL     1      -3.398  -0.779   6.639  1.00  0.00     0.251 C 
ATOM      6  O   UNL     1      -3.631   0.219   7.328  1.00  0.00    -0.270 OA
ATOM      7  H   UNL     1      -3.737  -1.844   8.230  1.00  0.00     0.163 HD
BRANCH   5   8
ATOM      8  C   UNL     1      -3.034  -0.606   5.201  1.00  0.00     0.067 C 
ATOM      9  C   UNL     1      -1.538   1.344   0.778  1.00  0.00    -0.025 A 
ATOM     10  C   UNL     1      -1.734   0.047   1.276  1.00  0.00     0.052 A 
ATOM     11  C   UNL     1      -1.815   2.429   1.624  1.00  0.00     0.045 A 
ATOM     12  C   UNL     1      -2.153  -0.160   2.587  1.00  0.00     0.128 A 
ATOM     13  C   UNL     1      -2.258   2.216   2.938  1.00  0.00     0.032 A 
ATOM     14  Cl  UNL     1      -1.601   4.064   1.107  1.00  0.00    -0.084 Cl
ATOM     15  C   UNL     1      -2.414   0.917   3.428  1.00  0.00     0.019 A 
ATOM     16  O   UNL     1      -2.214  -1.458   2.997  1.00  0.00    -0.475 OA
ATOM     17  C   UNL     1      -2.780   0.660   4.814  1.00  0.00     0.025 C 
ATOM     18  C   UNL     1      -2.977  -1.729   4.203  1.00  0.00     0.314 C 
BRANCH   9  19
ATOM     19  C   UNL     1      -0.977   1.489  -0.619  1.00  0.00     0.040 C 
BRANCH  19  20
ATOM     20  C   UNL     1       0.566   1.534  -0.662  1.00  0.00    -0.013 C 
ATOM     21  C   UNL     1       1.216   0.247  -0.142  1.00  0.00     0.008 C 
ATOM     22  C   UNL     1       1.032   1.786  -2.098  1.00  0.00     0.008 C 
ENDBRANCH  19  20
ENDBRANCH   9  19
BRANCH  18  23
ATOM     23  C   UNL     1      -4.372  -2.232   3.793  1.00  0.00     0.429 C 
ATOM     24  F   UNL     1      -4.272  -3.416   3.138  1.00  0.00    -0.167 F 
ATOM     25  F   UNL     1      -5.185  -2.446   4.852  1.00  0.00    -0.167 F 
ATOM     26  F   UNL     1      -5.011  -1.370   2.970  1.00  0.00    -0.167 F 
ENDBRANCH  18  23
ENDBRANCH   5   8
ENDBRANCH   3   4
ENDBRANCH   2   3
ENDBRANCH   1   2
BRANCH   1  27
ATOM     27  C   UNL     1      -3.005  -5.490   9.188  1.00  0.00     0.116 C 
BRANCH  27  28
ATOM     28  N   UNL     1      -3.030  -6.634   8.286  1.00  0.00    -0.352 N 
ATOM     29  C   UNL     1      -3.503  -7.901   8.553  1.00  0.00     0.251 C 
ATOM     30  H   UNL     1      -2.667  -6.485   7.383  1.00  0.00     0.163 HD
ATOM     31  O   UNL     1      -3.405  -8.796   7.720  1.00  0.00    -0.269 OA
BRANCH  29  32
ATOM     32  C   UNL     1      -4.073  -8.168   9.888  1.00  0.00     0.039 A 
ATOM     33  C   UNL     1      -5.094  -7.355  10.385  1.00  0.00     0.014 A 
ATOM     34  C   UNL     1      -3.494  -9.156  10.687  1.00  0.00     0.014 A 
ATOM     35  C   UNL     1      -5.413  -7.415  11.736  1.00  0.00     0.010 A 
ATOM     36  C   UNL     1      -3.869  -9.261  12.028  1.00  0.00     0.010 A 
ATOM     37  C   UNL     1      -4.785  -8.350  12.577  1.00  0.00    -0.014 A 
BRANCH  37  38
ATOM     38  C   UNL     1      -5.067  -8.319  14.034  1.00  0.00     0.031 A 
ATOM     39  C   UNL     1      -3.997  -7.907  15.011  1.00  0.00     0.074 A 
ATOM     40  C   UNL     1      -6.314  -8.582  14.468  1.00  0.00     0.049 A 
ATOM     41  N   UNL     1      -4.069  -7.797  16.313  1.00  0.00    -0.248 NA
ATOM     42  C   UNL     1      -2.674  -7.575  14.457  1.00  0.00     0.031 C 
ATOM     43  C   UNL     1      -7.439  -8.966  13.613  1.00  0.00     0.029 A 
ATOM     44  N   UNL     1      -6.854  -8.532  15.727  1.00  0.00    -0.354 N 
ATOM     45  C   UNL     1      -2.804  -7.406  16.736  1.00  0.00     0.074 A 
ATOM     46  C   UNL     1      -1.974  -7.316  15.554  1.00  0.00     0.031 C 
ATOM     47  C   UNL     1      -8.548  -9.058  14.363  1.00  0.00     0.029 A 
ATOM     48  C   UNL     1      -8.202  -8.794  15.756  1.00  0.00     0.049 A 
ATOM     49  H   UNL     1      -6.326  -8.328  16.533  1.00  0.00     0.167 HD
ATOM     50  C   UNL     1      -2.375  -7.139  17.992  1.00  0.00     0.037 A 
ATOM     51  C   UNL     1      -9.065  -8.823  16.789  1.00  0.00     0.037 A 
ATOM     52  C   UNL     1      -3.211  -7.200  19.163  1.00  0.00     0.049 A 
ATOM     53  C   UNL     1      -8.561  -8.546  18.175  1.00  0.00     0.074 A 
ATOM     54  C   UNL     1      -2.869  -6.942  20.480  1.00  0.00     0.029 A 
ATOM     55  N   UNL     1      -4.557  -7.532  19.158  1.00  0.00    -0.354 N 
ATOM     56  N   UNL     1      -7.352  -8.211  18.557  1.00  0.00    -0.248 NA
ATOM     57  C   UNL     1      -9.531  -8.668  19.271  1.00  0.00     0.031 C 
ATOM     58  C   UNL     1      -4.004  -7.142  21.274  1.00  0.00     0.029 A 
ATOM     59  C   UNL     1      -5.059  -7.496  20.448  1.00  0.00     0.049 A 
ATOM     60  H   UNL     1      -5.080  -7.759  18.355  1.00  0.00     0.167 HD
ATOM     61  C   UNL     1      -7.414  -8.088  19.939  1.00  0.00     0.074 A 
ATOM     62  C   UNL     1      -8.785  -8.360  20.323  1.00  0.00     0.031 C 
ATOM     63  C   UNL     1      -6.423  -7.783  20.812  1.00  0.00     0.037 A 
BRANCH  50  64
ATOM     64  C   UNL     1      -0.932  -6.762  18.173  1.00  0.00     0.058 A 
ATOM     65  C   UNL     1      -0.459  -5.484  17.840  1.00  0.00     0.135 A 
ATOM     66  C   UNL     1      -0.021  -7.675  18.729  1.00  0.00     0.135 A 
ATOM     67  F   UNL     1      -1.285  -4.580  17.288  1.00  0.00    -0.206 F 
ATOM     68  C   UNL     1       0.871  -5.128  18.038  1.00  0.00     0.059 A 
ATOM     69  C   UNL     1       1.310  -7.335  18.952  1.00  0.00     0.059 A 
ATOM     70  F   UNL     1      -0.423  -8.912  19.062  1.00  0.00    -0.206 F 
ATOM     71  C   UNL     1       1.749  -6.061  18.593  1.00  0.00     0.060 A 
BRANCH  71  72
ATOM     72  S   UNL     1       3.472  -5.583  18.847  1.00  0.00     0.124 S 
ATOM     73  O   UNL     1       3.987  -5.619  17.482  1.00  0.00    -0.237 OA
ATOM     74  O   UNL     1       3.345  -4.256  19.441  1.00  0.00    -0.237 OA
ATOM     75  O   UNL     1       3.984  -6.619  19.739  1.00  0.00    -0.744 OA
ENDBRANCH  71  72
ENDBRANCH  50  64
BRANCH  51  76
ATOM     76  C   UNL     1     -10.495  -9.127  16.536  1.00  0.00     0.058 A 
ATOM     77  C   UNL     1     -11.465  -8.117  16.597  1.00  0.00     0.135 A 
ATOM     78  C   UNL     1     -10.910 -10.417  16.174  1.00  0.00     0.135 A 
ATOM     79  F   UNL     1     -11.114  -6.869  16.944  1.00  0.00    -0.206 F 
ATOM     80  C   UNL     1     -12.799  -8.373  16.300  1.00  0.00     0.059 A 
ATOM     81  C   UNL     1     -12.234 -10.694  15.854  1.00  0.00     0.059 A 
ATOM     82  F   UNL     1     -10.013 -11.412  16.090  1.00  0.00    -0.206 F 
ATOM     83  C   UNL     1     -13.172  -9.665  15.923  1.00  0.00     0.060 A 
BRANCH  83  84
ATOM     84  S   UNL     1     -14.890  -9.972  15.455  1.00  0.00     0.124 S 
ATOM     85  O   UNL     1     -15.541 -10.035  16.758  1.00  0.00    -0.237 OA
ATOM     86  O   UNL     1     -15.202  -8.802  14.640  1.00  0.00    -0.237 OA
ATOM     87  O   UNL     1     -14.815 -11.233  14.723  1.00  0.00    -0.744 OA
ENDBRANCH  83  84
ENDBRANCH  51  76
BRANCH  63  88
ATOM     88  C   UNL     1      -6.781  -7.739  22.267  1.00  0.00     0.058 A 
ATOM     89  C   UNL     1      -6.929  -8.918  23.013  1.00  0.00     0.135 A 
ATOM     90  C   UNL     1      -6.923  -6.513  22.934  1.00  0.00     0.135 A 
ATOM     91  F   UNL     1      -6.809 -10.115  22.416  1.00  0.00    -0.206 F 
ATOM     92  C   UNL     1      -7.218  -8.883  24.373  1.00  0.00     0.059 A 
ATOM     93  C   UNL     1      -7.195  -6.454  24.297  1.00  0.00     0.059 A 
ATOM     94  F   UNL     1      -6.784  -5.359  22.263  1.00  0.00    -0.206 F 
ATOM     95  C   UNL     1      -7.348  -7.646  25.006  1.00  0.00     0.060 A 
BRANCH  95  96
ATOM     96  S   UNL     1      -7.684  -7.612  26.779  1.00  0.00     0.124 S 
ATOM     97  O   UNL     1      -9.103  -7.952  26.816  1.00  0.00    -0.237 OA
ATOM     98  O   UNL     1      -6.774  -8.633  27.291  1.00  0.00    -0.237 OA
ATOM     99  O   UNL     1      -7.356  -6.242  27.160  1.00  0.00    -0.744 OA
ENDBRANCH  95  96
ENDBRANCH  63  88
ENDBRANCH  37  38
ENDBRANCH  29  32
ENDBRANCH  27  28
ENDBRANCH   1  27
TORSDOF 17
