REMARK SMILES Nc1cc(C(=O)NCCCCNC(=O)c2ccc(-c3c4nc(c(-c5c(F)cc(S(=O)(=O)[O-])cc5F)c5ccc([nH]5)c(-c5c(F)cc(S(=O)(=O)[O-])cc5F)c5nc(c(-c6c(F)cc(S(=O)(=O)[O-])cc6F)c6ccc3[nH]6)C=C5)C=C4)cc2)c(-c2ccc(F)cc2O)cn1
REMARK SMILES IDX 10 1 9 2 8 3 7 4 5 5 6 6 4 8 2 9 3 10 91 11 90 12 81 13 1 14
REMARK SMILES IDX 82 17 83 18 88 19 84 20 87 21 85 22 86 23 89 24 11 26 12 27
REMARK SMILES IDX 13 28 14 30 15 31 16 32 80 33 17 34 79 35 18 36 19 37 20 38
REMARK SMILES IDX 73 39 21 40 78 41 72 42 74 43 22 44 77 45 71 46 70 47 23 49
REMARK SMILES IDX 57 50 36 51 56 52 37 53 40 54 55 55 75 56 38 57 39 58 54 60
REMARK SMILES IDX 76 61 41 62 24 63 25 64 34 65 26 66 27 67 33 68 35 69 28 70
REMARK SMILES IDX 29 71 30 72 31 73 32 74 58 75 59 76 68 77 60 78 61 79 67 80
REMARK SMILES IDX 69 81 62 82 63 83 64 84 65 85 66 86 42 87 43 88 52 89 44 90
REMARK SMILES IDX 45 91 51 92 53 93 46 94 47 95 48 96 49 97 50 98
REMARK H PARENT 7 7 1 15 1 16 89 25 12 29 74 48 40 59
REMARK Flexibility Score: inf
ROOT
ATOM      1  C   UNL     1       0.053  -5.805   1.457  1.00  0.00     0.023 C 
ENDROOT
BRANCH   1   2
ATOM      2  C   UNL     1       0.617  -4.458   0.981  1.00  0.00     0.023 C 
BRANCH   2   3
ATOM      3  C   UNL     1       0.089  -4.003  -0.384  1.00  0.00     0.116 C 
BRANCH   3   4
ATOM      4  N   UNL     1      -1.277  -3.542  -0.250  1.00  0.00    -0.352 N 
ATOM      5  C   UNL     1      -1.854  -2.350   0.101  1.00  0.00     0.252 C 
ATOM      6  O   UNL     1      -3.046  -2.429   0.402  1.00  0.00    -0.269 OA
ATOM      7  H   UNL     1      -1.939  -4.241  -0.458  1.00  0.00     0.163 HD
BRANCH   5   8
ATOM      8  C   UNL     1      -1.155  -1.020   0.135  1.00  0.00     0.052 A 
ATOM      9  C   UNL     1       0.879   0.289   0.243  1.00  0.00     0.124 A 
ATOM     10  C   UNL     1       0.231  -0.932   0.323  1.00  0.00     0.061 A 
ATOM     11  N   UNL     1       0.224   1.437   0.070  1.00  0.00    -0.239 NA
ATOM     12  C   UNL     1      -1.123   1.363  -0.020  1.00  0.00     0.123 A 
ATOM     13  C   UNL     1      -1.884   0.186   0.001  1.00  0.00     0.017 A 
BRANCH   9  14
ATOM     14  N   UNL     1       2.248   0.376   0.400  1.00  0.00    -0.384 N 
ATOM     15  H   UNL     1       2.781  -0.442   0.531  1.00  0.00     0.158 HD
ATOM     16  H   UNL     1       2.691   1.255   0.382  1.00  0.00     0.158 HD
ENDBRANCH   9  14
BRANCH  13  17
ATOM     17  C   UNL     1      -3.354   0.337  -0.080  1.00  0.00     0.026 A 
ATOM     18  C   UNL     1      -3.951   0.892  -1.228  1.00  0.00     0.015 A 
ATOM     19  C   UNL     1      -4.206   0.039   1.002  1.00  0.00     0.126 A 
ATOM     20  C   UNL     1      -5.331   1.122  -1.282  1.00  0.00     0.040 A 
ATOM     21  C   UNL     1      -5.578   0.265   0.961  1.00  0.00     0.086 A 
ATOM     22  C   UNL     1      -6.129   0.806  -0.188  1.00  0.00     0.126 A 
ATOM     23  F   UNL     1      -7.449   1.025  -0.249  1.00  0.00    -0.207 F 
BRANCH  19  24
ATOM     24  O   UNL     1      -3.720  -0.567   2.130  1.00  0.00    -0.507 OA
ATOM     25  H   UNL     1      -2.803  -0.743   2.209  1.00  0.00     0.293 HD
ENDBRANCH  19  24
ENDBRANCH  13  17
ENDBRANCH   5   8
ENDBRANCH   3   4
ENDBRANCH   2   3
ENDBRANCH   1   2
BRANCH   1  26
ATOM     26  C   UNL     1       0.358  -6.992   0.548  1.00  0.00     0.116 C 
BRANCH  26  27
ATOM     27  N   UNL     1       1.777  -7.152   0.278  1.00  0.00    -0.352 N 
ATOM     28  C   UNL     1       2.476  -8.305   0.009  1.00  0.00     0.251 C 
ATOM     29  H   UNL     1       2.309  -6.324   0.289  1.00  0.00     0.163 HD
ATOM     30  O   UNL     1       3.695  -8.273  -0.092  1.00  0.00    -0.269 OA
BRANCH  28  31
ATOM     31  C   UNL     1       1.744  -9.582  -0.113  1.00  0.00     0.039 A 
ATOM     32  C   UNL     1       2.192 -10.682   0.623  1.00  0.00     0.014 A 
ATOM     33  C   UNL     1       0.612  -9.686  -0.925  1.00  0.00     0.014 A 
ATOM     34  C   UNL     1       1.465 -11.873   0.593  1.00  0.00     0.010 A 
ATOM     35  C   UNL     1      -0.143 -10.855  -0.908  1.00  0.00     0.010 A 
ATOM     36  C   UNL     1       0.273 -11.957  -0.146  1.00  0.00    -0.014 A 
BRANCH  36  37
ATOM     37  C   UNL     1      -0.556 -13.187  -0.125  1.00  0.00     0.031 A 
ATOM     38  C   UNL     1      -0.735 -13.998  -1.378  1.00  0.00     0.074 A 
ATOM     39  C   UNL     1      -1.201 -13.532   1.007  1.00  0.00     0.049 A 
ATOM     40  N   UNL     1      -1.478 -15.055  -1.577  1.00  0.00    -0.248 NA
ATOM     41  C   UNL     1      -0.002 -13.546  -2.571  1.00  0.00     0.031 C 
ATOM     42  C   UNL     1      -1.145 -12.794   2.272  1.00  0.00     0.029 A 
ATOM     43  N   UNL     1      -2.040 -14.584   1.275  1.00  0.00    -0.354 N 
ATOM     44  C   UNL     1      -1.315 -15.387  -2.916  1.00  0.00     0.074 A 
ATOM     45  C   UNL     1      -0.438 -14.391  -3.494  1.00  0.00     0.031 C 
ATOM     46  C   UNL     1      -1.903 -13.425   3.184  1.00  0.00     0.029 A 
ATOM     47  C   UNL     1      -2.523 -14.591   2.563  1.00  0.00     0.049 A 
ATOM     48  H   UNL     1      -2.274 -15.269   0.608  1.00  0.00     0.167 HD
ATOM     49  C   UNL     1      -1.830 -16.439  -3.596  1.00  0.00     0.037 A 
ATOM     50  C   UNL     1      -3.376 -15.439   3.171  1.00  0.00     0.037 A 
ATOM     51  C   UNL     1      -2.677 -17.443  -3.007  1.00  0.00     0.049 A 
ATOM     52  C   UNL     1      -3.924 -16.607   2.397  1.00  0.00     0.074 A 
ATOM     53  C   UNL     1      -3.204 -18.578  -3.597  1.00  0.00     0.029 A 
ATOM     54  N   UNL     1      -3.118 -17.434  -1.692  1.00  0.00    -0.354 N 
ATOM     55  N   UNL     1      -3.711 -16.938   1.146  1.00  0.00    -0.248 NA
ATOM     56  C   UNL     1      -4.822 -17.519   3.118  1.00  0.00     0.031 C 
ATOM     57  C   UNL     1      -3.991 -19.239  -2.647  1.00  0.00     0.029 A 
ATOM     58  C   UNL     1      -3.921 -18.537  -1.455  1.00  0.00     0.049 A 
ATOM     59  H   UNL     1      -2.893 -16.745  -1.025  1.00  0.00     0.167 HD
ATOM     60  C   UNL     1      -4.428 -18.111   0.937  1.00  0.00     0.074 A 
ATOM     61  C   UNL     1      -5.071 -18.437   2.193  1.00  0.00     0.031 C 
ATOM     62  C   UNL     1      -4.544 -18.850  -0.194  1.00  0.00     0.037 A 
BRANCH  49  63
ATOM     63  C   UNL     1      -1.480 -16.566  -5.052  1.00  0.00     0.058 A 
ATOM     64  C   UNL     1      -0.190 -16.936  -5.466  1.00  0.00     0.135 A 
ATOM     65  C   UNL     1      -2.451 -16.353  -6.044  1.00  0.00     0.135 A 
ATOM     66  F   UNL     1       0.780 -17.135  -4.560  1.00  0.00    -0.206 F 
ATOM     67  C   UNL     1       0.131 -17.066  -6.813  1.00  0.00     0.059 A 
ATOM     68  C   UNL     1      -2.158 -16.503  -7.396  1.00  0.00     0.059 A 
ATOM     69  F   UNL     1      -3.699 -15.996  -5.702  1.00  0.00    -0.206 F 
ATOM     70  C   UNL     1      -0.860 -16.847  -7.771  1.00  0.00     0.060 A 
BRANCH  70  71
ATOM     71  S   UNL     1      -0.428 -17.029  -9.515  1.00  0.00     0.124 S 
ATOM     72  O   UNL     1       0.348 -15.815  -9.750  1.00  0.00    -0.237 OA
ATOM     73  O   UNL     1       0.330 -18.276  -9.521  1.00  0.00    -0.237 OA
ATOM     74  O   UNL     1      -1.725 -17.084 -10.182  1.00  0.00    -0.744 OA
ENDBRANCH  70  71
ENDBRANCH  49  63
BRANCH  50  75
ATOM     75  C   UNL     1      -3.747 -15.228   4.595  1.00  0.00     0.058 A 
ATOM     76  C   UNL     1      -3.272 -16.087   5.597  1.00  0.00     0.135 A 
ATOM     77  C   UNL     1      -4.578 -14.166   4.982  1.00  0.00     0.135 A 
ATOM     78  F   UNL     1      -2.477 -17.119   5.274  1.00  0.00    -0.206 F 
ATOM     79  C   UNL     1      -3.624 -15.915   6.931  1.00  0.00     0.059 A 
ATOM     80  C   UNL     1      -4.926 -13.960   6.314  1.00  0.00     0.059 A 
ATOM     81  F   UNL     1      -5.043 -13.305   4.063  1.00  0.00    -0.206 F 
ATOM     82  C   UNL     1      -4.454 -14.848   7.279  1.00  0.00     0.060 A 
BRANCH  82  83
ATOM     83  S   UNL     1      -4.877 -14.609   9.019  1.00  0.00     0.124 S 
ATOM     84  O   UNL     1      -5.865 -15.661   9.227  1.00  0.00    -0.237 OA
ATOM     85  O   UNL     1      -3.589 -14.803   9.679  1.00  0.00    -0.237 OA
ATOM     86  O   UNL     1      -5.389 -13.243   9.054  1.00  0.00    -0.744 OA
ENDBRANCH  82  83
ENDBRANCH  50  75
BRANCH  62  87
ATOM     87  C   UNL     1      -5.371 -20.102  -0.116  1.00  0.00     0.058 A 
ATOM     88  C   UNL     1      -6.773 -20.056  -0.068  1.00  0.00     0.135 A 
ATOM     89  C   UNL     1      -4.755 -21.363  -0.142  1.00  0.00     0.135 A 
ATOM     90  F   UNL     1      -7.409 -18.875  -0.033  1.00  0.00    -0.206 F 
ATOM     91  C   UNL     1      -7.535 -21.219  -0.027  1.00  0.00     0.059 A 
ATOM     92  C   UNL     1      -5.498 -22.539  -0.128  1.00  0.00     0.059 A 
ATOM     93  F   UNL     1      -3.417 -21.461  -0.198  1.00  0.00    -0.206 F 
ATOM     94  C   UNL     1      -6.889 -22.456  -0.059  1.00  0.00     0.060 A 
BRANCH  94  95
ATOM     95  S   UNL     1      -7.889 -23.958  -0.043  1.00  0.00     0.124 S 
ATOM     96  O   UNL     1      -8.293 -24.027   1.357  1.00  0.00    -0.237 OA
ATOM     97  O   UNL     1      -8.950 -23.639  -0.994  1.00  0.00    -0.237 OA
ATOM     98  O   UNL     1      -6.956 -24.992  -0.480  1.00  0.00    -0.744 OA
ENDBRANCH  94  95
ENDBRANCH  62  87
ENDBRANCH  36  37
ENDBRANCH  28  31
ENDBRANCH  26  27
ENDBRANCH   1  26
TORSDOF 17
