REMARK SMILES O=C(NCCCCNC(=O)c1ccc(C[NH2+]CCOc2ccccc2)nc1)c1ccc(-c2c3nc(c(-c4c(F)cc(S(=O)(=O)[O-])cc4F)c4ccc([nH]4)c(-c4c(F)cc(S(=O)(=O)[O-])cc4F)c4nc(c(-c5c(F)cc(S(=O)(=O)[O-])cc5F)c5ccc2[nH]5)C=C4)C=C3)cc1
REMARK SMILES IDX 7 1 6 2 5 3 4 4 3 5 1 6 2 7 28 9 29 10 93 11 30 12 92 13
REMARK SMILES IDX 31 14 32 15 33 16 86 17 34 18 91 19 85 20 87 21 35 22 90 23
REMARK SMILES IDX 84 24 83 25 36 27 70 28 49 29 69 30 50 31 53 32 68 33 88 34
REMARK SMILES IDX 51 35 52 36 67 38 89 39 54 40 37 41 38 42 47 43 39 44 40 45
REMARK SMILES IDX 46 46 48 47 41 48 42 49 43 50 44 51 45 52 71 53 72 54 81 55
REMARK SMILES IDX 73 56 74 57 80 58 82 59 75 60 76 61 77 62 78 63 79 64 55 65
REMARK SMILES IDX 56 66 65 67 57 68 58 69 64 70 66 71 59 72 60 73 61 74 62 75
REMARK SMILES IDX 63 76 8 77 9 78 10 80 11 81 12 82 27 83 13 84 26 85 14 86
REMARK SMILES IDX 15 87 16 88 17 91 18 92 19 93 20 94 21 95 25 96 22 97 24 98
REMARK SMILES IDX 23 99
REMARK H PARENT 3 8 87 26 53 37 8 79 16 89 16 90
REMARK Flexibility Score: inf
ROOT
ATOM      1  C   UNL     1       4.866   2.948   3.125  1.00  0.00     0.116 C 
ENDROOT
BRANCH   1   2
ATOM      2  C   UNL     1       4.535   3.411   1.709  1.00  0.00     0.023 C 
BRANCH   2   3
ATOM      3  C   UNL     1       5.047   2.503   0.593  1.00  0.00     0.023 C 
BRANCH   3   4
ATOM      4  C   UNL     1       4.674   1.033   0.733  1.00  0.00     0.116 C 
BRANCH   4   5
ATOM      5  N   UNL     1       3.237   0.815   0.741  1.00  0.00    -0.352 N 
ATOM      6  O   UNL     1       1.268   0.012  -0.002  1.00  0.00    -0.269 OA
ATOM      7  C   UNL     1       2.489  -0.038  -0.038  1.00  0.00     0.251 C 
ATOM      8  H   UNL     1       2.729   1.350   1.392  1.00  0.00     0.163 HD
BRANCH   7   9
ATOM      9  C   UNL     1       3.177  -0.999  -0.930  1.00  0.00     0.039 A 
ATOM     10  C   UNL     1       4.247  -1.764  -0.459  1.00  0.00     0.014 A 
ATOM     11  C   UNL     1       2.735  -1.141  -2.248  1.00  0.00     0.014 A 
ATOM     12  C   UNL     1       4.946  -2.587  -1.334  1.00  0.00     0.010 A 
ATOM     13  C   UNL     1       3.390  -2.027  -3.106  1.00  0.00     0.010 A 
ATOM     14  C   UNL     1       4.508  -2.749  -2.658  1.00  0.00    -0.014 A 
BRANCH  14  15
ATOM     15  C   UNL     1       5.151  -3.774  -3.516  1.00  0.00     0.031 A 
ATOM     16  C   UNL     1       5.926  -3.397  -4.745  1.00  0.00     0.074 A 
ATOM     17  C   UNL     1       5.006  -5.068  -3.166  1.00  0.00     0.049 A 
ATOM     18  N   UNL     1       6.516  -4.179  -5.612  1.00  0.00    -0.248 NA
ATOM     19  C   UNL     1       6.053  -1.963  -5.050  1.00  0.00     0.031 C 
ATOM     20  C   UNL     1       4.247  -5.545  -2.004  1.00  0.00     0.029 A 
ATOM     21  N   UNL     1       5.477  -6.218  -3.745  1.00  0.00    -0.354 N 
ATOM     22  C   UNL     1       7.064  -3.342  -6.575  1.00  0.00     0.074 A 
ATOM     23  C   UNL     1       6.731  -1.986  -6.193  1.00  0.00     0.031 C 
ATOM     24  C   UNL     1       4.317  -6.882  -1.948  1.00  0.00     0.029 A 
ATOM     25  C   UNL     1       5.070  -7.362  -3.100  1.00  0.00     0.049 A 
ATOM     26  H   UNL     1       6.051  -6.223  -4.545  1.00  0.00     0.167 HD
ATOM     27  C   UNL     1       7.778  -3.682  -7.674  1.00  0.00     0.037 A 
ATOM     28  C   UNL     1       5.246  -8.657  -3.420  1.00  0.00     0.037 A 
ATOM     29  C   UNL     1       8.126  -5.037  -8.023  1.00  0.00     0.049 A 
ATOM     30  C   UNL     1       6.022  -8.999  -4.658  1.00  0.00     0.074 A 
ATOM     31  C   UNL     1       8.930  -5.476  -9.062  1.00  0.00     0.029 A 
ATOM     32  N   UNL     1       7.681  -6.170  -7.358  1.00  0.00    -0.354 N 
ATOM     33  N   UNL     1       6.603  -8.191  -5.511  1.00  0.00    -0.248 NA
ATOM     34  C   UNL     1       6.159 -10.424  -4.985  1.00  0.00     0.031 C 
ATOM     35  C   UNL     1       8.925  -6.874  -9.058  1.00  0.00     0.029 A 
ATOM     36  C   UNL     1       8.155  -7.307  -7.991  1.00  0.00     0.049 A 
ATOM     37  H   UNL     1       7.112  -6.166  -6.555  1.00  0.00     0.167 HD
ATOM     38  C   UNL     1       7.173  -9.009  -6.478  1.00  0.00     0.074 A 
ATOM     39  C   UNL     1       6.894 -10.376  -6.087  1.00  0.00     0.031 C 
ATOM     40  C   UNL     1       7.857  -8.659  -7.593  1.00  0.00     0.037 A 
BRANCH  27  41
ATOM     41  C   UNL     1       8.235  -2.591  -8.602  1.00  0.00     0.058 A 
ATOM     42  C   UNL     1       9.320  -1.761  -8.290  1.00  0.00     0.135 A 
ATOM     43  C   UNL     1       7.651  -2.457  -9.873  1.00  0.00     0.135 A 
ATOM     44  F   UNL     1       9.907  -1.840  -7.085  1.00  0.00    -0.206 F 
ATOM     45  C   UNL     1       9.815  -0.836  -9.206  1.00  0.00     0.059 A 
ATOM     46  C   UNL     1       8.140  -1.553 -10.812  1.00  0.00     0.059 A 
ATOM     47  F   UNL     1       6.607  -3.227 -10.221  1.00  0.00    -0.206 F 
ATOM     48  C   UNL     1       9.223  -0.746 -10.468  1.00  0.00     0.060 A 
BRANCH  48  49
ATOM     49  S   UNL     1       9.913   0.419 -11.664  1.00  0.00     0.124 S 
ATOM     50  O   UNL     1       9.481   1.698 -11.107  1.00  0.00    -0.237 OA
ATOM     51  O   UNL     1      11.343   0.142 -11.579  1.00  0.00    -0.237 OA
ATOM     52  O   UNL     1       9.276   0.036 -12.920  1.00  0.00    -0.744 OA
ENDBRANCH  48  49
ENDBRANCH  27  41
BRANCH  28  53
ATOM     53  C   UNL     1       4.627  -9.718  -2.584  1.00  0.00     0.058 A 
ATOM     54  C   UNL     1       5.409 -10.586  -1.811  1.00  0.00     0.135 A 
ATOM     55  C   UNL     1       3.232  -9.879  -2.542  1.00  0.00     0.135 A 
ATOM     56  F   UNL     1       6.746 -10.472  -1.820  1.00  0.00    -0.206 F 
ATOM     57  C   UNL     1       4.834 -11.594  -1.044  1.00  0.00     0.059 A 
ATOM     58  C   UNL     1       2.632 -10.859  -1.761  1.00  0.00     0.059 A 
ATOM     59  F   UNL     1       2.438  -9.059  -3.249  1.00  0.00    -0.206 F 
ATOM     60  C   UNL     1       3.443 -11.724  -1.029  1.00  0.00     0.060 A 
BRANCH  60  61
ATOM     61  S   UNL     1       2.700 -13.018  -0.014  1.00  0.00     0.124 S 
ATOM     62  O   UNL     1       2.938 -14.202  -0.832  1.00  0.00    -0.237 OA
ATOM     63  O   UNL     1       3.475 -12.928   1.220  1.00  0.00    -0.237 OA
ATOM     64  O   UNL     1       1.307 -12.596   0.098  1.00  0.00    -0.744 OA
ENDBRANCH  60  61
ENDBRANCH  28  53
BRANCH  40  65
ATOM     65  C   UNL     1       8.345  -9.773  -8.473  1.00  0.00     0.058 A 
ATOM     66  C   UNL     1       7.462 -10.488  -9.297  1.00  0.00     0.135 A 
ATOM     67  C   UNL     1       9.710 -10.096  -8.532  1.00  0.00     0.135 A 
ATOM     68  F   UNL     1       6.146 -10.224  -9.267  1.00  0.00    -0.206 F 
ATOM     69  C   UNL     1       7.915 -11.495 -10.142  1.00  0.00     0.059 A 
ATOM     70  C   UNL     1      10.187 -11.083  -9.387  1.00  0.00     0.059 A 
ATOM     71  F   UNL     1      10.594  -9.438  -7.766  1.00  0.00    -0.206 F 
ATOM     72  C   UNL     1       9.280 -11.783 -10.183  1.00  0.00     0.060 A 
BRANCH  72  73
ATOM     73  S   UNL     1       9.860 -13.061 -11.318  1.00  0.00     0.124 S 
ATOM     74  O   UNL     1       9.431 -14.277 -10.634  1.00  0.00    -0.237 OA
ATOM     75  O   UNL     1       9.142 -12.738 -12.547  1.00  0.00    -0.237 OA
ATOM     76  O   UNL     1      11.303 -12.843 -11.366  1.00  0.00    -0.744 OA
ENDBRANCH  72  73
ENDBRANCH  40  65
ENDBRANCH  14  15
ENDBRANCH   7   9
ENDBRANCH   4   5
ENDBRANCH   3   4
ENDBRANCH   2   3
ENDBRANCH   1   2
BRANCH   1  77
ATOM     77  N   UNL     1       6.298   2.873   3.367  1.00  0.00    -0.352 N 
ATOM     78  C   UNL     1       7.075   3.614   4.221  1.00  0.00     0.252 C 
ATOM     79  H   UNL     1       6.779   2.192   2.844  1.00  0.00     0.163 HD
ATOM     80  O   UNL     1       8.299   3.530   4.186  1.00  0.00    -0.269 OA
BRANCH  78  81
ATOM     81  C   UNL     1       6.443   4.530   5.179  1.00  0.00     0.058 A 
ATOM     82  C   UNL     1       5.428   4.121   6.040  1.00  0.00     0.017 A 
ATOM     83  C   UNL     1       6.883   5.840   5.252  1.00  0.00     0.125 A 
ATOM     84  C   UNL     1       4.836   5.058   6.882  1.00  0.00     0.030 A 
ATOM     85  N   UNL     1       6.327   6.771   6.066  1.00  0.00    -0.255 NA
ATOM     86  C   UNL     1       5.300   6.374   6.863  1.00  0.00     0.094 A 
BRANCH  86  87
ATOM     87  C   UNL     1       4.678   7.409   7.788  1.00  0.00     0.318 C 
BRANCH  87  88
ATOM     88  N   UNL     1       5.617   7.878   8.812  1.00  0.00    -0.338 N 
ATOM     89  H   UNL     1       6.082   8.715   8.460  1.00  0.00     0.346 HD
ATOM     90  H   UNL     1       6.266   7.111   8.988  1.00  0.00     0.346 HD
BRANCH  88  91
ATOM     91  C   UNL     1       4.991   8.204  10.094  1.00  0.00     0.302 C 
BRANCH  91  92
ATOM     92  C   UNL     1       4.450   7.013  10.911  1.00  0.00     0.290 C 
BRANCH  92  93
ATOM     93  O   UNL     1       5.524   6.228  11.450  1.00  0.00    -0.488 OA
BRANCH  93  94
ATOM     94  C   UNL     1       5.741   5.072  10.754  1.00  0.00     0.119 A 
ATOM     95  C   UNL     1       4.817   4.027  10.750  1.00  0.00     0.046 A 
ATOM     96  C   UNL     1       6.963   4.934  10.099  1.00  0.00     0.046 A 
ATOM     97  C   UNL     1       5.098   2.862  10.032  1.00  0.00     0.004 A 
ATOM     98  C   UNL     1       7.233   3.781   9.366  1.00  0.00     0.004 A 
ATOM     99  C   UNL     1       6.299   2.745   9.331  1.00  0.00     0.000 A 
ENDBRANCH  93  94
ENDBRANCH  92  93
ENDBRANCH  91  92
ENDBRANCH  88  91
ENDBRANCH  87  88
ENDBRANCH  86  87
ENDBRANCH  78  81
ENDBRANCH   1  77
TORSDOF 20
