REMARK SMILES O=C(NCCCCNC(=O)c1ccc(-c2c3nc(c(-c4c(F)cc(S(=O)(=O)[O-])cc4F)c4ccc([nH]4)c(-c4c(F)cc(S(=O)(=O)[O-])cc4F)c4nc(c(-c5c(F)cc(S(=O)(=O)[O-])cc5F)c5ccc2[nH]5)C=C4)C=C3)cc1)C1=Cc2cc(Cl)cc(Cl)c2O[C@@H]1C(F)(F)F
REMARK SMILES IDX 6 1 5 2 4 3 3 4 1 5 2 6 77 8 78 9 88 10 79 11 87 12 80 13
REMARK SMILES IDX 86 14 81 15 84 16 82 17 83 18 85 19 89 20 90 21 91 22 92 23
REMARK SMILES IDX 7 24 8 25 9 26 10 28 11 29 12 30 76 31 13 32 75 33 14 34
REMARK SMILES IDX 15 35 16 36 69 37 17 38 74 39 68 40 70 41 18 42 73 43 67 44
REMARK SMILES IDX 66 45 19 47 53 48 32 49 52 50 33 51 36 52 51 53 71 54 34 55
REMARK SMILES IDX 35 56 50 58 72 59 37 60 20 61 21 62 30 63 22 64 23 65 29 66
REMARK SMILES IDX 31 67 24 68 25 69 26 70 27 71 28 72 54 73 55 74 64 75 56 76
REMARK SMILES IDX 57 77 63 78 65 79 58 80 59 81 60 82 61 83 62 84 38 85 39 86
REMARK SMILES IDX 48 87 40 88 41 89 47 90 49 91 42 92 43 93 44 94 45 95 46 96
REMARK H PARENT 3 7 8 27 70 46 36 57
REMARK Flexibility Score: inf
ROOT
ATOM      1  C   UNL     1       4.022   1.971  -4.122  1.00  0.00     0.023 C 
ENDROOT
BRANCH   1   2
ATOM      2  C   UNL     1       4.193   0.689  -3.303  1.00  0.00     0.023 C 
BRANCH   2   3
ATOM      3  C   UNL     1       3.662   0.764  -1.869  1.00  0.00     0.116 C 
BRANCH   3   4
ATOM      4  N   UNL     1       2.591  -0.193  -1.585  1.00  0.00    -0.352 N 
ATOM      5  O   UNL     1       1.223  -1.441  -0.277  1.00  0.00    -0.270 OA
ATOM      6  C   UNL     1       2.314  -0.908  -0.442  1.00  0.00     0.251 C 
ATOM      7  H   UNL     1       1.969  -0.351  -2.331  1.00  0.00     0.163 HD
BRANCH   6   8
ATOM      8  C   UNL     1       3.310  -0.893   0.649  1.00  0.00     0.067 C 
ATOM      9  C   UNL     1       4.539  -1.410   0.508  1.00  0.00     0.025 C 
ATOM     10  C   UNL     1       2.987  -0.062   1.852  1.00  0.00     0.314 C 
ATOM     11  C   UNL     1       5.563  -0.394   0.827  1.00  0.00     0.020 A 
ATOM     12  O   UNL     1       3.953   0.996   2.038  1.00  0.00    -0.474 OA
ATOM     13  C   UNL     1       6.787  -0.451   0.143  1.00  0.00     0.032 A 
ATOM     14  C   UNL     1       5.200   0.802   1.487  1.00  0.00     0.146 A 
ATOM     15  C   UNL     1       7.619   0.671   0.101  1.00  0.00     0.043 A 
ATOM     16  C   UNL     1       6.064   1.907   1.460  1.00  0.00     0.085 A 
ATOM     17  Cl  UNL     1       9.056   0.624  -0.843  1.00  0.00    -0.084 Cl
ATOM     18  C   UNL     1       7.265   1.848   0.754  1.00  0.00     0.045 A 
ATOM     19  Cl  UNL     1       5.621   3.404   2.199  1.00  0.00    -0.080 Cl
BRANCH  10  20
ATOM     20  C   UNL     1       2.887  -0.941   3.116  1.00  0.00     0.429 C 
ATOM     21  F   UNL     1       2.512  -0.214   4.196  1.00  0.00    -0.167 F 
ATOM     22  F   UNL     1       1.975  -1.932   2.976  1.00  0.00    -0.167 F 
ATOM     23  F   UNL     1       4.067  -1.532   3.430  1.00  0.00    -0.167 F 
ENDBRANCH  10  20
ENDBRANCH   6   8
ENDBRANCH   3   4
ENDBRANCH   2   3
ENDBRANCH   1   2
BRANCH   1  24
ATOM     24  C   UNL     1       4.599   3.256  -3.528  1.00  0.00     0.116 C 
BRANCH  24  25
ATOM     25  N   UNL     1       6.036   3.237  -3.290  1.00  0.00    -0.352 N 
ATOM     26  C   UNL     1       6.970   4.224  -3.560  1.00  0.00     0.251 C 
ATOM     27  H   UNL     1       6.390   2.413  -2.883  1.00  0.00     0.163 HD
ATOM     28  O   UNL     1       8.144   4.060  -3.287  1.00  0.00    -0.269 OA
BRANCH  26  29
ATOM     29  C   UNL     1       6.522   5.456  -4.253  1.00  0.00     0.039 A 
ATOM     30  C   UNL     1       7.093   5.767  -5.490  1.00  0.00     0.014 A 
ATOM     31  C   UNL     1       5.459   6.210  -3.753  1.00  0.00     0.014 A 
ATOM     32  C   UNL     1       6.500   6.743  -6.294  1.00  0.00     0.010 A 
ATOM     33  C   UNL     1       4.828   7.135  -4.584  1.00  0.00     0.010 A 
ATOM     34  C   UNL     1       5.315   7.374  -5.880  1.00  0.00    -0.014 A 
BRANCH  34  35
ATOM     35  C   UNL     1       4.503   8.183  -6.827  1.00  0.00     0.031 A 
ATOM     36  C   UNL     1       4.250   9.640  -6.576  1.00  0.00     0.074 A 
ATOM     37  C   UNL     1       3.892   7.564  -7.859  1.00  0.00     0.049 A 
ATOM     38  N   UNL     1       3.490  10.470  -7.243  1.00  0.00    -0.248 NA
ATOM     39  C   UNL     1       4.917  10.235  -5.409  1.00  0.00     0.031 C 
ATOM     40  C   UNL     1       3.993   6.135  -8.166  1.00  0.00     0.029 A 
ATOM     41  N   UNL     1       3.045   8.049  -8.824  1.00  0.00    -0.354 N 
ATOM     42  C   UNL     1       3.575  11.683  -6.571  1.00  0.00     0.074 A 
ATOM     43  C   UNL     1       4.426  11.466  -5.419  1.00  0.00     0.031 C 
ATOM     44  C   UNL     1       3.244   5.862  -9.246  1.00  0.00     0.029 A 
ATOM     45  C   UNL     1       2.583   7.085  -9.689  1.00  0.00     0.049 A 
ATOM     46  H   UNL     1       2.793   8.999  -8.891  1.00  0.00     0.167 HD
ATOM     47  C   UNL     1       3.010  12.872  -6.895  1.00  0.00     0.037 A 
ATOM     48  C   UNL     1       1.712   7.166 -10.714  1.00  0.00     0.037 A 
ATOM     49  C   UNL     1       2.175  13.088  -8.047  1.00  0.00     0.049 A 
ATOM     50  C   UNL     1       1.106   8.494 -11.063  1.00  0.00     0.074 A 
ATOM     51  C   UNL     1       1.626  14.274  -8.503  1.00  0.00     0.029 A 
ATOM     52  N   UNL     1       1.755  12.093  -8.918  1.00  0.00    -0.354 N 
ATOM     53  N   UNL     1       1.270   9.652 -10.469  1.00  0.00    -0.248 NA
ATOM     54  C   UNL     1       0.198   8.531 -12.218  1.00  0.00     0.031 C 
ATOM     55  C   UNL     1       0.844  13.990  -9.630  1.00  0.00     0.029 A 
ATOM     56  C   UNL     1       0.932  12.632  -9.894  1.00  0.00     0.049 A 
ATOM     57  H   UNL     1       2.005  11.143  -8.853  1.00  0.00     0.167 HD
ATOM     58  C   UNL     1       0.489  10.556 -11.179  1.00  0.00     0.074 A 
ATOM     59  C   UNL     1      -0.133   9.815 -12.258  1.00  0.00     0.031 C 
ATOM     60  C   UNL     1       0.304  11.880 -10.953  1.00  0.00     0.037 A 
BRANCH  47  61
ATOM     61  C   UNL     1       3.288  14.029  -5.977  1.00  0.00     0.058 A 
ATOM     62  C   UNL     1       4.554  14.634  -5.925  1.00  0.00     0.135 A 
ATOM     63  C   UNL     1       2.287  14.528  -5.130  1.00  0.00     0.135 A 
ATOM     64  F   UNL     1       5.550  14.186  -6.707  1.00  0.00    -0.206 F 
ATOM     65  C   UNL     1       4.833  15.661  -5.030  1.00  0.00     0.059 A 
ATOM     66  C   UNL     1       2.536  15.571  -4.243  1.00  0.00     0.059 A 
ATOM     67  F   UNL     1       1.059  13.987  -5.142  1.00  0.00    -0.206 F 
ATOM     68  C   UNL     1       3.820  16.114  -4.184  1.00  0.00     0.060 A 
BRANCH  68  69
ATOM     69  S   UNL     1       4.204  17.416  -2.994  1.00  0.00     0.124 S 
ATOM     70  O   UNL     1       4.905  16.662  -1.959  1.00  0.00    -0.237 OA
ATOM     71  O   UNL     1       5.028  18.330  -3.779  1.00  0.00    -0.237 OA
ATOM     72  O   UNL     1       2.890  17.928  -2.618  1.00  0.00    -0.744 OA
ENDBRANCH  68  69
ENDBRANCH  47  61
BRANCH  48  73
ATOM     73  C   UNL     1       1.377   5.940 -11.482  1.00  0.00     0.058 A 
ATOM     74  C   UNL     1       1.920   5.716 -12.755  1.00  0.00     0.135 A 
ATOM     75  C   UNL     1       0.561   4.940 -10.931  1.00  0.00     0.135 A 
ATOM     76  F   UNL     1       2.700   6.647 -13.324  1.00  0.00    -0.206 F 
ATOM     77  C   UNL     1       1.673   4.539 -13.454  1.00  0.00     0.059 A 
ATOM     78  C   UNL     1       0.314   3.747 -11.602  1.00  0.00     0.059 A 
ATOM     79  F   UNL     1       0.032   5.103  -9.708  1.00  0.00    -0.206 F 
ATOM     80  C   UNL     1       0.876   3.556 -12.864  1.00  0.00     0.060 A 
BRANCH  80  81
ATOM     81  S   UNL     1       0.644   1.988 -13.732  1.00  0.00     0.124 S 
ATOM     82  O   UNL     1      -0.335   2.357 -14.748  1.00  0.00    -0.237 OA
ATOM     83  O   UNL     1       1.991   1.702 -14.216  1.00  0.00    -0.237 OA
ATOM     84  O   UNL     1       0.163   1.095 -12.683  1.00  0.00    -0.744 OA
ENDBRANCH  80  81
ENDBRANCH  48  73
BRANCH  60  85
ATOM     85  C   UNL     1      -0.617  12.616 -11.884  1.00  0.00     0.058 A 
ATOM     86  C   UNL     1      -2.010  12.487 -11.781  1.00  0.00     0.135 A 
ATOM     87  C   UNL     1      -0.106  13.500 -12.847  1.00  0.00     0.135 A 
ATOM     88  F   UNL     1      -2.546  11.646 -10.883  1.00  0.00    -0.206 F 
ATOM     89  C   UNL     1      -2.868  13.204 -12.608  1.00  0.00     0.059 A 
ATOM     90  C   UNL     1      -0.946  14.242 -13.672  1.00  0.00     0.059 A 
ATOM     91  F   UNL     1       1.220  13.661 -12.982  1.00  0.00    -0.206 F 
ATOM     92  C   UNL     1      -2.326  14.082 -13.550  1.00  0.00     0.060 A 
BRANCH  92  93
ATOM     93  S   UNL     1      -3.449  15.046 -14.585  1.00  0.00     0.124 S 
ATOM     94  O   UNL     1      -3.883  14.047 -15.556  1.00  0.00    -0.237 OA
ATOM     95  O   UNL     1      -4.462  15.482 -13.629  1.00  0.00    -0.237 OA
ATOM     96  O   UNL     1      -2.597  16.107 -15.111  1.00  0.00    -0.744 OA
ENDBRANCH  92  93
ENDBRANCH  60  85
ENDBRANCH  34  35
ENDBRANCH  26  29
ENDBRANCH  24  25
ENDBRANCH   1  24
TORSDOF 15
