REMARK SMILES O=C(C[C@@H]1C[N@@H+](CCSc2ccccc2F)CCO1)NCCCCNC(=O)c1ccc(-c2c3nc(c(-c4c(F)cc(S(=O)(=O)[O-])cc4F)c4ccc([nH]4)c(-c4c(F)cc(S(=O)(=O)[O-])cc4F)c4nc(c(-c5c(F)cc(S(=O)(=O)[O-])cc5F)c5ccc2[nH]5)C=C4)C=C3)cc1
REMARK SMILES IDX 21 1 20 2 1 3 2 4 3 6 4 7 5 8 19 9 6 10 18 11 17 12 7 14
REMARK SMILES IDX 8 15 9 16 10 17 11 18 15 19 12 20 14 21 16 22 13 23 22 24
REMARK SMILES IDX 23 25 24 26 25 27 26 28 27 30 28 31 29 32 93 33 30 34 92 35
REMARK SMILES IDX 31 36 32 37 33 38 86 39 34 40 91 41 85 42 87 43 35 44 90 45
REMARK SMILES IDX 84 46 83 47 36 49 70 50 49 51 69 52 50 53 53 54 68 55 88 56
REMARK SMILES IDX 51 57 52 58 67 60 89 61 54 62 37 63 38 64 47 65 39 66 40 67
REMARK SMILES IDX 46 68 48 69 41 70 42 71 43 72 44 73 45 74 71 75 72 76 81 77
REMARK SMILES IDX 73 78 74 79 80 80 82 81 75 82 76 83 77 84 78 85 79 86 55 87
REMARK SMILES IDX 56 88 65 89 57 90 58 91 64 92 66 93 59 94 60 95 61 96 62 97
REMARK SMILES IDX 63 98
REMARK H PARENT 20 5 6 13 25 29 87 48 53 59
REMARK Flexibility Score: inf
ROOT
ATOM      1  C   UNL     1       1.818  -2.296  -2.123  1.00  0.00     0.116 C 
ENDROOT
BRANCH   1   2
ATOM      2  N   UNL     1       2.441  -1.155  -1.507  1.00  0.00    -0.356 N 
ATOM      3  O   UNL     1       0.567  -0.223  -0.561  1.00  0.00    -0.275 OA
ATOM      4  C   UNL     1       1.759  -0.197  -0.804  1.00  0.00     0.222 C 
ATOM      5  H   UNL     1       3.417  -1.057  -1.596  1.00  0.00     0.163 HD
BRANCH   4   6
ATOM      6  C   UNL     1       2.684   0.918  -0.404  1.00  0.00     0.138 C 
BRANCH   6   7
ATOM      7  C   UNL     1       3.655   0.581   0.736  1.00  0.00     0.182 C 
ATOM      8  C   UNL     1       3.837  -0.929   1.171  1.00  0.00     0.295 C 
ATOM      9  O   UNL     1       3.144   1.426   1.774  1.00  0.00    -0.366 OA
ATOM     10  N   UNL     1       4.241  -1.183   2.569  1.00  0.00    -0.330 N 
ATOM     11  C   UNL     1       3.759   1.163   3.011  1.00  0.00     0.222 C 
ATOM     12  C   UNL     1       3.470  -0.282   3.394  1.00  0.00     0.291 C 
ATOM     13  H   UNL     1       4.027  -2.167   2.734  1.00  0.00     0.348 HD
BRANCH  10  14
ATOM     14  C   UNL     1       5.664  -1.300   2.946  1.00  0.00     0.273 C 
BRANCH  14  15
ATOM     15  C   UNL     1       6.437  -0.342   3.948  1.00  0.00     0.136 C 
BRANCH  15  16
ATOM     16  S   UNL     1       6.222  -0.276   5.825  1.00  0.00    -0.117 SA
BRANCH  16  17
ATOM     17  C   UNL     1       4.669   0.548   6.210  1.00  0.00     0.043 A 
ATOM     18  C   UNL     1       3.625  -0.277   6.669  1.00  0.00     0.018 A 
ATOM     19  C   UNL     1       4.381   1.903   6.010  1.00  0.00     0.136 A 
ATOM     20  C   UNL     1       2.300   0.179   6.686  1.00  0.00     0.001 A 
ATOM     21  C   UNL     1       3.060   2.381   6.089  1.00  0.00     0.040 A 
ATOM     22  F   UNL     1       5.331   2.758   5.601  1.00  0.00    -0.206 F 
ATOM     23  C   UNL     1       2.011   1.500   6.360  1.00  0.00     0.003 A 
ENDBRANCH  16  17
ENDBRANCH  15  16
ENDBRANCH  14  15
ENDBRANCH  10  14
ENDBRANCH   6   7
ENDBRANCH   4   6
ENDBRANCH   1   2
BRANCH   1  24
ATOM     24  C   UNL     1       2.366  -2.448  -3.537  1.00  0.00     0.023 C 
BRANCH  24  25
ATOM     25  C   UNL     1       3.894  -2.594  -3.607  1.00  0.00     0.023 C 
BRANCH  25  26
ATOM     26  C   UNL     1       4.459  -3.730  -2.760  1.00  0.00     0.116 C 
BRANCH  26  27
ATOM     27  N   UNL     1       3.907  -5.011  -3.164  1.00  0.00    -0.352 N 
ATOM     28  C   UNL     1       4.536  -6.076  -3.756  1.00  0.00     0.251 C 
ATOM     29  H   UNL     1       2.946  -5.132  -2.988  1.00  0.00     0.163 HD
ATOM     30  O   UNL     1       3.871  -6.955  -4.293  1.00  0.00    -0.269 OA
BRANCH  28  31
ATOM     31  C   UNL     1       6.012  -6.152  -3.751  1.00  0.00     0.039 A 
ATOM     32  C   UNL     1       6.674  -6.545  -4.915  1.00  0.00     0.014 A 
ATOM     33  C   UNL     1       6.738  -5.855  -2.593  1.00  0.00     0.014 A 
ATOM     34  C   UNL     1       8.069  -6.588  -4.933  1.00  0.00     0.010 A 
ATOM     35  C   UNL     1       8.129  -5.823  -2.636  1.00  0.00     0.010 A 
ATOM     36  C   UNL     1       8.810  -6.195  -3.805  1.00  0.00    -0.014 A 
BRANCH  36  37
ATOM     37  C   UNL     1      10.295  -6.162  -3.834  1.00  0.00     0.031 A 
ATOM     38  C   UNL     1      11.092  -7.053  -2.921  1.00  0.00     0.074 A 
ATOM     39  C   UNL     1      10.924  -5.292  -4.649  1.00  0.00     0.049 A 
ATOM     40  N   UNL     1      12.389  -7.122  -2.764  1.00  0.00    -0.248 NA
ATOM     41  C   UNL     1      10.335  -7.972  -2.056  1.00  0.00     0.031 C 
ATOM     42  C   UNL     1      10.259  -4.352  -5.554  1.00  0.00     0.029 A 
ATOM     43  N   UNL     1      12.261  -5.053  -4.849  1.00  0.00    -0.354 N 
ATOM     44  C   UNL     1      12.602  -8.085  -1.785  1.00  0.00     0.074 A 
ATOM     45  C   UNL     1      11.300  -8.529  -1.339  1.00  0.00     0.031 C 
ATOM     46  C   UNL     1      11.188  -3.664  -6.234  1.00  0.00     0.029 A 
ATOM     47  C   UNL     1      12.514  -4.076  -5.782  1.00  0.00     0.049 A 
ATOM     48  H   UNL     1      12.971  -5.536  -4.368  1.00  0.00     0.167 HD
ATOM     49  C   UNL     1      13.777  -8.576  -1.322  1.00  0.00     0.037 A 
ATOM     50  C   UNL     1      13.680  -3.562  -6.222  1.00  0.00     0.037 A 
ATOM     51  C   UNL     1      15.069  -8.139  -1.784  1.00  0.00     0.049 A 
ATOM     52  C   UNL     1      14.972  -4.099  -5.670  1.00  0.00     0.074 A 
ATOM     53  C   UNL     1      16.317  -8.603  -1.404  1.00  0.00     0.029 A 
ATOM     54  N   UNL     1      15.284  -7.141  -2.724  1.00  0.00    -0.354 N 
ATOM     55  N   UNL     1      15.155  -5.042  -4.777  1.00  0.00    -0.248 NA
ATOM     56  C   UNL     1      16.215  -3.508  -6.184  1.00  0.00     0.031 C 
ATOM     57  C   UNL     1      17.285  -7.849  -2.073  1.00  0.00     0.029 A 
ATOM     58  C   UNL     1      16.643  -6.957  -2.917  1.00  0.00     0.049 A 
ATOM     59  H   UNL     1      14.574  -6.638  -3.185  1.00  0.00     0.167 HD
ATOM     60  C   UNL     1      16.533  -5.173  -4.638  1.00  0.00     0.074 A 
ATOM     61  C   UNL     1      17.135  -4.221  -5.548  1.00  0.00     0.031 C 
ATOM     62  C   UNL     1      17.232  -6.006  -3.828  1.00  0.00     0.037 A 
BRANCH  49  63
ATOM     63  C   UNL     1      13.724  -9.651  -0.271  1.00  0.00     0.058 A 
ATOM     64  C   UNL     1      14.189  -9.404   1.031  1.00  0.00     0.135 A 
ATOM     65  C   UNL     1      13.272 -10.948  -0.567  1.00  0.00     0.135 A 
ATOM     66  F   UNL     1      14.629  -8.183   1.373  1.00  0.00    -0.206 F 
ATOM     67  C   UNL     1      14.219 -10.406   1.996  1.00  0.00     0.059 A 
ATOM     68  C   UNL     1      13.264 -11.957   0.391  1.00  0.00     0.059 A 
ATOM     69  F   UNL     1      12.798 -11.235  -1.790  1.00  0.00    -0.206 F 
ATOM     70  C   UNL     1      13.754 -11.680   1.667  1.00  0.00     0.060 A 
BRANCH  70  71
ATOM     71  S   UNL     1      13.767 -12.958   2.941  1.00  0.00     0.124 S 
ATOM     72  O   UNL     1      15.195 -13.192   3.119  1.00  0.00    -0.237 OA
ATOM     73  O   UNL     1      13.087 -12.291   4.048  1.00  0.00    -0.237 OA
ATOM     74  O   UNL     1      13.020 -14.054   2.329  1.00  0.00    -0.744 OA
ENDBRANCH  70  71
ENDBRANCH  49  63
BRANCH  50  75
ATOM     75  C   UNL     1      13.667  -2.499  -7.262  1.00  0.00     0.058 A 
ATOM     76  C   UNL     1      13.176  -1.213  -6.985  1.00  0.00     0.135 A 
ATOM     77  C   UNL     1      14.096  -2.765  -8.571  1.00  0.00     0.135 A 
ATOM     78  F   UNL     1      12.742  -0.909  -5.752  1.00  0.00    -0.206 F 
ATOM     79  C   UNL     1      13.079  -0.241  -7.974  1.00  0.00     0.059 A 
ATOM     80  C   UNL     1      14.035  -1.800  -9.573  1.00  0.00     0.059 A 
ATOM     81  F   UNL     1      14.584  -3.976  -8.882  1.00  0.00    -0.206 F 
ATOM     82  C   UNL     1      13.506  -0.547  -9.268  1.00  0.00     0.060 A 
BRANCH  82  83
ATOM     83  S   UNL     1      13.340   0.720 -10.543  1.00  0.00     0.124 S 
ATOM     84  O   UNL     1      11.889   0.822 -10.663  1.00  0.00    -0.237 OA
ATOM     85  O   UNL     1      14.008   1.861  -9.926  1.00  0.00    -0.237 OA
ATOM     86  O   UNL     1      14.026   0.137 -11.691  1.00  0.00    -0.744 OA
ENDBRANCH  82  83
ENDBRANCH  50  75
BRANCH  62  87
ATOM     87  C   UNL     1      18.735  -5.951  -3.892  1.00  0.00     0.058 A 
ATOM     88  C   UNL     1      19.465  -7.031  -4.415  1.00  0.00     0.135 A 
ATOM     89  C   UNL     1      19.456  -4.873  -3.354  1.00  0.00     0.135 A 
ATOM     90  F   UNL     1      18.826  -8.091  -4.937  1.00  0.00    -0.206 F 
ATOM     91  C   UNL     1      20.854  -7.057  -4.378  1.00  0.00     0.059 A 
ATOM     92  C   UNL     1      20.848  -4.864  -3.335  1.00  0.00     0.059 A 
ATOM     93  F   UNL     1      18.807  -3.811  -2.852  1.00  0.00    -0.206 F 
ATOM     94  C   UNL     1      21.537  -5.969  -3.833  1.00  0.00     0.060 A 
BRANCH  94  95
ATOM     95  S   UNL     1      23.341  -6.021  -3.795  1.00  0.00     0.124 S 
ATOM     96  O   UNL     1      23.591  -7.070  -2.812  1.00  0.00    -0.237 OA
ATOM     97  O   UNL     1      23.668  -6.355  -5.178  1.00  0.00    -0.237 OA
ATOM     98  O   UNL     1      23.711  -4.671  -3.379  1.00  0.00    -0.744 OA
ENDBRANCH  94  95
ENDBRANCH  62  87
ENDBRANCH  36  37
ENDBRANCH  28  31
ENDBRANCH  26  27
ENDBRANCH  25  26
ENDBRANCH  24  25
ENDBRANCH   1  24
TORSDOF 19
