REMARK SMILES COc1cc(C)cc2c1[C@@H](C)[C@@H](CC(=O)N[C@@H](Cc1c[nH]c3ccccc13)C(=O)NCCCCNC(=O)c1ccc(-c3c4nc(c(-c5c(F)cc(S(=O)(=O)[O-])cc5F)c5ccc([nH]5)c(-c5c(F)cc(S(=O)(=O)[O-])cc5F)c5nc(c(-c6c(F)cc(S(=O)(=O)[O-])cc6F)c6ccc3[nH]6)C=C5)C=C4)cc1)C(=O)O2
REMARK SMILES IDX 32 1 31 2 30 3 28 4 29 5 17 7 16 8 14 9 15 10 13 12 12 13
REMARK SMILES IDX 3 14 4 15 9 16 5 17 8 18 10 19 6 20 7 21 106 22 11 23 104 24
REMARK SMILES IDX 105 25 2 26 1 27 18 28 19 29 20 30 27 31 21 32 22 33 26 34
REMARK SMILES IDX 23 36 25 37 24 38 33 39 34 40 35 41 36 42 37 44 38 45 39 46
REMARK SMILES IDX 103 47 40 48 102 49 41 50 42 51 43 52 96 53 44 54 101 55
REMARK SMILES IDX 95 56 97 57 45 58 100 59 94 60 93 61 46 63 80 64 59 65 79 66
REMARK SMILES IDX 60 67 63 68 78 69 98 70 61 71 62 72 77 74 99 75 64 76 47 77
REMARK SMILES IDX 48 78 57 79 49 80 50 81 56 82 58 83 51 84 52 85 53 86 54 87
REMARK SMILES IDX 55 88 81 89 82 90 91 91 83 92 84 93 90 94 92 95 85 96 86 97
REMARK SMILES IDX 87 98 88 99 89 100 65 101 66 102 75 103 67 104 68 105 74 106
REMARK SMILES IDX 76 107 69 108 70 109 71 110 72 111 73 112
REMARK H PARENT 30 6 16 11 21 35 35 43 97 62 63 73
REMARK Flexibility Score: inf
ROOT
ATOM      1  C   UNL     1      -3.985   6.426  -8.080  1.00  0.00     0.023 C 
ENDROOT
BRANCH   1   2
ATOM      2  C   UNL     1      -2.927   5.475  -8.629  1.00  0.00     0.116 C 
BRANCH   2   3
ATOM      3  N   UNL     1      -1.777   5.449  -7.761  1.00  0.00    -0.354 N 
ATOM      4  C   UNL     1      -1.617   4.863  -6.552  1.00  0.00     0.242 C 
ATOM      5  O   UNL     1      -0.615   5.208  -5.910  1.00  0.00    -0.273 OA
ATOM      6  H   UNL     1      -0.988   5.932  -8.098  1.00  0.00     0.163 HD
BRANCH   4   7
ATOM      7  C   UNL     1      -2.578   3.816  -5.939  1.00  0.00     0.175 C 
BRANCH   7   8
ATOM      8  N   UNL     1      -3.108   4.190  -4.634  1.00  0.00    -0.344 N 
ATOM      9  C   UNL     1      -3.099   3.459  -3.483  1.00  0.00     0.221 C 
ATOM     10  O   UNL     1      -3.951   3.676  -2.622  1.00  0.00    -0.275 OA
ATOM     11  H   UNL     1      -3.525   5.080  -4.577  1.00  0.00     0.164 HD
BRANCH   9  12
ATOM     12  C   UNL     1      -1.960   2.489  -3.234  1.00  0.00     0.116 C 
BRANCH  12  13
ATOM     13  C   UNL     1      -2.202   1.004  -3.589  1.00  0.00     0.116 C 
ATOM     14  C   UNL     1       1.134   0.214  -2.031  1.00  0.00     0.126 A 
ATOM     15  C   UNL     1       2.423   0.700  -2.312  1.00  0.00     0.050 A 
ATOM     16  C   UNL     1       0.108   0.351  -2.969  1.00  0.00     0.041 A 
ATOM     17  C   UNL     1       2.711   1.342  -3.526  1.00  0.00    -0.044 A 
ATOM     18  C   UNL     1       0.460   0.880  -4.224  1.00  0.00     0.138 A 
ATOM     19  C   UNL     1      -1.361   0.015  -2.737  1.00  0.00     0.038 C 
ATOM     20  C   UNL     1       4.075   1.903  -3.792  1.00  0.00     0.044 C 
ATOM     21  C   UNL     1       1.724   1.393  -4.505  1.00  0.00     0.051 A 
ATOM     22  O   UNL     1      -0.458   0.917  -5.289  1.00  0.00    -0.426 OA
ATOM     23  C   UNL     1      -1.880   0.003  -1.296  1.00  0.00     0.014 C 
ATOM     24  C   UNL     1      -1.777   0.638  -4.993  1.00  0.00     0.315 C 
ATOM     25  O   UNL     1      -2.522   0.117  -5.815  1.00  0.00    -0.251 OA
BRANCH  14  26
ATOM     26  O   UNL     1       0.878  -0.492  -0.888  1.00  0.00    -0.496 OA
ATOM     27  C   UNL     1       1.299   0.169   0.301  1.00  0.00     0.278 C 
ENDBRANCH  14  26
ENDBRANCH  12  13
ENDBRANCH   9  12
ENDBRANCH   7   8
BRANCH   7  28
ATOM     28  C   UNL     1      -3.514   2.910  -6.734  1.00  0.00     0.072 C 
BRANCH  28  29
ATOM     29  C   UNL     1      -4.920   3.193  -7.200  1.00  0.00    -0.020 A 
ATOM     30  C   UNL     1      -5.437   2.438  -8.247  1.00  0.00     0.087 A 
ATOM     31  C   UNL     1      -6.016   4.004  -6.726  1.00  0.00     0.003 A 
ATOM     32  N   UNL     1      -6.754   2.729  -8.411  1.00  0.00    -0.361 N 
ATOM     33  C   UNL     1      -7.137   3.682  -7.505  1.00  0.00     0.046 A 
ATOM     34  C   UNL     1      -6.220   4.970  -5.716  1.00  0.00     0.010 A 
ATOM     35  H   UNL     1      -7.345   2.317  -9.082  1.00  0.00     0.166 HD
ATOM     36  C   UNL     1      -8.404   4.252  -7.321  1.00  0.00     0.026 A 
ATOM     37  C   UNL     1      -7.473   5.575  -5.535  1.00  0.00     0.001 A 
ATOM     38  C   UNL     1      -8.553   5.213  -6.325  1.00  0.00     0.002 A 
ENDBRANCH  28  29
ENDBRANCH   7  28
ENDBRANCH   4   7
ENDBRANCH   2   3
ENDBRANCH   1   2
BRANCH   1  39
ATOM     39  C   UNL     1      -3.707   7.901  -8.361  1.00  0.00     0.023 C 
BRANCH  39  40
ATOM     40  C   UNL     1      -3.639   8.253  -9.839  1.00  0.00     0.116 C 
BRANCH  40  41
ATOM     41  N   UNL     1      -4.815   7.849 -10.601  1.00  0.00    -0.352 N 
ATOM     42  C   UNL     1      -5.199   8.331 -11.833  1.00  0.00     0.251 C 
ATOM     43  H   UNL     1      -5.391   7.162 -10.195  1.00  0.00     0.163 HD
ATOM     44  O   UNL     1      -6.238   7.970 -12.373  1.00  0.00    -0.269 OA
BRANCH  42  45
ATOM     45  C   UNL     1      -4.330   9.350 -12.448  1.00  0.00     0.039 A 
ATOM     46  C   UNL     1      -2.991   9.042 -12.689  1.00  0.00     0.014 A 
ATOM     47  C   UNL     1      -4.806  10.656 -12.570  1.00  0.00     0.014 A 
ATOM     48  C   UNL     1      -2.087  10.077 -12.880  1.00  0.00     0.010 A 
ATOM     49  C   UNL     1      -3.905  11.684 -12.846  1.00  0.00     0.010 A 
ATOM     50  C   UNL     1      -2.530  11.410 -12.942  1.00  0.00    -0.014 A 
BRANCH  50  51
ATOM     51  C   UNL     1      -1.533  12.502 -13.073  1.00  0.00     0.031 A 
ATOM     52  C   UNL     1      -1.346  13.513 -11.971  1.00  0.00     0.074 A 
ATOM     53  C   UNL     1      -0.749  12.538 -14.168  1.00  0.00     0.049 A 
ATOM     54  N   UNL     1      -0.540  14.543 -11.930  1.00  0.00    -0.248 NA
ATOM     55  C   UNL     1      -2.169  13.354 -10.759  1.00  0.00     0.031 C 
ATOM     56  C   UNL     1      -0.827  11.600 -15.291  1.00  0.00     0.029 A 
ATOM     57  N   UNL     1       0.281  13.377 -14.507  1.00  0.00    -0.354 N 
ATOM     58  C   UNL     1      -0.777  15.169 -10.711  1.00  0.00     0.074 A 
ATOM     59  C   UNL     1      -1.812  14.412 -10.042  1.00  0.00     0.031 C 
ATOM     60  C   UNL     1       0.146  11.884 -16.169  1.00  0.00     0.029 A 
ATOM     61  C   UNL     1       0.871  13.063 -15.708  1.00  0.00     0.049 A 
ATOM     62  H   UNL     1       0.570  14.131 -13.945  1.00  0.00     0.167 HD
ATOM     63  C   UNL     1      -0.178  16.270 -10.197  1.00  0.00     0.037 A 
ATOM     64  C   UNL     1       1.869  13.668 -16.377  1.00  0.00     0.037 A 
ATOM     65  C   UNL     1       0.883  16.992 -10.849  1.00  0.00     0.049 A 
ATOM     66  C   UNL     1       2.501  14.896 -15.790  1.00  0.00     0.074 A 
ATOM     67  C   UNL     1       1.569  18.107 -10.396  1.00  0.00     0.029 A 
ATOM     68  N   UNL     1       1.423  16.667 -12.084  1.00  0.00    -0.354 N 
ATOM     69  N   UNL     1       2.246  15.485 -14.647  1.00  0.00    -0.248 NA
ATOM     70  C   UNL     1       3.543  15.553 -16.590  1.00  0.00     0.031 C 
ATOM     71  C   UNL     1       2.503  18.473 -11.370  1.00  0.00     0.029 A 
ATOM     72  C   UNL     1       2.423  17.566 -12.414  1.00  0.00     0.049 A 
ATOM     73  H   UNL     1       1.137  15.909 -12.643  1.00  0.00     0.167 HD
ATOM     74  C   UNL     1       3.095  16.582 -14.590  1.00  0.00     0.074 A 
ATOM     75  C   UNL     1       3.890  16.561 -15.801  1.00  0.00     0.031 C 
ATOM     76  C   UNL     1       3.200  17.529 -13.626  1.00  0.00     0.037 A 
BRANCH  63  77
ATOM     77  C   UNL     1      -0.643  16.778  -8.860  1.00  0.00     0.058 A 
ATOM     78  C   UNL     1      -0.260  16.155  -7.663  1.00  0.00     0.135 A 
ATOM     79  C   UNL     1      -1.389  17.965  -8.773  1.00  0.00     0.135 A 
ATOM     80  F   UNL     1       0.438  15.009  -7.691  1.00  0.00    -0.206 F 
ATOM     81  C   UNL     1      -0.596  16.694  -6.425  1.00  0.00     0.059 A 
ATOM     82  C   UNL     1      -1.721  18.532  -7.546  1.00  0.00     0.059 A 
ATOM     83  F   UNL     1      -1.784  18.598  -9.890  1.00  0.00    -0.206 F 
ATOM     84  C   UNL     1      -1.319  17.888  -6.377  1.00  0.00     0.060 A 
BRANCH  84  85
ATOM     85  S   UNL     1      -1.698  18.602  -4.761  1.00  0.00     0.124 S 
ATOM     86  O   UNL     1      -2.709  17.675  -4.263  1.00  0.00    -0.237 OA
ATOM     87  O   UNL     1      -0.404  18.550  -4.087  1.00  0.00    -0.237 OA
ATOM     88  O   UNL     1      -2.179  19.941  -5.085  1.00  0.00    -0.744 OA
ENDBRANCH  84  85
ENDBRANCH  63  77
BRANCH  64  89
ATOM     89  C   UNL     1       2.306  13.133 -17.691  1.00  0.00     0.058 A 
ATOM     90  C   UNL     1       3.552  12.508 -17.838  1.00  0.00     0.135 A 
ATOM     91  C   UNL     1       1.475  13.216 -18.819  1.00  0.00     0.135 A 
ATOM     92  F   UNL     1       4.381  12.409 -16.788  1.00  0.00    -0.206 F 
ATOM     93  C   UNL     1       3.965  11.992 -19.061  1.00  0.00     0.059 A 
ATOM     94  C   UNL     1       1.855  12.686 -20.046  1.00  0.00     0.059 A 
ATOM     95  F   UNL     1       0.265  13.790 -18.722  1.00  0.00    -0.206 F 
ATOM     96  C   UNL     1       3.107  12.086 -20.160  1.00  0.00     0.060 A 
BRANCH  96  97
ATOM     97  S   UNL     1       3.629  11.372 -21.734  1.00  0.00     0.124 S 
ATOM     98  O   UNL     1       4.579  12.372 -22.207  1.00  0.00    -0.237 OA
ATOM     99  O   UNL     1       4.200  10.094 -21.319  1.00  0.00    -0.237 OA
ATOM    100  O   UNL     1       2.382  11.277 -22.486  1.00  0.00    -0.744 OA
ENDBRANCH  96  97
ENDBRANCH  64  89
BRANCH  76 101
ATOM    101  C   UNL     1       4.211  18.616 -13.840  1.00  0.00     0.058 A 
ATOM    102  C   UNL     1       3.969  19.668 -14.736  1.00  0.00     0.135 A 
ATOM    103  C   UNL     1       5.407  18.636 -13.105  1.00  0.00     0.135 A 
ATOM    104  F   UNL     1       2.843  19.687 -15.467  1.00  0.00    -0.206 F 
ATOM    105  C   UNL     1       4.886  20.698 -14.908  1.00  0.00     0.059 A 
ATOM    106  C   UNL     1       6.329  19.668 -13.246  1.00  0.00     0.059 A 
ATOM    107  F   UNL     1       5.679  17.655 -12.230  1.00  0.00    -0.206 F 
ATOM    108  C   UNL     1       6.063  20.690 -14.156  1.00  0.00     0.060 A 
BRANCH 108 109
ATOM    109  S   UNL     1       7.228  22.053 -14.362  1.00  0.00     0.124 S 
ATOM    110  O   UNL     1       7.827  21.735 -15.654  1.00  0.00    -0.237 OA
ATOM    111  O   UNL     1       6.351  23.220 -14.339  1.00  0.00    -0.237 OA
ATOM    112  O   UNL     1       8.113  21.920 -13.209  1.00  0.00    -0.744 OA
ENDBRANCH 108 109
ENDBRANCH  76 101
ENDBRANCH  50  51
ENDBRANCH  42  45
ENDBRANCH  40  41
ENDBRANCH  39  40
ENDBRANCH   1  39
TORSDOF 20
