REMARK SMILES COc1c(C)cccc1C(=O)NC(=S)Nc1ccc(C(=O)NCCCCNC(=O)c2ccc(-c3c4nc(c(-c5c(F)cc(S(=O)(=O)[O-])cc5F)c5ccc([nH]5)c(-c5c(F)cc(S(=O)(=O)[O-])cc5F)c5nc(c(-c6c(F)cc(S(=O)(=O)[O-])cc6F)c6ccc3[nH]6)C=C5)C=C4)cc2)cc1C
REMARK SMILES IDX 23 1 22 2 20 3 21 4 19 6 16 7 17 8 97 9 18 10 96 11 98 12
REMARK SMILES IDX 15 13 13 15 14 16 12 17 10 18 11 19 9 21 3 22 4 23 5 24 6 25
REMARK SMILES IDX 8 26 7 27 2 28 1 29 24 30 25 31 26 32 27 33 28 34 29 36
REMARK SMILES IDX 30 37 31 38 95 39 32 40 94 41 33 42 34 43 35 44 88 45 36 46
REMARK SMILES IDX 93 47 87 48 89 49 37 50 92 51 86 52 85 53 38 55 72 56 51 57
REMARK SMILES IDX 71 58 52 59 55 60 70 61 90 62 53 63 54 64 69 66 91 67 56 68
REMARK SMILES IDX 39 69 40 70 49 71 41 72 42 73 48 74 50 75 43 76 44 77 45 78
REMARK SMILES IDX 46 79 47 80 73 81 74 82 83 83 75 84 76 85 82 86 84 87 77 88
REMARK SMILES IDX 78 89 79 90 80 91 81 92 57 93 58 94 67 95 59 96 60 97 66 98
REMARK SMILES IDX 68 99 61 100 62 101 63 102 64 103 65 104
REMARK H PARENT 22 5 15 14 12 20 27 35 89 54 55 65
REMARK Flexibility Score: inf
ROOT
ATOM      1  C   UNL     1       0.480  -6.165   3.043  1.00  0.00     0.116 C 
ENDROOT
BRANCH   1   2
ATOM      2  N   UNL     1       1.901  -6.262   3.386  1.00  0.00    -0.352 N 
ATOM      3  C   UNL     1       2.951  -5.405   3.171  1.00  0.00     0.251 C 
ATOM      4  O   UNL     1       4.054  -5.623   3.665  1.00  0.00    -0.269 OA
ATOM      5  H   UNL     1       2.147  -7.091   3.856  1.00  0.00     0.163 HD
BRANCH   3   6
ATOM      6  C   UNL     1       2.752  -4.124   2.475  1.00  0.00     0.040 A 
ATOM      7  C   UNL     1       1.761  -0.820   1.283  1.00  0.00     0.043 A 
ATOM      8  C   UNL     1       1.444  -2.310   0.259  1.00  0.00     0.027 A 
ATOM      9  C   UNL     1       2.728  -0.982   2.806  1.00  0.00    -0.027 A 
ATOM     10  C   UNL     1       1.806  -3.979   0.931  1.00  0.00     0.016 A 
ATOM     11  C   UNL     1       3.268  -2.614   3.395  1.00  0.00     0.019 A 
ATOM     12  C   UNL     1       3.318   0.240   3.438  1.00  0.00     0.046 C 
BRANCH   7  13
ATOM     13  N   UNL     1       1.206   0.435   0.975  1.00  0.00    -0.332 N 
ATOM     14  H   UNL     1       1.758   0.957   0.349  1.00  0.00     0.169 HD
BRANCH  13  15
ATOM     15  C   UNL     1       0.078   1.082   1.350  1.00  0.00     0.177 C 
ATOM     16  S   UNL     1       0.036   2.728   0.981  1.00  0.00    -0.040 S 
BRANCH  15  17
ATOM     17  N   UNL     1      -1.069   0.614   1.957  1.00  0.00    -0.299 N 
ATOM     18  C   UNL     1      -1.784  -0.439   2.583  1.00  0.00     0.261 C 
ATOM     19  O   UNL     1      -2.954  -0.263   2.919  1.00  0.00    -0.269 OA
ATOM     20  H   UNL     1      -1.690   1.379   1.956  1.00  0.00     0.172 HD
BRANCH  18  21
ATOM     21  C   UNL     1      -1.113  -1.682   2.909  1.00  0.00     0.082 A 
ATOM     22  C   UNL     1      -0.153  -2.141   2.004  1.00  0.00     0.134 A 
ATOM     23  C   UNL     1       1.252  -2.563   2.449  1.00  0.00    -0.008 A 
ATOM     24  C   UNL     1       3.098  -2.431   1.370  1.00  0.00     0.048 C 
ATOM     25  C   UNL     1       1.021  -2.969   3.923  1.00  0.00     0.007 A 
ATOM     26  C   UNL     1      -1.185  -2.104   4.227  1.00  0.00     0.018 A 
ATOM     27  C   UNL     1      -0.135  -2.827   4.716  1.00  0.00     0.001 A 
BRANCH  22  28
ATOM     28  O   UNL     1      -0.784  -2.650   0.834  1.00  0.00    -0.496 OA
ATOM     29  C   UNL     1      -1.387  -1.696  -0.067  1.00  0.00     0.278 C 
ENDBRANCH  22  28
ENDBRANCH  18  21
ENDBRANCH  15  17
ENDBRANCH  13  15
ENDBRANCH   7  13
ENDBRANCH   3   6
ENDBRANCH   1   2
BRANCH   1  30
ATOM     30  C   UNL     1       0.079  -7.109   1.907  1.00  0.00     0.023 C 
BRANCH  30  31
ATOM     31  C   UNL     1       0.292  -8.587   2.211  1.00  0.00     0.023 C 
BRANCH  31  32
ATOM     32  C   UNL     1      -0.718  -9.173   3.182  1.00  0.00     0.116 C 
BRANCH  32  33
ATOM     33  N   UNL     1      -1.833  -9.864   2.554  1.00  0.00    -0.352 N 
ATOM     34  C   UNL     1      -2.491 -10.972   3.080  1.00  0.00     0.251 C 
ATOM     35  H   UNL     1      -2.147  -9.521   1.686  1.00  0.00     0.163 HD
ATOM     36  O   UNL     1      -2.838 -11.924   2.394  1.00  0.00    -0.269 OA
BRANCH  34  37
ATOM     37  C   UNL     1      -2.930 -10.857   4.491  1.00  0.00     0.039 A 
ATOM     38  C   UNL     1      -4.301 -10.922   4.779  1.00  0.00     0.014 A 
ATOM     39  C   UNL     1      -2.030 -10.404   5.443  1.00  0.00     0.014 A 
ATOM     40  C   UNL     1      -4.784 -10.322   5.936  1.00  0.00     0.010 A 
ATOM     41  C   UNL     1      -2.509  -9.660   6.480  1.00  0.00     0.010 A 
ATOM     42  C   UNL     1      -3.886  -9.600   6.707  1.00  0.00    -0.014 A 
BRANCH  42  43
ATOM     43  C   UNL     1      -4.196  -8.808   7.875  1.00  0.00     0.031 A 
ATOM     44  C   UNL     1      -3.874  -9.418   9.178  1.00  0.00     0.074 A 
ATOM     45  C   UNL     1      -4.362  -7.484   7.670  1.00  0.00     0.049 A 
ATOM     46  N   UNL     1      -4.085  -8.862  10.310  1.00  0.00    -0.248 NA
ATOM     47  C   UNL     1      -3.276 -10.750   9.306  1.00  0.00     0.031 C 
ATOM     48  C   UNL     1      -4.151  -6.384   8.601  1.00  0.00     0.029 A 
ATOM     49  N   UNL     1      -4.953  -6.880   6.558  1.00  0.00    -0.354 N 
ATOM     50  C   UNL     1      -3.411  -9.586  11.273  1.00  0.00     0.074 A 
ATOM     51  C   UNL     1      -3.014 -10.801  10.614  1.00  0.00     0.031 C 
ATOM     52  C   UNL     1      -4.841  -5.312   8.171  1.00  0.00     0.029 A 
ATOM     53  C   UNL     1      -5.646  -5.753   7.040  1.00  0.00     0.049 A 
ATOM     54  H   UNL     1      -4.897  -7.183   5.622  1.00  0.00     0.167 HD
ATOM     55  C   UNL     1      -3.179  -8.972  12.468  1.00  0.00     0.037 A 
ATOM     56  C   UNL     1      -7.016  -5.770   7.038  1.00  0.00     0.037 A 
ATOM     57  C   UNL     1      -3.938  -7.721  12.507  1.00  0.00     0.049 A 
ATOM     58  C   UNL     1      -7.587  -5.799   8.440  1.00  0.00     0.074 A 
ATOM     59  C   UNL     1      -3.590  -6.404  12.261  1.00  0.00     0.029 A 
ATOM     60  N   UNL     1      -5.327  -7.785  12.453  1.00  0.00    -0.354 N 
ATOM     61  N   UNL     1      -6.962  -6.283   9.481  1.00  0.00    -0.248 NA
ATOM     62  C   UNL     1      -8.870  -5.199   8.789  1.00  0.00     0.031 C 
ATOM     63  C   UNL     1      -4.784  -5.701  11.938  1.00  0.00     0.029 A 
ATOM     64  C   UNL     1      -5.852  -6.581  12.026  1.00  0.00     0.049 A 
ATOM     65  H   UNL     1      -5.861  -8.578  12.686  1.00  0.00     0.167 HD
ATOM     66  C   UNL     1      -7.706  -6.056  10.611  1.00  0.00     0.074 A 
ATOM     67  C   UNL     1      -8.891  -5.373  10.122  1.00  0.00     0.031 C 
ATOM     68  C   UNL     1      -7.291  -6.418  11.864  1.00  0.00     0.037 A 
BRANCH  55  69
ATOM     69  C   UNL     1      -2.142  -9.338  13.514  1.00  0.00     0.058 A 
ATOM     70  C   UNL     1      -1.915  -8.456  14.598  1.00  0.00     0.135 A 
ATOM     71  C   UNL     1      -1.276 -10.451  13.486  1.00  0.00     0.135 A 
ATOM     72  F   UNL     1      -2.669  -7.362  14.780  1.00  0.00    -0.206 F 
ATOM     73  C   UNL     1      -0.893  -8.635  15.534  1.00  0.00     0.059 A 
ATOM     74  C   UNL     1      -0.255 -10.660  14.422  1.00  0.00     0.059 A 
ATOM     75  F   UNL     1      -1.349 -11.395  12.546  1.00  0.00    -0.206 F 
ATOM     76  C   UNL     1      -0.059  -9.736  15.434  1.00  0.00     0.060 A 
BRANCH  76  77
ATOM     77  S   UNL     1       1.269  -9.940  16.633  1.00  0.00     0.124 S 
ATOM     78  O   UNL     1       2.115  -8.786  16.345  1.00  0.00    -0.237 OA
ATOM     79  O   UNL     1       0.548  -9.899  17.901  1.00  0.00    -0.237 OA
ATOM     80  O   UNL     1       1.846 -11.236  16.287  1.00  0.00    -0.744 OA
ENDBRANCH  76  77
ENDBRANCH  55  69
BRANCH  56  81
ATOM     81  C   UNL     1      -7.561  -6.463   5.825  1.00  0.00     0.058 A 
ATOM     82  C   UNL     1      -7.319  -5.834   4.585  1.00  0.00     0.135 A 
ATOM     83  C   UNL     1      -7.767  -7.851   5.807  1.00  0.00     0.135 A 
ATOM     84  F   UNL     1      -7.157  -4.501   4.534  1.00  0.00    -0.206 F 
ATOM     85  C   UNL     1      -7.057  -6.564   3.429  1.00  0.00     0.059 A 
ATOM     86  C   UNL     1      -7.533  -8.602   4.648  1.00  0.00     0.059 A 
ATOM     87  F   UNL     1      -8.026  -8.512   6.945  1.00  0.00    -0.206 F 
ATOM     88  C   UNL     1      -7.083  -7.954   3.496  1.00  0.00     0.060 A 
BRANCH  88  89
ATOM     89  S   UNL     1      -6.343  -8.882   2.125  1.00  0.00     0.124 S 
ATOM     90  O   UNL     1      -7.092  -8.382   0.977  1.00  0.00    -0.237 OA
ATOM     91  O   UNL     1      -4.943  -8.463   2.197  1.00  0.00    -0.237 OA
ATOM     92  O   UNL     1      -6.605 -10.271   2.484  1.00  0.00    -0.744 OA
ENDBRANCH  88  89
ENDBRANCH  56  81
BRANCH  68  93
ATOM     93  C   UNL     1      -8.182  -6.550  13.084  1.00  0.00     0.058 A 
ATOM     94  C   UNL     1      -9.576  -6.723  13.022  1.00  0.00     0.135 A 
ATOM     95  C   UNL     1      -7.622  -6.655  14.384  1.00  0.00     0.135 A 
ATOM     96  F   UNL     1     -10.226  -6.800  11.853  1.00  0.00    -0.206 F 
ATOM     97  C   UNL     1     -10.364  -6.872  14.162  1.00  0.00     0.059 A 
ATOM     98  C   UNL     1      -8.382  -6.885  15.527  1.00  0.00     0.059 A 
ATOM     99  F   UNL     1      -6.303  -6.557  14.599  1.00  0.00    -0.206 F 
ATOM    100  C   UNL     1      -9.760  -6.944  15.412  1.00  0.00     0.060 A 
BRANCH 100 101
ATOM    101  S   UNL     1     -10.781  -7.141  16.878  1.00  0.00     0.124 S 
ATOM    102  O   UNL     1     -11.189  -5.763  17.129  1.00  0.00    -0.237 OA
ATOM    103  O   UNL     1     -11.837  -8.037  16.412  1.00  0.00    -0.237 OA
ATOM    104  O   UNL     1      -9.865  -7.719  17.855  1.00  0.00    -0.744 OA
ENDBRANCH 100 101
ENDBRANCH  68  93
ENDBRANCH  42  43
ENDBRANCH  34  37
ENDBRANCH  32  33
ENDBRANCH  31  32
ENDBRANCH  30  31
ENDBRANCH   1  30
TORSDOF 19
