REMARK SMILES O=C(NCCCCNC(=O)c1nnn(-c2ccccc2C(F)(F)F)c1-c1cccc(Cl)c1)c1ccc(-c2c3nc(c(-c4c(F)cc(S(=O)(=O)[O-])cc4F)c4ccc([nH]4)c(-c4c(F)cc(S(=O)(=O)[O-])cc4F)c4nc(c(-c5c(F)cc(S(=O)(=O)[O-])cc5F)c5ccc2[nH]5)C=C4)C=C3)cc1
REMARK SMILES IDX 5 1 4 2 3 3 1 4 2 5 33 7 34 8 98 9 35 10 97 11 36 12 37 13
REMARK SMILES IDX 38 14 91 15 39 16 96 17 90 18 92 19 40 20 95 21 89 22 88 23
REMARK SMILES IDX 41 25 75 26 54 27 74 28 55 29 58 30 73 31 93 32 56 33 57 34
REMARK SMILES IDX 72 36 94 37 59 38 42 39 43 40 52 41 44 42 45 43 51 44 53 45
REMARK SMILES IDX 46 46 47 47 48 48 49 49 50 50 76 51 77 52 86 53 78 54 79 55
REMARK SMILES IDX 85 56 87 57 80 58 81 59 82 60 83 61 84 62 60 63 61 64 70 65
REMARK SMILES IDX 62 66 63 67 69 68 71 69 64 70 65 71 66 72 67 73 68 74 6 75
REMARK SMILES IDX 7 76 8 77 9 78 10 80 11 81 12 82 25 83 13 84 14 85 26 86
REMARK SMILES IDX 27 87 32 88 28 89 30 90 29 91 31 92 15 93 16 94 20 95 17 96
REMARK SMILES IDX 19 97 18 98 21 99 22 100 23 101 24 102
REMARK H PARENT 3 6 92 24 58 35 8 79
REMARK Flexibility Score: inf
ROOT
ATOM      1  C   UNL     1       5.005  -2.103   0.690  1.00  0.00     0.023 C 
ENDROOT
BRANCH   1   2
ATOM      2  C   UNL     1       4.662  -1.046  -0.363  1.00  0.00     0.116 C 
BRANCH   2   3
ATOM      3  N   UNL     1       3.257  -0.899  -0.682  1.00  0.00    -0.352 N 
ATOM      4  O   UNL     1       1.220  -0.053  -0.826  1.00  0.00    -0.269 OA
ATOM      5  C   UNL     1       2.227  -0.188  -0.125  1.00  0.00     0.251 C 
ATOM      6  H   UNL     1       2.983  -1.423  -1.469  1.00  0.00     0.163 HD
BRANCH   5   7
ATOM      7  C   UNL     1       2.208   0.322   1.272  1.00  0.00     0.039 A 
ATOM      8  C   UNL     1       3.320   0.464   2.102  1.00  0.00     0.014 A 
ATOM      9  C   UNL     1       0.936   0.622   1.794  1.00  0.00     0.014 A 
ATOM     10  C   UNL     1       3.158   0.759   3.453  1.00  0.00     0.010 A 
ATOM     11  C   UNL     1       0.768   0.940   3.136  1.00  0.00     0.010 A 
ATOM     12  C   UNL     1       1.879   0.963   3.975  1.00  0.00    -0.014 A 
BRANCH  12  13
ATOM     13  C   UNL     1       1.758   1.446   5.349  1.00  0.00     0.031 A 
ATOM     14  C   UNL     1       2.304   2.822   5.519  1.00  0.00     0.074 A 
ATOM     15  C   UNL     1       1.071   0.799   6.315  1.00  0.00     0.049 A 
ATOM     16  N   UNL     1       3.326   3.195   6.219  1.00  0.00    -0.248 NA
ATOM     17  C   UNL     1       1.763   3.886   4.653  1.00  0.00     0.031 C 
ATOM     18  C   UNL     1       0.277  -0.422   6.164  1.00  0.00     0.029 A 
ATOM     19  N   UNL     1       0.838   1.146   7.616  1.00  0.00    -0.354 N 
ATOM     20  C   UNL     1       3.374   4.583   6.094  1.00  0.00     0.074 A 
ATOM     21  C   UNL     1       2.567   4.907   4.951  1.00  0.00     0.031 C 
ATOM     22  C   UNL     1      -0.529  -0.569   7.240  1.00  0.00     0.029 A 
ATOM     23  C   UNL     1      -0.235   0.476   8.206  1.00  0.00     0.049 A 
ATOM     24  H   UNL     1       1.381   1.812   8.097  1.00  0.00     0.167 HD
ATOM     25  C   UNL     1       3.795   5.360   7.131  1.00  0.00     0.037 A 
ATOM     26  C   UNL     1      -0.878   0.798   9.363  1.00  0.00     0.037 A 
ATOM     27  C   UNL     1       4.575   4.583   8.066  1.00  0.00     0.049 A 
ATOM     28  C   UNL     1       0.032   1.674  10.142  1.00  0.00     0.074 A 
ATOM     29  C   UNL     1       5.714   3.804   7.994  1.00  0.00     0.029 A 
ATOM     30  N   UNL     1       3.976   4.257   9.257  1.00  0.00    -0.354 N 
ATOM     31  N   UNL     1       1.159   1.273  10.661  1.00  0.00    -0.248 NA
ATOM     32  C   UNL     1      -0.092   3.111   9.960  1.00  0.00     0.031 C 
ATOM     33  C   UNL     1       5.492   2.733   8.911  1.00  0.00     0.029 A 
ATOM     34  C   UNL     1       4.268   2.953   9.541  1.00  0.00     0.049 A 
ATOM     35  H   UNL     1       3.430   4.859   9.812  1.00  0.00     0.167 HD
ATOM     36  C   UNL     1       2.039   2.322  10.441  1.00  0.00     0.074 A 
ATOM     37  C   UNL     1       1.189   3.461  10.097  1.00  0.00     0.031 C 
ATOM     38  C   UNL     1       3.374   2.088  10.275  1.00  0.00     0.037 A 
BRANCH  25  39
ATOM     39  C   UNL     1       3.098   6.650   7.556  1.00  0.00     0.058 A 
ATOM     40  C   UNL     1       3.598   7.338   8.685  1.00  0.00     0.135 A 
ATOM     41  C   UNL     1       1.804   7.043   7.142  1.00  0.00     0.135 A 
ATOM     42  F   UNL     1       4.829   7.080   9.154  1.00  0.00    -0.206 F 
ATOM     43  C   UNL     1       2.818   8.222   9.431  1.00  0.00     0.059 A 
ATOM     44  C   UNL     1       1.030   7.960   7.843  1.00  0.00     0.059 A 
ATOM     45  F   UNL     1       1.179   6.509   6.090  1.00  0.00    -0.206 F 
ATOM     46  C   UNL     1       1.523   8.504   9.014  1.00  0.00     0.060 A 
BRANCH  46  47
ATOM     47  S   UNL     1       0.471   9.550  10.031  1.00  0.00     0.124 S 
ATOM     48  O   UNL     1       0.250   8.693  11.190  1.00  0.00    -0.237 OA
ATOM     49  O   UNL     1       1.326  10.713  10.246  1.00  0.00    -0.237 OA
ATOM     50  O   UNL     1      -0.692   9.781   9.180  1.00  0.00    -0.744 OA
ENDBRANCH  46  47
ENDBRANCH  25  39
BRANCH  26  51
ATOM     51  C   UNL     1      -2.333   0.688   9.687  1.00  0.00     0.058 A 
ATOM     52  C   UNL     1      -2.819   0.915  10.992  1.00  0.00     0.135 A 
ATOM     53  C   UNL     1      -3.312   0.644   8.674  1.00  0.00     0.135 A 
ATOM     54  F   UNL     1      -1.966   0.993  12.026  1.00  0.00    -0.206 F 
ATOM     55  C   UNL     1      -4.177   1.139  11.264  1.00  0.00     0.059 A 
ATOM     56  C   UNL     1      -4.669   0.850   8.922  1.00  0.00     0.059 A 
ATOM     57  F   UNL     1      -2.970   0.491   7.387  1.00  0.00    -0.206 F 
ATOM     58  C   UNL     1      -5.094   1.124  10.215  1.00  0.00     0.060 A 
BRANCH  58  59
ATOM     59  S   UNL     1      -6.820   1.582  10.518  1.00  0.00     0.124 S 
ATOM     60  O   UNL     1      -7.304   0.444  11.290  1.00  0.00    -0.237 OA
ATOM     61  O   UNL     1      -6.686   2.838  11.247  1.00  0.00    -0.237 OA
ATOM     62  O   UNL     1      -7.379   1.704   9.173  1.00  0.00    -0.744 OA
ENDBRANCH  58  59
ENDBRANCH  26  51
BRANCH  38  63
ATOM     63  C   UNL     1       3.925   0.760  10.717  1.00  0.00     0.058 A 
ATOM     64  C   UNL     1       3.564  -0.487  10.177  1.00  0.00     0.135 A 
ATOM     65  C   UNL     1       4.963   0.775  11.661  1.00  0.00     0.135 A 
ATOM     66  F   UNL     1       2.657  -0.579   9.193  1.00  0.00    -0.206 F 
ATOM     67  C   UNL     1       4.173  -1.671  10.600  1.00  0.00     0.059 A 
ATOM     68  C   UNL     1       5.607  -0.386  12.071  1.00  0.00     0.059 A 
ATOM     69  F   UNL     1       5.395   1.942  12.168  1.00  0.00    -0.206 F 
ATOM     70  C   UNL     1       5.193  -1.609  11.550  1.00  0.00     0.060 A 
BRANCH  70  71
ATOM     71  S   UNL     1       6.016  -3.131  12.063  1.00  0.00     0.124 S 
ATOM     72  O   UNL     1       4.972  -3.800  12.832  1.00  0.00    -0.237 OA
ATOM     73  O   UNL     1       6.359  -3.751  10.786  1.00  0.00    -0.237 OA
ATOM     74  O   UNL     1       7.158  -2.658  12.841  1.00  0.00    -0.744 OA
ENDBRANCH  70  71
ENDBRANCH  38  63
ENDBRANCH  12  13
ENDBRANCH   5   7
ENDBRANCH   2   3
ENDBRANCH   1   2
BRANCH   1  75
ATOM     75  C   UNL     1       4.497  -3.517   0.415  1.00  0.00     0.023 C 
BRANCH  75  76
ATOM     76  C   UNL     1       4.864  -4.095  -0.941  1.00  0.00     0.116 C 
BRANCH  76  77
ATOM     77  N   UNL     1       6.288  -4.293  -1.131  1.00  0.00    -0.351 N 
ATOM     78  C   UNL     1       6.934  -5.357  -1.719  1.00  0.00     0.274 C 
ATOM     79  H   UNL     1       6.869  -3.573  -0.795  1.00  0.00     0.163 HD
ATOM     80  O   UNL     1       8.168  -5.363  -1.725  1.00  0.00    -0.267 OA
BRANCH  78  81
ATOM     81  C   UNL     1       6.162  -6.437  -2.317  1.00  0.00     0.178 A 
ATOM     82  N   UNL     1       6.364  -7.749  -1.959  1.00  0.00    -0.124 NA
ATOM     83  C   UNL     1       5.144  -6.376  -3.263  1.00  0.00     0.108 A 
ATOM     84  N   UNL     1       5.473  -8.498  -2.592  1.00  0.00    -0.061 NA
ATOM     85  N   UNL     1       4.835  -7.713  -3.482  1.00  0.00    -0.211 N 
BRANCH  83  86
ATOM     86  C   UNL     1       4.439  -5.250  -3.870  1.00  0.00     0.004 A 
ATOM     87  C   UNL     1       3.052  -5.111  -3.682  1.00  0.00     0.010 A 
ATOM     88  C   UNL     1       5.128  -4.283  -4.608  1.00  0.00     0.031 A 
ATOM     89  C   UNL     1       2.362  -4.033  -4.236  1.00  0.00     0.002 A 
ATOM     90  C   UNL     1       4.429  -3.217  -5.175  1.00  0.00     0.041 A 
ATOM     91  C   UNL     1       3.052  -3.088  -4.991  1.00  0.00     0.020 A 
ATOM     92  Cl  UNL     1       5.273  -2.052  -6.117  1.00  0.00    -0.084 Cl
ENDBRANCH  83  86
BRANCH  85  93
ATOM     93  C   UNL     1       3.862  -8.237  -4.364  1.00  0.00     0.079 A 
ATOM     94  C   UNL     1       2.829  -8.998  -3.794  1.00  0.00     0.029 A 
ATOM     95  C   UNL     1       3.842  -7.902  -5.733  1.00  0.00     0.081 A 
ATOM     96  C   UNL     1       1.716  -9.339  -4.562  1.00  0.00     0.002 A 
ATOM     97  C   UNL     1       2.702  -8.252  -6.480  1.00  0.00     0.015 A 
ATOM     98  C   UNL     1       1.643  -8.947  -5.896  1.00  0.00     0.001 A 
BRANCH  95  99
ATOM     99  C   UNL     1       4.997  -7.275  -6.482  1.00  0.00     0.418 C 
ATOM    100  F   UNL     1       5.352  -8.014  -7.574  1.00  0.00    -0.166 F 
ATOM    101  F   UNL     1       4.694  -6.041  -6.968  1.00  0.00    -0.166 F 
ATOM    102  F   UNL     1       6.142  -7.132  -5.766  1.00  0.00    -0.166 F 
ENDBRANCH  95  99
ENDBRANCH  85  93
ENDBRANCH  78  81
ENDBRANCH  76  77
ENDBRANCH  75  76
ENDBRANCH   1  75
TORSDOF 17
