REMARK SMILES Cc1cccc(C(=O)NCCCCNC(=O)c2ccc(-c3c4nc(c(-c5c(F)cc(S(=O)(=O)[O-])cc5F)c5ccc([nH]5)c(-c5c(F)cc(S(=O)(=O)[O-])cc5F)c5nc(c(-c6c(F)cc(S(=O)(=O)[O-])cc6F)c6ccc3[nH]6)C=C5)C=C4)cc2)c1OC[C@@H]1C[C@H]2CC[C@@H]1C2
REMARK SMILES IDX 11 1 10 2 9 3 7 4 8 5 6 7 1 8 2 9 3 10 83 11 4 12 5 13 84 14
REMARK SMILES IDX 85 15 86 16 87 17 91 18 88 19 90 20 92 21 89 22 12 23 13 24
REMARK SMILES IDX 14 25 15 26 16 28 17 29 18 30 82 31 19 32 81 33 20 34 21 35
REMARK SMILES IDX 22 36 75 37 23 38 80 39 74 40 76 41 24 42 79 43 73 44 72 45
REMARK SMILES IDX 25 47 59 48 38 49 58 50 39 51 42 52 57 53 77 54 40 55 41 56
REMARK SMILES IDX 56 58 78 59 43 60 26 61 27 62 36 63 28 64 29 65 35 66 37 67
REMARK SMILES IDX 30 68 31 69 32 70 33 71 34 72 60 73 61 74 70 75 62 76 63 77
REMARK SMILES IDX 69 78 71 79 64 80 65 81 66 82 67 83 68 84 44 85 45 86 54 87
REMARK SMILES IDX 46 88 47 89 53 90 55 91 48 92 49 93 50 94 51 95 52 96
REMARK H PARENT 9 6 14 27 76 46 42 57
REMARK Flexibility Score: inf
ROOT
ATOM      1  C   UNL     1       1.041   4.543  -1.206  1.00  0.00     0.023 C 
ENDROOT
BRANCH   1   2
ATOM      2  C   UNL     1       0.354   4.149   0.113  1.00  0.00     0.116 C 
BRANCH   2   3
ATOM      3  N   UNL     1      -0.972   3.619  -0.112  1.00  0.00    -0.352 N 
ATOM      4  C   UNL     1      -1.499   2.362  -0.177  1.00  0.00     0.255 C 
ATOM      5  O   UNL     1      -2.723   2.329  -0.368  1.00  0.00    -0.269 OA
ATOM      6  H   UNL     1      -1.646   4.323  -0.250  1.00  0.00     0.163 HD
BRANCH   4   7
ATOM      7  C   UNL     1      -0.790   1.045  -0.033  1.00  0.00     0.082 A 
ATOM      8  C   UNL     1       1.919  -1.194  -1.539  1.00  0.00     0.048 C 
ATOM      9  C   UNL     1       0.795  -0.694  -0.671  1.00  0.00    -0.008 A 
ATOM     10  C   UNL     1      -0.092  -1.676  -0.195  1.00  0.00     0.007 A 
ATOM     11  C   UNL     1       0.497   0.677  -0.482  1.00  0.00     0.134 A 
ATOM     12  C   UNL     1      -1.297  -1.321   0.385  1.00  0.00     0.001 A 
ATOM     13  C   UNL     1      -1.653   0.022   0.431  1.00  0.00     0.018 A 
BRANCH  11  14
ATOM     14  O   UNL     1       1.385   1.633  -0.865  1.00  0.00    -0.492 OA
BRANCH  14  15
ATOM     15  C   UNL     1       2.702   1.692  -0.265  1.00  0.00     0.233 C 
BRANCH  15  16
ATOM     16  C   UNL     1       2.885   1.230   1.201  1.00  0.00     0.030 C 
ATOM     17  C   UNL     1       3.787   2.204   2.018  1.00  0.00     0.011 C 
ATOM     18  C   UNL     1       3.721  -0.079   1.292  1.00  0.00    -0.004 C 
ATOM     19  C   UNL     1       4.965   1.324   2.476  1.00  0.00    -0.010 C 
ATOM     20  C   UNL     1       3.620  -0.647   2.718  1.00  0.00     0.004 C 
ATOM     21  C   UNL     1       5.165   0.426   1.264  1.00  0.00     0.007 C 
ATOM     22  C   UNL     1       4.472   0.329   3.538  1.00  0.00     0.004 C 
ENDBRANCH  15  16
ENDBRANCH  14  15
ENDBRANCH  11  14
ENDBRANCH   4   7
ENDBRANCH   2   3
ENDBRANCH   1   2
BRANCH   1  23
ATOM     23  C   UNL     1       0.406   5.726  -1.939  1.00  0.00     0.023 C 
BRANCH  23  24
ATOM     24  C   UNL     1       0.641   7.049  -1.229  1.00  0.00     0.116 C 
BRANCH  24  25
ATOM     25  N   UNL     1       1.712   7.858  -1.785  1.00  0.00    -0.352 N 
ATOM     26  C   UNL     1       2.140   9.102  -1.349  1.00  0.00     0.251 C 
ATOM     27  H   UNL     1       2.188   7.479  -2.559  1.00  0.00     0.163 HD
ATOM     28  O   UNL     1       2.813   9.836  -2.051  1.00  0.00    -0.269 OA
BRANCH  26  29
ATOM     29  C   UNL     1       1.858   9.453   0.063  1.00  0.00     0.039 A 
ATOM     30  C   UNL     1       2.962   9.568   0.917  1.00  0.00     0.014 A 
ATOM     31  C   UNL     1       0.566   9.368   0.574  1.00  0.00     0.014 A 
ATOM     32  C   UNL     1       2.788   9.393   2.287  1.00  0.00     0.010 A 
ATOM     33  C   UNL     1       0.408   9.100   1.921  1.00  0.00     0.010 A 
ATOM     34  C   UNL     1       1.526   9.057   2.769  1.00  0.00    -0.014 A 
BRANCH  34  35
ATOM     35  C   UNL     1       1.276   8.557   4.117  1.00  0.00     0.031 A 
ATOM     36  C   UNL     1       0.515   9.387   5.082  1.00  0.00     0.074 A 
ATOM     37  C   UNL     1       1.643   7.298   4.450  1.00  0.00     0.049 A 
ATOM     38  N   UNL     1       0.383   9.106   6.335  1.00  0.00    -0.248 NA
ATOM     39  C   UNL     1      -0.096  10.667   4.722  1.00  0.00     0.031 C 
ATOM     40  C   UNL     1       1.129   6.494   5.556  1.00  0.00     0.029 A 
ATOM     41  N   UNL     1       2.726   6.562   3.968  1.00  0.00    -0.354 N 
ATOM     42  C   UNL     1      -0.535   9.978   6.867  1.00  0.00     0.074 A 
ATOM     43  C   UNL     1      -0.705  10.998   5.866  1.00  0.00     0.031 C 
ATOM     44  C   UNL     1       1.997   5.508   5.824  1.00  0.00     0.029 A 
ATOM     45  C   UNL     1       3.181   5.744   5.018  1.00  0.00     0.049 A 
ATOM     46  H   UNL     1       3.104   6.608   3.060  1.00  0.00     0.167 HD
ATOM     47  C   UNL     1      -1.138   9.659   8.045  1.00  0.00     0.037 A 
ATOM     48  C   UNL     1       4.437   5.886   5.538  1.00  0.00     0.037 A 
ATOM     49  C   UNL     1      -0.388   8.613   8.740  1.00  0.00     0.049 A 
ATOM     50  C   UNL     1       4.477   6.284   6.994  1.00  0.00     0.074 A 
ATOM     51  C   UNL     1      -0.595   7.262   8.950  1.00  0.00     0.029 A 
ATOM     52  N   UNL     1       0.925   8.876   9.126  1.00  0.00    -0.354 N 
ATOM     53  N   UNL     1       3.451   6.741   7.657  1.00  0.00    -0.248 NA
ATOM     54  C   UNL     1       5.685   6.218   7.812  1.00  0.00     0.031 C 
ATOM     55  C   UNL     1       0.648   6.693   9.347  1.00  0.00     0.029 A 
ATOM     56  C   UNL     1       1.590   7.706   9.431  1.00  0.00     0.049 A 
ATOM     57  H   UNL     1       1.324   9.775   9.173  1.00  0.00     0.167 HD
ATOM     58  C   UNL     1       3.846   7.103   8.918  1.00  0.00     0.074 A 
ATOM     59  C   UNL     1       5.241   6.708   8.982  1.00  0.00     0.031 C 
ATOM     60  C   UNL     1       3.004   7.729   9.793  1.00  0.00     0.037 A 
BRANCH  47  61
ATOM     61  C   UNL     1      -2.501  10.162   8.493  1.00  0.00     0.058 A 
ATOM     62  C   UNL     1      -3.021   9.789   9.754  1.00  0.00     0.135 A 
ATOM     63  C   UNL     1      -3.410  10.878   7.679  1.00  0.00     0.135 A 
ATOM     64  F   UNL     1      -2.283   9.084  10.624  1.00  0.00    -0.206 F 
ATOM     65  C   UNL     1      -4.329  10.085  10.161  1.00  0.00     0.059 A 
ATOM     66  C   UNL     1      -4.700  11.229   8.084  1.00  0.00     0.059 A 
ATOM     67  F   UNL     1      -3.131  11.216   6.416  1.00  0.00    -0.206 F 
ATOM     68  C   UNL     1      -5.165  10.804   9.315  1.00  0.00     0.060 A 
BRANCH  68  69
ATOM     69  S   UNL     1      -6.866  11.147   9.805  1.00  0.00     0.124 S 
ATOM     70  O   UNL     1      -7.483   9.830   9.688  1.00  0.00    -0.237 OA
ATOM     71  O   UNL     1      -6.707  11.659  11.162  1.00  0.00    -0.237 OA
ATOM     72  O   UNL     1      -7.310  12.132   8.821  1.00  0.00    -0.744 OA
ENDBRANCH  68  69
ENDBRANCH  47  61
BRANCH  48  73
ATOM     73  C   UNL     1       5.461   6.234   4.518  1.00  0.00     0.058 A 
ATOM     74  C   UNL     1       5.818   5.222   3.612  1.00  0.00     0.135 A 
ATOM     75  C   UNL     1       5.681   7.563   4.132  1.00  0.00     0.135 A 
ATOM     76  F   UNL     1       5.666   3.936   3.963  1.00  0.00    -0.206 F 
ATOM     77  C   UNL     1       6.173   5.510   2.301  1.00  0.00     0.059 A 
ATOM     78  C   UNL     1       6.050   7.878   2.823  1.00  0.00     0.059 A 
ATOM     79  F   UNL     1       5.375   8.569   4.965  1.00  0.00    -0.206 F 
ATOM     80  C   UNL     1       6.200   6.843   1.899  1.00  0.00     0.060 A 
BRANCH  80  81
ATOM     81  S   UNL     1       6.209   7.182   0.122  1.00  0.00     0.124 S 
ATOM     82  O   UNL     1       7.365   6.416  -0.331  1.00  0.00    -0.237 OA
ATOM     83  O   UNL     1       4.906   6.650  -0.274  1.00  0.00    -0.237 OA
ATOM     84  O   UNL     1       6.347   8.632   0.060  1.00  0.00    -0.744 OA
ENDBRANCH  80  81
ENDBRANCH  48  73
BRANCH  60  85
ATOM     85  C   UNL     1       3.430   8.369  11.096  1.00  0.00     0.058 A 
ATOM     86  C   UNL     1       4.697   8.939  11.316  1.00  0.00     0.135 A 
ATOM     87  C   UNL     1       2.497   8.542  12.146  1.00  0.00     0.135 A 
ATOM     88  F   UNL     1       5.630   8.961  10.352  1.00  0.00    -0.206 F 
ATOM     89  C   UNL     1       5.047   9.554  12.520  1.00  0.00     0.059 A 
ATOM     90  C   UNL     1       2.807   9.203  13.334  1.00  0.00     0.059 A 
ATOM     91  F   UNL     1       1.242   8.079  12.045  1.00  0.00    -0.206 F 
ATOM     92  C   UNL     1       4.096   9.677  13.527  1.00  0.00     0.060 A 
BRANCH  92  93
ATOM     93  S   UNL     1       4.520  10.508  15.070  1.00  0.00     0.124 S 
ATOM     94  O   UNL     1       4.904   9.379  15.912  1.00  0.00    -0.237 OA
ATOM     95  O   UNL     1       5.609  11.397  14.676  1.00  0.00    -0.237 OA
ATOM     96  O   UNL     1       3.276  11.178  15.435  1.00  0.00    -0.744 OA
ENDBRANCH  92  93
ENDBRANCH  60  85
ENDBRANCH  34  35
ENDBRANCH  26  29
ENDBRANCH  24  25
ENDBRANCH  23  24
ENDBRANCH   1  23
TORSDOF 17
