REMARK SMILES O=C(NCCCCNC(=O)[C@H]1CC/C=C\CCC1)c1ccc(-c2c3nc(c(-c4c(F)cc(S(=O)(=O)[O-])cc4F)c4ccc([nH]4)c(-c4c(F)cc(S(=O)(=O)[O-])cc4F)c4nc(c(-c5c(F)cc(S(=O)(=O)[O-])cc5F)c5ccc2[nH]5)C=C4)C=C3)cc1
REMARK SMILES IDX 5 1 4 2 3 3 1 4 2 5 19 7 20 8 84 9 21 10 83 11 22 12 23 13
REMARK SMILES IDX 24 14 77 15 25 16 82 17 76 18 78 19 26 20 81 21 75 22 74 23
REMARK SMILES IDX 27 25 61 26 40 27 60 28 41 29 44 30 59 31 79 32 42 33 43 34
REMARK SMILES IDX 58 36 80 37 45 38 28 39 29 40 38 41 30 42 31 43 37 44 39 45
REMARK SMILES IDX 32 46 33 47 34 48 35 49 36 50 62 51 63 52 72 53 64 54 65 55
REMARK SMILES IDX 71 56 73 57 66 58 67 59 68 60 69 61 70 62 46 63 47 64 56 65
REMARK SMILES IDX 48 66 49 67 55 68 57 69 50 70 51 71 52 72 53 73 54 74 6 75
REMARK SMILES IDX 7 76 8 77 9 78 10 80 11 81 12 82 13 83 14 84 15 85 18 87
REMARK SMILES IDX 17 88 16 89
REMARK H PARENT 3 6 78 24 44 35 8 79
REMARK Flexibility Score: 80.00
ROOT
ATOM      1  C   UNL     1       4.923   2.778   0.117  1.00  0.00     0.023 C 
ENDROOT
BRANCH   1   2
ATOM      2  C   UNL     1       4.612   1.322   0.439  1.00  0.00     0.116 C 
BRANCH   2   3
ATOM      3  N   UNL     1       3.185   1.063   0.540  1.00  0.00    -0.352 N 
ATOM      4  O   UNL     1       1.238   0.044   0.036  1.00  0.00    -0.269 OA
ATOM      5  C   UNL     1       2.464   0.033  -0.016  1.00  0.00     0.251 C 
ATOM      6  H   UNL     1       2.668   1.708   1.075  1.00  0.00     0.163 HD
BRANCH   5   7
ATOM      7  C   UNL     1       3.177  -1.071  -0.693  1.00  0.00     0.039 A 
ATOM      8  C   UNL     1       4.277  -1.682  -0.084  1.00  0.00     0.014 A 
ATOM      9  C   UNL     1       2.732  -1.505  -1.944  1.00  0.00     0.014 A 
ATOM     10  C   UNL     1       4.993  -2.657  -0.769  1.00  0.00     0.010 A 
ATOM     11  C   UNL     1       3.411  -2.534  -2.602  1.00  0.00     0.010 A 
ATOM     12  C   UNL     1       4.553  -3.110  -2.023  1.00  0.00    -0.014 A 
BRANCH  12  13
ATOM     13  C   UNL     1       5.228  -4.272  -2.651  1.00  0.00     0.031 A 
ATOM     14  C   UNL     1       6.002  -4.134  -3.930  1.00  0.00     0.074 A 
ATOM     15  C   UNL     1       5.122  -5.469  -2.039  1.00  0.00     0.049 A 
ATOM     16  N   UNL     1       6.635  -5.058  -4.606  1.00  0.00    -0.248 NA
ATOM     17  C   UNL     1       6.074  -2.795  -4.535  1.00  0.00     0.031 C 
ATOM     18  C   UNL     1       4.366  -5.719  -0.807  1.00  0.00     0.029 A 
ATOM     19  N   UNL     1       5.644  -6.695  -2.360  1.00  0.00    -0.354 N 
ATOM     20  C   UNL     1       7.163  -4.423  -5.724  1.00  0.00     0.074 A 
ATOM     21  C   UNL     1       6.768  -3.033  -5.643  1.00  0.00     0.031 C 
ATOM     22  C   UNL     1       4.491  -7.009  -0.466  1.00  0.00     0.029 A 
ATOM     23  C   UNL     1       5.285  -7.690  -1.481  1.00  0.00     0.049 A 
ATOM     24  H   UNL     1       6.219  -6.848  -3.144  1.00  0.00     0.167 HD
ATOM     25  C   UNL     1       7.909  -4.958  -6.719  1.00  0.00     0.037 A 
ATOM     26  C   UNL     1       5.539  -9.011  -1.505  1.00  0.00     0.037 A 
ATOM     27  C   UNL     1       8.318  -6.340  -6.771  1.00  0.00     0.049 A 
ATOM     28  C   UNL     1       6.358  -9.573  -2.630  1.00  0.00     0.074 A 
ATOM     29  C   UNL     1       9.148  -6.956  -7.693  1.00  0.00     0.029 A 
ATOM     30  N   UNL     1       7.921  -7.321  -5.875  1.00  0.00    -0.354 N 
ATOM     31  N   UNL     1       6.907  -8.942  -3.639  1.00  0.00    -0.248 NA
ATOM     32  C   UNL     1       6.584 -11.024  -2.627  1.00  0.00     0.031 C 
ATOM     33  C   UNL     1       9.213  -8.318  -7.383  1.00  0.00     0.029 A 
ATOM     34  C   UNL     1       8.457  -8.544  -6.244  1.00  0.00     0.049 A 
ATOM     35  H   UNL     1       7.344  -7.170  -5.092  1.00  0.00     0.167 HD
ATOM     36  C   UNL     1       7.544  -9.919  -4.393  1.00  0.00     0.074 A 
ATOM     37  C   UNL     1       7.337 -11.178  -3.707  1.00  0.00     0.031 C 
ATOM     38  C   UNL     1       8.230  -9.788  -5.554  1.00  0.00     0.037 A 
BRANCH  25  39
ATOM     39  C   UNL     1       8.340  -4.067  -7.851  1.00  0.00     0.058 A 
ATOM     40  C   UNL     1       9.391  -3.149  -7.707  1.00  0.00     0.135 A 
ATOM     41  C   UNL     1       7.768  -4.215  -9.125  1.00  0.00     0.135 A 
ATOM     42  F   UNL     1       9.964  -2.959  -6.508  1.00  0.00    -0.206 F 
ATOM     43  C   UNL     1       9.864  -2.412  -8.789  1.00  0.00     0.059 A 
ATOM     44  C   UNL     1       8.236  -3.502 -10.225  1.00  0.00     0.059 A 
ATOM     45  F   UNL     1       6.758  -5.079  -9.315  1.00  0.00    -0.206 F 
ATOM     46  C   UNL     1       9.285  -2.600 -10.046  1.00  0.00     0.060 A 
BRANCH  46  47
ATOM     47  S   UNL     1       9.947  -1.677 -11.450  1.00  0.00     0.124 S 
ATOM     48  O   UNL     1       9.449  -0.333 -11.175  1.00  0.00    -0.237 OA
ATOM     49  O   UNL     1      11.386  -1.863 -11.295  1.00  0.00    -0.237 OA
ATOM     50  O   UNL     1       9.353  -2.341 -12.606  1.00  0.00    -0.744 OA
ENDBRANCH  46  47
ENDBRANCH  25  39
BRANCH  26  51
ATOM     51  C   UNL     1       4.973  -9.893  -0.453  1.00  0.00     0.058 A 
ATOM     52  C   UNL     1       5.795 -10.507   0.502  1.00  0.00     0.135 A 
ATOM     53  C   UNL     1       3.591 -10.136  -0.383  1.00  0.00     0.135 A 
ATOM     54  F   UNL     1       7.121 -10.306   0.474  1.00  0.00    -0.206 F 
ATOM     55  C   UNL     1       5.271 -11.350   1.476  1.00  0.00     0.059 A 
ATOM     56  C   UNL     1       3.042 -10.952   0.598  1.00  0.00     0.059 A 
ATOM     57  F   UNL     1       2.761  -9.555  -1.262  1.00  0.00    -0.206 F 
ATOM     58  C   UNL     1       3.893 -11.569   1.514  1.00  0.00     0.060 A 
BRANCH  58  59
ATOM     59  S   UNL     1       3.214 -12.645   2.795  1.00  0.00     0.124 S 
ATOM     60  O   UNL     1       3.519 -13.965   2.258  1.00  0.00    -0.237 OA
ATOM     61  O   UNL     1       3.975 -12.242   3.974  1.00  0.00    -0.237 OA
ATOM     62  O   UNL     1       1.800 -12.281   2.819  1.00  0.00    -0.744 OA
ENDBRANCH  58  59
ENDBRANCH  26  51
BRANCH  38  63
ATOM     63  C   UNL     1       8.800 -11.040  -6.153  1.00  0.00     0.058 A 
ATOM     64  C   UNL     1       7.978 -11.977  -6.798  1.00  0.00     0.135 A 
ATOM     65  C   UNL     1      10.180 -11.291  -6.112  1.00  0.00     0.135 A 
ATOM     66  F   UNL     1       6.650 -11.787  -6.852  1.00  0.00    -0.206 F 
ATOM     67  C   UNL     1       8.503 -13.133  -7.366  1.00  0.00     0.059 A 
ATOM     68  C   UNL     1      10.729 -12.428  -6.695  1.00  0.00     0.059 A 
ATOM     69  F   UNL     1      11.008 -10.422  -5.512  1.00  0.00    -0.206 F 
ATOM     70  C   UNL     1       9.881 -13.349  -7.309  1.00  0.00     0.060 A 
BRANCH  70  71
ATOM     71  S   UNL     1      10.555 -14.837  -8.077  1.00  0.00     0.124 S 
ATOM     72  O   UNL     1      10.194 -15.860  -7.101  1.00  0.00    -0.237 OA
ATOM     73  O   UNL     1       9.837 -14.890  -9.346  1.00  0.00    -0.237 OA
ATOM     74  O   UNL     1      11.982 -14.546  -8.183  1.00  0.00    -0.744 OA
ENDBRANCH  70  71
ENDBRANCH  38  63
ENDBRANCH  12  13
ENDBRANCH   5   7
ENDBRANCH   2   3
ENDBRANCH   1   2
BRANCH   1  75
ATOM     75  C   UNL     1       4.442   3.790   1.159  1.00  0.00     0.023 C 
BRANCH  75  76
ATOM     76  C   UNL     1       4.926   3.518   2.580  1.00  0.00     0.116 C 
BRANCH  76  77
ATOM     77  N   UNL     1       6.373   3.588   2.680  1.00  0.00    -0.356 N 
ATOM     78  C   UNL     1       7.154   4.471   3.369  1.00  0.00     0.223 C 
ATOM     79  H   UNL     1       6.863   2.898   2.178  1.00  0.00     0.163 HD
ATOM     80  O   UNL     1       8.376   4.354   3.291  1.00  0.00    -0.275 OA
BRANCH  78  81
ATOM     81  C   UNL     1       6.481   5.528   4.246  1.00  0.00     0.079 C 
BRANCH  81  82
ATOM     82  C   UNL     1       5.978   4.841   5.534  1.00  0.00     0.017 C 
BRANCH  82  83
ATOM     83  C   UNL     1       7.004   4.655   6.654  1.00  0.00     0.028 C 
BRANCH  83  84
ATOM     84  C   UNL     1       7.404   5.828   7.509  1.00  0.00    -0.031 C 
ATOM     85  C   UNL     1       7.081   7.128   7.432  1.00  0.00    -0.031 CG0
ATOM     86  G   UNL     1       6.184   7.803   6.441  1.00  0.00     0.000 G0
ENDBRANCH  83  84
ENDBRANCH  82  83
ENDBRANCH  81  82
BRANCH  81  87
ATOM     87  C   UNL     1       7.427   6.726   4.424  1.00  0.00     0.014 C 
BRANCH  87  88
ATOM     88  C   UNL     1       6.791   7.970   5.050  1.00  0.00     0.005 C 
BRANCH  88  89
ATOM     89  C   UNL     1       6.184   7.803   6.441  1.00  0.00     0.027 CG0
ATOM     90  G   UNL     1       7.081   7.128   7.432  1.00  0.00     0.000 G0
ENDBRANCH  88  89
ENDBRANCH  87  88
ENDBRANCH  81  87
ENDBRANCH  78  81
ENDBRANCH  76  77
ENDBRANCH  75  76
ENDBRANCH   1  75
TORSDOF 14
