REMARK SMILES C[C@@H](C(=O)NCCCCNC(=O)c1ccc(-c2c3nc(c(-c4c(F)cc(S(=O)(=O)[O-])cc4F)c4ccc([nH]4)c(-c4c(F)cc(S(=O)(=O)[O-])cc4F)c4nc(c(-c5c(F)cc(S(=O)(=O)[O-])cc5F)c5ccc2[nH]5)C=C4)C=C3)cc1)c1ccc(=O)n(C(F)F)c1
REMARK SMILES IDX 8 1 7 2 6 3 5 4 3 5 4 6 2 8 1 9 79 10 80 11 88 12 81 13
REMARK SMILES IDX 84 14 82 15 83 16 85 17 86 18 87 19 9 20 10 21 11 22 12 24
REMARK SMILES IDX 13 25 14 26 78 27 15 28 77 29 16 30 17 31 18 32 71 33 19 34
REMARK SMILES IDX 76 35 70 36 72 37 20 38 75 39 69 40 68 41 21 43 55 44 34 45
REMARK SMILES IDX 54 46 35 47 38 48 53 49 73 50 36 51 37 52 52 54 74 55 39 56
REMARK SMILES IDX 22 57 23 58 32 59 24 60 25 61 31 62 33 63 26 64 27 65 28 66
REMARK SMILES IDX 29 67 30 68 56 69 57 70 66 71 58 72 59 73 65 74 67 75 60 76
REMARK SMILES IDX 61 77 62 78 63 79 64 80 40 81 41 82 50 83 42 84 43 85 49 86
REMARK SMILES IDX 51 87 44 88 45 89 46 90 47 91 48 92
REMARK H PARENT 5 7 10 23 72 42 38 53
REMARK Flexibility Score: inf
ROOT
ATOM      1  C   UNL     1       4.918   1.603   1.835  1.00  0.00     0.023 C 
ENDROOT
BRANCH   1   2
ATOM      2  C   UNL     1       4.123   0.605   0.986  1.00  0.00     0.023 C 
BRANCH   2   3
ATOM      3  C   UNL     1       3.349  -0.441   1.791  1.00  0.00     0.116 C 
BRANCH   3   4
ATOM      4  N   UNL     1       2.293   0.178   2.566  1.00  0.00    -0.356 N 
ATOM      5  C   UNL     1       0.955   0.267   2.316  1.00  0.00     0.227 C 
ATOM      6  O   UNL     1       0.290   0.963   3.087  1.00  0.00    -0.274 OA
ATOM      7  H   UNL     1       2.588   0.602   3.404  1.00  0.00     0.163 HD
BRANCH   5   8
ATOM      8  C   UNL     1       0.334  -0.510   1.134  1.00  0.00     0.107 C 
ATOM      9  C   UNL     1       0.770   0.030  -0.232  1.00  0.00     0.023 C 
BRANCH   8  10
ATOM     10  C   UNL     1      -1.189  -0.496   1.190  1.00  0.00    -0.019 A 
ATOM     11  C   UNL     1      -1.895  -1.762   1.226  1.00  0.00     0.012 A 
ATOM     12  C   UNL     1      -1.912   0.637   1.129  1.00  0.00     0.099 A 
ATOM     13  C   UNL     1      -3.231  -1.804   1.147  1.00  0.00     0.072 A 
ATOM     14  N   UNL     1      -3.293   0.624   1.065  1.00  0.00    -0.258 N 
ATOM     15  C   UNL     1      -4.025  -0.550   1.024  1.00  0.00     0.254 A 
ATOM     16  O   UNL     1      -5.242  -0.636   0.891  1.00  0.00    -0.269 OA
BRANCH  14  17
ATOM     17  C   UNL     1      -4.015   1.863   0.938  1.00  0.00     0.451 C 
ATOM     18  F   UNL     1      -4.544   1.980  -0.306  1.00  0.00    -0.185 F 
ATOM     19  F   UNL     1      -5.030   1.948   1.831  1.00  0.00    -0.185 F 
ENDBRANCH  14  17
ENDBRANCH   8  10
ENDBRANCH   5   8
ENDBRANCH   3   4
ENDBRANCH   2   3
ENDBRANCH   1   2
BRANCH   1  20
ATOM     20  C   UNL     1       5.930   0.978   2.786  1.00  0.00     0.116 C 
BRANCH  20  21
ATOM     21  N   UNL     1       6.915   0.161   2.097  1.00  0.00    -0.352 N 
ATOM     22  C   UNL     1       8.266   0.072   2.313  1.00  0.00     0.251 C 
ATOM     23  H   UNL     1       6.562  -0.409   1.376  1.00  0.00     0.163 HD
ATOM     24  O   UNL     1       8.963  -0.562   1.521  1.00  0.00    -0.269 OA
BRANCH  22  25
ATOM     25  C   UNL     1       8.885   0.753   3.471  1.00  0.00     0.039 A 
ATOM     26  C   UNL     1      10.111   1.399   3.295  1.00  0.00     0.014 A 
ATOM     27  C   UNL     1       8.277   0.740   4.730  1.00  0.00     0.014 A 
ATOM     28  C   UNL     1      10.708   2.057   4.372  1.00  0.00     0.010 A 
ATOM     29  C   UNL     1       8.830   1.469   5.779  1.00  0.00     0.010 A 
ATOM     30  C   UNL     1      10.065   2.113   5.620  1.00  0.00    -0.014 A 
BRANCH  30  31
ATOM     31  C   UNL     1      10.698   2.801   6.775  1.00  0.00     0.031 A 
ATOM     32  C   UNL     1      11.089   2.016   8.000  1.00  0.00     0.074 A 
ATOM     33  C   UNL     1      10.894   4.134   6.734  1.00  0.00     0.049 A 
ATOM     34  N   UNL     1      11.652   2.433   9.105  1.00  0.00    -0.248 NA
ATOM     35  C   UNL     1      10.781   0.576   7.997  1.00  0.00     0.031 C 
ATOM     36  C   UNL     1      10.511   5.012   5.626  1.00  0.00     0.029 A 
ATOM     37  N   UNL     1      11.468   4.984   7.646  1.00  0.00    -0.354 N 
ATOM     38  C   UNL     1      11.751   1.317   9.928  1.00  0.00     0.074 A 
ATOM     39  C   UNL     1      11.134   0.217   9.222  1.00  0.00     0.031 C 
ATOM     40  C   UNL     1      10.896   6.268   5.907  1.00  0.00     0.029 A 
ATOM     41  C   UNL     1      11.521   6.292   7.226  1.00  0.00     0.049 A 
ATOM     42  H   UNL     1      11.810   4.684   8.520  1.00  0.00     0.167 HD
ATOM     43  C   UNL     1      12.328   1.210  11.148  1.00  0.00     0.037 A 
ATOM     44  C   UNL     1      12.022   7.386   7.833  1.00  0.00     0.037 A 
ATOM     45  C   UNL     1      12.968   2.304  11.832  1.00  0.00     0.049 A 
ATOM     46  C   UNL     1      12.669   7.239   9.185  1.00  0.00     0.074 A 
ATOM     47  C   UNL     1      13.640   2.287  13.041  1.00  0.00     0.029 A 
ATOM     48  N   UNL     1      13.013   3.611  11.368  1.00  0.00    -0.354 N 
ATOM     49  N   UNL     1      12.820   6.160   9.916  1.00  0.00    -0.248 NA
ATOM     50  C   UNL     1      13.226   8.457   9.788  1.00  0.00     0.031 C 
ATOM     51  C   UNL     1      14.044   3.594  13.334  1.00  0.00     0.029 A 
ATOM     52  C   UNL     1      13.681   4.413  12.277  1.00  0.00     0.049 A 
ATOM     53  H   UNL     1      12.627   3.921  10.517  1.00  0.00     0.167 HD
ATOM     54  C   UNL     1      13.525   6.562  11.046  1.00  0.00     0.074 A 
ATOM     55  C   UNL     1      13.776   7.981  10.896  1.00  0.00     0.031 C 
ATOM     56  C   UNL     1      13.932   5.824  12.109  1.00  0.00     0.037 A 
BRANCH  43  57
ATOM     57  C   UNL     1      12.292  -0.136  11.825  1.00  0.00     0.058 A 
ATOM     58  C   UNL     1      13.023  -1.232  11.337  1.00  0.00     0.135 A 
ATOM     59  C   UNL     1      11.538  -0.324  12.995  1.00  0.00     0.135 A 
ATOM     60  F   UNL     1      13.749  -1.116  10.214  1.00  0.00    -0.206 F 
ATOM     61  C   UNL     1      12.980  -2.474  11.964  1.00  0.00     0.059 A 
ATOM     62  C   UNL     1      11.507  -1.548  13.657  1.00  0.00     0.059 A 
ATOM     63  F   UNL     1      10.820   0.688  13.507  1.00  0.00    -0.206 F 
ATOM     64  C   UNL     1      12.218  -2.622  13.124  1.00  0.00     0.060 A 
BRANCH  64  65
ATOM     65  S   UNL     1      12.174  -4.239  13.924  1.00  0.00     0.124 S 
ATOM     66  O   UNL     1      11.357  -5.005  12.987  1.00  0.00    -0.237 OA
ATOM     67  O   UNL     1      13.587  -4.600  13.975  1.00  0.00    -0.237 OA
ATOM     68  O   UNL     1      11.553  -3.963  15.216  1.00  0.00    -0.744 OA
ENDBRANCH  64  65
ENDBRANCH  43  57
BRANCH  44  69
ATOM     69  C   UNL     1      11.973   8.707   7.150  1.00  0.00     0.058 A 
ATOM     70  C   UNL     1      13.145   9.322   6.684  1.00  0.00     0.135 A 
ATOM     71  C   UNL     1      10.758   9.379   6.944  1.00  0.00     0.135 A 
ATOM     72  F   UNL     1      14.333   8.722   6.860  1.00  0.00    -0.206 F 
ATOM     73  C   UNL     1      13.120  10.565   6.060  1.00  0.00     0.059 A 
ATOM     74  C   UNL     1      10.704  10.610   6.297  1.00  0.00     0.059 A 
ATOM     75  F   UNL     1       9.606   8.826   7.354  1.00  0.00    -0.206 F 
ATOM     76  C   UNL     1      11.892  11.200   5.869  1.00  0.00     0.060 A 
BRANCH  76  77
ATOM     77  S   UNL     1      11.866  12.793   5.019  1.00  0.00     0.124 S 
ATOM     78  O   UNL     1      12.444  13.674   6.027  1.00  0.00    -0.237 OA
ATOM     79  O   UNL     1      12.697  12.528   3.848  1.00  0.00    -0.237 OA
ATOM     80  O   UNL     1      10.448  13.000   4.737  1.00  0.00    -0.744 OA
ENDBRANCH  76  77
ENDBRANCH  44  69
BRANCH  56  81
ATOM     81  C   UNL     1      14.741   6.523  13.168  1.00  0.00     0.058 A 
ATOM     82  C   UNL     1      14.176   7.474  14.033  1.00  0.00     0.135 A 
ATOM     83  C   UNL     1      16.101   6.212  13.338  1.00  0.00     0.135 A 
ATOM     84  F   UNL     1      12.882   7.811  13.914  1.00  0.00    -0.206 F 
ATOM     85  C   UNL     1      14.939   8.121  15.000  1.00  0.00     0.059 A 
ATOM     86  C   UNL     1      16.874   6.822  14.320  1.00  0.00     0.059 A 
ATOM     87  F   UNL     1      16.690   5.299  12.549  1.00  0.00    -0.206 F 
ATOM     88  C   UNL     1      16.288   7.789  15.134  1.00  0.00     0.060 A 
BRANCH  88  89
ATOM     89  S   UNL     1      17.266   8.631  16.396  1.00  0.00     0.124 S 
ATOM     90  O   UNL     1      17.430   9.955  15.806  1.00  0.00    -0.237 OA
ATOM     91  O   UNL     1      16.395   8.560  17.565  1.00  0.00    -0.237 OA
ATOM     92  O   UNL     1      18.481   7.825  16.479  1.00  0.00    -0.744 OA
ENDBRANCH  88  89
ENDBRANCH  56  81
ENDBRANCH  30  31
ENDBRANCH  22  25
ENDBRANCH  20  21
ENDBRANCH   1  20
TORSDOF 16
