REMARK SMILES COc1ccc(-c2nc(NCC(=O)NCCCCNC(=O)c3ccc(-c4c5nc(c(-c6c(F)cc(S(=O)(=O)[O-])cc6F)c6ccc([nH]6)c(-c6c(F)cc(S(=O)(=O)[O-])cc6F)c6nc(c(-c7c(F)cc(S(=O)(=O)[O-])cc7F)c7ccc4[nH]7)C=C6)C=C5)cc3)sc2-c2ccc(OC)cc2)cc1
REMARK SMILES IDX 16 1 15 2 14 3 12 4 13 5 11 7 10 8 9 10 7 11 8 12 89 13
REMARK SMILES IDX 88 14 6 15 3 16 4 17 99 18 5 19 98 20 2 21 1 22 90 23 91 24
REMARK SMILES IDX 97 25 92 26 96 27 93 28 94 29 95 30 17 31 18 32 19 33 20 34
REMARK SMILES IDX 21 36 22 37 23 38 87 39 24 40 86 41 25 42 26 43 27 44 80 45
REMARK SMILES IDX 28 46 85 47 79 48 81 49 29 50 84 51 78 52 77 53 30 55 64 56
REMARK SMILES IDX 43 57 63 58 44 59 47 60 62 61 82 62 45 63 46 64 61 66 83 67
REMARK SMILES IDX 48 68 31 69 32 70 41 71 33 72 34 73 40 74 42 75 35 76 36 77
REMARK SMILES IDX 37 78 38 79 39 80 65 81 66 82 75 83 67 84 68 85 74 86 76 87
REMARK SMILES IDX 69 88 70 89 71 90 72 91 73 92 49 93 50 94 59 95 51 96 52 97
REMARK SMILES IDX 58 98 60 99 53 100 54 101 55 102 56 103 57 104
REMARK H PARENT 14 6 10 9 19 35 81 54 47 65
REMARK Flexibility Score: inf
ROOT
ATOM      1  C   UNL     1       5.638  -3.440  -7.042  1.00  0.00     0.023 C 
ENDROOT
BRANCH   1   2
ATOM      2  C   UNL     1       5.176  -3.862  -8.436  1.00  0.00     0.116 C 
BRANCH   2   3
ATOM      3  N   UNL     1       5.767  -5.123  -8.837  1.00  0.00    -0.355 N 
ATOM      4  C   UNL     1       5.202  -6.370  -8.826  1.00  0.00     0.239 C 
ATOM      5  O   UNL     1       5.897  -7.334  -9.152  1.00  0.00    -0.273 OA
ATOM      6  H   UNL     1       6.696  -5.077  -9.160  1.00  0.00     0.163 HD
BRANCH   4   7
ATOM      7  C   UNL     1       3.722  -6.540  -8.459  1.00  0.00     0.215 C 
BRANCH   7   8
ATOM      8  N   UNL     1       3.477  -6.236  -7.059  1.00  0.00    -0.352 N 
ATOM      9  H   UNL     1       4.019  -6.715  -6.392  1.00  0.00     0.163 HD
BRANCH   8  10
ATOM     10  C   UNL     1       2.568  -5.352  -6.596  1.00  0.00     0.184 A 
ATOM     11  C   UNL     1       1.625  -3.990  -5.124  1.00  0.00     0.091 A 
ATOM     12  N   UNL     1       2.560  -4.988  -5.335  1.00  0.00    -0.220 NA
ATOM     13  C   UNL     1       0.955  -3.550  -6.257  1.00  0.00     0.064 A 
ATOM     14  S   UNL     1       1.370  -4.574  -7.565  1.00  0.00    -0.096 S 
BRANCH  11  15
ATOM     15  C   UNL     1       1.420  -3.409  -3.807  1.00  0.00     0.002 A 
ATOM     16  C   UNL     1       0.959  -2.066  -1.395  1.00  0.00     0.118 A 
ATOM     17  C   UNL     1      -0.083  -2.745  -2.023  1.00  0.00     0.047 A 
ATOM     18  C   UNL     1       2.246  -2.110  -1.933  1.00  0.00     0.047 A 
ATOM     19  C   UNL     1       0.143  -3.409  -3.229  1.00  0.00     0.014 A 
ATOM     20  C   UNL     1       2.478  -2.785  -3.137  1.00  0.00     0.014 A 
BRANCH  16  21
ATOM     21  O   UNL     1       0.642  -1.423  -0.229  1.00  0.00    -0.497 OA
ATOM     22  C   UNL     1       1.174  -0.103  -0.150  1.00  0.00     0.278 C 
ENDBRANCH  16  21
ENDBRANCH  11  15
BRANCH  13  23
ATOM     23  C   UNL     1       0.057  -2.408  -6.456  1.00  0.00    -0.006 A 
ATOM     24  C   UNL     1      -1.189  -2.544  -7.076  1.00  0.00     0.013 A 
ATOM     25  C   UNL     1       0.439  -1.139  -5.995  1.00  0.00     0.013 A 
ATOM     26  C   UNL     1      -2.038  -1.440  -7.204  1.00  0.00     0.047 A 
ATOM     27  C   UNL     1      -0.414  -0.038  -6.116  1.00  0.00     0.047 A 
ATOM     28  C   UNL     1      -1.665  -0.188  -6.710  1.00  0.00     0.118 A 
BRANCH  28  29
ATOM     29  O   UNL     1      -2.598   0.799  -6.870  1.00  0.00    -0.497 OA
ATOM     30  C   UNL     1      -2.330   2.036  -6.217  1.00  0.00     0.278 C 
ENDBRANCH  28  29
ENDBRANCH  13  23
ENDBRANCH   8  10
ENDBRANCH   7   8
ENDBRANCH   4   7
ENDBRANCH   2   3
ENDBRANCH   1   2
BRANCH   1  31
ATOM     31  C   UNL     1       7.086  -2.942  -6.987  1.00  0.00     0.023 C 
BRANCH  31  32
ATOM     32  C   UNL     1       7.390  -1.727  -7.860  1.00  0.00     0.116 C 
BRANCH  32  33
ATOM     33  N   UNL     1       6.579  -0.566  -7.527  1.00  0.00    -0.352 N 
ATOM     34  C   UNL     1       6.946   0.758  -7.500  1.00  0.00     0.251 C 
ATOM     35  H   UNL     1       5.642  -0.754  -7.290  1.00  0.00     0.163 HD
ATOM     36  O   UNL     1       6.164   1.604  -7.073  1.00  0.00    -0.269 OA
BRANCH  34  37
ATOM     37  C   UNL     1       8.300   1.151  -7.951  1.00  0.00     0.039 A 
ATOM     38  C   UNL     1       9.061   1.997  -7.141  1.00  0.00     0.014 A 
ATOM     39  C   UNL     1       8.825   0.668  -9.153  1.00  0.00     0.014 A 
ATOM     40  C   UNL     1      10.376   2.301  -7.501  1.00  0.00     0.010 A 
ATOM     41  C   UNL     1      10.156   0.921  -9.478  1.00  0.00     0.010 A 
ATOM     42  C   UNL     1      10.947   1.734  -8.652  1.00  0.00    -0.014 A 
BRANCH  42  43
ATOM     43  C   UNL     1      12.372   1.971  -9.004  1.00  0.00     0.031 A 
ATOM     44  C   UNL     1      12.726   2.706 -10.268  1.00  0.00     0.074 A 
ATOM     45  C   UNL     1      13.346   1.471  -8.216  1.00  0.00     0.049 A 
ATOM     46  N   UNL     1      13.904   2.928 -10.792  1.00  0.00    -0.248 NA
ATOM     47  C   UNL     1      11.607   3.244 -11.061  1.00  0.00     0.031 C 
ATOM     48  C   UNL     1      13.133   0.704  -6.986  1.00  0.00     0.029 A 
ATOM     49  N   UNL     1      14.713   1.521  -8.339  1.00  0.00    -0.354 N 
ATOM     50  C   UNL     1      13.671   3.625 -11.971  1.00  0.00     0.074 A 
ATOM     51  C   UNL     1      12.236   3.743 -12.116  1.00  0.00     0.031 C 
ATOM     52  C   UNL     1      14.323   0.368  -6.463  1.00  0.00     0.029 A 
ATOM     53  C   UNL     1      15.384   0.862  -7.335  1.00  0.00     0.049 A 
ATOM     54  H   UNL     1      15.170   1.985  -9.077  1.00  0.00     0.167 HD
ATOM     55  C   UNL     1      14.570   4.144 -12.841  1.00  0.00     0.037 A 
ATOM     56  C   UNL     1      16.704   0.668  -7.145  1.00  0.00     0.037 A 
ATOM     57  C   UNL     1      15.998   4.046 -12.683  1.00  0.00     0.049 A 
ATOM     58  C   UNL     1      17.681   1.245  -8.135  1.00  0.00     0.074 A 
ATOM     59  C   UNL     1      16.991   4.563 -13.497  1.00  0.00     0.029 A 
ATOM     60  N   UNL     1      16.637   3.398 -11.637  1.00  0.00    -0.354 N 
ATOM     61  N   UNL     1      17.440   1.937  -9.223  1.00  0.00    -0.248 NA
ATOM     62  C   UNL     1      19.110   1.021  -7.869  1.00  0.00     0.031 C 
ATOM     63  C   UNL     1      18.231   4.204 -12.960  1.00  0.00     0.029 A 
ATOM     64  C   UNL     1      18.010   3.498 -11.788  1.00  0.00     0.049 A 
ATOM     65  H   UNL     1      16.183   2.936 -10.896  1.00  0.00     0.167 HD
ATOM     66  C   UNL     1      18.686   2.258  -9.752  1.00  0.00     0.074 A 
ATOM     67  C   UNL     1      19.678   1.696  -8.859  1.00  0.00     0.031 C 
ATOM     68  C   UNL     1      18.983   2.954 -10.876  1.00  0.00     0.037 A 
BRANCH  55  69
ATOM     69  C   UNL     1      14.042   4.892 -14.033  1.00  0.00     0.058 A 
ATOM     70  C   UNL     1      13.465   6.164 -13.896  1.00  0.00     0.135 A 
ATOM     71  C   UNL     1      14.175   4.368 -15.329  1.00  0.00     0.135 A 
ATOM     72  F   UNL     1      13.297   6.703 -12.678  1.00  0.00    -0.206 F 
ATOM     73  C   UNL     1      13.027   6.887 -15.001  1.00  0.00     0.059 A 
ATOM     74  C   UNL     1      13.767   5.084 -16.451  1.00  0.00     0.059 A 
ATOM     75  F   UNL     1      14.717   3.154 -15.515  1.00  0.00    -0.206 F 
ATOM     76  C   UNL     1      13.188   6.340 -16.275  1.00  0.00     0.060 A 
BRANCH  76  77
ATOM     77  S   UNL     1      12.647   7.309 -17.699  1.00  0.00     0.124 S 
ATOM     78  O   UNL     1      11.195   7.213 -17.581  1.00  0.00    -0.237 OA
ATOM     79  O   UNL     1      13.220   8.621 -17.419  1.00  0.00    -0.237 OA
ATOM     80  O   UNL     1      13.232   6.601 -18.834  1.00  0.00    -0.744 OA
ENDBRANCH  76  77
ENDBRANCH  55  69
BRANCH  56  81
ATOM     81  C   UNL     1      17.192  -0.104  -5.970  1.00  0.00     0.058 A 
ATOM     82  C   UNL     1      17.902   0.525  -4.936  1.00  0.00     0.135 A 
ATOM     83  C   UNL     1      16.995  -1.490  -5.877  1.00  0.00     0.135 A 
ATOM     84  F   UNL     1      18.120   1.849  -4.983  1.00  0.00    -0.206 F 
ATOM     85  C   UNL     1      18.433  -0.195  -3.872  1.00  0.00     0.059 A 
ATOM     86  C   UNL     1      17.492  -2.229  -4.808  1.00  0.00     0.059 A 
ATOM     87  F   UNL     1      16.305  -2.138  -6.828  1.00  0.00    -0.206 F 
ATOM     88  C   UNL     1      18.229  -1.575  -3.821  1.00  0.00     0.060 A 
BRANCH  88  89
ATOM     89  S   UNL     1      18.922  -2.505  -2.437  1.00  0.00     0.124 S 
ATOM     90  O   UNL     1      20.332  -2.564  -2.803  1.00  0.00    -0.237 OA
ATOM     91  O   UNL     1      18.593  -1.655  -1.297  1.00  0.00    -0.237 OA
ATOM     92  O   UNL     1      18.200  -3.773  -2.493  1.00  0.00    -0.744 OA
ENDBRANCH  88  89
ENDBRANCH  56  81
BRANCH  68  93
ATOM     93  C   UNL     1      20.436   3.193 -11.180  1.00  0.00     0.058 A 
ATOM     94  C   UNL     1      21.269   2.167 -11.652  1.00  0.00     0.135 A 
ATOM     95  C   UNL     1      20.986   4.478 -11.047  1.00  0.00     0.135 A 
ATOM     96  F   UNL     1      20.793   0.920 -11.790  1.00  0.00    -0.206 F 
ATOM     97  C   UNL     1      22.605   2.402 -11.960  1.00  0.00     0.059 A 
ATOM     98  C   UNL     1      22.312   4.742 -11.374  1.00  0.00     0.059 A 
ATOM     99  F   UNL     1      20.228   5.496 -10.610  1.00  0.00    -0.206 F 
ATOM    100  C   UNL     1      23.117   3.694 -11.819  1.00  0.00     0.060 A 
BRANCH 100 101
ATOM    101  S   UNL     1      24.843   3.995 -12.257  1.00  0.00     0.124 S 
ATOM    102  O   UNL     1      25.542   3.403 -11.121  1.00  0.00    -0.237 OA
ATOM    103  O   UNL     1      24.973   3.281 -13.524  1.00  0.00    -0.237 OA
ATOM    104  O   UNL     1      24.920   5.449 -12.354  1.00  0.00    -0.744 OA
ENDBRANCH 100 101
ENDBRANCH  68  93
ENDBRANCH  42  43
ENDBRANCH  34  37
ENDBRANCH  32  33
ENDBRANCH  31  32
ENDBRANCH   1  31
TORSDOF 20
