REMARK SMILES O=C(NCCCCNC(=O)[C@H](c1c[nH]c2ccc(Br)cc12)[N@H+]1CCC[C@H](c2nc3ccccc3s2)C1)c1ccc(-c2c3nc(c(-c4c(F)cc(S(=O)(=O)[O-])cc4F)c4ccc([nH]4)c(-c4c(F)cc(S(=O)(=O)[O-])cc4F)c4nc(c(-c5c(F)cc(S(=O)(=O)[O-])cc5F)c5ccc2[nH]5)C=C4)C=C3)cc1
REMARK SMILES IDX 5 1 4 2 3 3 1 4 2 5 37 7 38 8 102 9 39 10 101 11 40 12 41 13
REMARK SMILES IDX 42 14 95 15 43 16 100 17 94 18 96 19 44 20 99 21 93 22 92 23
REMARK SMILES IDX 45 25 79 26 58 27 78 28 59 29 62 30 77 31 97 32 60 33 61 34
REMARK SMILES IDX 76 36 98 37 63 38 46 39 47 40 56 41 48 42 49 43 55 44 57 45
REMARK SMILES IDX 50 46 51 47 52 48 53 49 54 50 80 51 81 52 90 53 82 54 83 55
REMARK SMILES IDX 89 56 91 57 84 58 85 59 86 60 87 61 88 62 64 63 65 64 74 65
REMARK SMILES IDX 66 66 67 67 73 68 75 69 68 70 69 71 70 72 71 73 72 74 6 75
REMARK SMILES IDX 7 76 8 77 9 78 10 80 11 81 22 82 23 83 36 84 24 86 26 87
REMARK SMILES IDX 25 88 27 89 28 90 35 91 29 92 34 93 30 94 33 95 31 96 32 97
REMARK SMILES IDX 12 98 13 99 21 100 14 101 15 102 20 103 16 105 18 106 17 107
REMARK SMILES IDX 19 108
REMARK H PARENT 3 6 96 24 62 35 8 79 22 85 14 104
REMARK Flexibility Score: inf
ROOT
ATOM      1  C   UNL     1       7.674   7.294   0.517  1.00  0.00     0.023 C 
ENDROOT
BRANCH   1   2
ATOM      2  C   UNL     1       7.829   8.806   0.544  1.00  0.00     0.116 C 
BRANCH   2   3
ATOM      3  N   UNL     1       9.220   9.220   0.581  1.00  0.00    -0.352 N 
ATOM      4  O   UNL     1      11.027  10.401  -0.077  1.00  0.00    -0.269 OA
ATOM      5  C   UNL     1       9.806  10.268  -0.084  1.00  0.00     0.251 C 
ATOM      6  H   UNL     1       9.816   8.684   1.152  1.00  0.00     0.163 HD
BRANCH   5   7
ATOM      7  C   UNL     1       8.951  11.217  -0.827  1.00  0.00     0.039 A 
ATOM      8  C   UNL     1       7.809  11.757  -0.229  1.00  0.00     0.014 A 
ATOM      9  C   UNL     1       9.304  11.571  -2.131  1.00  0.00     0.014 A 
ATOM     10  C   UNL     1       6.970  12.585  -0.966  1.00  0.00     0.010 A 
ATOM     11  C   UNL     1       8.495  12.457  -2.848  1.00  0.00     0.010 A 
ATOM     12  C   UNL     1       7.321  12.965  -2.271  1.00  0.00    -0.014 A 
BRANCH  12  13
ATOM     13  C   UNL     1       6.523  14.004  -2.963  1.00  0.00     0.031 A 
ATOM     14  C   UNL     1       5.719  13.686  -4.190  1.00  0.00     0.074 A 
ATOM     15  C   UNL     1       6.557  15.257  -2.466  1.00  0.00     0.049 A 
ATOM     16  N   UNL     1       4.999  14.492  -4.926  1.00  0.00    -0.248 NA
ATOM     17  C   UNL     1       5.726  12.291  -4.659  1.00  0.00     0.031 C 
ATOM     18  C   UNL     1       7.334  15.675  -1.294  1.00  0.00     0.029 A 
ATOM     19  N   UNL     1       5.936  16.406  -2.877  1.00  0.00    -0.354 N 
ATOM     20  C   UNL     1       4.485  13.714  -5.955  1.00  0.00     0.074 A 
ATOM     21  C   UNL     1       4.981  12.369  -5.755  1.00  0.00     0.031 C 
ATOM     22  C   UNL     1       7.132  16.982  -1.074  1.00  0.00     0.029 A 
ATOM     23  C   UNL     1       6.260  17.505  -2.118  1.00  0.00     0.049 A 
ATOM     24  H   UNL     1       5.317  16.442  -3.643  1.00  0.00     0.167 HD
ATOM     25  C   UNL     1       3.672  14.097  -6.969  1.00  0.00     0.037 A 
ATOM     26  C   UNL     1       5.925  18.800  -2.265  1.00  0.00     0.037 A 
ATOM     27  C   UNL     1       3.165  15.436  -7.135  1.00  0.00     0.049 A 
ATOM     28  C   UNL     1       5.038  19.192  -3.410  1.00  0.00     0.074 A 
ATOM     29  C   UNL     1       2.259  15.900  -8.073  1.00  0.00     0.029 A 
ATOM     30  N   UNL     1       3.528  16.526  -6.358  1.00  0.00    -0.354 N 
ATOM     31  N   UNL     1       4.498  18.428  -4.329  1.00  0.00    -0.248 NA
ATOM     32  C   UNL     1       4.723  20.620  -3.548  1.00  0.00     0.031 C 
ATOM     33  C   UNL     1       2.112  17.280  -7.895  1.00  0.00     0.029 A 
ATOM     34  C   UNL     1       2.897  17.669  -6.821  1.00  0.00     0.049 A 
ATOM     35  H   UNL     1       4.144  16.492  -5.590  1.00  0.00     0.167 HD
ATOM     36  C   UNL     1       3.782  19.282  -5.156  1.00  0.00     0.074 A 
ATOM     37  C   UNL     1       3.932  20.616  -4.612  1.00  0.00     0.031 C 
ATOM     38  C   UNL     1       3.071  18.989  -6.272  1.00  0.00     0.037 A 
BRANCH  25  39
ATOM     39  C   UNL     1       3.274  13.073  -7.994  1.00  0.00     0.058 A 
ATOM     40  C   UNL     1       2.293  12.107  -7.728  1.00  0.00     0.135 A 
ATOM     41  C   UNL     1       3.800  13.134  -9.295  1.00  0.00     0.135 A 
ATOM     42  F   UNL     1       1.767  11.998  -6.498  1.00  0.00    -0.206 F 
ATOM     43  C   UNL     1       1.844  11.238  -8.719  1.00  0.00     0.059 A 
ATOM     44  C   UNL     1       3.354  12.287 -10.305  1.00  0.00     0.059 A 
ATOM     45  F   UNL     1       4.743  14.040  -9.599  1.00  0.00    -0.206 F 
ATOM     46  C   UNL     1       2.375  11.341 -10.006  1.00  0.00     0.060 A 
BRANCH  46  47
ATOM     47  S   UNL     1       1.741  10.243 -11.293  1.00  0.00     0.124 S 
ATOM     48  O   UNL     1       2.339   8.968 -10.909  1.00  0.00    -0.237 OA
ATOM     49  O   UNL     1       0.297  10.345 -11.107  1.00  0.00    -0.237 OA
ATOM     50  O   UNL     1       2.254  10.830 -12.526  1.00  0.00    -0.744 OA
ENDBRANCH  46  47
ENDBRANCH  25  39
BRANCH  26  51
ATOM     51  C   UNL     1       6.473  19.818  -1.333  1.00  0.00     0.058 A 
ATOM     52  C   UNL     1       5.651  20.474  -0.408  1.00  0.00     0.135 A 
ATOM     53  C   UNL     1       7.838  20.147  -1.349  1.00  0.00     0.135 A 
ATOM     54  F   UNL     1       4.340  20.193  -0.357  1.00  0.00    -0.206 F 
ATOM     55  C   UNL     1       6.157  21.439   0.457  1.00  0.00     0.059 A 
ATOM     56  C   UNL     1       8.372  21.088  -0.477  1.00  0.00     0.059 A 
ATOM     57  F   UNL     1       8.669  19.531  -2.204  1.00  0.00    -0.206 F 
ATOM     58  C   UNL     1       7.520  21.741   0.411  1.00  0.00     0.060 A 
BRANCH  58  59
ATOM     59  S   UNL     1       8.178  22.975   1.553  1.00  0.00     0.124 S 
ATOM     60  O   UNL     1       7.773  24.216   0.905  1.00  0.00    -0.237 OA
ATOM     61  O   UNL     1       7.487  22.649   2.797  1.00  0.00    -0.237 OA
ATOM     62  O   UNL     1       9.612  22.698   1.552  1.00  0.00    -0.744 OA
ENDBRANCH  58  59
ENDBRANCH  26  51
BRANCH  38  63
ATOM     63  C   UNL     1       2.413  20.137  -6.980  1.00  0.00     0.058 A 
ATOM     64  C   UNL     1       3.160  21.034  -7.759  1.00  0.00     0.135 A 
ATOM     65  C   UNL     1       1.023  20.318  -6.914  1.00  0.00     0.135 A 
ATOM     66  F   UNL     1       4.494  20.908  -7.842  1.00  0.00    -0.206 F 
ATOM     67  C   UNL     1       2.552  22.084  -8.437  1.00  0.00     0.059 A 
ATOM     68  C   UNL     1       0.391  21.348  -7.603  1.00  0.00     0.059 A 
ATOM     69  F   UNL     1       0.266  19.482  -6.186  1.00  0.00    -0.206 F 
ATOM     70  C   UNL     1       1.166  22.232  -8.354  1.00  0.00     0.060 A 
BRANCH  70  71
ATOM     71  S   UNL     1       0.383  23.576  -9.270  1.00  0.00     0.124 S 
ATOM     72  O   UNL     1       0.717  24.729  -8.440  1.00  0.00    -0.237 OA
ATOM     73  O   UNL     1       1.056  23.509 -10.563  1.00  0.00    -0.237 OA
ATOM     74  O   UNL     1      -1.027  23.199  -9.284  1.00  0.00    -0.744 OA
ENDBRANCH  70  71
ENDBRANCH  38  63
ENDBRANCH  12  13
ENDBRANCH   5   7
ENDBRANCH   2   3
ENDBRANCH   1   2
BRANCH   1  75
ATOM     75  C   UNL     1       8.234   6.575   1.746  1.00  0.00     0.023 C 
BRANCH  75  76
ATOM     76  C   UNL     1       7.627   7.020   3.079  1.00  0.00     0.116 C 
BRANCH  76  77
ATOM     77  N   UNL     1       6.197   6.782   3.112  1.00  0.00    -0.351 N 
ATOM     78  C   UNL     1       5.529   5.644   3.497  1.00  0.00     0.283 C 
ATOM     79  H   UNL     1       5.631   7.532   2.821  1.00  0.00     0.163 HD
ATOM     80  O   UNL     1       4.368   5.537   3.091  1.00  0.00    -0.268 OA
BRANCH  78  81
ATOM     81  C   UNL     1       6.260   4.587   4.395  1.00  0.00     0.307 C 
BRANCH  81  82
ATOM     82  N   UNL     1       5.394   3.845   5.363  1.00  0.00    -0.320 N 
ATOM     83  C   UNL     1       4.051   4.376   5.581  1.00  0.00     0.263 C 
ATOM     84  C   UNL     1       5.464   2.380   5.358  1.00  0.00     0.274 C 
ATOM     85  H   UNL     1       5.895   4.084   6.219  1.00  0.00     0.349 HD
ATOM     86  C   UNL     1       3.365   3.766   6.805  1.00  0.00     0.062 C 
ATOM     87  C   UNL     1       4.779   1.696   6.565  1.00  0.00     0.104 C 
ATOM     88  C   UNL     1       3.354   2.245   6.721  1.00  0.00     0.022 C 
BRANCH  87  89
ATOM     89  C   UNL     1       5.589   1.830   7.841  1.00  0.00     0.103 A 
ATOM     90  N   UNL     1       6.657   2.585   7.985  1.00  0.00    -0.241 NA
ATOM     91  S   UNL     1       5.139   0.939   9.247  1.00  0.00    -0.118 S 
ATOM     92  C   UNL     1       7.100   2.555   9.292  1.00  0.00     0.082 A 
ATOM     93  C   UNL     1       6.380   1.720  10.146  1.00  0.00     0.055 A 
ATOM     94  C   UNL     1       8.184   3.290   9.812  1.00  0.00     0.030 A 
ATOM     95  C   UNL     1       6.697   1.604  11.509  1.00  0.00     0.021 A 
ATOM     96  C   UNL     1       8.506   3.186  11.168  1.00  0.00     0.002 A 
ATOM     97  C   UNL     1       7.768   2.356  12.005  1.00  0.00     0.002 A 
ENDBRANCH  87  89
ENDBRANCH  81  82
BRANCH  81  98
ATOM     98  C   UNL     1       7.105   3.693   3.508  1.00  0.00     0.044 A 
ATOM     99  C   UNL     1       6.669   2.943   2.428  1.00  0.00     0.094 A 
ATOM    100  C   UNL     1       8.533   3.519   3.570  1.00  0.00     0.010 A 
ATOM    101  N   UNL     1       7.746   2.324   1.859  1.00  0.00    -0.361 N 
ATOM    102  C   UNL     1       8.900   2.684   2.513  1.00  0.00     0.046 A 
ATOM    103  C   UNL     1       9.552   4.037   4.399  1.00  0.00     0.026 A 
ATOM    104  H   UNL     1       7.702   1.709   1.092  1.00  0.00     0.166 HD
ATOM    105  C   UNL     1      10.231   2.347   2.235  1.00  0.00     0.028 A 
ATOM    106  C   UNL     1      10.886   3.728   4.115  1.00  0.00     0.018 A 
ATOM    107  C   UNL     1      11.224   2.897   3.051  1.00  0.00     0.018 A 
ATOM    108  Br  UNL     1      12.258   4.479   5.181  1.00  0.00    -0.051 Br
ENDBRANCH  81  98
ENDBRANCH  78  81
ENDBRANCH  76  77
ENDBRANCH  75  76
ENDBRANCH   1  75
TORSDOF 17
