REMARK SMILES CCN(CCC#N)C(=O)c1ccncc1/C=C/C(=O)NCCCCNC(=O)c1ccc(-c2c3nc(c(-c4c(F)cc(S(=O)(=O)[O-])cc4F)c4ccc([nH]4)c(-c4c(F)cc(S(=O)(=O)[O-])cc4F)c4nc(c(-c5c(F)cc(S(=O)(=O)[O-])cc5F)c5ccc2[nH]5)C=C4)C=C3)cc1
REMARK SMILES IDX 21 1 20 2 18 3 19 4 17 6 16 7 15 8 10 9 11 10 12 11 14 12
REMARK SMILES IDX 13 13 8 14 9 15 3 16 2 17 1 18 4 19 5 20 6 21 7 22 22 23
REMARK SMILES IDX 23 24 24 25 25 26 26 27 27 29 28 30 29 31 93 32 30 33 92 34
REMARK SMILES IDX 31 35 32 36 33 37 86 38 34 39 91 40 85 41 87 42 35 43 90 44
REMARK SMILES IDX 84 45 83 46 36 48 70 49 49 50 69 51 50 52 53 53 68 54 88 55
REMARK SMILES IDX 51 56 52 57 67 59 89 60 54 61 37 62 38 63 47 64 39 65 40 66
REMARK SMILES IDX 46 67 48 68 41 69 42 70 43 71 44 72 45 73 71 74 72 75 81 76
REMARK SMILES IDX 73 77 74 78 80 79 82 80 75 81 76 82 77 83 78 84 79 85 55 86
REMARK SMILES IDX 56 87 65 88 57 89 58 90 64 91 66 92 59 93 60 94 61 95 62 96
REMARK SMILES IDX 63 97
REMARK H PARENT 20 5 25 28 87 47 53 58
REMARK Flexibility Score: inf
ROOT
ATOM      1  C   UNL     1       5.099   0.176   1.925  1.00  0.00     0.116 C 
ENDROOT
BRANCH   1   2
ATOM      2  N   UNL     1       6.231  -0.148   2.763  1.00  0.00    -0.353 N 
ATOM      3  C   UNL     1       6.525  -1.338   3.360  1.00  0.00     0.244 C 
ATOM      4  O   UNL     1       7.548  -1.475   4.024  1.00  0.00    -0.270 OA
ATOM      5  H   UNL     1       6.871   0.583   2.924  1.00  0.00     0.163 HD
BRANCH   3   6
ATOM      6  C   UNL     1       5.513  -2.416   3.341  1.00  0.00     0.072 C 
ATOM      7  C   UNL     1       5.029  -3.046   2.256  1.00  0.00     0.016 C 
BRANCH   7   8
ATOM      8  C   UNL     1       3.893  -3.956   2.469  1.00  0.00     0.006 A 
ATOM      9  C   UNL     1       2.535  -3.603   2.270  1.00  0.00     0.050 A 
ATOM     10  C   UNL     1       1.594  -4.292   3.032  1.00  0.00     0.034 A 
ATOM     11  C   UNL     1       1.975  -5.439   3.714  1.00  0.00     0.112 A 
ATOM     12  C   UNL     1       4.166  -5.149   3.145  1.00  0.00     0.119 A 
ATOM     13  N   UNL     1       3.230  -5.916   3.742  1.00  0.00    -0.264 NA
BRANCH   9  14
ATOM     14  C   UNL     1       2.131  -2.584   1.220  1.00  0.00     0.254 C 
ATOM     15  O   UNL     1       2.990  -1.789   0.845  1.00  0.00    -0.269 OA
BRANCH  14  16
ATOM     16  N   UNL     1       0.870  -2.551   0.556  1.00  0.00    -0.338 N 
BRANCH  16  17
ATOM     17  C   UNL     1       0.724  -1.515  -0.492  1.00  0.00     0.116 C 
ATOM     18  C   UNL     1       0.830  -0.081   0.016  1.00  0.00     0.027 C 
ENDBRANCH  16  17
BRANCH  16  19
ATOM     19  C   UNL     1      -0.156  -3.612   0.527  1.00  0.00     0.135 C 
BRANCH  19  20
ATOM     20  C   UNL     1       0.157  -4.803  -0.385  1.00  0.00     0.141 C 
BRANCH  20  21
ATOM     21  C   UNL     1       1.576  -5.290  -0.138  1.00  0.00     0.064 C 
ATOM     22  N   UNL     1       2.753  -5.694   0.067  1.00  0.00    -0.198 NA
ENDBRANCH  20  21
ENDBRANCH  19  20
ENDBRANCH  16  19
ENDBRANCH  14  16
ENDBRANCH   9  14
ENDBRANCH   7   8
ENDBRANCH   3   6
ENDBRANCH   1   2
BRANCH   1  23
ATOM     23  C   UNL     1       3.957   0.875   2.658  1.00  0.00     0.023 C 
BRANCH  23  24
ATOM     24  C   UNL     1       4.196   2.358   2.930  1.00  0.00     0.023 C 
BRANCH  24  25
ATOM     25  C   UNL     1       4.728   3.154   1.745  1.00  0.00     0.116 C 
BRANCH  25  26
ATOM     26  N   UNL     1       3.901   3.066   0.548  1.00  0.00    -0.352 N 
ATOM     27  C   UNL     1       3.717   4.032  -0.415  1.00  0.00     0.251 C 
ATOM     28  H   UNL     1       3.418   2.218   0.413  1.00  0.00     0.163 HD
ATOM     29  O   UNL     1       2.924   3.863  -1.336  1.00  0.00    -0.269 OA
BRANCH  27  30
ATOM     30  C   UNL     1       4.462   5.302  -0.284  1.00  0.00     0.039 A 
ATOM     31  C   UNL     1       3.757   6.507  -0.282  1.00  0.00     0.014 A 
ATOM     32  C   UNL     1       5.841   5.285  -0.061  1.00  0.00     0.014 A 
ATOM     33  C   UNL     1       4.428   7.693   0.023  1.00  0.00     0.010 A 
ATOM     34  C   UNL     1       6.488   6.453   0.325  1.00  0.00     0.010 A 
ATOM     35  C   UNL     1       5.790   7.669   0.369  1.00  0.00    -0.014 A 
BRANCH  35  36
ATOM     36  C   UNL     1       6.513   8.905   0.765  1.00  0.00     0.031 A 
ATOM     37  C   UNL     1       7.669   9.388  -0.069  1.00  0.00     0.074 A 
ATOM     38  C   UNL     1       6.184   9.544   1.905  1.00  0.00     0.049 A 
ATOM     39  N   UNL     1       8.488  10.384   0.152  1.00  0.00    -0.248 NA
ATOM     40  C   UNL     1       7.965   8.629  -1.295  1.00  0.00     0.031 C 
ATOM     41  C   UNL     1       5.122   9.141   2.830  1.00  0.00     0.029 A 
ATOM     42  N   UNL     1       6.721  10.665   2.489  1.00  0.00    -0.354 N 
ATOM     43  C   UNL     1       9.406  10.355  -0.891  1.00  0.00     0.074 A 
ATOM     44  C   UNL     1       9.079   9.211  -1.713  1.00  0.00     0.031 C 
ATOM     45  C   UNL     1       5.071  10.013   3.850  1.00  0.00     0.029 A 
ATOM     46  C   UNL     1       6.115  11.018   3.673  1.00  0.00     0.049 A 
ATOM     47  H   UNL     1       7.469  11.170   2.096  1.00  0.00     0.167 HD
ATOM     48  C   UNL     1      10.414  11.219  -1.158  1.00  0.00     0.037 A 
ATOM     49  C   UNL     1       6.375  12.034   4.519  1.00  0.00     0.037 A 
ATOM     50  C   UNL     1      10.708  12.380  -0.361  1.00  0.00     0.049 A 
ATOM     51  C   UNL     1       7.481  13.000   4.186  1.00  0.00     0.074 A 
ATOM     52  C   UNL     1      11.668  13.353  -0.579  1.00  0.00     0.029 A 
ATOM     53  N   UNL     1      10.041  12.729   0.804  1.00  0.00    -0.354 N 
ATOM     54  N   UNL     1       8.300  12.992   3.162  1.00  0.00    -0.248 NA
ATOM     55  C   UNL     1       7.691  14.117   5.116  1.00  0.00     0.031 C 
ATOM     56  C   UNL     1      11.600  14.275   0.471  1.00  0.00     0.029 A 
ATOM     57  C   UNL     1      10.572  13.898   1.321  1.00  0.00     0.049 A 
ATOM     58  H   UNL     1       9.299  12.220   1.204  1.00  0.00     0.167 HD
ATOM     59  C   UNL     1       9.102  14.119   3.308  1.00  0.00     0.074 A 
ATOM     60  C   UNL     1       8.664  14.789   4.515  1.00  0.00     0.031 C 
ATOM     61  C   UNL     1      10.109  14.560   2.514  1.00  0.00     0.037 A 
BRANCH  48  62
ATOM     62  C   UNL     1      11.258  10.947  -2.372  1.00  0.00     0.058 A 
ATOM     63  C   UNL     1      10.749  11.106  -3.671  1.00  0.00     0.135 A 
ATOM     64  C   UNL     1      12.596  10.543  -2.237  1.00  0.00     0.135 A 
ATOM     65  F   UNL     1       9.472  11.473  -3.857  1.00  0.00    -0.206 F 
ATOM     66  C   UNL     1      11.526  10.842  -4.794  1.00  0.00     0.059 A 
ATOM     67  C   UNL     1      13.400  10.301  -3.347  1.00  0.00     0.059 A 
ATOM     68  F   UNL     1      13.132  10.374  -1.018  1.00  0.00    -0.206 F 
ATOM     69  C   UNL     1      12.851  10.438  -4.622  1.00  0.00     0.060 A 
BRANCH  69  70
ATOM     70  S   UNL     1      13.847  10.103  -6.089  1.00  0.00     0.124 S 
ATOM     71  O   UNL     1      13.306   8.818  -6.520  1.00  0.00    -0.237 OA
ATOM     72  O   UNL     1      13.533  11.241  -6.947  1.00  0.00    -0.237 OA
ATOM     73  O   UNL     1      15.212  10.069  -5.573  1.00  0.00    -0.744 OA
ENDBRANCH  69  70
ENDBRANCH  48  62
BRANCH  49  74
ATOM     74  C   UNL     1       5.552  12.213   5.745  1.00  0.00     0.058 A 
ATOM     75  C   UNL     1       4.637  13.272   5.848  1.00  0.00     0.135 A 
ATOM     76  C   UNL     1       5.657  11.332   6.832  1.00  0.00     0.135 A 
ATOM     77  F   UNL     1       4.505  14.144   4.837  1.00  0.00    -0.206 F 
ATOM     78  C   UNL     1       3.869  13.464   6.992  1.00  0.00     0.059 A 
ATOM     79  C   UNL     1       4.882  11.490   7.978  1.00  0.00     0.059 A 
ATOM     80  F   UNL     1       6.504  10.293   6.776  1.00  0.00    -0.206 F 
ATOM     81  C   UNL     1       3.999  12.566   8.053  1.00  0.00     0.060 A 
BRANCH  81  82
ATOM     82  S   UNL     1       2.965  12.799   9.515  1.00  0.00     0.124 S 
ATOM     83  O   UNL     1       3.614  13.937  10.156  1.00  0.00    -0.237 OA
ATOM     84  O   UNL     1       1.654  13.058   8.928  1.00  0.00    -0.237 OA
ATOM     85  O   UNL     1       3.086  11.524  10.217  1.00  0.00    -0.744 OA
ENDBRANCH  81  82
ENDBRANCH  49  74
BRANCH  61  86
ATOM     86  C   UNL     1      10.777  15.851   2.896  1.00  0.00     0.058 A 
ATOM     87  C   UNL     1      11.669  15.930   3.975  1.00  0.00     0.135 A 
ATOM     88  C   UNL     1      10.565  17.010   2.131  1.00  0.00     0.135 A 
ATOM     89  F   UNL     1      11.902  14.852   4.740  1.00  0.00    -0.206 F 
ATOM     90  C   UNL     1      12.313  17.120   4.298  1.00  0.00     0.059 A 
ATOM     91  C   UNL     1      11.217  18.204   2.420  1.00  0.00     0.059 A 
ATOM     92  F   UNL     1       9.729  16.983   1.081  1.00  0.00    -0.206 F 
ATOM     93  C   UNL     1      12.081  18.252   3.513  1.00  0.00     0.060 A 
BRANCH  93  94
ATOM     94  S   UNL     1      12.950  19.782   3.918  1.00  0.00     0.124 S 
ATOM     95  O   UNL     1      12.210  20.239   5.089  1.00  0.00    -0.237 OA
ATOM     96  O   UNL     1      14.310  19.313   4.170  1.00  0.00    -0.237 OA
ATOM     97  O   UNL     1      12.787  20.593   2.715  1.00  0.00    -0.744 OA
ENDBRANCH  93  94
ENDBRANCH  61  86
ENDBRANCH  35  36
ENDBRANCH  27  30
ENDBRANCH  25  26
ENDBRANCH  24  25
ENDBRANCH  23  24
ENDBRANCH   1  23
TORSDOF 21
