REMARK SMILES Cc1cc2c(c(C)c1Br)C=C(C(=O)NCCCCNC(=O)c1ccc(-c3c4nc(c(-c5c(F)cc(S(=O)(=O)[O-])cc5F)c5ccc([nH]5)c(-c5c(F)cc(S(=O)(=O)[O-])cc5F)c5nc(c(-c6c(F)cc(S(=O)(=O)[O-])cc6F)c6ccc3[nH]6)C=C5)C=C4)cc1)[C@@H](C(F)(F)F)O2
REMARK SMILES IDX 17 1 16 2 15 3 14 4 12 5 13 6 11 8 1 9 2 10 3 11 8 12 4 13
REMARK SMILES IDX 6 14 9 15 5 16 93 17 7 18 10 19 88 20 89 21 90 22 91 23
REMARK SMILES IDX 92 24 18 25 19 26 20 27 21 29 22 30 23 31 87 32 24 33 86 34
REMARK SMILES IDX 25 35 26 36 27 37 80 38 28 39 85 40 79 41 81 42 29 43 84 44
REMARK SMILES IDX 78 45 77 46 30 48 64 49 43 50 63 51 44 52 47 53 62 54 82 55
REMARK SMILES IDX 45 56 46 57 61 59 83 60 48 61 31 62 32 63 41 64 33 65 34 66
REMARK SMILES IDX 40 67 42 68 35 69 36 70 37 71 38 72 39 73 65 74 66 75 75 76
REMARK SMILES IDX 67 77 68 78 74 79 76 80 69 81 70 82 71 83 72 84 73 85 49 86
REMARK SMILES IDX 50 87 59 88 51 89 52 90 58 91 60 92 53 93 54 94 55 95 56 96
REMARK SMILES IDX 57 97
REMARK H PARENT 14 7 19 28 81 47 47 58
REMARK Flexibility Score: inf
ROOT
ATOM      1  C   UNL     1      -6.471   7.526  -3.098  1.00  0.00     0.023 C 
ENDROOT
BRANCH   1   2
ATOM      2  C   UNL     1      -5.606   6.282  -2.875  1.00  0.00     0.023 C 
BRANCH   2   3
ATOM      3  C   UNL     1      -4.292   6.285  -3.651  1.00  0.00     0.116 C 
BRANCH   3   4
ATOM      4  N   UNL     1      -3.244   6.997  -2.941  1.00  0.00    -0.352 N 
ATOM      5  C   UNL     1      -2.138   6.679  -2.228  1.00  0.00     0.251 C 
ATOM      6  O   UNL     1      -1.507   7.643  -1.781  1.00  0.00    -0.270 OA
ATOM      7  H   UNL     1      -3.371   7.972  -2.994  1.00  0.00     0.163 HD
BRANCH   5   8
ATOM      8  C   UNL     1      -1.647   5.294  -1.959  1.00  0.00     0.067 C 
ATOM      9  C   UNL     1       1.323  -0.127   0.100  1.00  0.00     0.046 C 
ATOM     10  C   UNL     1       0.901   1.287  -0.198  1.00  0.00    -0.033 A 
ATOM     11  C   UNL     1      -0.279   1.479  -0.924  1.00  0.00     0.051 A 
ATOM     12  C   UNL     1       1.615   2.419   0.251  1.00  0.00     0.024 A 
ATOM     13  C   UNL     1      -0.731   2.760  -1.219  1.00  0.00     0.128 A 
ATOM     14  C   UNL     1       1.171   3.732  -0.053  1.00  0.00    -0.026 A 
ATOM     15  Br  UNL     1       3.185   2.136   1.311  1.00  0.00    -0.050 Br
ATOM     16  C   UNL     1      -0.031   3.891  -0.788  1.00  0.00     0.021 A 
ATOM     17  O   UNL     1      -1.912   2.823  -1.901  1.00  0.00    -0.475 OA
ATOM     18  C   UNL     1       1.921   4.965   0.399  1.00  0.00     0.046 C 
ATOM     19  C   UNL     1      -0.622   5.199  -1.091  1.00  0.00     0.026 C 
ATOM     20  C   UNL     1      -2.188   4.059  -2.613  1.00  0.00     0.314 C 
BRANCH  20  21
ATOM     21  C   UNL     1      -1.741   3.911  -4.078  1.00  0.00     0.429 C 
ATOM     22  F   UNL     1      -2.483   2.964  -4.706  1.00  0.00    -0.167 F 
ATOM     23  F   UNL     1      -1.896   5.053  -4.788  1.00  0.00    -0.167 F 
ATOM     24  F   UNL     1      -0.443   3.548  -4.192  1.00  0.00    -0.167 F 
ENDBRANCH  20  21
ENDBRANCH   5   8
ENDBRANCH   3   4
ENDBRANCH   2   3
ENDBRANCH   1   2
BRANCH   1  25
ATOM     25  C   UNL     1      -6.816   7.837  -4.555  1.00  0.00     0.116 C 
BRANCH  25  26
ATOM     26  N   UNL     1      -7.373   6.705  -5.283  1.00  0.00    -0.352 N 
ATOM     27  C   UNL     1      -8.266   6.731  -6.329  1.00  0.00     0.251 C 
ATOM     28  H   UNL     1      -7.075   5.814  -4.991  1.00  0.00     0.163 HD
ATOM     29  O   UNL     1      -8.706   5.688  -6.801  1.00  0.00    -0.269 OA
BRANCH  27  30
ATOM     30  C   UNL     1      -8.721   8.039  -6.837  1.00  0.00     0.039 A 
ATOM     31  C   UNL     1     -10.088   8.322  -6.833  1.00  0.00     0.014 A 
ATOM     32  C   UNL     1      -7.790   9.003  -7.232  1.00  0.00     0.014 A 
ATOM     33  C   UNL     1     -10.519   9.611  -7.148  1.00  0.00     0.010 A 
ATOM     34  C   UNL     1      -8.218  10.300  -7.493  1.00  0.00     0.010 A 
ATOM     35  C   UNL     1      -9.584  10.618  -7.438  1.00  0.00    -0.014 A 
BRANCH  35  36
ATOM     36  C   UNL     1     -10.012  12.021  -7.659  1.00  0.00     0.031 A 
ATOM     37  C   UNL     1      -9.847  12.652  -9.010  1.00  0.00     0.074 A 
ATOM     38  C   UNL     1     -10.486  12.740  -6.623  1.00  0.00     0.049 A 
ATOM     39  N   UNL     1     -10.083  13.883  -9.378  1.00  0.00    -0.248 NA
ATOM     40  C   UNL     1      -9.327  11.790 -10.084  1.00  0.00     0.031 C 
ATOM     41  C   UNL     1     -10.654  12.244  -5.254  1.00  0.00     0.029 A 
ATOM     42  N   UNL     1     -10.907  14.044  -6.556  1.00  0.00    -0.354 N 
ATOM     43  C   UNL     1      -9.734  13.949 -10.721  1.00  0.00     0.074 A 
ATOM     44  C   UNL     1      -9.226  12.645 -11.091  1.00  0.00     0.031 C 
ATOM     45  C   UNL     1     -11.168  13.223  -4.492  1.00  0.00     0.029 A 
ATOM     46  C   UNL     1     -11.334  14.424  -5.306  1.00  0.00     0.049 A 
ATOM     47  H   UNL     1     -10.903  14.651  -7.332  1.00  0.00     0.167 HD
ATOM     48  C   UNL     1      -9.848  14.995 -11.573  1.00  0.00     0.037 A 
ATOM     49  C   UNL     1     -11.805  15.606  -4.866  1.00  0.00     0.037 A 
ATOM     50  C   UNL     1     -10.373  16.283 -11.204  1.00  0.00     0.049 A 
ATOM     51  C   UNL     1     -11.925  16.752  -5.831  1.00  0.00     0.074 A 
ATOM     52  C   UNL     1     -10.555  17.399 -12.001  1.00  0.00     0.029 A 
ATOM     53  N   UNL     1     -10.810  16.623  -9.932  1.00  0.00    -0.354 N 
ATOM     54  N   UNL     1     -11.611  16.790  -7.104  1.00  0.00    -0.248 NA
ATOM     55  C   UNL     1     -12.461  18.014  -5.303  1.00  0.00     0.031 C 
ATOM     56  C   UNL     1     -11.081  18.423 -11.206  1.00  0.00     0.029 A 
ATOM     57  C   UNL     1     -11.257  17.934  -9.921  1.00  0.00     0.049 A 
ATOM     58  H   UNL     1     -10.803  16.022  -9.153  1.00  0.00     0.167 HD
ATOM     59  C   UNL     1     -11.933  18.072  -7.536  1.00  0.00     0.074 A 
ATOM     60  C   UNL     1     -12.470  18.776  -6.390  1.00  0.00     0.031 C 
ATOM     61  C   UNL     1     -11.795  18.615  -8.770  1.00  0.00     0.037 A 
BRANCH  48  62
ATOM     62  C   UNL     1      -9.406  14.779 -12.992  1.00  0.00     0.058 A 
ATOM     63  C   UNL     1     -10.162  13.996 -13.879  1.00  0.00     0.135 A 
ATOM     64  C   UNL     1      -8.231  15.374 -13.477  1.00  0.00     0.135 A 
ATOM     65  F   UNL     1     -11.283  13.389 -13.458  1.00  0.00    -0.206 F 
ATOM     66  C   UNL     1      -9.755  13.788 -15.192  1.00  0.00     0.059 A 
ATOM     67  C   UNL     1      -7.817  15.198 -14.795  1.00  0.00     0.059 A 
ATOM     68  F   UNL     1      -7.471  16.128 -12.669  1.00  0.00    -0.206 F 
ATOM     69  C   UNL     1      -8.578  14.392 -15.640  1.00  0.00     0.060 A 
BRANCH  69  70
ATOM     70  S   UNL     1      -8.063  14.111 -17.347  1.00  0.00     0.124 S 
ATOM     71  O   UNL     1      -7.572  12.738 -17.280  1.00  0.00    -0.237 OA
ATOM     72  O   UNL     1      -9.307  14.303 -18.085  1.00  0.00    -0.237 OA
ATOM     73  O   UNL     1      -7.043  15.132 -17.566  1.00  0.00    -0.744 OA
ENDBRANCH  69  70
ENDBRANCH  48  62
BRANCH  49  74
ATOM     74  C   UNL     1     -12.239  15.747  -3.453  1.00  0.00     0.058 A 
ATOM     75  C   UNL     1     -13.602  15.795  -3.127  1.00  0.00     0.135 A 
ATOM     76  C   UNL     1     -11.311  15.797  -2.402  1.00  0.00     0.135 A 
ATOM     77  F   UNL     1     -14.526  15.756  -4.099  1.00  0.00    -0.206 F 
ATOM     78  C   UNL     1     -14.032  15.890  -1.808  1.00  0.00     0.059 A 
ATOM     79  C   UNL     1     -11.717  15.874  -1.073  1.00  0.00     0.059 A 
ATOM     80  F   UNL     1      -9.996  15.738  -2.664  1.00  0.00    -0.206 F 
ATOM     81  C   UNL     1     -13.081  15.923  -0.786  1.00  0.00     0.060 A 
BRANCH  81  82
ATOM     82  S   UNL     1     -13.653  15.972   0.926  1.00  0.00     0.124 S 
ATOM     83  O   UNL     1     -14.115  17.350   1.043  1.00  0.00    -0.237 OA
ATOM     84  O   UNL     1     -14.691  14.947   0.932  1.00  0.00    -0.237 OA
ATOM     85  O   UNL     1     -12.453  15.641   1.689  1.00  0.00    -0.744 OA
ENDBRANCH  81  82
ENDBRANCH  49  74
BRANCH  61  86
ATOM     86  C   UNL     1     -12.254  20.031  -8.957  1.00  0.00     0.058 A 
ATOM     87  C   UNL     1     -11.488  21.115  -8.503  1.00  0.00     0.135 A 
ATOM     88  C   UNL     1     -13.439  20.308  -9.657  1.00  0.00     0.135 A 
ATOM     89  F   UNL     1     -10.351  20.901  -7.822  1.00  0.00    -0.206 F 
ATOM     90  C   UNL     1     -11.886  22.428  -8.730  1.00  0.00     0.059 A 
ATOM     91  C   UNL     1     -13.846  21.613  -9.913  1.00  0.00     0.059 A 
ATOM     92  F   UNL     1     -14.202  19.304 -10.117  1.00  0.00    -0.206 F 
ATOM     93  C   UNL     1     -13.065  22.667  -9.439  1.00  0.00     0.060 A 
BRANCH  93  94
ATOM     94  S   UNL     1     -13.545  24.376  -9.769  1.00  0.00     0.124 S 
ATOM     95  O   UNL     1     -14.040  24.799  -8.464  1.00  0.00    -0.237 OA
ATOM     96  O   UNL     1     -12.286  24.979 -10.196  1.00  0.00    -0.237 OA
ATOM     97  O   UNL     1     -14.557  24.248 -10.814  1.00  0.00    -0.744 OA
ENDBRANCH  93  94
ENDBRANCH  61  86
ENDBRANCH  35  36
ENDBRANCH  27  30
ENDBRANCH  25  26
ENDBRANCH   1  25
TORSDOF 15
