REMARK SMILES CCN(CC(C)(C)O)C(=O)Nc1ccc(C(=O)NCCCCNC(=O)c2ccc(-c3c4nc(c(-c5c(F)cc(S(=O)(=O)[O-])cc5F)c5ccc([nH]5)c(-c5c(F)cc(S(=O)(=O)[O-])cc5F)c5nc(c(-c6c(F)cc(S(=O)(=O)[O-])cc6F)c6ccc3[nH]6)C=C5)C=C4)cc2)c(O)c1
REMARK SMILES IDX 19 1 18 2 16 3 17 4 15 6 12 7 13 8 94 9 14 10 92 11 11 12
REMARK SMILES IDX 9 13 10 14 3 16 2 17 1 18 4 19 5 20 6 21 7 22 8 23 93 25
REMARK SMILES IDX 20 27 21 28 22 29 23 30 24 31 25 33 26 34 27 35 91 36 28 37
REMARK SMILES IDX 90 38 29 39 30 40 31 41 84 42 32 43 89 44 83 45 85 46 33 47
REMARK SMILES IDX 88 48 82 49 81 50 34 52 68 53 47 54 67 55 48 56 51 57 66 58
REMARK SMILES IDX 86 59 49 60 50 61 65 63 87 64 52 65 35 66 36 67 45 68 37 69
REMARK SMILES IDX 38 70 44 71 46 72 39 73 40 74 41 75 42 76 43 77 69 78 70 79
REMARK SMILES IDX 79 80 71 81 72 82 78 83 80 84 73 85 74 86 75 87 76 88 77 89
REMARK SMILES IDX 53 90 54 91 63 92 55 93 56 94 62 95 64 96 57 97 58 98 59 99
REMARK SMILES IDX 60 100 61 101
REMARK H PARENT 18 5 11 15 8 24 93 26 23 32 85 51 51 62
REMARK Flexibility Score: inf
ROOT
ATOM      1  C   UNL     1       0.525  -4.123  -8.324  1.00  0.00     0.116 C 
ENDROOT
BRANCH   1   2
ATOM      2  N   UNL     1       0.081  -2.960  -9.067  1.00  0.00    -0.352 N 
ATOM      3  C   UNL     1       0.542  -1.680  -8.943  1.00  0.00     0.255 C 
ATOM      4  O   UNL     1       0.241  -0.811  -9.753  1.00  0.00    -0.269 OA
ATOM      5  H   UNL     1      -0.629  -3.109  -9.733  1.00  0.00     0.163 HD
BRANCH   3   6
ATOM      6  C   UNL     1       1.242  -1.318  -7.708  1.00  0.00     0.081 A 
ATOM      7  C   UNL     1       2.137  -0.690  -5.104  1.00  0.00     0.046 A 
ATOM      8  C   UNL     1       0.978  -0.177  -5.635  1.00  0.00     0.027 A 
ATOM      9  C   UNL     1       2.896  -1.518  -5.947  1.00  0.00     0.073 A 
ATOM     10  C   UNL     1       0.508  -0.474  -6.901  1.00  0.00     0.020 A 
ATOM     11  C   UNL     1       2.463  -1.812  -7.252  1.00  0.00     0.130 A 
BRANCH   7  12
ATOM     12  N   UNL     1       2.638  -0.391  -3.829  1.00  0.00    -0.308 N 
ATOM     13  C   UNL     1       2.375   0.263  -2.681  1.00  0.00     0.321 C 
ATOM     14  O   UNL     1       3.358   0.249  -1.917  1.00  0.00    -0.248 OA
ATOM     15  H   UNL     1       3.517  -0.825  -3.737  1.00  0.00     0.171 HD
BRANCH  13  16
ATOM     16  N   UNL     1       1.216   0.861  -2.271  1.00  0.00    -0.322 N 
BRANCH  16  17
ATOM     17  C   UNL     1       1.217   1.347  -0.879  1.00  0.00     0.118 C 
ATOM     18  C   UNL     1       1.135   0.198   0.124  1.00  0.00     0.027 C 
ENDBRANCH  16  17
BRANCH  16  19
ATOM     19  C   UNL     1      -0.084   1.049  -2.934  1.00  0.00     0.155 C 
BRANCH  19  20
ATOM     20  C   UNL     1      -0.248   2.402  -3.733  1.00  0.00     0.077 C 
ATOM     21  C   UNL     1       1.023   2.935  -4.424  1.00  0.00     0.043 C 
ATOM     22  C   UNL     1      -1.419   2.297  -4.736  1.00  0.00     0.043 C 
BRANCH  20  23
ATOM     23  O   UNL     1      -0.624   3.427  -2.790  1.00  0.00    -0.389 OA
ATOM     24  H   UNL     1       0.080   3.535  -2.132  1.00  0.00     0.211 HD
ENDBRANCH  20  23
ENDBRANCH  19  20
ENDBRANCH  16  19
ENDBRANCH  13  16
ENDBRANCH   7  12
BRANCH  11  25
ATOM     25  O   UNL     1       3.284  -2.591  -8.017  1.00  0.00    -0.507 OA
ATOM     26  H   UNL     1       3.037  -2.813  -8.893  1.00  0.00     0.293 HD
ENDBRANCH  11  25
ENDBRANCH   3   6
ENDBRANCH   1   2
BRANCH   1  27
ATOM     27  C   UNL     1      -0.419  -5.313  -8.376  1.00  0.00     0.023 C 
BRANCH  27  28
ATOM     28  C   UNL     1      -0.992  -5.670  -9.743  1.00  0.00     0.023 C 
BRANCH  28  29
ATOM     29  C   UNL     1      -0.061  -5.525 -10.940  1.00  0.00     0.116 C 
BRANCH  29  30
ATOM     30  N   UNL     1       1.177  -6.278 -10.826  1.00  0.00    -0.352 N 
ATOM     31  C   UNL     1       1.687  -7.233 -11.670  1.00  0.00     0.251 C 
ATOM     32  H   UNL     1       1.725  -6.074 -10.034  1.00  0.00     0.163 HD
ATOM     33  O   UNL     1       2.733  -7.811 -11.394  1.00  0.00    -0.269 OA
BRANCH  31  34
ATOM     34  C   UNL     1       0.923  -7.595 -12.878  1.00  0.00     0.039 A 
ATOM     35  C   UNL     1       0.567  -8.930 -13.065  1.00  0.00     0.014 A 
ATOM     36  C   UNL     1       0.472  -6.604 -13.754  1.00  0.00     0.014 A 
ATOM     37  C   UNL     1      -0.323  -9.263 -14.086  1.00  0.00     0.010 A 
ATOM     38  C   UNL     1      -0.489  -6.925 -14.705  1.00  0.00     0.010 A 
ATOM     39  C   UNL     1      -0.899  -8.257 -14.879  1.00  0.00    -0.014 A 
BRANCH  39  40
ATOM     40  C   UNL     1      -1.933  -8.573 -15.896  1.00  0.00     0.031 A 
ATOM     41  C   UNL     1      -1.672  -8.260 -17.344  1.00  0.00     0.074 A 
ATOM     42  C   UNL     1      -3.127  -9.067 -15.509  1.00  0.00     0.049 A 
ATOM     43  N   UNL     1      -2.477  -8.366 -18.368  1.00  0.00    -0.248 NA
ATOM     44  C   UNL     1      -0.342  -7.723 -17.679  1.00  0.00     0.031 C 
ATOM     45  C   UNL     1      -3.520  -9.354 -14.126  1.00  0.00     0.029 A 
ATOM     46  N   UNL     1      -4.239  -9.402 -16.241  1.00  0.00    -0.354 N 
ATOM     47  C   UNL     1      -1.762  -7.888 -19.460  1.00  0.00     0.074 A 
ATOM     48  C   UNL     1      -0.480  -7.440 -18.966  1.00  0.00     0.031 C 
ATOM     49  C   UNL     1      -4.772  -9.840 -14.114  1.00  0.00     0.029 A 
ATOM     50  C   UNL     1      -5.288  -9.862 -15.479  1.00  0.00     0.049 A 
ATOM     51  H   UNL     1      -4.281  -9.320 -17.221  1.00  0.00     0.167 HD
ATOM     52  C   UNL     1      -2.132  -7.851 -20.761  1.00  0.00     0.037 A 
ATOM     53  C   UNL     1      -6.527 -10.248 -15.840  1.00  0.00     0.037 A 
ATOM     54  C   UNL     1      -3.392  -8.343 -21.251  1.00  0.00     0.049 A 
ATOM     55  C   UNL     1      -6.905 -10.220 -17.297  1.00  0.00     0.074 A 
ATOM     56  C   UNL     1      -3.832  -8.421 -22.560  1.00  0.00     0.029 A 
ATOM     57  N   UNL     1      -4.410  -8.843 -20.453  1.00  0.00    -0.354 N 
ATOM     58  N   UNL     1      -6.189  -9.832 -18.326  1.00  0.00    -0.248 NA
ATOM     59  C   UNL     1      -8.254 -10.688 -17.646  1.00  0.00     0.031 C 
ATOM     60  C   UNL     1      -5.134  -8.931 -22.551  1.00  0.00     0.029 A 
ATOM     61  C   UNL     1      -5.485  -9.216 -21.241  1.00  0.00     0.049 A 
ATOM     62  H   UNL     1      -4.373  -8.921 -19.473  1.00  0.00     0.167 HD
ATOM     63  C   UNL     1      -6.989 -10.036 -19.444  1.00  0.00     0.074 A 
ATOM     64  C   UNL     1      -8.238 -10.592 -18.968  1.00  0.00     0.031 C 
ATOM     65  C   UNL     1      -6.715  -9.785 -20.748  1.00  0.00     0.037 A 
BRANCH  52  66
ATOM     66  C   UNL     1      -1.158  -7.275 -21.750  1.00  0.00     0.058 A 
ATOM     67  C   UNL     1       0.025  -7.947 -22.097  1.00  0.00     0.135 A 
ATOM     68  C   UNL     1      -1.433  -6.059 -22.396  1.00  0.00     0.135 A 
ATOM     69  F   UNL     1       0.347  -9.104 -21.495  1.00  0.00    -0.206 F 
ATOM     70  C   UNL     1       0.911  -7.425 -23.032  1.00  0.00     0.059 A 
ATOM     71  C   UNL     1      -0.575  -5.531 -23.357  1.00  0.00     0.059 A 
ATOM     72  F   UNL     1      -2.548  -5.372 -22.099  1.00  0.00    -0.206 F 
ATOM     73  C   UNL     1       0.600  -6.218 -23.660  1.00  0.00     0.060 A 
BRANCH  73  74
ATOM     74  S   UNL     1       1.748  -5.569 -24.893  1.00  0.00     0.124 S 
ATOM     75  O   UNL     1       2.851  -5.114 -24.052  1.00  0.00    -0.237 OA
ATOM     76  O   UNL     1       2.020  -6.744 -25.714  1.00  0.00    -0.237 OA
ATOM     77  O   UNL     1       0.982  -4.513 -25.548  1.00  0.00    -0.744 OA
ENDBRANCH  73  74
ENDBRANCH  52  66
BRANCH  53  78
ATOM     78  C   UNL     1      -7.499 -10.707 -14.810  1.00  0.00     0.058 A 
ATOM     79  C   UNL     1      -7.893 -12.052 -14.736  1.00  0.00     0.135 A 
ATOM     80  C   UNL     1      -8.059  -9.812 -13.886  1.00  0.00     0.135 A 
ATOM     81  F   UNL     1      -7.390 -12.946 -15.600  1.00  0.00    -0.206 F 
ATOM     82  C   UNL     1      -8.826 -12.489 -13.801  1.00  0.00     0.059 A 
ATOM     83  C   UNL     1      -8.975 -10.230 -12.924  1.00  0.00     0.059 A 
ATOM     84  F   UNL     1      -7.702  -8.518 -13.900  1.00  0.00    -0.206 F 
ATOM     85  C   UNL     1      -9.363 -11.569 -12.899  1.00  0.00     0.060 A 
BRANCH  85  86
ATOM     86  S   UNL     1     -10.552 -12.150 -11.670  1.00  0.00     0.124 S 
ATOM     87  O   UNL     1     -11.744 -12.348 -12.485  1.00  0.00    -0.237 OA
ATOM     88  O   UNL     1      -9.909 -13.362 -11.170  1.00  0.00    -0.237 OA
ATOM     89  O   UNL     1     -10.614 -11.045 -10.717  1.00  0.00    -0.744 OA
ENDBRANCH  85  86
ENDBRANCH  53  78
BRANCH  65  90
ATOM     90  C   UNL     1      -7.765 -10.146 -21.761  1.00  0.00     0.058 A 
ATOM     91  C   UNL     1      -8.937  -9.390 -21.910  1.00  0.00     0.135 A 
ATOM     92  C   UNL     1      -7.560 -11.223 -22.639  1.00  0.00     0.135 A 
ATOM     93  F   UNL     1      -9.182  -8.354 -21.091  1.00  0.00    -0.206 F 
ATOM     94  C   UNL     1      -9.880  -9.700 -22.884  1.00  0.00     0.059 A 
ATOM     95  C   UNL     1      -8.476 -11.533 -23.638  1.00  0.00     0.059 A 
ATOM     96  F   UNL     1      -6.449 -11.970 -22.545  1.00  0.00    -0.206 F 
ATOM     97  C   UNL     1      -9.639 -10.771 -23.746  1.00  0.00     0.060 A 
BRANCH  97  98
ATOM     98  S   UNL     1     -10.849 -11.134 -25.035  1.00  0.00     0.124 S 
ATOM     99  O   UNL     1     -11.928 -11.741 -24.262  1.00  0.00    -0.237 OA
ATOM    100  O   UNL     1     -11.129  -9.810 -25.583  1.00  0.00    -0.237 OA
ATOM    101  O   UNL     1     -10.132 -12.037 -25.930  1.00  0.00    -0.744 OA
ENDBRANCH  97  98
ENDBRANCH  65  90
ENDBRANCH  39  40
ENDBRANCH  31  34
ENDBRANCH  29  30
ENDBRANCH  28  29
ENDBRANCH  27  28
ENDBRANCH   1  27
TORSDOF 21
