REMARK SMILES CN1C(=O)CCC[C@H](C(=O)NCCCCNC(=O)c2ccc(-c3c4nc(c(-c5c(F)cc(S(=O)(=O)[O-])cc5F)c5ccc([nH]5)c(-c5c(F)cc(S(=O)(=O)[O-])cc5F)c5nc(c(-c6c(F)cc(S(=O)(=O)[O-])cc6F)c6ccc3[nH]6)C=C5)C=C4)cc2)[C@@H]1c1cccc(C2CC2)c1
REMARK SMILES IDX 13 1 12 2 11 3 9 4 10 5 8 7 85 8 2 9 1 10 3 11 4 12 5 13
REMARK SMILES IDX 86 15 87 16 94 17 88 18 90 19 89 20 91 21 92 22 93 23 7 24
REMARK SMILES IDX 6 25 14 27 15 28 16 29 17 30 18 32 19 33 20 34 84 35 21 36
REMARK SMILES IDX 83 37 22 38 23 39 24 40 77 41 25 42 82 43 76 44 78 45 26 46
REMARK SMILES IDX 81 47 75 48 74 49 27 51 61 52 40 53 60 54 41 55 44 56 59 57
REMARK SMILES IDX 79 58 42 59 43 60 58 62 80 63 45 64 28 65 29 66 38 67 30 68
REMARK SMILES IDX 31 69 37 70 39 71 32 72 33 73 34 74 35 75 36 76 62 77 63 78
REMARK SMILES IDX 72 79 64 80 65 81 71 82 73 83 66 84 67 85 68 86 69 87 70 88
REMARK SMILES IDX 46 89 47 90 56 91 48 92 49 93 55 94 57 95 50 96 51 97 52 98
REMARK SMILES IDX 53 99 54 100
REMARK H PARENT 11 6 16 31 78 50 44 61
REMARK Flexibility Score: 90.00
ROOT
ATOM      1  C   UNL     1       2.650   2.091   1.698  1.00  0.00     0.023 C 
ENDROOT
BRANCH   1   2
ATOM      2  C   UNL     1       1.376   1.412   2.218  1.00  0.00     0.116 C 
BRANCH   2   3
ATOM      3  N   UNL     1       0.203   2.174   1.819  1.00  0.00    -0.356 N 
ATOM      4  C   UNL     1      -0.971   1.554   1.464  1.00  0.00     0.225 C 
ATOM      5  O   UNL     1      -1.394   0.577   2.079  1.00  0.00    -0.275 OA
ATOM      6  H   UNL     1       0.250   3.158   1.804  1.00  0.00     0.163 HD
BRANCH   4   7
ATOM      7  C   UNL     1      -1.669   2.062   0.192  1.00  0.00     0.105 C 
BRANCH   7   8
ATOM      8  C   UNL     1      -1.103   1.351  -1.083  1.00  0.00     0.127 C 
BRANCH   8   9
ATOM      9  N   UNL     1       0.380   1.526  -1.187  1.00  0.00    -0.338 N 
ATOM     10  C   UNL     1       1.272   0.383  -1.032  1.00  0.00     0.147 C 
BRANCH   9  11
ATOM     11  C   UNL     1       1.021   2.706  -1.528  1.00  0.00     0.222 C 
ATOM     12  O   UNL     1       2.126   2.698  -2.081  1.00  0.00    -0.275 OA
BRANCH  11  13
ATOM     13  C   UNL     1       0.497   4.020  -0.988  1.00  0.00     0.100 CG0
ATOM     14  G   UNL     1      -0.989   4.270  -1.049  1.00  0.00     0.000 G0
ENDBRANCH  11  13
ENDBRANCH   9  11
ENDBRANCH   8   9
BRANCH   8  15
ATOM     15  C   UNL     1      -1.581  -0.102  -1.346  1.00  0.00    -0.024 A 
ATOM     16  C   UNL     1      -2.604  -0.728  -0.625  1.00  0.00     0.006 A 
ATOM     17  C   UNL     1      -0.938  -0.879  -2.338  1.00  0.00     0.010 A 
ATOM     18  C   UNL     1      -2.880  -2.086  -0.804  1.00  0.00     0.001 A 
ATOM     19  C   UNL     1      -1.038  -2.279  -2.376  1.00  0.00    -0.045 A 
ATOM     20  C   UNL     1      -2.072  -2.858  -1.634  1.00  0.00     0.004 A 
BRANCH  19  21
ATOM     21  C   UNL     1       0.004  -3.165  -3.036  1.00  0.00     0.019 C 
ATOM     22  C   UNL     1       1.409  -2.735  -3.390  1.00  0.00     0.009 C 
ATOM     23  C   UNL     1       1.185  -3.524  -2.140  1.00  0.00     0.009 C 
ENDBRANCH  19  21
ENDBRANCH   8  15
ENDBRANCH   7   8
BRANCH   7  24
ATOM     24  C   UNL     1      -1.773   3.596   0.075  1.00  0.00     0.016 C 
BRANCH  24  25
ATOM     25  C   UNL     1      -0.989   4.270  -1.049  1.00  0.00     0.011 CG0
ATOM     26  G   UNL     1       0.497   4.020  -0.988  1.00  0.00     0.000 G0
ENDBRANCH  24  25
ENDBRANCH   7  24
ENDBRANCH   4   7
ENDBRANCH   2   3
ENDBRANCH   1   2
BRANCH   1  27
ATOM     27  C   UNL     1       3.969   1.343   1.906  1.00  0.00     0.023 C 
BRANCH  27  28
ATOM     28  C   UNL     1       4.022  -0.147   1.571  1.00  0.00     0.116 C 
BRANCH  28  29
ATOM     29  N   UNL     1       4.430  -0.485   0.211  1.00  0.00    -0.352 N 
ATOM     30  C   UNL     1       5.316  -1.458  -0.224  1.00  0.00     0.251 C 
ATOM     31  H   UNL     1       4.017   0.056  -0.499  1.00  0.00     0.163 HD
ATOM     32  O   UNL     1       5.476  -1.669  -1.410  1.00  0.00    -0.269 OA
BRANCH  30  33
ATOM     33  C   UNL     1       6.153  -2.158   0.779  1.00  0.00     0.039 A 
ATOM     34  C   UNL     1       7.540  -2.071   0.640  1.00  0.00     0.014 A 
ATOM     35  C   UNL     1       5.591  -2.744   1.912  1.00  0.00     0.014 A 
ATOM     36  C   UNL     1       8.362  -2.439   1.706  1.00  0.00     0.010 A 
ATOM     37  C   UNL     1       6.404  -3.014   3.008  1.00  0.00     0.010 A 
ATOM     38  C   UNL     1       7.795  -2.835   2.928  1.00  0.00    -0.014 A 
BRANCH  38  39
ATOM     39  C   UNL     1       8.633  -3.014   4.144  1.00  0.00     0.031 A 
ATOM     40  C   UNL     1       8.671  -4.343   4.845  1.00  0.00     0.074 A 
ATOM     41  C   UNL     1       9.291  -1.957   4.665  1.00  0.00     0.049 A 
ATOM     42  N   UNL     1       9.262  -4.668   5.966  1.00  0.00    -0.248 NA
ATOM     43  C   UNL     1       7.915  -5.442   4.223  1.00  0.00     0.031 C 
ATOM     44  C   UNL     1       9.282  -0.595   4.120  1.00  0.00     0.029 A 
ATOM     45  N   UNL     1      10.090  -1.856   5.778  1.00  0.00    -0.354 N 
ATOM     46  C   UNL     1       8.929  -5.997   6.195  1.00  0.00     0.074 A 
ATOM     47  C   UNL     1       8.041  -6.402   5.127  1.00  0.00     0.031 C 
ATOM     48  C   UNL     1      10.065   0.191   4.877  1.00  0.00     0.029 A 
ATOM     49  C   UNL     1      10.601  -0.595   5.983  1.00  0.00     0.049 A 
ATOM     50  H   UNL     1      10.280  -2.617   6.373  1.00  0.00     0.167 HD
ATOM     51  C   UNL     1       9.347  -6.816   7.189  1.00  0.00     0.037 A 
ATOM     52  C   UNL     1      11.409  -0.123   6.954  1.00  0.00     0.037 A 
ATOM     53  C   UNL     1      10.264  -6.424   8.226  1.00  0.00     0.049 A 
ATOM     54  C   UNL     1      11.886  -1.061   8.029  1.00  0.00     0.074 A 
ATOM     55  C   UNL     1      10.797  -7.198   9.241  1.00  0.00     0.029 A 
ATOM     56  N   UNL     1      10.791  -5.150   8.374  1.00  0.00    -0.354 N 
ATOM     57  N   UNL     1      11.607  -2.331   8.197  1.00  0.00    -0.248 NA
ATOM     58  C   UNL     1      12.791  -0.504   9.045  1.00  0.00     0.031 C 
ATOM     59  C   UNL     1      11.627  -6.384  10.021  1.00  0.00     0.029 A 
ATOM     60  C   UNL     1      11.638  -5.113   9.469  1.00  0.00     0.049 A 
ATOM     61  H   UNL     1      10.593  -4.384   7.788  1.00  0.00     0.167 HD
ATOM     62  C   UNL     1      12.321  -2.732   9.320  1.00  0.00     0.074 A 
ATOM     63  C   UNL     1      13.052  -1.571   9.787  1.00  0.00     0.031 C 
ATOM     64  C   UNL     1      12.368  -3.951   9.911  1.00  0.00     0.037 A 
BRANCH  51  65
ATOM     65  C   UNL     1       8.820  -8.224   7.188  1.00  0.00     0.058 A 
ATOM     66  C   UNL     1       9.229  -9.159   6.223  1.00  0.00     0.135 A 
ATOM     67  C   UNL     1       7.904  -8.647   8.163  1.00  0.00     0.135 A 
ATOM     68  F   UNL     1      10.090  -8.800   5.257  1.00  0.00    -0.206 F 
ATOM     69  C   UNL     1       8.718 -10.451   6.200  1.00  0.00     0.059 A 
ATOM     70  C   UNL     1       7.400  -9.945   8.177  1.00  0.00     0.059 A 
ATOM     71  F   UNL     1       7.480  -7.794   9.109  1.00  0.00    -0.206 F 
ATOM     72  C   UNL     1       7.799 -10.834   7.179  1.00  0.00     0.060 A 
BRANCH  72  73
ATOM     73  S   UNL     1       7.135 -12.511   7.130  1.00  0.00     0.124 S 
ATOM     74  O   UNL     1       6.177 -12.411   6.033  1.00  0.00    -0.237 OA
ATOM     75  O   UNL     1       8.324 -13.313   6.861  1.00  0.00    -0.237 OA
ATOM     76  O   UNL     1       6.554 -12.684   8.458  1.00  0.00    -0.744 OA
ENDBRANCH  72  73
ENDBRANCH  51  65
BRANCH  52  77
ATOM     77  C   UNL     1      11.849   1.297   6.934  1.00  0.00     0.058 A 
ATOM     78  C   UNL     1      13.171   1.634   6.606  1.00  0.00     0.135 A 
ATOM     79  C   UNL     1      10.964   2.343   7.235  1.00  0.00     0.135 A 
ATOM     80  F   UNL     1      14.056   0.668   6.317  1.00  0.00    -0.206 F 
ATOM     81  C   UNL     1      13.605   2.955   6.591  1.00  0.00     0.059 A 
ATOM     82  C   UNL     1      11.369   3.675   7.206  1.00  0.00     0.059 A 
ATOM     83  F   UNL     1       9.684   2.075   7.540  1.00  0.00    -0.206 F 
ATOM     84  C   UNL     1      12.696   3.970   6.893  1.00  0.00     0.060 A 
BRANCH  84  85
ATOM     85  S   UNL     1      13.256   5.686   6.827  1.00  0.00     0.124 S 
ATOM     86  O   UNL     1      14.033   5.788   8.057  1.00  0.00    -0.237 OA
ATOM     87  O   UNL     1      14.021   5.714   5.585  1.00  0.00    -0.237 OA
ATOM     88  O   UNL     1      12.009   6.444   6.802  1.00  0.00    -0.744 OA
ENDBRANCH  84  85
ENDBRANCH  52  77
BRANCH  64  89
ATOM     89  C   UNL     1      13.264  -4.105  11.107  1.00  0.00     0.058 A 
ATOM     90  C   UNL     1      12.911  -3.586  12.361  1.00  0.00     0.135 A 
ATOM     91  C   UNL     1      14.462  -4.830  11.007  1.00  0.00     0.135 A 
ATOM     92  F   UNL     1      11.780  -2.879  12.507  1.00  0.00    -0.206 F 
ATOM     93  C   UNL     1      13.726  -3.766  13.475  1.00  0.00     0.059 A 
ATOM     94  C   UNL     1      15.280  -5.042  12.111  1.00  0.00     0.059 A 
ATOM     95  F   UNL     1      14.838  -5.354   9.829  1.00  0.00    -0.206 F 
ATOM     96  C   UNL     1      14.908  -4.497  13.340  1.00  0.00     0.060 A 
BRANCH  96  97
ATOM     97  S   UNL     1      15.936  -4.761  14.800  1.00  0.00     0.124 S 
ATOM     98  O   UNL     1      16.584  -3.462  14.942  1.00  0.00    -0.237 OA
ATOM     99  O   UNL     1      14.950  -5.093  15.824  1.00  0.00    -0.237 OA
ATOM    100  O   UNL     1      16.811  -5.861  14.403  1.00  0.00    -0.744 OA
ENDBRANCH  96  97
ENDBRANCH  64  89
ENDBRANCH  38  39
ENDBRANCH  30  33
ENDBRANCH  28  29
ENDBRANCH  27  28
ENDBRANCH   1  27
TORSDOF 16
