REMARK SMILES CCOc1cccc(-c2ccc([C@@H](C)C(=O)NCCCCNC(=O)c3ccc(-c4c5nc(c(-c6c(F)cc(S(=O)(=O)[O-])cc6F)c6ccc([nH]6)c(-c6c(F)cc(S(=O)(=O)[O-])cc6F)c6nc(c(-c7c(F)cc(S(=O)(=O)[O-])cc7F)c7ccc4[nH]7)C=C6)C=C5)cc3)cc2F)c1
REMARK SMILES IDX 19 1 18 2 17 3 15 4 16 5 13 7 14 8 12 9 9 10 10 11 92 12
REMARK SMILES IDX 11 13 91 14 93 15 8 16 4 17 5 18 94 19 6 20 7 21 3 22 2 23
REMARK SMILES IDX 1 24 20 25 21 26 22 27 23 28 24 30 25 31 26 32 90 33 27 34
REMARK SMILES IDX 89 35 28 36 29 37 30 38 83 39 31 40 88 41 82 42 84 43 32 44
REMARK SMILES IDX 87 45 81 46 80 47 33 49 67 50 46 51 66 52 47 53 50 54 65 55
REMARK SMILES IDX 85 56 48 57 49 58 64 60 86 61 51 62 34 63 35 64 44 65 36 66
REMARK SMILES IDX 37 67 43 68 45 69 38 70 39 71 40 72 41 73 42 74 68 75 69 76
REMARK SMILES IDX 78 77 70 78 71 79 77 80 79 81 72 82 73 83 74 84 75 85 76 86
REMARK SMILES IDX 52 87 53 88 62 89 54 90 55 91 61 92 63 93 56 94 57 95 58 96
REMARK SMILES IDX 59 97 60 98
REMARK H PARENT 17 6 22 29 84 48 50 59
REMARK Flexibility Score: inf
ROOT
ATOM      1  C   UNL     1       8.353  -0.468   1.578  1.00  0.00     0.023 C 
ENDROOT
BRANCH   1   2
ATOM      2  C   UNL     1       9.256  -1.682   1.356  1.00  0.00     0.116 C 
BRANCH   2   3
ATOM      3  N   UNL     1       8.546  -2.930   1.543  1.00  0.00    -0.356 N 
ATOM      4  C   UNL     1       7.937  -3.763   0.654  1.00  0.00     0.227 C 
ATOM      5  O   UNL     1       7.335  -4.734   1.128  1.00  0.00    -0.274 OA
ATOM      6  H   UNL     1       8.493  -3.230   2.479  1.00  0.00     0.163 HD
BRANCH   4   7
ATOM      7  C   UNL     1       7.973  -3.561  -0.870  1.00  0.00     0.105 C 
ATOM      8  C   UNL     1       9.375  -3.613  -1.475  1.00  0.00     0.023 C 
BRANCH   7   9
ATOM      9  C   UNL     1       7.075  -2.434  -1.354  1.00  0.00    -0.033 A 
ATOM     10  C   UNL     1       5.239  -0.332  -2.038  1.00  0.00     0.018 A 
ATOM     11  C   UNL     1       6.609  -0.088  -1.834  1.00  0.00     0.012 A 
ATOM     12  C   UNL     1       4.840  -1.677  -1.957  1.00  0.00     0.131 A 
ATOM     13  C   UNL     1       7.514  -1.121  -1.536  1.00  0.00     0.005 A 
ATOM     14  C   UNL     1       5.723  -2.700  -1.597  1.00  0.00     0.044 A 
ATOM     15  F   UNL     1       3.575  -2.040  -2.222  1.00  0.00    -0.206 F 
BRANCH  10  16
ATOM     16  C   UNL     1       4.281   0.783  -2.269  1.00  0.00    -0.012 A 
ATOM     17  C   UNL     1       2.032   1.733  -2.046  1.00  0.00     0.119 A 
ATOM     18  C   UNL     1       2.444   2.924  -2.628  1.00  0.00     0.046 A 
ATOM     19  C   UNL     1       2.932   0.678  -1.883  1.00  0.00     0.055 A 
ATOM     20  C   UNL     1       3.772   3.064  -3.022  1.00  0.00     0.004 A 
ATOM     21  C   UNL     1       4.674   2.006  -2.849  1.00  0.00     0.009 A 
BRANCH  17  22
ATOM     22  O   UNL     1       0.707   1.577  -1.746  1.00  0.00    -0.494 OA
BRANCH  22  23
ATOM     23  C   UNL     1       0.448   1.565  -0.336  1.00  0.00     0.226 C 
ATOM     24  C   UNL     1       0.401   0.149   0.217  1.00  0.00     0.049 C 
ENDBRANCH  22  23
ENDBRANCH  17  22
ENDBRANCH  10  16
ENDBRANCH   7   9
ENDBRANCH   4   7
ENDBRANCH   2   3
ENDBRANCH   1   2
BRANCH   1  25
ATOM     25  C   UNL     1       8.272   0.021   3.024  1.00  0.00     0.023 C 
BRANCH  25  26
ATOM     26  C   UNL     1       9.590   0.497   3.626  1.00  0.00     0.116 C 
BRANCH  26  27
ATOM     27  N   UNL     1      10.239   1.559   2.871  1.00  0.00    -0.352 N 
ATOM     28  C   UNL     1      11.049   2.568   3.345  1.00  0.00     0.251 C 
ATOM     29  H   UNL     1      10.079   1.557   1.900  1.00  0.00     0.163 HD
ATOM     30  O   UNL     1      11.461   3.438   2.590  1.00  0.00    -0.269 OA
BRANCH  28  31
ATOM     31  C   UNL     1      11.368   2.610   4.790  1.00  0.00     0.039 A 
ATOM     32  C   UNL     1      11.148   3.795   5.495  1.00  0.00     0.014 A 
ATOM     33  C   UNL     1      11.817   1.465   5.452  1.00  0.00     0.014 A 
ATOM     34  C   UNL     1      11.299   3.808   6.883  1.00  0.00     0.010 A 
ATOM     35  C   UNL     1      11.896   1.460   6.841  1.00  0.00     0.010 A 
ATOM     36  C   UNL     1      11.632   2.629   7.571  1.00  0.00    -0.014 A 
BRANCH  36  37
ATOM     37  C   UNL     1      11.700   2.591   9.053  1.00  0.00     0.031 A 
ATOM     38  C   UNL     1      13.003   2.288   9.739  1.00  0.00     0.074 A 
ATOM     39  C   UNL     1      10.573   2.748   9.777  1.00  0.00     0.049 A 
ATOM     40  N   UNL     1      13.248   2.124  11.013  1.00  0.00    -0.248 NA
ATOM     41  C   UNL     1      14.181   2.113   8.874  1.00  0.00     0.031 C 
ATOM     42  C   UNL     1       9.236   2.983   9.225  1.00  0.00     0.029 A 
ATOM     43  N   UNL     1      10.369   2.719  11.133  1.00  0.00    -0.354 N 
ATOM     44  C   UNL     1      14.597   1.807  11.101  1.00  0.00     0.074 A 
ATOM     45  C   UNL     1      15.108   1.751   9.749  1.00  0.00     0.031 C 
ATOM     46  C   UNL     1       8.357   3.099  10.233  1.00  0.00     0.029 A 
ATOM     47  C   UNL     1       9.058   2.915  11.500  1.00  0.00     0.049 A 
ATOM     48  H   UNL     1      11.093   2.571  11.784  1.00  0.00     0.167 HD
ATOM     49  C   UNL     1      15.349   1.605  12.210  1.00  0.00     0.037 A 
ATOM     50  C   UNL     1       8.486   2.942  12.720  1.00  0.00     0.037 A 
ATOM     51  C   UNL     1      14.845   1.701  13.554  1.00  0.00     0.049 A 
ATOM     52  C   UNL     1       9.348   2.751  13.937  1.00  0.00     0.074 A 
ATOM     53  C   UNL     1      15.538   1.581  14.745  1.00  0.00     0.029 A 
ATOM     54  N   UNL     1      13.520   1.948  13.885  1.00  0.00    -0.354 N 
ATOM     55  N   UNL     1      10.636   2.514  14.005  1.00  0.00    -0.248 NA
ATOM     56  C   UNL     1       8.682   2.837  15.244  1.00  0.00     0.031 C 
ATOM     57  C   UNL     1      14.628   1.727  15.797  1.00  0.00     0.029 A 
ATOM     58  C   UNL     1      13.374   1.974  15.262  1.00  0.00     0.049 A 
ATOM     59  H   UNL     1      12.792   2.084  13.237  1.00  0.00     0.167 HD
ATOM     60  C   UNL     1      10.940   2.448  15.360  1.00  0.00     0.074 A 
ATOM     61  C   UNL     1       9.702   2.679  16.077  1.00  0.00     0.031 C 
ATOM     62  C   UNL     1      12.135   2.216  15.957  1.00  0.00     0.037 A 
BRANCH  49  63
ATOM     63  C   UNL     1      16.801   1.272  12.010  1.00  0.00     0.058 A 
ATOM     64  C   UNL     1      17.718   2.233  11.554  1.00  0.00     0.135 A 
ATOM     65  C   UNL     1      17.287  -0.014  12.292  1.00  0.00     0.135 A 
ATOM     66  F   UNL     1      17.303   3.474  11.253  1.00  0.00    -0.206 F 
ATOM     67  C   UNL     1      19.058   1.922  11.352  1.00  0.00     0.059 A 
ATOM     68  C   UNL     1      18.630  -0.341  12.123  1.00  0.00     0.059 A 
ATOM     69  F   UNL     1      16.453  -0.971  12.730  1.00  0.00    -0.206 F 
ATOM     70  C   UNL     1      19.504   0.630  11.636  1.00  0.00     0.060 A 
BRANCH  70  71
ATOM     71  S   UNL     1      21.244   0.238  11.362  1.00  0.00     0.124 S 
ATOM     72  O   UNL     1      21.289   0.119   9.908  1.00  0.00    -0.237 OA
ATOM     73  O   UNL     1      21.921   1.404  11.923  1.00  0.00    -0.237 OA
ATOM     74  O   UNL     1      21.432  -1.006  12.101  1.00  0.00    -0.744 OA
ENDBRANCH  70  71
ENDBRANCH  49  63
BRANCH  50  75
ATOM     75  C   UNL     1       7.027   3.196  12.850  1.00  0.00     0.058 A 
ATOM     76  C   UNL     1       6.553   4.425  13.331  1.00  0.00     0.135 A 
ATOM     77  C   UNL     1       6.081   2.227  12.483  1.00  0.00     0.135 A 
ATOM     78  F   UNL     1       7.420   5.380  13.700  1.00  0.00    -0.206 F 
ATOM     79  C   UNL     1       5.192   4.682  13.459  1.00  0.00     0.059 A 
ATOM     80  C   UNL     1       4.714   2.468  12.581  1.00  0.00     0.059 A 
ATOM     81  F   UNL     1       6.485   1.042  12.000  1.00  0.00    -0.206 F 
ATOM     82  C   UNL     1       4.279   3.696  13.079  1.00  0.00     0.060 A 
BRANCH  82  83
ATOM     83  S   UNL     1       2.513   4.057  13.197  1.00  0.00     0.124 S 
ATOM     84  O   UNL     1       2.285   3.941  14.632  1.00  0.00    -0.237 OA
ATOM     85  O   UNL     1       2.437   5.407  12.645  1.00  0.00    -0.237 OA
ATOM     86  O   UNL     1       1.904   3.018  12.373  1.00  0.00    -0.744 OA
ENDBRANCH  82  83
ENDBRANCH  50  75
BRANCH  62  87
ATOM     87  C   UNL     1      12.170   2.233  17.458  1.00  0.00     0.058 A 
ATOM     88  C   UNL     1      11.660   1.169  18.217  1.00  0.00     0.135 A 
ATOM     89  C   UNL     1      12.771   3.302  18.142  1.00  0.00     0.135 A 
ATOM     90  F   UNL     1      11.071   0.127  17.610  1.00  0.00    -0.206 F 
ATOM     91  C   UNL     1      11.728   1.173  19.606  1.00  0.00     0.059 A 
ATOM     92  C   UNL     1      12.869   3.316  19.529  1.00  0.00     0.059 A 
ATOM     93  F   UNL     1      13.282   4.340  17.460  1.00  0.00    -0.206 F 
ATOM     94  C   UNL     1      12.335   2.251  20.253  1.00  0.00     0.060 A 
BRANCH  94  95
ATOM     95  S   UNL     1      12.451   2.228  22.055  1.00  0.00     0.124 S 
ATOM     96  O   UNL     1      11.089   2.579  22.441  1.00  0.00    -0.237 OA
ATOM     97  O   UNL     1      12.853   0.851  22.327  1.00  0.00    -0.237 OA
ATOM     98  O   UNL     1      13.466   3.237  22.341  1.00  0.00    -0.744 OA
ENDBRANCH  94  95
ENDBRANCH  62  87
ENDBRANCH  36  37
ENDBRANCH  28  31
ENDBRANCH  26  27
ENDBRANCH  25  26
ENDBRANCH   1  25
TORSDOF 18
