REMARK SMILES O=C(NCCCCNC(=O)c1ccc2c(c1)[C@@H]1C=CC[C@@H]1[C@H](c1ccncc1)N2)c1ccc(-c2c3nc(c(-c4c(F)cc(S(=O)(=O)[O-])cc4F)c4ccc([nH]4)c(-c4c(F)cc(S(=O)(=O)[O-])cc4F)c4nc(c(-c5c(F)cc(S(=O)(=O)[O-])cc5F)c5ccc2[nH]5)C=C4)C=C3)cc1
REMARK SMILES IDX 4 1 3 2 1 3 2 4 30 6 31 7 95 8 32 9 94 10 33 11 34 12 35 13
REMARK SMILES IDX 88 14 36 15 93 16 87 17 89 18 37 19 92 20 86 21 85 22 38 24
REMARK SMILES IDX 72 25 51 26 71 27 52 28 55 29 70 30 90 31 53 32 54 33 69 35
REMARK SMILES IDX 91 36 56 37 39 38 40 39 49 40 41 41 42 42 48 43 50 44 43 45
REMARK SMILES IDX 44 46 45 47 46 48 47 49 73 50 74 51 83 52 75 53 76 54 82 55
REMARK SMILES IDX 84 56 77 57 78 58 79 59 80 60 81 61 57 62 58 63 67 64 59 65
REMARK SMILES IDX 60 66 66 67 68 68 61 69 62 70 63 71 64 72 65 73 5 74 6 75
REMARK SMILES IDX 7 76 8 77 9 78 10 80 11 81 12 82 16 83 13 84 15 85 14 86
REMARK SMILES IDX 17 87 29 88 18 89 21 90 22 91 19 93 20 94 23 95 24 96 28 97
REMARK SMILES IDX 25 98 27 99 26 100
REMARK H PARENT 3 5 89 23 55 34 8 79 29 92
REMARK Flexibility Score: inf
ROOT
ATOM      1  C   UNL     1       4.700  -1.275  -0.304  1.00  0.00     0.116 C 
ENDROOT
BRANCH   1   2
ATOM      2  N   UNL     1       3.278  -1.012  -0.478  1.00  0.00    -0.352 N 
ATOM      3  O   UNL     1       1.298   0.021  -0.158  1.00  0.00    -0.269 OA
ATOM      4  C   UNL     1       2.513   0.021   0.017  1.00  0.00     0.251 C 
ATOM      5  H   UNL     1       2.793  -1.667  -1.030  1.00  0.00     0.163 HD
BRANCH   4   6
ATOM      6  C   UNL     1       3.154   1.104   0.796  1.00  0.00     0.039 A 
ATOM      7  C   UNL     1       4.332   1.703   0.350  1.00  0.00     0.014 A 
ATOM      8  C   UNL     1       2.585   1.496   2.011  1.00  0.00     0.014 A 
ATOM      9  C   UNL     1       5.037   2.550   1.198  1.00  0.00     0.010 A 
ATOM     10  C   UNL     1       3.252   2.418   2.825  1.00  0.00     0.010 A 
ATOM     11  C   UNL     1       4.511   2.909   2.451  1.00  0.00    -0.014 A 
BRANCH  11  12
ATOM     12  C   UNL     1       5.305   3.795   3.343  1.00  0.00     0.031 A 
ATOM     13  C   UNL     1       5.837   3.296   4.662  1.00  0.00     0.074 A 
ATOM     14  C   UNL     1       5.599   5.044   2.929  1.00  0.00     0.049 A 
ATOM     15  N   UNL     1       6.599   3.913   5.529  1.00  0.00    -0.248 NA
ATOM     16  C   UNL     1       5.458   1.932   5.066  1.00  0.00     0.031 C 
ATOM     17  C   UNL     1       5.131   5.648   1.680  1.00  0.00     0.029 A 
ATOM     18  N   UNL     1       6.383   6.016   3.495  1.00  0.00    -0.354 N 
ATOM     19  C   UNL     1       6.766   3.031   6.591  1.00  0.00     0.074 A 
ATOM     20  C   UNL     1       6.011   1.839   6.268  1.00  0.00     0.031 C 
ATOM     21  C   UNL     1       5.684   6.862   1.544  1.00  0.00     0.029 A 
ATOM     22  C   UNL     1       6.507   7.142   2.716  1.00  0.00     0.049 A 
ATOM     23  H   UNL     1       6.816   5.917   4.373  1.00  0.00     0.167 HD
ATOM     24  C   UNL     1       7.487   3.196   7.727  1.00  0.00     0.037 A 
ATOM     25  C   UNL     1       7.208   8.273   2.918  1.00  0.00     0.037 A 
ATOM     26  C   UNL     1       8.270   4.367   8.029  1.00  0.00     0.049 A 
ATOM     27  C   UNL     1       8.028   8.416   4.168  1.00  0.00     0.074 A 
ATOM     28  C   UNL     1       9.064   4.611   9.137  1.00  0.00     0.029 A 
ATOM     29  N   UNL     1       8.363   5.488   7.218  1.00  0.00    -0.354 N 
ATOM     30  N   UNL     1       8.189   7.561   5.148  1.00  0.00    -0.248 NA
ATOM     31  C   UNL     1       8.760   9.678   4.338  1.00  0.00     0.031 C 
ATOM     32  C   UNL     1       9.618   5.891   9.007  1.00  0.00     0.029 A 
ATOM     33  C   UNL     1       9.194   6.430   7.804  1.00  0.00     0.049 A 
ATOM     34  H   UNL     1       7.905   5.599   6.353  1.00  0.00     0.167 HD
ATOM     35  C   UNL     1       9.054   8.174   6.046  1.00  0.00     0.074 A 
ATOM     36  C   UNL     1       9.393   9.466   5.484  1.00  0.00     0.031 C 
ATOM     37  C   UNL     1       9.524   7.709   7.229  1.00  0.00     0.037 A 
BRANCH  24  38
ATOM     38  C   UNL     1       7.451   2.086   8.741  1.00  0.00     0.058 A 
ATOM     39  C   UNL     1       8.150   0.885   8.549  1.00  0.00     0.135 A 
ATOM     40  C   UNL     1       6.732   2.241   9.938  1.00  0.00     0.135 A 
ATOM     41  F   UNL     1       8.841   0.679   7.416  1.00  0.00    -0.206 F 
ATOM     42  C   UNL     1       8.117  -0.136   9.495  1.00  0.00     0.059 A 
ATOM     43  C   UNL     1       6.701   1.242  10.907  1.00  0.00     0.059 A 
ATOM     44  F   UNL     1       6.047   3.372  10.173  1.00  0.00    -0.206 F 
ATOM     45  C   UNL     1       7.384   0.050  10.669  1.00  0.00     0.060 A 
BRANCH  45  46
ATOM     46  S   UNL     1       7.340  -1.282  11.886  1.00  0.00     0.124 S 
ATOM     47  O   UNL     1       6.382  -2.200  11.276  1.00  0.00    -0.237 OA
ATOM     48  O   UNL     1       8.726  -1.738  11.908  1.00  0.00    -0.237 OA
ATOM     49  O   UNL     1       6.884  -0.616  13.102  1.00  0.00    -0.744 OA
ENDBRANCH  45  46
ENDBRANCH  24  38
BRANCH  25  50
ATOM     50  C   UNL     1       7.180   9.346   1.892  1.00  0.00     0.058 A 
ATOM     51  C   UNL     1       8.293   9.588   1.075  1.00  0.00     0.135 A 
ATOM     52  C   UNL     1       6.030  10.121   1.684  1.00  0.00     0.135 A 
ATOM     53  F   UNL     1       9.416   8.871   1.240  1.00  0.00    -0.206 F 
ATOM     54  C   UNL     1       8.271  10.567   0.088  1.00  0.00     0.059 A 
ATOM     55  C   UNL     1       5.975  11.091   0.690  1.00  0.00     0.059 A 
ATOM     56  F   UNL     1       4.934   9.912   2.430  1.00  0.00    -0.206 F 
ATOM     57  C   UNL     1       7.105  11.312  -0.099  1.00  0.00     0.060 A 
BRANCH  57  58
ATOM     58  S   UNL     1       7.055  12.537  -1.425  1.00  0.00     0.124 S 
ATOM     59  O   UNL     1       7.775  13.651  -0.821  1.00  0.00    -0.237 OA
ATOM     60  O   UNL     1       7.743  11.846  -2.512  1.00  0.00    -0.237 OA
ATOM     61  O   UNL     1       5.625  12.743  -1.633  1.00  0.00    -0.744 OA
ENDBRANCH  57  58
ENDBRANCH  25  50
BRANCH  37  62
ATOM     62  C   UNL     1      10.478   8.594   7.977  1.00  0.00     0.058 A 
ATOM     63  C   UNL     1      10.034   9.725   8.678  1.00  0.00     0.135 A 
ATOM     64  C   UNL     1      11.849   8.295   8.008  1.00  0.00     0.135 A 
ATOM     65  F   UNL     1       8.733  10.056   8.672  1.00  0.00    -0.206 F 
ATOM     66  C   UNL     1      10.922  10.548   9.363  1.00  0.00     0.059 A 
ATOM     67  C   UNL     1      12.752   9.093   8.703  1.00  0.00     0.059 A 
ATOM     68  F   UNL     1      12.322   7.218   7.360  1.00  0.00    -0.206 F 
ATOM     69  C   UNL     1      12.281  10.226   9.365  1.00  0.00     0.060 A 
BRANCH  69  70
ATOM     70  S   UNL     1      13.428  11.291  10.264  1.00  0.00     0.124 S 
ATOM     71  O   UNL     1      13.608  12.390   9.321  1.00  0.00    -0.237 OA
ATOM     72  O   UNL     1      12.679  11.613  11.476  1.00  0.00    -0.237 OA
ATOM     73  O   UNL     1      14.594  10.436  10.466  1.00  0.00    -0.744 OA
ENDBRANCH  69  70
ENDBRANCH  37  62
ENDBRANCH  11  12
ENDBRANCH   4   6
ENDBRANCH   1   2
BRANCH   1  74
ATOM     74  C   UNL     1       5.000  -2.675   0.219  1.00  0.00     0.023 C 
BRANCH  74  75
ATOM     75  C   UNL     1       4.519  -3.823  -0.662  1.00  0.00     0.023 C 
BRANCH  75  76
ATOM     76  C   UNL     1       4.925  -3.739  -2.129  1.00  0.00     0.116 C 
BRANCH  76  77
ATOM     77  N   UNL     1       6.368  -3.743  -2.329  1.00  0.00    -0.352 N 
ATOM     78  C   UNL     1       7.127  -4.592  -3.100  1.00  0.00     0.251 C 
ATOM     79  H   UNL     1       6.867  -3.044  -1.848  1.00  0.00     0.163 HD
ATOM     80  O   UNL     1       8.352  -4.531  -3.094  1.00  0.00    -0.269 OA
BRANCH  78  81
ATOM     81  C   UNL     1       6.449  -5.614  -3.919  1.00  0.00     0.040 A 
ATOM     82  C   UNL     1       6.756  -6.956  -3.719  1.00  0.00     0.016 A 
ATOM     83  C   UNL     1       5.449  -5.243  -4.819  1.00  0.00     0.020 A 
ATOM     84  C   UNL     1       6.013  -7.932  -4.386  1.00  0.00     0.027 A 
ATOM     85  C   UNL     1       4.643  -6.223  -5.418  1.00  0.00    -0.017 A 
ATOM     86  C   UNL     1       4.959  -7.581  -5.244  1.00  0.00     0.038 A 
ATOM     87  C   UNL     1       3.418  -5.800  -6.198  1.00  0.00     0.049 C 
ATOM     88  N   UNL     1       4.185  -8.586  -5.809  1.00  0.00    -0.378 N 
ATOM     89  C   UNL     1       2.494  -4.918  -5.390  1.00  0.00    -0.023 C 
ATOM     90  C   UNL     1       2.467  -6.964  -6.525  1.00  0.00     0.031 C 
ATOM     91  C   UNL     1       3.222  -8.254  -6.847  1.00  0.00     0.114 C 
ATOM     92  H   UNL     1       4.288  -9.518  -5.510  1.00  0.00     0.161 HD
ATOM     93  C   UNL     1       1.441  -5.595  -4.913  1.00  0.00    -0.030 C 
ATOM     94  C   UNL     1       1.482  -7.027  -5.344  1.00  0.00     0.034 C 
BRANCH  91  95
ATOM     95  C   UNL     1       2.274  -9.410  -7.134  1.00  0.00    -0.022 A 
ATOM     96  C   UNL     1       1.523  -9.402  -8.318  1.00  0.00     0.026 A 
ATOM     97  C   UNL     1       2.085 -10.481  -6.253  1.00  0.00     0.026 A 
ATOM     98  C   UNL     1       0.646 -10.446  -8.569  1.00  0.00     0.111 A 
ATOM     99  C   UNL     1       1.194 -11.487  -6.599  1.00  0.00     0.111 A 
ATOM    100  N   UNL     1       0.472 -11.494  -7.739  1.00  0.00    -0.265 NA
ENDBRANCH  91  95
ENDBRANCH  78  81
ENDBRANCH  76  77
ENDBRANCH  75  76
ENDBRANCH  74  75
ENDBRANCH   1  74
TORSDOF 15
