REMARK SMILES N#CCOc1ccc2[nH]cc([C@H](C(=O)NCCCCNC(=O)c3ccc(-c4c5nc(c(-c6c(F)cc(S(=O)(=O)[O-])cc6F)c6ccc([nH]6)c(-c6c(F)cc(S(=O)(=O)[O-])cc6F)c6nc(c(-c7c(F)cc(S(=O)(=O)[O-])cc7F)c7ccc4[nH]7)C=C6)C=C5)cc3)[NH+]3CC[NH+]([C@@H]4CCS(=O)(=O)C4)CC3)c2c1
REMARK SMILES IDX 17 1 16 2 15 3 13 4 14 5 12 7 11 8 5 9 6 10 103 11 7 12
REMARK SMILES IDX 102 13 8 14 9 15 10 16 4 18 3 19 2 20 1 21 89 22 90 23
REMARK SMILES IDX 101 24 91 26 100 27 92 28 93 30 94 31 99 32 95 33 96 34
REMARK SMILES IDX 97 35 98 36 18 37 19 38 20 39 21 40 22 42 23 43 24 44 88 45
REMARK SMILES IDX 25 46 87 47 26 48 27 49 28 50 81 51 29 52 86 53 80 54 82 55
REMARK SMILES IDX 30 56 85 57 79 58 78 59 31 61 65 62 44 63 64 64 45 65 48 66
REMARK SMILES IDX 63 67 83 68 46 69 47 70 62 72 84 73 49 74 32 75 33 76 42 77
REMARK SMILES IDX 34 78 35 79 41 80 43 81 36 82 37 83 38 84 39 85 40 86 66 87
REMARK SMILES IDX 67 88 76 89 68 90 69 91 75 92 77 93 70 94 71 95 72 96 73 97
REMARK SMILES IDX 74 98 50 99 51 100 60 101 52 102 53 103 59 104 61 105 54 106
REMARK SMILES IDX 55 107 56 108 57 109 58 110
REMARK H PARENT 15 6 9 17 89 25 92 29 20 41 82 60 48 71
REMARK Flexibility Score: inf
ROOT
ATOM      1  C   UNL     1       5.358  -0.128   2.467  1.00  0.00     0.023 C 
ENDROOT
BRANCH   1   2
ATOM      2  C   UNL     1       5.921   1.285   2.594  1.00  0.00     0.116 C 
BRANCH   2   3
ATOM      3  N   UNL     1       5.116   2.055   3.513  1.00  0.00    -0.351 N 
ATOM      4  C   UNL     1       5.357   2.393   4.806  1.00  0.00     0.283 C 
ATOM      5  O   UNL     1       4.384   2.817   5.437  1.00  0.00    -0.268 OA
ATOM      6  H   UNL     1       4.264   2.384   3.146  1.00  0.00     0.163 HD
BRANCH   4   7
ATOM      7  C   UNL     1       6.780   2.280   5.394  1.00  0.00     0.308 C 
BRANCH   7   8
ATOM      8  C   UNL     1       7.513   3.604   5.409  1.00  0.00     0.045 A 
ATOM      9  C   UNL     1       5.302   6.674   5.062  1.00  0.00     0.121 A 
ATOM     10  C   UNL     1       6.245   7.558   5.591  1.00  0.00     0.048 A 
ATOM     11  C   UNL     1       5.665   5.365   4.844  1.00  0.00     0.057 A 
ATOM     12  C   UNL     1       7.590   7.190   5.757  1.00  0.00     0.030 A 
ATOM     13  C   UNL     1       6.942   4.903   5.210  1.00  0.00     0.013 A 
ATOM     14  C   UNL     1       7.901   5.841   5.582  1.00  0.00     0.046 A 
ATOM     15  N   UNL     1       9.083   5.161   5.751  1.00  0.00    -0.361 N 
ATOM     16  C   UNL     1       8.856   3.811   5.686  1.00  0.00     0.094 A 
ATOM     17  H   UNL     1       9.961   5.581   5.896  1.00  0.00     0.166 HD
BRANCH   9  18
ATOM     18  O   UNL     1       3.964   6.945   4.846  1.00  0.00    -0.479 OA
BRANCH  18  19
ATOM     19  C   UNL     1       3.720   7.751   3.664  1.00  0.00     0.349 C 
BRANCH  19  20
ATOM     20  C   UNL     1       4.458   9.051   3.936  1.00  0.00     0.104 C 
ATOM     21  N   UNL     1       5.071  10.130   4.162  1.00  0.00    -0.195 NA
ENDBRANCH  19  20
ENDBRANCH  18  19
ENDBRANCH   9  18
ENDBRANCH   7   8
BRANCH   7  22
ATOM     22  N   UNL     1       6.777   1.626   6.728  1.00  0.00    -0.312 N 
ATOM     23  C   UNL     1       6.298   2.431   7.868  1.00  0.00     0.325 C 
ATOM     24  C   UNL     1       6.136   0.302   6.652  1.00  0.00     0.325 C 
ATOM     25  H   UNL     1       7.764   1.513   6.957  1.00  0.00     0.349 HD
ATOM     26  C   UNL     1       4.875   2.180   8.438  1.00  0.00     0.324 C 
ATOM     27  C   UNL     1       4.653   0.227   7.056  1.00  0.00     0.324 C 
ATOM     28  N   UNL     1       4.368   0.803   8.364  1.00  0.00    -0.322 N 
ATOM     29  H   UNL     1       3.350   0.838   8.409  1.00  0.00     0.348 HD
BRANCH  28  30
ATOM     30  C   UNL     1       4.515  -0.022   9.562  1.00  0.00     0.200 C 
ATOM     31  C   UNL     1       5.917  -0.299  10.135  1.00  0.00     0.082 C 
ATOM     32  C   UNL     1       3.791  -1.375   9.478  1.00  0.00     0.201 C 
ATOM     33  C   UNL     1       6.445  -1.641   9.654  1.00  0.00     0.143 C 
ATOM     34  S   UNL     1       5.041  -2.606   9.160  1.00  0.00     0.156 S 
ATOM     35  O   UNL     1       5.149  -2.856   7.739  1.00  0.00    -0.229 OA
ATOM     36  O   UNL     1       4.879  -3.691  10.109  1.00  0.00    -0.229 OA
ENDBRANCH  28  30
ENDBRANCH   7  22
ENDBRANCH   4   7
ENDBRANCH   2   3
ENDBRANCH   1   2
BRANCH   1  37
ATOM     37  C   UNL     1       3.885  -0.181   2.046  1.00  0.00     0.023 C 
BRANCH  37  38
ATOM     38  C   UNL     1       3.518   0.718   0.871  1.00  0.00     0.116 C 
BRANCH  38  39
ATOM     39  N   UNL     1       4.351   0.478  -0.296  1.00  0.00    -0.352 N 
ATOM     40  C   UNL     1       3.974   0.344  -1.607  1.00  0.00     0.251 C 
ATOM     41  H   UNL     1       5.316   0.402  -0.120  1.00  0.00     0.163 HD
ATOM     42  O   UNL     1       4.798   0.009  -2.451  1.00  0.00    -0.269 OA
BRANCH  40  43
ATOM     43  C   UNL     1       2.564   0.570  -1.979  1.00  0.00     0.039 A 
ATOM     44  C   UNL     1       1.917  -0.391  -2.757  1.00  0.00     0.014 A 
ATOM     45  C   UNL     1       1.878   1.703  -1.531  1.00  0.00     0.014 A 
ATOM     46  C   UNL     1       0.559  -0.242  -3.040  1.00  0.00     0.010 A 
ATOM     47  C   UNL     1       0.508   1.808  -1.749  1.00  0.00     0.010 A 
ATOM     48  C   UNL     1      -0.164   0.839  -2.509  1.00  0.00    -0.014 A 
BRANCH  48  49
ATOM     49  C   UNL     1      -1.625   0.967  -2.739  1.00  0.00     0.031 A 
ATOM     50  C   UNL     1      -2.168   2.141  -3.508  1.00  0.00     0.074 A 
ATOM     51  C   UNL     1      -2.464   0.050  -2.217  1.00  0.00     0.049 A 
ATOM     52  N   UNL     1      -3.411   2.452  -3.768  1.00  0.00    -0.248 NA
ATOM     53  C   UNL     1      -1.187   3.105  -4.032  1.00  0.00     0.031 C 
ATOM     54  C   UNL     1      -2.059  -1.109  -1.417  1.00  0.00     0.029 A 
ATOM     55  N   UNL     1      -3.831  -0.051  -2.274  1.00  0.00    -0.354 N 
ATOM     56  C   UNL     1      -3.362   3.645  -4.479  1.00  0.00     0.074 A 
ATOM     57  C   UNL     1      -1.972   4.035  -4.556  1.00  0.00     0.031 C 
ATOM     58  C   UNL     1      -3.149  -1.817  -1.083  1.00  0.00     0.029 A 
ATOM     59  C   UNL     1      -4.334  -1.143  -1.604  1.00  0.00     0.049 A 
ATOM     60  H   UNL     1      -4.399   0.597  -2.749  1.00  0.00     0.167 HD
ATOM     61  C   UNL     1      -4.382   4.338  -5.041  1.00  0.00     0.037 A 
ATOM     62  C   UNL     1      -5.606  -1.549  -1.423  1.00  0.00     0.037 A 
ATOM     63  C   UNL     1      -5.762   3.933  -4.974  1.00  0.00     0.049 A 
ATOM     64  C   UNL     1      -6.722  -0.746  -2.036  1.00  0.00     0.074 A 
ATOM     65  C   UNL     1      -6.864   4.542  -5.548  1.00  0.00     0.029 A 
ATOM     66  N   UNL     1      -6.231   2.821  -4.291  1.00  0.00    -0.354 N 
ATOM     67  N   UNL     1      -6.652   0.347  -2.758  1.00  0.00    -0.248 NA
ATOM     68  C   UNL     1      -8.091  -1.233  -1.814  1.00  0.00     0.031 C 
ATOM     69  C   UNL     1      -8.005   3.828  -5.169  1.00  0.00     0.029 A 
ATOM     70  C   UNL     1      -7.609   2.739  -4.409  1.00  0.00     0.049 A 
ATOM     71  H   UNL     1      -5.668   2.183  -3.796  1.00  0.00     0.167 HD
ATOM     72  C   UNL     1      -7.963   0.660  -3.102  1.00  0.00     0.074 A 
ATOM     73  C   UNL     1      -8.803  -0.367  -2.522  1.00  0.00     0.031 C 
ATOM     74  C   UNL     1      -8.431   1.703  -3.833  1.00  0.00     0.037 A 
BRANCH  61  75
ATOM     75  C   UNL     1      -4.044   5.603  -5.784  1.00  0.00     0.058 A 
ATOM     76  C   UNL     1      -3.349   5.578  -7.004  1.00  0.00     0.135 A 
ATOM     77  C   UNL     1      -4.460   6.852  -5.295  1.00  0.00     0.135 A 
ATOM     78  F   UNL     1      -2.912   4.413  -7.510  1.00  0.00    -0.206 F 
ATOM     79  C   UNL     1      -3.058   6.746  -7.700  1.00  0.00     0.059 A 
ATOM     80  C   UNL     1      -4.207   8.031  -5.991  1.00  0.00     0.059 A 
ATOM     81  F   UNL     1      -5.125   6.936  -4.132  1.00  0.00    -0.206 F 
ATOM     82  C   UNL     1      -3.494   7.968  -7.187  1.00  0.00     0.060 A 
BRANCH  82  83
ATOM     83  S   UNL     1      -3.119   9.472  -8.113  1.00  0.00     0.124 S 
ATOM     84  O   UNL     1      -1.678   9.587  -7.909  1.00  0.00    -0.237 OA
ATOM     85  O   UNL     1      -3.541   9.117  -9.464  1.00  0.00    -0.237 OA
ATOM     86  O   UNL     1      -3.929  10.490  -7.452  1.00  0.00    -0.744 OA
ENDBRANCH  82  83
ENDBRANCH  61  75
BRANCH  62  87
ATOM     87  C   UNL     1      -5.895  -2.781  -0.639  1.00  0.00     0.058 A 
ATOM     88  C   UNL     1      -6.419  -3.926  -1.259  1.00  0.00     0.135 A 
ATOM     89  C   UNL     1      -5.661  -2.838   0.744  1.00  0.00     0.135 A 
ATOM     90  F   UNL     1      -6.665  -3.921  -2.578  1.00  0.00    -0.206 F 
ATOM     91  C   UNL     1      -6.727  -5.072  -0.533  1.00  0.00     0.059 A 
ATOM     92  C   UNL     1      -5.932  -3.983   1.486  1.00  0.00     0.059 A 
ATOM     93  F   UNL     1      -5.144  -1.777   1.383  1.00  0.00    -0.206 F 
ATOM     94  C   UNL     1      -6.479  -5.091   0.840  1.00  0.00     0.060 A 
BRANCH  94  95
ATOM     95  S   UNL     1      -6.857  -6.594   1.767  1.00  0.00     0.124 S 
ATOM     96  O   UNL     1      -8.315  -6.574   1.776  1.00  0.00    -0.237 OA
ATOM     97  O   UNL     1      -6.237  -7.625   0.942  1.00  0.00    -0.237 OA
ATOM     98  O   UNL     1      -6.215  -6.362   3.057  1.00  0.00    -0.744 OA
ENDBRANCH  94  95
ENDBRANCH  62  87
BRANCH  74  99
ATOM     99  C   UNL     1      -9.913   1.768  -4.081  1.00  0.00     0.058 A 
ATOM    100  C   UNL     1     -10.823   2.082  -3.060  1.00  0.00     0.135 A 
ATOM    101  C   UNL     1     -10.425   1.562  -5.374  1.00  0.00     0.135 A 
ATOM    102  F   UNL     1     -10.389   2.281  -1.805  1.00  0.00    -0.206 F 
ATOM    103  C   UNL     1     -12.190   2.165  -3.304  1.00  0.00     0.059 A 
ATOM    104  C   UNL     1     -11.784   1.673  -5.648  1.00  0.00     0.059 A 
ATOM    105  F   UNL     1      -9.598   1.270  -6.390  1.00  0.00    -0.206 F 
ATOM    106  C   UNL     1     -12.661   1.962  -4.603  1.00  0.00     0.060 A 
BRANCH 106 107
ATOM    107  S   UNL     1     -14.433   2.108  -4.912  1.00  0.00     0.124 S 
ATOM    108  O   UNL     1     -14.943   0.896  -4.280  1.00  0.00    -0.237 OA
ATOM    109  O   UNL     1     -14.764   3.361  -4.241  1.00  0.00    -0.237 OA
ATOM    110  O   UNL     1     -14.523   2.142  -6.369  1.00  0.00    -0.744 OA
ENDBRANCH 106 107
ENDBRANCH  74  99
ENDBRANCH  48  49
ENDBRANCH  40  43
ENDBRANCH  38  39
ENDBRANCH  37  38
ENDBRANCH   1  37
TORSDOF 20
