REMARK SMILES O=C(NCCCCNC(=O)c1ccc2ncccc2n1)c1ccc(-c2c3nc(c(-c4c(F)cc(S(=O)(=O)[O-])cc4F)c4ccc([nH]4)c(-c4c(F)cc(S(=O)(=O)[O-])cc4F)c4nc(c(-c5c(F)cc(S(=O)(=O)[O-])cc5F)c5ccc2[nH]5)C=C4)C=C3)cc1
REMARK SMILES IDX 4 1 3 2 1 3 2 4 21 6 22 7 86 8 23 9 85 10 24 11 25 12 26 13
REMARK SMILES IDX 79 14 27 15 84 16 78 17 80 18 28 19 83 20 77 21 76 22 29 24
REMARK SMILES IDX 63 25 42 26 62 27 43 28 46 29 61 30 81 31 44 32 45 33 60 35
REMARK SMILES IDX 82 36 47 37 30 38 31 39 40 40 32 41 33 42 39 43 41 44 34 45
REMARK SMILES IDX 35 46 36 47 37 48 38 49 64 50 65 51 74 52 66 53 67 54 73 55
REMARK SMILES IDX 75 56 68 57 69 58 70 59 71 60 72 61 48 62 49 63 58 64 50 65
REMARK SMILES IDX 51 66 57 67 59 68 52 69 53 70 54 71 55 72 56 73 5 74 6 75
REMARK SMILES IDX 7 76 8 77 9 78 10 80 11 81 12 82 20 83 13 84 19 85 14 86
REMARK SMILES IDX 18 87 15 88 17 89 16 90
REMARK H PARENT 3 5 80 23 46 34 8 79
REMARK Flexibility Score: inf
ROOT
ATOM      1  C   UNL     1       4.655   0.187  -1.340  1.00  0.00     0.116 C 
ENDROOT
BRANCH   1   2
ATOM      2  N   UNL     1       3.229   0.332  -1.087  1.00  0.00    -0.352 N 
ATOM      3  O   UNL     1       1.284   0.086   0.032  1.00  0.00    -0.269 OA
ATOM      4  C   UNL     1       2.509  -0.017   0.034  1.00  0.00     0.251 C 
ATOM      5  H   UNL     1       2.707   0.735  -1.818  1.00  0.00     0.163 HD
BRANCH   4   6
ATOM      6  C   UNL     1       3.211  -0.548   1.223  1.00  0.00     0.039 A 
ATOM      7  C   UNL     1       4.371   0.067   1.696  1.00  0.00     0.014 A 
ATOM      8  C   UNL     1       2.718  -1.694   1.855  1.00  0.00     0.014 A 
ATOM      9  C   UNL     1       5.124  -0.553   2.686  1.00  0.00     0.010 A 
ATOM     10  C   UNL     1       3.432  -2.268   2.914  1.00  0.00     0.010 A 
ATOM     11  C   UNL     1       4.663  -1.724   3.311  1.00  0.00    -0.014 A 
BRANCH  11  12
ATOM     12  C   UNL     1       5.477  -2.319   4.404  1.00  0.00     0.031 A 
ATOM     13  C   UNL     1       6.120  -3.672   4.257  1.00  0.00     0.074 A 
ATOM     14  C   UNL     1       5.690  -1.585   5.514  1.00  0.00     0.049 A 
ATOM     15  N   UNL     1       6.921  -4.294   5.087  1.00  0.00    -0.248 NA
ATOM     16  C   UNL     1       5.826  -4.429   3.031  1.00  0.00     0.031 C 
ATOM     17  C   UNL     1       5.096  -0.272   5.780  1.00  0.00     0.029 A 
ATOM     18  N   UNL     1       6.484  -1.816   6.607  1.00  0.00    -0.354 N 
ATOM     19  C   UNL     1       7.218  -5.515   4.492  1.00  0.00     0.074 A 
ATOM     20  C   UNL     1       6.489  -5.560   3.242  1.00  0.00     0.031 C 
ATOM     21  C   UNL     1       5.590   0.211   6.929  1.00  0.00     0.029 A 
ATOM     22  C   UNL     1       6.495  -0.776   7.506  1.00  0.00     0.049 A 
ATOM     23  H   UNL     1       6.997  -2.647   6.736  1.00  0.00     0.167 HD
ATOM     24  C   UNL     1       8.032  -6.501   4.943  1.00  0.00     0.037 A 
ATOM     25  C   UNL     1       7.156  -0.631   8.669  1.00  0.00     0.037 A 
ATOM     26  C   UNL     1       8.766  -6.445   6.183  1.00  0.00     0.049 A 
ATOM     27  C   UNL     1       8.072  -1.726   9.129  1.00  0.00     0.074 A 
ATOM     28  C   UNL     1       9.614  -7.395   6.727  1.00  0.00     0.029 A 
ATOM     29  N   UNL     1       8.746  -5.377   7.068  1.00  0.00    -0.354 N 
ATOM     30  N   UNL     1       8.341  -2.870   8.548  1.00  0.00    -0.248 NA
ATOM     31  C   UNL     1       8.773  -1.512  10.401  1.00  0.00     0.031 C 
ATOM     32  C   UNL     1      10.089  -6.911   7.952  1.00  0.00     0.029 A 
ATOM     33  C   UNL     1       9.564  -5.646   8.155  1.00  0.00     0.049 A 
ATOM     34  H   UNL     1       8.228  -4.550   6.943  1.00  0.00     0.167 HD
ATOM     35  C   UNL     1       9.241  -3.516   9.386  1.00  0.00     0.074 A 
ATOM     36  C   UNL     1       9.495  -2.620  10.496  1.00  0.00     0.031 C 
ATOM     37  C   UNL     1       9.796  -4.745   9.255  1.00  0.00     0.037 A 
BRANCH  24  38
ATOM     38  C   UNL     1       8.176  -7.733   4.092  1.00  0.00     0.058 A 
ATOM     39  C   UNL     1       8.939  -7.725   2.914  1.00  0.00     0.135 A 
ATOM     40  C   UNL     1       7.591  -8.948   4.484  1.00  0.00     0.135 A 
ATOM     41  F   UNL     1       9.508  -6.587   2.485  1.00  0.00    -0.206 F 
ATOM     42  C   UNL     1       9.105  -8.873   2.146  1.00  0.00     0.059 A 
ATOM     43  C   UNL     1       7.760 -10.114   3.742  1.00  0.00     0.059 A 
ATOM     44  F   UNL     1       6.851  -9.011   5.602  1.00  0.00    -0.206 F 
ATOM     45  C   UNL     1       8.510 -10.064   2.567  1.00  0.00     0.060 A 
BRANCH  45  46
ATOM     46  S   UNL     1       8.743 -11.550   1.568  1.00  0.00     0.124 S 
ATOM     47  O   UNL     1       7.844 -11.290   0.447  1.00  0.00    -0.237 OA
ATOM     48  O   UNL     1      10.169 -11.502   1.260  1.00  0.00    -0.237 OA
ATOM     49  O   UNL     1       8.335 -12.629   2.462  1.00  0.00    -0.744 OA
ENDBRANCH  45  46
ENDBRANCH  24  38
BRANCH  25  50
ATOM     50  C   UNL     1       6.964   0.603   9.473  1.00  0.00     0.058 A 
ATOM     51  C   UNL     1       7.976   1.567   9.579  1.00  0.00     0.135 A 
ATOM     52  C   UNL     1       5.746   0.854  10.124  1.00  0.00     0.135 A 
ATOM     53  F   UNL     1       9.157   1.369   8.974  1.00  0.00    -0.206 F 
ATOM     54  C   UNL     1       7.793   2.733  10.314  1.00  0.00     0.059 A 
ATOM     55  C   UNL     1       5.531   2.023  10.843  1.00  0.00     0.059 A 
ATOM     56  F   UNL     1       4.740  -0.030  10.033  1.00  0.00    -0.206 F 
ATOM     57  C   UNL     1       6.566   2.953  10.942  1.00  0.00     0.060 A 
BRANCH  57  58
ATOM     58  S   UNL     1       6.308   4.493  11.848  1.00  0.00     0.124 S 
ATOM     59  O   UNL     1       6.965   4.199  13.116  1.00  0.00    -0.237 OA
ATOM     60  O   UNL     1       6.973   5.473  10.995  1.00  0.00    -0.237 OA
ATOM     61  O   UNL     1       4.853   4.607  11.900  1.00  0.00    -0.744 OA
ENDBRANCH  57  58
ENDBRANCH  25  50
BRANCH  37  62
ATOM     62  C   UNL     1      10.732  -5.182  10.344  1.00  0.00     0.058 A 
ATOM     63  C   UNL     1      10.253  -5.582  11.601  1.00  0.00     0.135 A 
ATOM     64  C   UNL     1      12.119  -5.207  10.129  1.00  0.00     0.135 A 
ATOM     65  F   UNL     1       8.935  -5.568  11.857  1.00  0.00    -0.206 F 
ATOM     66  C   UNL     1      11.119  -5.960  12.621  1.00  0.00     0.059 A 
ATOM     67  C   UNL     1      13.002  -5.602  11.128  1.00  0.00     0.059 A 
ATOM     68  F   UNL     1      12.625  -4.842   8.941  1.00  0.00    -0.206 F 
ATOM     69  C   UNL     1      12.494  -5.959  12.377  1.00  0.00     0.060 A 
BRANCH  69  70
ATOM     70  S   UNL     1      13.613  -6.452  13.705  1.00  0.00     0.124 S 
ATOM     71  O   UNL     1      13.654  -5.240  14.516  1.00  0.00    -0.237 OA
ATOM     72  O   UNL     1      12.918  -7.589  14.300  1.00  0.00    -0.237 OA
ATOM     73  O   UNL     1      14.848  -6.780  13.000  1.00  0.00    -0.744 OA
ENDBRANCH  69  70
ENDBRANCH  37  62
ENDBRANCH  11  12
ENDBRANCH   4   6
ENDBRANCH   1   2
BRANCH   1  74
ATOM     74  C   UNL     1       4.971  -0.453  -2.686  1.00  0.00     0.023 C 
BRANCH  74  75
ATOM     75  C   UNL     1       4.478   0.309  -3.913  1.00  0.00     0.023 C 
BRANCH  75  76
ATOM     76  C   UNL     1       4.853   1.787  -3.962  1.00  0.00     0.116 C 
BRANCH  76  77
ATOM     77  N   UNL     1       6.288   2.011  -3.944  1.00  0.00    -0.351 N 
ATOM     78  C   UNL     1       7.076   2.635  -4.887  1.00  0.00     0.269 C 
ATOM     79  H   UNL     1       6.763   1.671  -3.151  1.00  0.00     0.163 HD
ATOM     80  O   UNL     1       8.291   2.711  -4.729  1.00  0.00    -0.268 OA
BRANCH  78  81
ATOM     81  C   UNL     1       6.434   3.231  -6.087  1.00  0.00     0.129 A 
ATOM     82  C   UNL     1       5.547   4.287  -5.941  1.00  0.00     0.036 A 
ATOM     83  N   UNL     1       6.725   2.649  -7.274  1.00  0.00    -0.241 NA
ATOM     84  C   UNL     1       4.881   4.734  -7.079  1.00  0.00     0.033 A 
ATOM     85  C   UNL     1       6.083   3.120  -8.357  1.00  0.00     0.090 A 
ATOM     86  C   UNL     1       5.123   4.158  -8.317  1.00  0.00     0.089 A 
ATOM     87  C   UNL     1       6.346   2.566  -9.599  1.00  0.00     0.032 A 
ATOM     88  N   UNL     1       4.451   4.595  -9.400  1.00  0.00    -0.255 NA
ATOM     89  C   UNL     1       5.670   3.005 -10.734  1.00  0.00     0.022 A 
ATOM     90  C   UNL     1       4.732   4.008 -10.582  1.00  0.00     0.112 A 
ENDBRANCH  78  81
ENDBRANCH  76  77
ENDBRANCH  75  76
ENDBRANCH  74  75
ENDBRANCH   1  74
TORSDOF 14
