REMARK SMILES COc1nc2c(cc1C(=O)NCc1ccc(C(=O)NCCCCNC(=O)c3ccc(-c4c5nc(c(-c6c(F)cc(S(=O)(=O)[O-])cc6F)c6ccc([nH]6)c(-c6c(F)cc(S(=O)(=O)[O-])cc6F)c6nc(c(-c7c(F)cc(S(=O)(=O)[O-])cc7F)c7ccc4[nH]7)C=C6)C=C5)cc3)s1)CCC2
REMARK SMILES IDX 21 1 20 2 19 3 17 4 18 5 16 7 13 8 14 9 93 10 15 11 12 12
REMARK SMILES IDX 11 13 9 14 10 15 8 17 3 18 4 19 5 20 7 21 6 22 96 23 94 24
REMARK SMILES IDX 95 25 2 26 1 27 22 28 23 29 24 30 25 31 26 33 27 34 28 35
REMARK SMILES IDX 92 36 29 37 91 38 30 39 31 40 32 41 85 42 33 43 90 44 84 45
REMARK SMILES IDX 86 46 34 47 89 48 83 49 82 50 35 52 69 53 48 54 68 55 49 56
REMARK SMILES IDX 52 57 67 58 87 59 50 60 51 61 66 63 88 64 53 65 36 66 37 67
REMARK SMILES IDX 46 68 38 69 39 70 45 71 47 72 40 73 41 74 42 75 43 76 44 77
REMARK SMILES IDX 70 78 71 79 80 80 72 81 73 82 79 83 81 84 74 85 75 86 76 87
REMARK SMILES IDX 77 88 78 89 54 90 55 91 64 92 56 93 57 94 63 95 65 96 58 97
REMARK SMILES IDX 59 98 60 99 61 100 62 101
REMARK H PARENT 19 6 11 16 24 32 86 51 52 62
REMARK Flexibility Score: inf
ROOT
ATOM      1  C   UNL     1       0.878   0.893  -8.140  1.00  0.00     0.023 C 
ENDROOT
BRANCH   1   2
ATOM      2  C   UNL     1       2.177   1.524  -7.642  1.00  0.00     0.116 C 
BRANCH   2   3
ATOM      3  N   UNL     1       1.915   2.828  -7.077  1.00  0.00    -0.351 N 
ATOM      4  C   UNL     1       1.808   3.199  -5.762  1.00  0.00     0.261 C 
ATOM      5  O   UNL     1       1.621   4.399  -5.539  1.00  0.00    -0.268 OA
ATOM      6  H   UNL     1       1.796   3.555  -7.731  1.00  0.00     0.163 HD
BRANCH   4   7
ATOM      7  C   UNL     1       1.929   2.197  -4.719  1.00  0.00     0.092 A 
ATOM      8  C   UNL     1       2.195   1.184  -2.499  1.00  0.00     0.025 A 
ATOM      9  C   UNL     1       1.843   0.241  -3.437  1.00  0.00     0.018 A 
ATOM     10  S   UNL     1       2.566   2.690  -3.204  1.00  0.00    -0.133 S 
ATOM     11  C   UNL     1       1.573   0.859  -4.685  1.00  0.00     0.026 A 
BRANCH   8  12
ATOM     12  C   UNL     1       1.986   1.076  -1.043  1.00  0.00     0.163 C 
BRANCH  12  13
ATOM     13  N   UNL     1       3.155   1.224  -0.230  1.00  0.00    -0.347 N 
ATOM     14  C   UNL     1       3.197   1.631   1.084  1.00  0.00     0.257 C 
ATOM     15  O   UNL     1       4.268   1.537   1.686  1.00  0.00    -0.269 OA
ATOM     16  H   UNL     1       4.018   1.013  -0.655  1.00  0.00     0.164 HD
BRANCH  14  17
ATOM     17  C   UNL     1       2.041   2.264   1.788  1.00  0.00     0.102 A 
ATOM     18  C   UNL     1       0.678   1.933   1.687  1.00  0.00     0.226 A 
ATOM     19  N   UNL     1      -0.330   2.652   2.247  1.00  0.00    -0.218 NA
ATOM     20  C   UNL     1       0.046   3.696   2.994  1.00  0.00     0.048 A 
ATOM     21  C   UNL     1       2.377   3.316   2.660  1.00  0.00     0.025 A 
ATOM     22  C   UNL     1       1.361   4.027   3.269  1.00  0.00    -0.025 A 
ATOM     23  C   UNL     1      -0.909   4.630   3.678  1.00  0.00     0.057 C 
ATOM     24  C   UNL     1       1.440   5.128   4.270  1.00  0.00     0.038 C 
ATOM     25  C   UNL     1       0.038   5.744   4.152  1.00  0.00     0.011 C 
BRANCH  18  26
ATOM     26  O   UNL     1       0.202   0.891   0.943  1.00  0.00    -0.480 OA
ATOM     27  C   UNL     1       0.380  -0.355   1.598  1.00  0.00     0.280 C 
ENDBRANCH  18  26
ENDBRANCH  14  17
ENDBRANCH  12  13
ENDBRANCH   8  12
ENDBRANCH   4   7
ENDBRANCH   2   3
ENDBRANCH   1   2
BRANCH   1  28
ATOM     28  C   UNL     1       0.414   1.458  -9.480  1.00  0.00     0.023 C 
BRANCH  28  29
ATOM     29  C   UNL     1       1.442   1.320 -10.592  1.00  0.00     0.116 C 
BRANCH  29  30
ATOM     30  N   UNL     1       1.872  -0.057 -10.794  1.00  0.00    -0.352 N 
ATOM     31  C   UNL     1       2.214  -0.640 -11.988  1.00  0.00     0.251 C 
ATOM     32  H   UNL     1       1.922  -0.627  -9.993  1.00  0.00     0.163 HD
ATOM     33  O   UNL     1       2.456  -1.838 -12.073  1.00  0.00    -0.269 OA
BRANCH  31  34
ATOM     34  C   UNL     1       2.246   0.236 -13.168  1.00  0.00     0.039 A 
ATOM     35  C   UNL     1       1.321   0.028 -14.190  1.00  0.00     0.014 A 
ATOM     36  C   UNL     1       3.085   1.356 -13.156  1.00  0.00     0.014 A 
ATOM     37  C   UNL     1       1.210   0.978 -15.201  1.00  0.00     0.010 A 
ATOM     38  C   UNL     1       2.925   2.330 -14.129  1.00  0.00     0.010 A 
ATOM     39  C   UNL     1       1.997   2.141 -15.165  1.00  0.00    -0.014 A 
BRANCH  39  40
ATOM     40  C   UNL     1       1.916   3.144 -16.249  1.00  0.00     0.031 A 
ATOM     41  C   UNL     1       3.083   3.297 -17.181  1.00  0.00     0.074 A 
ATOM     42  C   UNL     1       0.826   3.924 -16.372  1.00  0.00     0.049 A 
ATOM     43  N   UNL     1       3.238   4.126 -18.178  1.00  0.00    -0.248 NA
ATOM     44  C   UNL     1       4.238   2.412 -16.947  1.00  0.00     0.031 C 
ATOM     45  C   UNL     1      -0.352   3.877 -15.504  1.00  0.00     0.029 A 
ATOM     46  N   UNL     1       0.534   4.911 -17.278  1.00  0.00    -0.354 N 
ATOM     47  C   UNL     1       4.500   3.858 -18.692  1.00  0.00     0.074 A 
ATOM     48  C   UNL     1       5.098   2.843 -17.856  1.00  0.00     0.031 C 
ATOM     49  C   UNL     1      -1.250   4.780 -15.935  1.00  0.00     0.029 A 
ATOM     50  C   UNL     1      -0.700   5.488 -17.089  1.00  0.00     0.049 A 
ATOM     51  H   UNL     1       1.150   5.181 -17.997  1.00  0.00     0.167 HD
ATOM     52  C   UNL     1       5.091   4.386 -19.788  1.00  0.00     0.037 A 
ATOM     53  C   UNL     1      -1.313   6.474 -17.773  1.00  0.00     0.037 A 
ATOM     54  C   UNL     1       4.483   5.388 -20.619  1.00  0.00     0.049 A 
ATOM     55  C   UNL     1      -0.614   7.081 -18.961  1.00  0.00     0.074 A 
ATOM     56  C   UNL     1       4.983   5.967 -21.771  1.00  0.00     0.029 A 
ATOM     57  N   UNL     1       3.240   5.960 -20.387  1.00  0.00    -0.354 N 
ATOM     58  N   UNL     1       0.558   6.779 -19.471  1.00  0.00    -0.248 NA
ATOM     59  C   UNL     1      -1.319   8.156 -19.672  1.00  0.00     0.031 C 
ATOM     60  C   UNL     1       4.066   6.927 -22.207  1.00  0.00     0.029 A 
ATOM     61  C   UNL     1       2.968   6.906 -21.360  1.00  0.00     0.049 A 
ATOM     62  H   UNL     1       2.642   5.729 -19.641  1.00  0.00     0.167 HD
ATOM     63  C   UNL     1       0.719   7.610 -20.575  1.00  0.00     0.074 A 
ATOM     64  C   UNL     1      -0.481   8.416 -20.666  1.00  0.00     0.031 C 
ATOM     65  C   UNL     1       1.764   7.697 -21.435  1.00  0.00     0.037 A 
BRANCH  52  66
ATOM     66  C   UNL     1       6.457   3.878 -20.152  1.00  0.00     0.058 A 
ATOM     67  C   UNL     1       6.647   2.576 -20.643  1.00  0.00     0.135 A 
ATOM     68  C   UNL     1       7.583   4.708 -20.043  1.00  0.00     0.135 A 
ATOM     69  F   UNL     1       5.608   1.732 -20.744  1.00  0.00    -0.206 F 
ATOM     70  C   UNL     1       7.908   2.109 -20.996  1.00  0.00     0.059 A 
ATOM     71  C   UNL     1       8.850   4.272 -20.418  1.00  0.00     0.059 A 
ATOM     72  F   UNL     1       7.459   5.959 -19.570  1.00  0.00    -0.206 F 
ATOM     73  C   UNL     1       9.003   2.967 -20.885  1.00  0.00     0.060 A 
BRANCH  73  74
ATOM     74  S   UNL     1      10.627   2.348 -21.368  1.00  0.00     0.124 S 
ATOM     75  O   UNL     1      10.892   1.370 -20.317  1.00  0.00    -0.237 OA
ATOM     76  O   UNL     1      10.366   1.797 -22.694  1.00  0.00    -0.237 OA
ATOM     77  O   UNL     1      11.469   3.540 -21.341  1.00  0.00    -0.744 OA
ENDBRANCH  73  74
ENDBRANCH  52  66
BRANCH  53  78
ATOM     78  C   UNL     1      -2.674   6.921 -17.372  1.00  0.00     0.058 A 
ATOM     79  C   UNL     1      -3.789   6.639 -18.175  1.00  0.00     0.135 A 
ATOM     80  C   UNL     1      -2.893   7.618 -16.173  1.00  0.00     0.135 A 
ATOM     81  F   UNL     1      -3.631   5.984 -19.335  1.00  0.00    -0.206 F 
ATOM     82  C   UNL     1      -5.071   7.037 -17.810  1.00  0.00     0.059 A 
ATOM     83  C   UNL     1      -4.169   8.005 -15.774  1.00  0.00     0.059 A 
ATOM     84  F   UNL     1      -1.862   7.902 -15.362  1.00  0.00    -0.206 F 
ATOM     85  C   UNL     1      -5.252   7.714 -16.603  1.00  0.00     0.060 A 
BRANCH  85  86
ATOM     86  S   UNL     1      -6.930   8.170 -16.114  1.00  0.00     0.124 S 
ATOM     87  O   UNL     1      -7.254   9.200 -17.094  1.00  0.00    -0.237 OA
ATOM     88  O   UNL     1      -7.641   6.904 -16.258  1.00  0.00    -0.237 OA
ATOM     89  O   UNL     1      -6.765   8.635 -14.740  1.00  0.00    -0.744 OA
ENDBRANCH  85  86
ENDBRANCH  53  78
BRANCH  65  90
ATOM     90  C   UNL     1       1.660   8.685 -22.565  1.00  0.00     0.058 A 
ATOM     91  C   UNL     1       1.766  10.066 -22.345  1.00  0.00     0.135 A 
ATOM     92  C   UNL     1       1.540   8.238 -23.891  1.00  0.00     0.135 A 
ATOM     93  F   UNL     1       1.878  10.546 -21.096  1.00  0.00    -0.206 F 
ATOM     94  C   UNL     1       1.742  10.973 -23.399  1.00  0.00     0.059 A 
ATOM     95  C   UNL     1       1.544   9.125 -24.963  1.00  0.00     0.059 A 
ATOM     96  F   UNL     1       1.448   6.926 -24.157  1.00  0.00    -0.206 F 
ATOM     97  C   UNL     1       1.638  10.491 -24.706  1.00  0.00     0.060 A 
BRANCH  97  98
ATOM     98  S   UNL     1       1.657  11.679 -26.065  1.00  0.00     0.124 S 
ATOM     99  O   UNL     1       0.363  12.335 -25.901  1.00  0.00    -0.237 OA
ATOM    100  O   UNL     1       2.826  12.494 -25.748  1.00  0.00    -0.237 OA
ATOM    101  O   UNL     1       1.787  10.839 -27.251  1.00  0.00    -0.744 OA
ENDBRANCH  97  98
ENDBRANCH  65  90
ENDBRANCH  39  40
ENDBRANCH  31  34
ENDBRANCH  29  30
ENDBRANCH  28  29
ENDBRANCH   1  28
TORSDOF 18
