REMARK SMILES C[C@@H](CCC(=O)NCCCCNC(=O)c1ccc(-c2c3nc(c(-c4c(F)cc(S(=O)(=O)[O-])cc4F)c4ccc([nH]4)c(-c4c(F)cc(S(=O)(=O)[O-])cc4F)c4nc(c(-c5c(F)cc(S(=O)(=O)[O-])cc5F)c5ccc2[nH]5)C=C4)C=C3)cc1)CC[NH+]1CCCCC1
REMARK SMILES IDX 8 1 7 2 5 3 6 4 4 6 3 7 2 8 1 9 81 10 82 11 83 12 84 13
REMARK SMILES IDX 88 14 85 16 87 17 86 18 9 19 10 20 11 21 12 22 13 23 14 25
REMARK SMILES IDX 15 26 16 27 80 28 17 29 79 30 18 31 19 32 20 33 73 34 21 35
REMARK SMILES IDX 78 36 72 37 74 38 22 39 77 40 71 41 70 42 23 44 57 45 36 46
REMARK SMILES IDX 56 47 37 48 40 49 55 50 75 51 38 52 39 53 54 55 76 56 41 57
REMARK SMILES IDX 24 58 25 59 34 60 26 61 27 62 33 63 35 64 28 65 29 66 30 67
REMARK SMILES IDX 31 68 32 69 58 70 59 71 68 72 60 73 61 74 67 75 69 76 62 77
REMARK SMILES IDX 63 78 64 79 65 80 66 81 42 82 43 83 52 84 44 85 45 86 51 87
REMARK SMILES IDX 53 88 46 89 47 90 48 91 49 92 50 93
REMARK H PARENT 7 5 83 15 12 24 74 43 40 54
REMARK Flexibility Score: inf
ROOT
ATOM      1  C   UNL     1      -1.619   1.497  -1.497  1.00  0.00     0.116 C 
ENDROOT
BRANCH   1   2
ATOM      2  N   UNL     1      -1.912   2.462  -0.453  1.00  0.00    -0.356 N 
ATOM      3  C   UNL     1      -1.105   3.060   0.466  1.00  0.00     0.220 C 
ATOM      4  O   UNL     1      -1.623   3.800   1.303  1.00  0.00    -0.275 OA
ATOM      5  H   UNL     1      -2.858   2.731  -0.400  1.00  0.00     0.163 HD
BRANCH   3   6
ATOM      6  C   UNL     1       0.394   2.855   0.427  1.00  0.00     0.100 C 
BRANCH   6   7
ATOM      7  C   UNL     1       1.004   2.332   1.741  1.00  0.00     0.013 C 
BRANCH   7   8
ATOM      8  C   UNL     1       0.885   0.811   2.052  1.00  0.00    -0.008 C 
ATOM      9  C   UNL     1       1.396  -0.035   0.881  1.00  0.00     0.008 C 
BRANCH   8  10
ATOM     10  C   UNL     1      -0.503   0.468   2.653  1.00  0.00     0.065 C 
BRANCH  10  11
ATOM     11  C   UNL     1      -1.071  -0.957   2.538  1.00  0.00     0.262 C 
BRANCH  11  12
ATOM     12  N   UNL     1      -0.621  -2.071   3.385  1.00  0.00    -0.335 N 
ATOM     13  C   UNL     1      -1.216  -3.314   2.836  1.00  0.00     0.262 C 
ATOM     14  C   UNL     1       0.826  -2.196   3.540  1.00  0.00     0.262 C 
ATOM     15  H   UNL     1      -0.941  -1.885   4.335  1.00  0.00     0.348 HD
ATOM     16  C   UNL     1      -0.871  -4.558   3.647  1.00  0.00     0.062 C 
ATOM     17  C   UNL     1       1.203  -3.401   4.405  1.00  0.00     0.062 C 
ATOM     18  C   UNL     1       0.634  -4.691   3.827  1.00  0.00     0.012 C 
ENDBRANCH  11  12
ENDBRANCH  10  11
ENDBRANCH   8  10
ENDBRANCH   7   8
ENDBRANCH   6   7
ENDBRANCH   3   6
ENDBRANCH   1   2
BRANCH   1  19
ATOM     19  C   UNL     1      -1.721   0.058  -1.000  1.00  0.00     0.023 C 
BRANCH  19  20
ATOM     20  C   UNL     1      -3.081  -0.285  -0.394  1.00  0.00     0.023 C 
BRANCH  20  21
ATOM     21  C   UNL     1      -3.729  -1.501  -1.025  1.00  0.00     0.116 C 
BRANCH  21  22
ATOM     22  N   UNL     1      -2.998  -2.750  -0.883  1.00  0.00    -0.352 N 
ATOM     23  C   UNL     1      -3.499  -4.038  -0.900  1.00  0.00     0.251 C 
ATOM     24  H   UNL     1      -2.025  -2.668  -0.759  1.00  0.00     0.163 HD
ATOM     25  O   UNL     1      -2.733  -4.988  -0.749  1.00  0.00    -0.269 OA
BRANCH  23  26
ATOM     26  C   UNL     1      -4.963  -4.269  -1.028  1.00  0.00     0.039 A 
ATOM     27  C   UNL     1      -5.567  -5.271  -0.263  1.00  0.00     0.014 A 
ATOM     28  C   UNL     1      -5.758  -3.458  -1.837  1.00  0.00     0.014 A 
ATOM     29  C   UNL     1      -6.963  -5.380  -0.232  1.00  0.00     0.010 A 
ATOM     30  C   UNL     1      -7.138  -3.471  -1.694  1.00  0.00     0.010 A 
ATOM     31  C   UNL     1      -7.764  -4.439  -0.900  1.00  0.00    -0.014 A 
BRANCH  31  32
ATOM     32  C   UNL     1      -9.249  -4.441  -0.815  1.00  0.00     0.031 A 
ATOM     33  C   UNL     1     -10.068  -4.502  -2.082  1.00  0.00     0.074 A 
ATOM     34  C   UNL     1      -9.860  -4.274   0.376  1.00  0.00     0.049 A 
ATOM     35  N   UNL     1     -11.355  -4.346  -2.247  1.00  0.00    -0.248 NA
ATOM     36  C   UNL     1      -9.329  -4.710  -3.341  1.00  0.00     0.031 C 
ATOM     37  C   UNL     1      -9.182  -4.122   1.667  1.00  0.00     0.029 A 
ATOM     38  N   UNL     1     -11.192  -4.189   0.696  1.00  0.00    -0.354 N 
ATOM     39  C   UNL     1     -11.570  -4.390  -3.620  1.00  0.00     0.074 A 
ATOM     40  C   UNL     1     -10.275  -4.520  -4.248  1.00  0.00     0.031 C 
ATOM     41  C   UNL     1     -10.101  -3.999   2.638  1.00  0.00     0.029 A 
ATOM     42  C   UNL     1     -11.431  -4.019   2.040  1.00  0.00     0.049 A 
ATOM     43  H   UNL     1     -11.911  -4.244   0.025  1.00  0.00     0.167 HD
ATOM     44  C   UNL     1     -12.742  -4.361  -4.299  1.00  0.00     0.037 A 
ATOM     45  C   UNL     1     -12.592  -3.890   2.713  1.00  0.00     0.037 A 
ATOM     46  C   UNL     1     -14.030  -4.313  -3.662  1.00  0.00     0.049 A 
ATOM     47  C   UNL     1     -13.885  -3.931   1.945  1.00  0.00     0.074 A 
ATOM     48  C   UNL     1     -15.283  -4.371  -4.246  1.00  0.00     0.029 A 
ATOM     49  N   UNL     1     -14.229  -4.215  -2.292  1.00  0.00    -0.354 N 
ATOM     50  N   UNL     1     -14.071  -4.033   0.649  1.00  0.00    -0.248 NA
ATOM     51  C   UNL     1     -15.127  -3.846   2.726  1.00  0.00     0.031 C 
ATOM     52  C   UNL     1     -16.241  -4.281  -3.230  1.00  0.00     0.029 A 
ATOM     53  C   UNL     1     -15.584  -4.206  -2.012  1.00  0.00     0.049 A 
ATOM     54  H   UNL     1     -13.512  -4.159  -1.619  1.00  0.00     0.167 HD
ATOM     55  C   UNL     1     -15.449  -4.052   0.464  1.00  0.00     0.074 A 
ATOM     56  C   UNL     1     -16.048  -3.963   1.780  1.00  0.00     0.031 C 
ATOM     57  C   UNL     1     -16.155  -4.134  -0.691  1.00  0.00     0.037 A 
BRANCH  44  58
ATOM     58  C   UNL     1     -12.682  -4.413  -5.802  1.00  0.00     0.058 A 
ATOM     59  C   UNL     1     -12.269  -5.569  -6.484  1.00  0.00     0.135 A 
ATOM     60  C   UNL     1     -13.061  -3.301  -6.572  1.00  0.00     0.135 A 
ATOM     61  F   UNL     1     -11.879  -6.656  -5.799  1.00  0.00    -0.206 F 
ATOM     62  C   UNL     1     -12.196  -5.610  -7.873  1.00  0.00     0.059 A 
ATOM     63  C   UNL     1     -13.027  -3.330  -7.964  1.00  0.00     0.059 A 
ATOM     64  F   UNL     1     -13.464  -2.170  -5.974  1.00  0.00    -0.206 F 
ATOM     65  C   UNL     1     -12.576  -4.484  -8.604  1.00  0.00     0.060 A 
BRANCH  65  66
ATOM     66  S   UNL     1     -12.477  -4.554 -10.405  1.00  0.00     0.124 S 
ATOM     67  O   UNL     1     -11.037  -4.454 -10.621  1.00  0.00    -0.237 OA
ATOM     68  O   UNL     1     -13.072  -5.853 -10.701  1.00  0.00    -0.237 OA
ATOM     69  O   UNL     1     -13.257  -3.397 -10.834  1.00  0.00    -0.744 OA
ENDBRANCH  65  66
ENDBRANCH  44  58
BRANCH  45  70
ATOM     70  C   UNL     1     -12.586  -3.755   4.195  1.00  0.00     0.058 A 
ATOM     71  C   UNL     1     -13.022  -4.809   5.012  1.00  0.00     0.135 A 
ATOM     72  C   UNL     1     -12.137  -2.584   4.825  1.00  0.00     0.135 A 
ATOM     73  F   UNL     1     -13.464  -5.948   4.457  1.00  0.00    -0.206 F 
ATOM     74  C   UNL     1     -13.032  -4.703   6.399  1.00  0.00     0.059 A 
ATOM     75  C   UNL     1     -12.115  -2.462   6.212  1.00  0.00     0.059 A 
ATOM     76  F   UNL     1     -11.693  -1.553   4.090  1.00  0.00    -0.206 F 
ATOM     77  C   UNL     1     -12.576  -3.524   6.990  1.00  0.00     0.060 A 
BRANCH  77  78
ATOM     78  S   UNL     1     -12.554  -3.413   8.793  1.00  0.00     0.124 S 
ATOM     79  O   UNL     1     -13.971  -3.247   9.094  1.00  0.00    -0.237 OA
ATOM     80  O   UNL     1     -11.966  -4.693   9.174  1.00  0.00    -0.237 OA
ATOM     81  O   UNL     1     -11.713  -2.246   9.046  1.00  0.00    -0.744 OA
ENDBRANCH  77  78
ENDBRANCH  45  70
BRANCH  57  82
ATOM     82  C   UNL     1     -17.652  -4.171  -0.582  1.00  0.00     0.058 A 
ATOM     83  C   UNL     1     -18.396  -3.022  -0.275  1.00  0.00     0.135 A 
ATOM     84  C   UNL     1     -18.353  -5.358  -0.850  1.00  0.00     0.135 A 
ATOM     85  F   UNL     1     -17.772  -1.864  -0.006  1.00  0.00    -0.206 F 
ATOM     86  C   UNL     1     -19.785  -3.053  -0.218  1.00  0.00     0.059 A 
ATOM     87  C   UNL     1     -19.742  -5.406  -0.824  1.00  0.00     0.059 A 
ATOM     88  F   UNL     1     -17.686  -6.481  -1.161  1.00  0.00    -0.206 F 
ATOM     89  C   UNL     1     -20.449  -4.250  -0.496  1.00  0.00     0.060 A 
BRANCH  89  90
ATOM     90  S   UNL     1     -22.254  -4.268  -0.459  1.00  0.00     0.124 S 
ATOM     91  O   UNL     1     -22.517  -4.253   0.976  1.00  0.00    -0.237 OA
ATOM     92  O   UNL     1     -22.594  -3.044  -1.179  1.00  0.00    -0.237 OA
ATOM     93  O   UNL     1     -22.595  -5.508  -1.149  1.00  0.00    -0.744 OA
ENDBRANCH  89  90
ENDBRANCH  57  82
ENDBRANCH  31  32
ENDBRANCH  23  26
ENDBRANCH  21  22
ENDBRANCH  20  21
ENDBRANCH  19  20
ENDBRANCH   1  19
TORSDOF 19
