REMARK SMILES O=C(Cn1c2ccccc2c(=O)c2ccccc21)N[C@@H](Cc1ccccc1)C(=O)NCCCCNC(=O)c1ccc(-c2c3nc(c(-c4c(F)cc(S(=O)(=O)[O-])cc4F)c4ccc([nH]4)c(-c4c(F)cc(S(=O)(=O)[O-])cc4F)c4nc(c(-c5c(F)cc(S(=O)(=O)[O-])cc5F)c5ccc2[nH]5)C=C4)C=C3)cc1
REMARK SMILES IDX 32 1 31 2 30 3 28 4 29 5 20 7 19 8 1 9 2 10 3 12 4 13 5 14
REMARK SMILES IDX 18 15 6 16 10 17 13 18 17 19 7 20 9 21 11 22 14 23 16 24
REMARK SMILES IDX 8 25 12 26 15 27 21 28 22 29 23 30 27 31 24 32 26 33 25 34
REMARK SMILES IDX 33 35 34 36 35 37 36 38 37 40 38 41 39 42 103 43 40 44
REMARK SMILES IDX 102 45 41 46 42 47 43 48 96 49 44 50 101 51 95 52 97 53
REMARK SMILES IDX 45 54 100 55 94 56 93 57 46 59 80 60 59 61 79 62 60 63 63 64
REMARK SMILES IDX 78 65 98 66 61 67 62 68 77 70 99 71 64 72 47 73 48 74 57 75
REMARK SMILES IDX 49 76 50 77 56 78 58 79 51 80 52 81 53 82 54 83 55 84 81 85
REMARK SMILES IDX 82 86 91 87 83 88 84 89 90 90 92 91 85 92 86 93 87 94 88 95
REMARK SMILES IDX 89 96 65 97 66 98 75 99 67 100 68 101 74 102 76 103 69 104
REMARK SMILES IDX 70 105 71 106 72 107 73 108
REMARK H PARENT 30 6 19 11 35 39 97 58 63 69
REMARK Flexibility Score: inf
ROOT
ATOM      1  C   UNL     1       6.362  -2.421   1.781  1.00  0.00     0.023 C 
ENDROOT
BRANCH   1   2
ATOM      2  C   UNL     1       5.324  -3.283   1.089  1.00  0.00     0.116 C 
BRANCH   2   3
ATOM      3  N   UNL     1       4.063  -3.457   1.772  1.00  0.00    -0.354 N 
ATOM      4  C   UNL     1       2.794  -3.394   1.260  1.00  0.00     0.242 C 
ATOM      5  O   UNL     1       1.914  -4.010   1.872  1.00  0.00    -0.273 OA
ATOM      6  H   UNL     1       4.124  -3.647   2.736  1.00  0.00     0.163 HD
BRANCH   4   7
ATOM      7  C   UNL     1       2.461  -2.676  -0.076  1.00  0.00     0.175 C 
BRANCH   7   8
ATOM      8  N   UNL     1       3.091  -1.348  -0.165  1.00  0.00    -0.342 N 
ATOM      9  O   UNL     1       1.247  -0.175   0.541  1.00  0.00    -0.273 OA
ATOM     10  C   UNL     1       2.441  -0.195   0.251  1.00  0.00     0.240 C 
ATOM     11  H   UNL     1       4.002  -1.276  -0.531  1.00  0.00     0.164 HD
BRANCH  10  12
ATOM     12  C   UNL     1       3.319   1.062   0.292  1.00  0.00     0.222 C 
BRANCH  12  13
ATOM     13  N   UNL     1       3.546   1.687   1.632  1.00  0.00    -0.331 N 
ATOM     14  C   UNL     1       3.844   3.082   1.593  1.00  0.00     0.053 A 
ATOM     15  C   UNL     1       4.044   0.886   2.691  1.00  0.00     0.053 A 
ATOM     16  C   UNL     1       3.131   3.997   0.802  1.00  0.00     0.027 A 
ATOM     17  C   UNL     1       4.835   3.616   2.438  1.00  0.00     0.046 A 
ATOM     18  C   UNL     1       5.118   1.340   3.483  1.00  0.00     0.046 A 
ATOM     19  C   UNL     1       3.458  -0.321   3.091  1.00  0.00     0.027 A 
ATOM     20  C   UNL     1       3.388   5.375   0.870  1.00  0.00     0.002 A 
ATOM     21  C   UNL     1       5.087   4.993   2.522  1.00  0.00     0.014 A 
ATOM     22  C   UNL     1       5.637   2.701   3.268  1.00  0.00     0.197 A 
ATOM     23  C   UNL     1       5.666   0.577   4.526  1.00  0.00     0.014 A 
ATOM     24  C   UNL     1       3.973  -1.076   4.157  1.00  0.00     0.002 A 
ATOM     25  C   UNL     1       4.353   5.875   1.741  1.00  0.00     0.001 A 
ATOM     26  O   UNL     1       6.681   3.077   3.789  1.00  0.00    -0.288 OA
ATOM     27  C   UNL     1       5.093  -0.642   4.857  1.00  0.00     0.001 A 
ENDBRANCH  12  13
ENDBRANCH  10  12
ENDBRANCH   7   8
BRANCH   7  28
ATOM     28  C   UNL     1       2.618  -3.569  -1.334  1.00  0.00     0.070 C 
BRANCH  28  29
ATOM     29  C   UNL     1       4.013  -4.008  -1.723  1.00  0.00    -0.045 A 
ATOM     30  C   UNL     1       4.905  -3.112  -2.335  1.00  0.00     0.004 A 
ATOM     31  C   UNL     1       4.468  -5.296  -1.397  1.00  0.00     0.004 A 
ATOM     32  C   UNL     1       6.250  -3.456  -2.504  1.00  0.00     0.000 A 
ATOM     33  C   UNL     1       5.808  -5.646  -1.592  1.00  0.00     0.000 A 
ATOM     34  C   UNL     1       6.704  -4.716  -2.117  1.00  0.00     0.000 A 
ENDBRANCH  28  29
ENDBRANCH   7  28
ENDBRANCH   4   7
ENDBRANCH   2   3
ENDBRANCH   1   2
BRANCH   1  35
ATOM     35  C   UNL     1       6.983  -3.047   3.016  1.00  0.00     0.023 C 
BRANCH  35  36
ATOM     36  C   UNL     1       7.645  -4.399   2.786  1.00  0.00     0.116 C 
BRANCH  36  37
ATOM     37  N   UNL     1       8.700  -4.379   1.779  1.00  0.00    -0.352 N 
ATOM     38  C   UNL     1      10.022  -4.763   1.883  1.00  0.00     0.251 C 
ATOM     39  H   UNL     1       8.429  -4.043   0.894  1.00  0.00     0.163 HD
ATOM     40  O   UNL     1      10.791  -4.581   0.951  1.00  0.00    -0.269 OA
BRANCH  38  41
ATOM     41  C   UNL     1      10.499  -5.364   3.149  1.00  0.00     0.039 A 
ATOM     42  C   UNL     1       9.727  -6.325   3.797  1.00  0.00     0.014 A 
ATOM     43  C   UNL     1      11.685  -4.909   3.731  1.00  0.00     0.014 A 
ATOM     44  C   UNL     1      10.005  -6.644   5.118  1.00  0.00     0.010 A 
ATOM     45  C   UNL     1      12.036  -5.340   5.016  1.00  0.00     0.010 A 
ATOM     46  C   UNL     1      11.166  -6.163   5.748  1.00  0.00    -0.014 A 
BRANCH  46  47
ATOM     47  C   UNL     1      11.422  -6.545   7.165  1.00  0.00     0.031 A 
ATOM     48  C   UNL     1      11.524  -5.502   8.249  1.00  0.00     0.074 A 
ATOM     49  C   UNL     1      11.466  -7.856   7.484  1.00  0.00     0.049 A 
ATOM     50  N   UNL     1      11.709  -5.670   9.535  1.00  0.00    -0.248 NA
ATOM     51  C   UNL     1      11.412  -4.089   7.848  1.00  0.00     0.031 C 
ATOM     52  C   UNL     1      11.368  -8.959   6.522  1.00  0.00     0.029 A 
ATOM     53  N   UNL     1      11.553  -8.489   8.697  1.00  0.00    -0.354 N 
ATOM     54  C   UNL     1      11.761  -4.395  10.088  1.00  0.00     0.074 A 
ATOM     55  C   UNL     1      11.612  -3.458   8.998  1.00  0.00     0.031 C 
ATOM     56  C   UNL     1      11.303 -10.121   7.186  1.00  0.00     0.029 A 
ATOM     57  C   UNL     1      11.450  -9.859   8.612  1.00  0.00     0.049 A 
ATOM     58  H   UNL     1      11.677  -8.010   9.548  1.00  0.00     0.167 HD
ATOM     59  C   UNL     1      11.907  -4.042  11.388  1.00  0.00     0.037 A 
ATOM     60  C   UNL     1      11.485 -10.805   9.569  1.00  0.00     0.037 A 
ATOM     61  C   UNL     1      12.012  -4.983  12.474  1.00  0.00     0.049 A 
ATOM     62  C   UNL     1      11.680 -10.385  10.996  1.00  0.00     0.074 A 
ATOM     63  C   UNL     1      12.152  -4.722  13.826  1.00  0.00     0.029 A 
ATOM     64  N   UNL     1      11.976  -6.362  12.335  1.00  0.00    -0.354 N 
ATOM     65  N   UNL     1      11.750  -9.173  11.492  1.00  0.00    -0.248 NA
ATOM     66  C   UNL     1      11.827 -11.455  11.991  1.00  0.00     0.031 C 
ATOM     67  C   UNL     1      12.236  -5.943  14.502  1.00  0.00     0.029 A 
ATOM     68  C   UNL     1      12.107  -6.965  13.575  1.00  0.00     0.049 A 
ATOM     69  H   UNL     1      11.872  -6.842  11.482  1.00  0.00     0.167 HD
ATOM     70  C   UNL     1      11.947  -9.335  12.857  1.00  0.00     0.074 A 
ATOM     71  C   UNL     1      11.961 -10.761  13.113  1.00  0.00     0.031 C 
ATOM     72  C   UNL     1      12.112  -8.387  13.810  1.00  0.00     0.037 A 
BRANCH  59  73
ATOM     73  C   UNL     1      11.963  -2.576  11.726  1.00  0.00     0.058 A 
ATOM     74  C   UNL     1      10.814  -1.772  11.710  1.00  0.00     0.135 A 
ATOM     75  C   UNL     1      13.166  -1.990  12.157  1.00  0.00     0.135 A 
ATOM     76  F   UNL     1       9.642  -2.276  11.291  1.00  0.00    -0.206 F 
ATOM     77  C   UNL     1      10.855  -0.437  12.103  1.00  0.00     0.059 A 
ATOM     78  C   UNL     1      13.226  -0.664  12.576  1.00  0.00     0.059 A 
ATOM     79  F   UNL     1      14.295  -2.715  12.192  1.00  0.00    -0.206 F 
ATOM     80  C   UNL     1      12.065   0.106  12.541  1.00  0.00     0.060 A 
BRANCH  80  81
ATOM     81  S   UNL     1      12.089   1.829  13.082  1.00  0.00     0.124 S 
ATOM     82  O   UNL     1      11.915   2.535  11.816  1.00  0.00    -0.237 OA
ATOM     83  O   UNL     1      10.956   1.883  13.999  1.00  0.00    -0.237 OA
ATOM     84  O   UNL     1      13.402   1.973  13.703  1.00  0.00    -0.744 OA
ENDBRANCH  80  81
ENDBRANCH  59  73
BRANCH  60  85
ATOM     85  C   UNL     1      11.350 -12.239   9.200  1.00  0.00     0.058 A 
ATOM     86  C   UNL     1      10.214 -12.975   9.565  1.00  0.00     0.135 A 
ATOM     87  C   UNL     1      12.340 -12.894   8.450  1.00  0.00     0.135 A 
ATOM     88  F   UNL     1       9.242 -12.395  10.287  1.00  0.00    -0.206 F 
ATOM     89  C   UNL     1      10.066 -14.311   9.207  1.00  0.00     0.059 A 
ATOM     90  C   UNL     1      12.202 -14.220   8.055  1.00  0.00     0.059 A 
ATOM     91  F   UNL     1      13.440 -12.230   8.062  1.00  0.00    -0.206 F 
ATOM     92  C   UNL     1      11.065 -14.923   8.447  1.00  0.00     0.060 A 
BRANCH  92  93
ATOM     93  S   UNL     1      10.840 -16.642   7.942  1.00  0.00     0.124 S 
ATOM     94  O   UNL     1      11.068 -17.348   9.197  1.00  0.00    -0.237 OA
ATOM     95  O   UNL     1       9.466 -16.640   7.449  1.00  0.00    -0.237 OA
ATOM     96  O   UNL     1      11.864 -16.826   6.917  1.00  0.00    -0.744 OA
ENDBRANCH  92  93
ENDBRANCH  60  85
BRANCH  72  97
ATOM     97  C   UNL     1      12.315  -8.853  15.222  1.00  0.00     0.058 A 
ATOM     98  C   UNL     1      13.547  -9.373  15.647  1.00  0.00     0.135 A 
ATOM     99  C   UNL     1      11.300  -8.695  16.178  1.00  0.00     0.135 A 
ATOM    100  F   UNL     1      14.544  -9.553  14.766  1.00  0.00    -0.206 F 
ATOM    101  C   UNL     1      13.765  -9.724  16.974  1.00  0.00     0.059 A 
ATOM    102  C   UNL     1      11.503  -9.018  17.516  1.00  0.00     0.059 A 
ATOM    103  F   UNL     1      10.106  -8.196  15.820  1.00  0.00    -0.206 F 
ATOM    104  C   UNL     1      12.740  -9.534  17.903  1.00  0.00     0.060 A 
BRANCH 104 105
ATOM    105  S   UNL     1      13.064  -9.928  19.634  1.00  0.00     0.124 S 
ATOM    106  O   UNL     1      13.097 -11.387  19.603  1.00  0.00    -0.237 OA
ATOM    107  O   UNL     1      14.346  -9.270  19.868  1.00  0.00    -0.237 OA
ATOM    108  O   UNL     1      11.927  -9.341  20.336  1.00  0.00    -0.744 OA
ENDBRANCH 104 105
ENDBRANCH  72  97
ENDBRANCH  46  47
ENDBRANCH  38  41
ENDBRANCH  36  37
ENDBRANCH  35  36
ENDBRANCH   1  35
TORSDOF 19
