REMARK SMILES COc1ccc(Cl)c2c1N[C@@H](c1ccc(C(=O)NCCCCNC(=O)c3ccc(-c4c5nc(c(-c6c(F)cc(S(=O)(=O)[O-])cc6F)c6ccc([nH]6)c(-c6c(F)cc(S(=O)(=O)[O-])cc6F)c6nc(c(-c7c(F)cc(S(=O)(=O)[O-])cc7F)c7ccc4[nH]7)C=C6)C=C5)cc3)cc1)[C@@H]1CC=C[C@H]21
REMARK SMILES IDX 21 1 20 2 19 3 18 4 16 5 17 6 15 8 12 9 13 10 93 11 14 12
REMARK SMILES IDX 92 13 11 14 3 15 4 16 9 17 5 18 8 19 10 20 6 21 98 22 7 24
REMARK SMILES IDX 94 25 97 26 95 27 96 28 2 29 1 30 22 31 23 32 24 33 25 35
REMARK SMILES IDX 26 36 27 37 91 38 28 39 90 40 29 41 30 42 31 43 84 44 32 45
REMARK SMILES IDX 89 46 83 47 85 48 33 49 88 50 82 51 81 52 34 54 68 55 47 56
REMARK SMILES IDX 67 57 48 58 51 59 66 60 86 61 49 62 50 63 65 65 87 66 52 67
REMARK SMILES IDX 35 68 36 69 45 70 37 71 38 72 44 73 46 74 39 75 40 76 41 77
REMARK SMILES IDX 42 78 43 79 69 80 70 81 79 82 71 83 72 84 78 85 80 86 73 87
REMARK SMILES IDX 74 88 75 89 76 90 77 91 53 92 54 93 63 94 55 95 56 96 62 97
REMARK SMILES IDX 64 98 57 99 58 100 59 101 60 102 61 103
REMARK H PARENT 18 7 10 23 23 34 85 53 51 64
REMARK Flexibility Score: inf
ROOT
ATOM      1  C   UNL     1      10.824   1.764  -3.833  1.00  0.00     0.023 C 
ENDROOT
BRANCH   1   2
ATOM      2  C   UNL     1       9.925   0.804  -3.056  1.00  0.00     0.023 C 
BRANCH   2   3
ATOM      3  C   UNL     1      10.074   0.875  -1.535  1.00  0.00     0.116 C 
BRANCH   3   4
ATOM      4  N   UNL     1       9.424   2.055  -0.998  1.00  0.00    -0.352 N 
ATOM      5  C   UNL     1       8.207   2.208  -0.382  1.00  0.00     0.251 C 
ATOM      6  O   UNL     1       7.915   3.310   0.080  1.00  0.00    -0.269 OA
ATOM      7  H   UNL     1       9.943   2.886  -1.092  1.00  0.00     0.163 HD
BRANCH   5   8
ATOM      8  C   UNL     1       7.250   1.083  -0.212  1.00  0.00     0.039 A 
ATOM      9  C   UNL     1       5.367  -0.981   0.225  1.00  0.00    -0.025 A 
ATOM     10  C   UNL     1       5.564   0.025   1.185  1.00  0.00     0.006 A 
ATOM     11  C   UNL     1       6.108  -0.922  -0.962  1.00  0.00     0.006 A 
ATOM     12  C   UNL     1       6.485   1.053   0.960  1.00  0.00     0.014 A 
ATOM     13  C   UNL     1       7.029   0.103  -1.181  1.00  0.00     0.014 A 
BRANCH   9  14
ATOM     14  C   UNL     1       4.372  -2.113   0.420  1.00  0.00     0.114 C 
ATOM     15  C   UNL     1       0.827  -1.963   1.533  1.00  0.00     0.142 A 
ATOM     16  C   UNL     1      -0.212  -2.794   1.938  1.00  0.00     0.050 A 
ATOM     17  C   UNL     1       2.138  -2.454   1.368  1.00  0.00     0.083 A 
ATOM     18  C   UNL     1       0.038  -4.145   2.154  1.00  0.00     0.025 A 
ATOM     19  C   UNL     1       2.397  -3.821   1.591  1.00  0.00     0.005 A 
ATOM     20  N   UNL     1       3.164  -1.588   1.025  1.00  0.00    -0.375 N 
ATOM     21  C   UNL     1       1.329  -4.655   1.985  1.00  0.00     0.047 A 
ATOM     22  C   UNL     1       3.813  -4.343   1.479  1.00  0.00     0.051 C 
ATOM     23  H   UNL     1       3.074  -0.622   1.191  1.00  0.00     0.161 HD
ATOM     24  Cl  UNL     1       1.552  -6.338   2.327  1.00  0.00    -0.084 Cl
ATOM     25  C   UNL     1       4.914  -3.266   1.288  1.00  0.00     0.031 C 
ATOM     26  C   UNL     1       4.076  -5.242   0.296  1.00  0.00    -0.023 C 
ATOM     27  C   UNL     1       6.057  -4.042   0.606  1.00  0.00     0.034 C 
ATOM     28  C   UNL     1       5.320  -5.084  -0.172  1.00  0.00    -0.030 C 
BRANCH  15  29
ATOM     29  O   UNL     1       0.532  -0.631   1.366  1.00  0.00    -0.495 OA
ATOM     30  C   UNL     1       0.465  -0.282  -0.018  1.00  0.00     0.278 C 
ENDBRANCH  15  29
ENDBRANCH   9  14
ENDBRANCH   5   8
ENDBRANCH   3   4
ENDBRANCH   2   3
ENDBRANCH   1   2
BRANCH   1  31
ATOM     31  C   UNL     1      12.317   1.518  -3.668  1.00  0.00     0.116 C 
BRANCH  31  32
ATOM     32  N   UNL     1      12.719   0.173  -4.048  1.00  0.00    -0.352 N 
ATOM     33  C   UNL     1      13.908  -0.213  -4.620  1.00  0.00     0.251 C 
ATOM     34  H   UNL     1      12.066  -0.543  -3.877  1.00  0.00     0.163 HD
ATOM     35  O   UNL     1      14.094  -1.368  -4.973  1.00  0.00    -0.269 OA
BRANCH  33  36
ATOM     36  C   UNL     1      14.938   0.821  -4.829  1.00  0.00     0.039 A 
ATOM     37  C   UNL     1      15.362   1.094  -6.130  1.00  0.00     0.014 A 
ATOM     38  C   UNL     1      15.400   1.572  -3.744  1.00  0.00     0.014 A 
ATOM     39  C   UNL     1      16.223   2.168  -6.354  1.00  0.00     0.010 A 
ATOM     40  C   UNL     1      16.221   2.669  -3.975  1.00  0.00     0.010 A 
ATOM     41  C   UNL     1      16.638   2.973  -5.281  1.00  0.00    -0.014 A 
BRANCH  41  42
ATOM     42  C   UNL     1      17.546   4.120  -5.500  1.00  0.00     0.031 A 
ATOM     43  C   UNL     1      18.968   4.030  -5.029  1.00  0.00     0.074 A 
ATOM     44  C   UNL     1      17.080   5.245  -6.073  1.00  0.00     0.049 A 
ATOM     45  N   UNL     1      19.910   4.933  -5.078  1.00  0.00    -0.248 NA
ATOM     46  C   UNL     1      19.379   2.762  -4.403  1.00  0.00     0.031 C 
ATOM     47  C   UNL     1      15.706   5.455  -6.534  1.00  0.00     0.029 A 
ATOM     48  N   UNL     1      17.710   6.430  -6.356  1.00  0.00    -0.354 N 
ATOM     49  C   UNL     1      21.023   4.347  -4.488  1.00  0.00     0.074 A 
ATOM     50  C   UNL     1      20.626   3.029  -4.045  1.00  0.00     0.031 C 
ATOM     51  C   UNL     1      15.601   6.691  -7.052  1.00  0.00     0.029 A 
ATOM     52  C   UNL     1      16.891   7.366  -6.941  1.00  0.00     0.049 A 
ATOM     53  H   UNL     1      18.660   6.594  -6.159  1.00  0.00     0.167 HD
ATOM     54  C   UNL     1      22.269   4.854  -4.353  1.00  0.00     0.037 A 
ATOM     55  C   UNL     1      17.155   8.625  -7.339  1.00  0.00     0.037 A 
ATOM     56  C   UNL     1      22.663   6.155  -4.819  1.00  0.00     0.049 A 
ATOM     57  C   UNL     1      18.548   9.169  -7.171  1.00  0.00     0.074 A 
ATOM     58  C   UNL     1      23.915   6.742  -4.776  1.00  0.00     0.029 A 
ATOM     59  N   UNL     1      21.809   7.071  -5.415  1.00  0.00    -0.354 N 
ATOM     60  N   UNL     1      19.604   8.581  -6.660  1.00  0.00    -0.248 NA
ATOM     61  C   UNL     1      18.789  10.542  -7.636  1.00  0.00     0.031 C 
ATOM     62  C   UNL     1      23.811   8.026  -5.323  1.00  0.00     0.029 A 
ATOM     63  C   UNL     1      22.503   8.225  -5.733  1.00  0.00     0.049 A 
ATOM     64  H   UNL     1      20.851   6.922  -5.586  1.00  0.00     0.167 HD
ATOM     65  C   UNL     1      20.638   9.506  -6.758  1.00  0.00     0.074 A 
ATOM     66  C   UNL     1      20.084  10.688  -7.387  1.00  0.00     0.031 C 
ATOM     67  C   UNL     1      21.929   9.387  -6.363  1.00  0.00     0.037 A 
BRANCH  54  68
ATOM     68  C   UNL     1      23.300   3.986  -3.692  1.00  0.00     0.058 A 
ATOM     69  C   UNL     1      23.858   2.884  -4.358  1.00  0.00     0.135 A 
ATOM     70  C   UNL     1      23.755   4.274  -2.396  1.00  0.00     0.135 A 
ATOM     71  F   UNL     1      23.439   2.555  -5.590  1.00  0.00    -0.206 F 
ATOM     72  C   UNL     1      24.822   2.084  -3.754  1.00  0.00     0.059 A 
ATOM     73  C   UNL     1      24.734   3.499  -1.781  1.00  0.00     0.059 A 
ATOM     74  F   UNL     1      23.246   5.312  -1.715  1.00  0.00    -0.206 F 
ATOM     75  C   UNL     1      25.253   2.400  -2.465  1.00  0.00     0.060 A 
BRANCH  75  76
ATOM     76  S   UNL     1      26.514   1.358  -1.701  1.00  0.00     0.124 S 
ATOM     77  O   UNL     1      25.746   0.159  -1.381  1.00  0.00    -0.237 OA
ATOM     78  O   UNL     1      27.493   1.215  -2.774  1.00  0.00    -0.237 OA
ATOM     79  O   UNL     1      26.956   2.145  -0.554  1.00  0.00    -0.744 OA
ENDBRANCH  75  76
ENDBRANCH  54  68
BRANCH  55  80
ATOM     80  C   UNL     1      16.086   9.449  -7.959  1.00  0.00     0.058 A 
ATOM     81  C   UNL     1      16.088   9.707  -9.337  1.00  0.00     0.135 A 
ATOM     82  C   UNL     1      15.039   9.982  -7.193  1.00  0.00     0.135 A 
ATOM     83  F   UNL     1      17.073   9.223 -10.109  1.00  0.00    -0.206 F 
ATOM     84  C   UNL     1      15.094  10.475  -9.935  1.00  0.00     0.059 A 
ATOM     85  C   UNL     1      14.023  10.738  -7.771  1.00  0.00     0.059 A 
ATOM     86  F   UNL     1      14.986   9.750  -5.872  1.00  0.00    -0.206 F 
ATOM     87  C   UNL     1      14.064  10.986  -9.143  1.00  0.00     0.060 A 
BRANCH  87  88
ATOM     88  S   UNL     1      12.752  11.939  -9.938  1.00  0.00     0.124 S 
ATOM     89  O   UNL     1      13.430  13.201 -10.211  1.00  0.00    -0.237 OA
ATOM     90  O   UNL     1      12.438  11.117 -11.102  1.00  0.00    -0.237 OA
ATOM     91  O   UNL     1      11.710  11.990  -8.916  1.00  0.00    -0.744 OA
ENDBRANCH  87  88
ENDBRANCH  55  80
BRANCH  67  92
ATOM     92  C   UNL     1      22.837  10.557  -6.607  1.00  0.00     0.058 A 
ATOM     93  C   UNL     1      22.797  11.694  -5.787  1.00  0.00     0.135 A 
ATOM     94  C   UNL     1      23.810  10.505  -7.618  1.00  0.00     0.135 A 
ATOM     95  F   UNL     1      21.881  11.791  -4.811  1.00  0.00    -0.206 F 
ATOM     96  C   UNL     1      23.689  12.745  -5.965  1.00  0.00     0.059 A 
ATOM     97  C   UNL     1      24.724  11.536  -7.801  1.00  0.00     0.059 A 
ATOM     98  F   UNL     1      23.892   9.433  -8.423  1.00  0.00    -0.206 F 
ATOM     99  C   UNL     1      24.653  12.655  -6.972  1.00  0.00     0.060 A 
BRANCH  99 100
ATOM    100  S   UNL     1      25.842  14.001  -7.155  1.00  0.00     0.124 S 
ATOM    101  O   UNL     1      25.026  15.028  -7.796  1.00  0.00    -0.237 OA
ATOM    102  O   UNL     1      26.227  14.269  -5.773  1.00  0.00    -0.237 OA
ATOM    103  O   UNL     1      26.889  13.418  -7.989  1.00  0.00    -0.744 OA
ENDBRANCH  99 100
ENDBRANCH  67  92
ENDBRANCH  41  42
ENDBRANCH  33  36
ENDBRANCH  31  32
ENDBRANCH   1  31
TORSDOF 16
