REMARK SMILES CC1(C)C[C@](CC(=O)NCCCCNC(=O)c2ccc(-c3c4nc(c(-c5c(F)cc(S(=O)(=O)[O-])cc5F)c5ccc([nH]5)c(-c5c(F)cc(S(=O)(=O)[O-])cc5F)c5nc(c(-c6c(F)cc(S(=O)(=O)[O-])cc6F)c6ccc3[nH]6)C=C5)C=C4)cc2)([NH+]2CCCC2)C(C)(C)O1
REMARK SMILES IDX 12 1 11 2 10 3 9 4 7 5 8 6 6 8 5 9 1 10 2 11 3 12 4 13 91 14
REMARK SMILES IDX 88 15 89 16 90 17 83 18 84 19 87 20 85 22 86 23 13 24 14 25
REMARK SMILES IDX 15 26 16 28 17 29 18 30 82 31 19 32 81 33 20 34 21 35 22 36
REMARK SMILES IDX 75 37 23 38 80 39 74 40 76 41 24 42 79 43 73 44 72 45 25 47
REMARK SMILES IDX 59 48 38 49 58 50 39 51 42 52 57 53 77 54 40 55 41 56 56 58
REMARK SMILES IDX 78 59 43 60 26 61 27 62 36 63 28 64 29 65 35 66 37 67 30 68
REMARK SMILES IDX 31 69 32 70 33 71 34 72 60 73 61 74 70 75 62 76 63 77 69 78
REMARK SMILES IDX 71 79 64 80 65 81 66 82 67 83 68 84 44 85 45 86 54 87 46 88
REMARK SMILES IDX 47 89 53 90 55 91 48 92 49 93 50 94 51 95 52 96
REMARK H PARENT 9 7 83 21 14 27 76 46 42 57
REMARK Flexibility Score: inf
ROOT
ATOM      1  C   UNL     1       0.634   7.630  -2.718  1.00  0.00     0.023 C 
ENDROOT
BRANCH   1   2
ATOM      2  C   UNL     1       0.439   6.165  -2.383  1.00  0.00     0.023 C 
BRANCH   2   3
ATOM      3  C   UNL     1      -0.764   5.844  -1.507  1.00  0.00     0.116 C 
BRANCH   3   4
ATOM      4  N   UNL     1      -1.900   5.408  -2.275  1.00  0.00    -0.356 N 
ATOM      5  C   UNL     1      -2.541   4.216  -2.302  1.00  0.00     0.226 C 
ATOM      6  O   UNL     1      -3.640   4.206  -2.870  1.00  0.00    -0.275 OA
ATOM      7  H   UNL     1      -2.273   6.089  -2.881  1.00  0.00     0.163 HD
BRANCH   5   8
ATOM      8  C   UNL     1      -2.022   2.946  -1.627  1.00  0.00     0.171 C 
BRANCH   8   9
ATOM      9  C   UNL     1      -0.781   2.078  -2.106  1.00  0.00     0.138 C 
ATOM     10  C   UNL     1       0.183  -0.360   0.459  1.00  0.00     0.042 C 
ATOM     11  C   UNL     1       0.261   0.046  -1.023  1.00  0.00     0.070 C 
ATOM     12  C   UNL     1       0.721  -1.196  -1.790  1.00  0.00     0.042 C 
ATOM     13  C   UNL     1      -1.060   0.646  -1.506  1.00  0.00     0.107 C 
ATOM     14  O   UNL     1       1.256   1.059  -1.183  1.00  0.00    -0.363 OA
ATOM     15  C   UNL     1       0.630   2.365  -1.383  1.00  0.00     0.118 C 
ATOM     16  C   UNL     1       0.601   2.964   0.050  1.00  0.00     0.049 C 
ATOM     17  C   UNL     1       1.655   3.125  -2.242  1.00  0.00     0.049 C 
BRANCH   9  18
ATOM     18  N   UNL     1      -0.773   1.889  -3.590  1.00  0.00    -0.327 N 
ATOM     19  C   UNL     1      -1.155   2.968  -4.497  1.00  0.00     0.263 C 
ATOM     20  C   UNL     1       0.236   1.067  -4.251  1.00  0.00     0.263 C 
ATOM     21  H   UNL     1      -1.594   1.305  -3.431  1.00  0.00     0.348 HD
ATOM     22  C   UNL     1      -0.712   2.521  -5.878  1.00  0.00     0.067 C 
ATOM     23  C   UNL     1       0.539   1.736  -5.585  1.00  0.00     0.067 C 
ENDBRANCH   9  18
ENDBRANCH   8   9
ENDBRANCH   5   8
ENDBRANCH   3   4
ENDBRANCH   2   3
ENDBRANCH   1   2
BRANCH   1  24
ATOM     24  C   UNL     1       0.775   8.539  -1.510  1.00  0.00     0.116 C 
BRANCH  24  25
ATOM     25  N   UNL     1       1.837   8.146  -0.581  1.00  0.00    -0.352 N 
ATOM     26  C   UNL     1       2.937   8.855  -0.146  1.00  0.00     0.251 C 
ATOM     27  H   UNL     1       1.753   7.237  -0.212  1.00  0.00     0.163 HD
ATOM     28  O   UNL     1       3.762   8.342   0.580  1.00  0.00    -0.269 OA
BRANCH  26  29
ATOM     29  C   UNL     1       3.114  10.241  -0.635  1.00  0.00     0.039 A 
ATOM     30  C   UNL     1       4.326  10.612  -1.219  1.00  0.00     0.014 A 
ATOM     31  C   UNL     1       2.026  11.112  -0.645  1.00  0.00     0.014 A 
ATOM     32  C   UNL     1       4.399  11.808  -1.935  1.00  0.00     0.010 A 
ATOM     33  C   UNL     1       2.058  12.214  -1.484  1.00  0.00     0.010 A 
ATOM     34  C   UNL     1       3.244  12.580  -2.140  1.00  0.00    -0.014 A 
BRANCH  34  35
ATOM     35  C   UNL     1       3.228  13.773  -3.029  1.00  0.00     0.031 A 
ATOM     36  C   UNL     1       2.731  15.091  -2.494  1.00  0.00     0.074 A 
ATOM     37  C   UNL     1       3.546  13.654  -4.335  1.00  0.00     0.049 A 
ATOM     38  N   UNL     1       2.470  16.201  -3.133  1.00  0.00    -0.248 NA
ATOM     39  C   UNL     1       2.421  15.144  -1.055  1.00  0.00     0.031 C 
ATOM     40  C   UNL     1       3.967  12.420  -5.004  1.00  0.00     0.029 A 
ATOM     41  N   UNL     1       3.558  14.590  -5.339  1.00  0.00    -0.354 N 
ATOM     42  C   UNL     1       1.913  17.055  -2.189  1.00  0.00     0.074 A 
ATOM     43  C   UNL     1       1.806  16.310  -0.955  1.00  0.00     0.031 C 
ATOM     44  C   UNL     1       4.253  12.689  -6.289  1.00  0.00     0.029 A 
ATOM     45  C   UNL     1       3.989  14.099  -6.549  1.00  0.00     0.049 A 
ATOM     46  H   UNL     1       3.283  15.526  -5.205  1.00  0.00     0.167 HD
ATOM     47  C   UNL     1       1.558  18.355  -2.321  1.00  0.00     0.037 A 
ATOM     48  C   UNL     1       4.160  14.720  -7.732  1.00  0.00     0.037 A 
ATOM     49  C   UNL     1       1.751  19.115  -3.525  1.00  0.00     0.049 A 
ATOM     50  C   UNL     1       3.833  16.183  -7.843  1.00  0.00     0.074 A 
ATOM     51  C   UNL     1       1.522  20.461  -3.742  1.00  0.00     0.029 A 
ATOM     52  N   UNL     1       2.243  18.594  -4.713  1.00  0.00    -0.354 N 
ATOM     53  N   UNL     1       3.355  16.991  -6.927  1.00  0.00    -0.248 NA
ATOM     54  C   UNL     1       4.067  16.819  -9.147  1.00  0.00     0.031 C 
ATOM     55  C   UNL     1       1.859  20.751  -5.070  1.00  0.00     0.029 A 
ATOM     56  C   UNL     1       2.323  19.590  -5.670  1.00  0.00     0.049 A 
ATOM     57  H   UNL     1       2.497  17.654  -4.855  1.00  0.00     0.167 HD
ATOM     58  C   UNL     1       3.251  18.236  -7.536  1.00  0.00     0.074 A 
ATOM     59  C   UNL     1       3.723  18.075  -8.897  1.00  0.00     0.031 C 
ATOM     60  C   UNL     1       2.803  19.406  -7.017  1.00  0.00     0.037 A 
BRANCH  47  61
ATOM     61  C   UNL     1       0.948  19.021  -1.118  1.00  0.00     0.058 A 
ATOM     62  C   UNL     1       1.698  19.276   0.043  1.00  0.00     0.135 A 
ATOM     63  C   UNL     1      -0.414  19.358  -1.103  1.00  0.00     0.135 A 
ATOM     64  F   UNL     1       3.002  18.956   0.088  1.00  0.00    -0.206 F 
ATOM     65  C   UNL     1       1.106  19.774   1.197  1.00  0.00     0.059 A 
ATOM     66  C   UNL     1      -1.021  19.891   0.031  1.00  0.00     0.059 A 
ATOM     67  F   UNL     1      -1.178  19.142  -2.186  1.00  0.00    -0.206 F 
ATOM     68  C   UNL     1      -0.258  20.064   1.186  1.00  0.00     0.060 A 
BRANCH  68  69
ATOM     69  S   UNL     1      -1.031  20.653   2.707  1.00  0.00     0.124 S 
ATOM     70  O   UNL     1      -1.204  19.404   3.444  1.00  0.00    -0.237 OA
ATOM     71  O   UNL     1      -0.027  21.568   3.241  1.00  0.00    -0.237 OA
ATOM     72  O   UNL     1      -2.262  21.282   2.238  1.00  0.00    -0.744 OA
ENDBRANCH  68  69
ENDBRANCH  47  61
BRANCH  48  73
ATOM     73  C   UNL     1       4.735  13.973  -8.882  1.00  0.00     0.058 A 
ATOM     74  C   UNL     1       6.068  14.182  -9.267  1.00  0.00     0.135 A 
ATOM     75  C   UNL     1       3.994  13.011  -9.585  1.00  0.00     0.135 A 
ATOM     76  F   UNL     1       6.813  15.097  -8.627  1.00  0.00    -0.206 F 
ATOM     77  C   UNL     1       6.649  13.466 -10.307  1.00  0.00     0.059 A 
ATOM     78  C   UNL     1       4.559  12.268 -10.618  1.00  0.00     0.059 A 
ATOM     79  F   UNL     1       2.720  12.762  -9.244  1.00  0.00    -0.206 F 
ATOM     80  C   UNL     1       5.887  12.505 -10.973  1.00  0.00     0.060 A 
BRANCH  80  81
ATOM     81  S   UNL     1       6.677  11.523 -12.269  1.00  0.00     0.124 S 
ATOM     82  O   UNL     1       6.761  12.488 -13.359  1.00  0.00    -0.237 OA
ATOM     83  O   UNL     1       7.943  11.153 -11.644  1.00  0.00    -0.237 OA
ATOM     84  O   UNL     1       5.741  10.421 -12.470  1.00  0.00    -0.744 OA
ENDBRANCH  80  81
ENDBRANCH  48  73
BRANCH  60  85
ATOM     85  C   UNL     1       2.827  20.609  -7.914  1.00  0.00     0.058 A 
ATOM     86  C   UNL     1       1.871  20.787  -8.925  1.00  0.00     0.135 A 
ATOM     87  C   UNL     1       3.780  21.621  -7.720  1.00  0.00     0.135 A 
ATOM     88  F   UNL     1       0.944  19.843  -9.152  1.00  0.00    -0.206 F 
ATOM     89  C   UNL     1       1.867  21.924  -9.725  1.00  0.00     0.059 A 
ATOM     90  C   UNL     1       3.782  22.776  -8.495  1.00  0.00     0.059 A 
ATOM     91  F   UNL     1       4.709  21.500  -6.759  1.00  0.00    -0.206 F 
ATOM     92  C   UNL     1       2.827  22.914  -9.501  1.00  0.00     0.060 A 
BRANCH  92  93
ATOM     93  S   UNL     1       2.787  24.406 -10.517  1.00  0.00     0.124 S 
ATOM     94  O   UNL     1       3.375  23.927 -11.764  1.00  0.00    -0.237 OA
ATOM     95  O   UNL     1       1.361  24.715 -10.566  1.00  0.00    -0.237 OA
ATOM     96  O   UNL     1       3.601  25.352  -9.759  1.00  0.00    -0.744 OA
ENDBRANCH  92  93
ENDBRANCH  60  85
ENDBRANCH  34  35
ENDBRANCH  26  29
ENDBRANCH  24  25
ENDBRANCH   1  24
TORSDOF 16
