REMARK SMILES C[C@](NC(=O)CSCc1cccs1)(C(=O)NCCCCNC(=O)c1ccc(-c2c3nc(c(-c4c(F)cc(S(=O)(=O)[O-])cc4F)c4ccc([nH]4)c(-c4c(F)cc(S(=O)(=O)[O-])cc4F)c4nc(c(-c5c(F)cc(S(=O)(=O)[O-])cc5F)c5ccc2[nH]5)C=C4)C=C3)cc1)C(F)(F)F
REMARK SMILES IDX 17 1 16 2 14 3 15 4 2 6 1 7 90 8 91 9 92 10 93 11 3 12 4 13
REMARK SMILES IDX 5 15 6 16 7 17 8 18 9 19 10 20 13 21 11 22 12 23 18 24 19 25
REMARK SMILES IDX 20 26 21 27 22 28 23 30 24 31 25 32 89 33 26 34 88 35 27 36
REMARK SMILES IDX 28 37 29 38 82 39 30 40 87 41 81 42 83 43 31 44 86 45 80 46
REMARK SMILES IDX 79 47 32 49 66 50 45 51 65 52 46 53 49 54 64 55 84 56 47 57
REMARK SMILES IDX 48 58 63 60 85 61 50 62 33 63 34 64 43 65 35 66 36 67 42 68
REMARK SMILES IDX 44 69 37 70 38 71 39 72 40 73 41 74 67 75 68 76 77 77 69 78
REMARK SMILES IDX 70 79 76 80 78 81 71 82 72 83 73 84 74 85 75 86 51 87 52 88
REMARK SMILES IDX 61 89 53 90 54 91 60 92 62 93 55 94 56 95 57 96 58 97 59 98
REMARK H PARENT 16 5 3 14 21 29 83 48 49 59
REMARK Flexibility Score: inf
ROOT
ATOM      1  C   UNL     1      -0.867  -0.107  -2.013  1.00  0.00     0.116 C 
ENDROOT
BRANCH   1   2
ATOM      2  N   UNL     1      -1.674   0.399  -0.913  1.00  0.00    -0.354 N 
ATOM      3  C   UNL     1      -1.433   1.220   0.145  1.00  0.00     0.254 C 
ATOM      4  O   UNL     1      -2.439   1.523   0.790  1.00  0.00    -0.272 OA
ATOM      5  H   UNL     1      -2.603   0.074  -0.940  1.00  0.00     0.163 HD
BRANCH   3   6
ATOM      6  C   UNL     1      -0.044   1.842   0.411  1.00  0.00     0.212 C 
ATOM      7  C   UNL     1       0.235   2.785  -0.778  1.00  0.00     0.056 C 
BRANCH   6   8
ATOM      8  C   UNL     1      -0.227   2.614   1.742  1.00  0.00     0.420 C 
ATOM      9  F   UNL     1      -0.573   1.788   2.759  1.00  0.00    -0.168 F 
ATOM     10  F   UNL     1       0.910   3.226   2.143  1.00  0.00    -0.168 F 
ATOM     11  F   UNL     1      -1.151   3.598   1.652  1.00  0.00    -0.168 F 
ENDBRANCH   6   8
BRANCH   6  12
ATOM     12  N   UNL     1       0.953   0.715   0.442  1.00  0.00    -0.334 N 
ATOM     13  C   UNL     1       2.295   0.640   0.641  1.00  0.00     0.231 C 
ATOM     14  H   UNL     1       0.540  -0.164   0.284  1.00  0.00     0.164 HD
ATOM     15  O   UNL     1       2.836  -0.420   0.307  1.00  0.00    -0.274 OA
BRANCH  13  16
ATOM     16  C   UNL     1       3.111   1.723   1.318  1.00  0.00     0.169 C 
BRANCH  16  17
ATOM     17  S   UNL     1       3.201   3.285   0.406  1.00  0.00    -0.146 SA
BRANCH  17  18
ATOM     18  C   UNL     1       4.167   2.779  -1.050  1.00  0.00     0.116 C 
BRANCH  18  19
ATOM     19  C   UNL     1       5.587   3.175  -0.823  1.00  0.00     0.014 A 
ATOM     20  C   UNL     1       6.171   4.405  -1.060  1.00  0.00     0.016 A 
ATOM     21  S   UNL     1       6.693   2.077  -0.114  1.00  0.00    -0.148 S 
ATOM     22  C   UNL     1       7.495   4.477  -0.542  1.00  0.00     0.012 A 
ATOM     23  C   UNL     1       7.889   3.288   0.029  1.00  0.00     0.065 A 
ENDBRANCH  18  19
ENDBRANCH  17  18
ENDBRANCH  16  17
ENDBRANCH  13  16
ENDBRANCH   6  12
ENDBRANCH   3   6
ENDBRANCH   1   2
BRANCH   1  24
ATOM     24  C   UNL     1      -1.192  -1.579  -2.275  1.00  0.00     0.023 C 
BRANCH  24  25
ATOM     25  C   UNL     1      -2.671  -1.865  -2.574  1.00  0.00     0.023 C 
BRANCH  25  26
ATOM     26  C   UNL     1      -3.265  -1.045  -3.714  1.00  0.00     0.116 C 
BRANCH  26  27
ATOM     27  N   UNL     1      -2.639  -1.354  -4.988  1.00  0.00    -0.352 N 
ATOM     28  C   UNL     1      -3.228  -1.784  -6.155  1.00  0.00     0.251 C 
ATOM     29  H   UNL     1      -1.662  -1.240  -5.021  1.00  0.00     0.163 HD
ATOM     30  O   UNL     1      -2.534  -2.199  -7.073  1.00  0.00    -0.269 OA
BRANCH  28  31
ATOM     31  C   UNL     1      -4.703  -1.763  -6.277  1.00  0.00     0.039 A 
ATOM     32  C   UNL     1      -5.357  -2.892  -6.774  1.00  0.00     0.014 A 
ATOM     33  C   UNL     1      -5.435  -0.637  -5.888  1.00  0.00     0.014 A 
ATOM     34  C   UNL     1      -6.753  -2.914  -6.823  1.00  0.00     0.010 A 
ATOM     35  C   UNL     1      -6.826  -0.691  -5.867  1.00  0.00     0.010 A 
ATOM     36  C   UNL     1      -7.501  -1.828  -6.336  1.00  0.00    -0.014 A 
BRANCH  36  37
ATOM     37  C   UNL     1      -8.987  -1.867  -6.307  1.00  0.00     0.031 A 
ATOM     38  C   UNL     1      -9.787  -0.882  -7.117  1.00  0.00     0.074 A 
ATOM     39  C   UNL     1      -9.615  -2.751  -5.505  1.00  0.00     0.049 A 
ATOM     40  N   UNL     1     -11.083  -0.718  -7.171  1.00  0.00    -0.248 NA
ATOM     41  C   UNL     1      -9.028   0.058  -7.957  1.00  0.00     0.031 C 
ATOM     42  C   UNL     1      -8.951  -3.723  -4.634  1.00  0.00     0.029 A 
ATOM     43  N   UNL     1     -10.953  -2.967  -5.282  1.00  0.00    -0.354 N 
ATOM     44  C   UNL     1     -11.295   0.346  -8.041  1.00  0.00     0.074 A 
ATOM     45  C   UNL     1      -9.992   0.827  -8.444  1.00  0.00     0.031 C 
ATOM     46  C   UNL     1      -9.882  -4.443  -3.988  1.00  0.00     0.029 A 
ATOM     47  C   UNL     1     -11.207  -3.959  -4.364  1.00  0.00     0.049 A 
ATOM     48  H   UNL     1     -11.663  -2.460  -5.737  1.00  0.00     0.167 HD
ATOM     49  C   UNL     1     -12.469   0.858  -8.484  1.00  0.00     0.037 A 
ATOM     50  C   UNL     1     -12.373  -4.420  -3.871  1.00  0.00     0.037 A 
ATOM     51  C   UNL     1     -13.763   0.364  -8.091  1.00  0.00     0.049 A 
ATOM     52  C   UNL     1     -13.664  -3.828  -4.370  1.00  0.00     0.074 A 
ATOM     53  C   UNL     1     -15.010   0.783  -8.520  1.00  0.00     0.029 A 
ATOM     54  N   UNL     1     -13.979  -0.655  -7.174  1.00  0.00    -0.354 N 
ATOM     55  N   UNL     1     -13.847  -2.864  -5.241  1.00  0.00    -0.248 NA
ATOM     56  C   UNL     1     -14.908  -4.389  -3.826  1.00  0.00     0.031 C 
ATOM     57  C   UNL     1     -15.980   0.052  -7.827  1.00  0.00     0.029 A 
ATOM     58  C   UNL     1     -15.338  -0.864  -7.009  1.00  0.00     0.049 A 
ATOM     59  H   UNL     1     -13.270  -1.157  -6.710  1.00  0.00     0.167 HD
ATOM     60  C   UNL     1     -15.224  -2.723  -5.370  1.00  0.00     0.074 A 
ATOM     61  C   UNL     1     -15.827  -3.710  -4.498  1.00  0.00     0.031 C 
ATOM     62  C   UNL     1     -15.926  -1.856  -6.142  1.00  0.00     0.037 A 
BRANCH  49  63
ATOM     63  C   UNL     1     -12.406   2.010  -9.451  1.00  0.00     0.058 A 
ATOM     64  C   UNL     1     -11.940   1.844 -10.766  1.00  0.00     0.135 A 
ATOM     65  C   UNL     1     -12.851   3.288  -9.074  1.00  0.00     0.135 A 
ATOM     66  F   UNL     1     -11.488   0.648 -11.178  1.00  0.00    -0.206 F 
ATOM     67  C   UNL     1     -11.886   2.908 -11.660  1.00  0.00     0.059 A 
ATOM     68  C   UNL     1     -12.836   4.360  -9.962  1.00  0.00     0.059 A 
ATOM     69  F   UNL     1     -13.308   3.505  -7.831  1.00  0.00    -0.206 F 
ATOM     70  C   UNL     1     -12.338   4.163 -11.249  1.00  0.00     0.060 A 
BRANCH  70  71
ATOM     71  S   UNL     1     -12.264   5.530 -12.425  1.00  0.00     0.124 S 
ATOM     72  O   UNL     1     -10.828   5.781 -12.489  1.00  0.00    -0.237 OA
ATOM     73  O   UNL     1     -12.859   4.944 -13.621  1.00  0.00    -0.237 OA
ATOM     74  O   UNL     1     -13.055   6.575 -11.782  1.00  0.00    -0.744 OA
ENDBRANCH  70  71
ENDBRANCH  49  63
BRANCH  50  75
ATOM     75  C   UNL     1     -12.373  -5.510  -2.857  1.00  0.00     0.058 A 
ATOM     76  C   UNL     1     -12.839  -6.794  -3.174  1.00  0.00     0.135 A 
ATOM     77  C   UNL     1     -11.895  -5.292  -1.556  1.00  0.00     0.135 A 
ATOM     78  F   UNL     1     -13.312  -7.052  -4.403  1.00  0.00    -0.206 F 
ATOM     79  C   UNL     1     -12.850  -7.819  -2.233  1.00  0.00     0.059 A 
ATOM     80  C   UNL     1     -11.868  -6.308  -0.606  1.00  0.00     0.059 A 
ATOM     81  F   UNL     1     -11.421  -4.086  -1.206  1.00  0.00    -0.206 F 
ATOM     82  C   UNL     1     -12.358  -7.567  -0.951  1.00  0.00     0.060 A 
BRANCH  82  83
ATOM     83  S   UNL     1     -12.332  -8.917   0.247  1.00  0.00     0.124 S 
ATOM     84  O   UNL     1     -13.749  -9.060   0.561  1.00  0.00    -0.237 OA
ATOM     85  O   UNL     1     -11.736 -10.001  -0.527  1.00  0.00    -0.237 OA
ATOM     86  O   UNL     1     -11.496  -8.393   1.324  1.00  0.00    -0.744 OA
ENDBRANCH  82  83
ENDBRANCH  50  75
BRANCH  62  87
ATOM     87  C   UNL     1     -17.427  -1.956  -6.111  1.00  0.00     0.058 A 
ATOM     88  C   UNL     1     -18.174  -1.545  -4.996  1.00  0.00     0.135 A 
ATOM     89  C   UNL     1     -18.130  -2.420  -7.235  1.00  0.00     0.135 A 
ATOM     90  F   UNL     1     -17.553  -1.100  -3.893  1.00  0.00    -0.206 F 
ATOM     91  C   UNL     1     -19.564  -1.613  -4.988  1.00  0.00     0.059 A 
ATOM     92  C   UNL     1     -19.520  -2.467  -7.261  1.00  0.00     0.059 A 
ATOM     93  F   UNL     1     -17.465  -2.816  -8.333  1.00  0.00    -0.206 F 
ATOM     94  C   UNL     1     -20.228  -2.072  -6.127  1.00  0.00     0.060 A 
BRANCH  94  95
ATOM     95  S   UNL     1     -22.033  -2.121  -6.115  1.00  0.00     0.124 S 
ATOM     96  O   UNL     1     -22.291  -3.250  -5.228  1.00  0.00    -0.237 OA
ATOM     97  O   UNL     1     -22.377  -0.805  -5.584  1.00  0.00    -0.237 OA
ATOM     98  O   UNL     1     -22.377  -2.333  -7.518  1.00  0.00    -0.744 OA
ENDBRANCH  94  95
ENDBRANCH  62  87
ENDBRANCH  36  37
ENDBRANCH  28  31
ENDBRANCH  26  27
ENDBRANCH  25  26
ENDBRANCH  24  25
ENDBRANCH   1  24
TORSDOF 20
