REMARK SMILES O=C(NCCCCNC(=O)c1ccc(-c2c3nc(c(-c4c(F)cc(S(=O)(=O)[O-])cc4F)c4ccc([nH]4)c(-c4c(F)cc(S(=O)(=O)[O-])cc4F)c4nc(c(-c5c(F)cc(S(=O)(=O)[O-])cc5F)c5ccc2[nH]5)C=C4)C=C3)cc1)c1ccc(/C=C/c2ccnc(-c3cccc([N+](=O)[O-])c3)[n+]2[O-])cc1
REMARK SMILES IDX 5 1 4 2 3 3 1 4 2 5 77 7 78 8 100 9 79 10 99 11 80 12 81 13
REMARK SMILES IDX 82 14 83 15 84 16 97 17 85 18 87 19 98 20 86 21 88 22 89 23
REMARK SMILES IDX 96 24 90 25 92 26 91 27 93 28 94 29 95 30 6 31 7 32 8 33
REMARK SMILES IDX 9 34 10 36 11 37 12 38 76 39 13 40 75 41 14 42 15 43 16 44
REMARK SMILES IDX 69 45 17 46 74 47 68 48 70 49 18 50 73 51 67 52 66 53 19 55
REMARK SMILES IDX 53 56 32 57 52 58 33 59 36 60 51 61 71 62 34 63 35 64 50 66
REMARK SMILES IDX 72 67 37 68 20 69 21 70 30 71 22 72 23 73 29 74 31 75 24 76
REMARK SMILES IDX 25 77 26 78 27 79 28 80 54 81 55 82 64 83 56 84 57 85 63 86
REMARK SMILES IDX 65 87 58 88 59 89 60 90 61 91 62 92 38 93 39 94 48 95 40 96
REMARK SMILES IDX 41 97 47 98 49 99 42 100 43 101 44 102 45 103 46 104
REMARK H PARENT 3 6 8 35 70 54 36 65
REMARK Flexibility Score: inf
ROOT
ATOM      1  C   UNL     1       4.871  -0.895  -2.306  1.00  0.00     0.023 C 
ENDROOT
BRANCH   1   2
ATOM      2  C   UNL     1       4.488   0.070  -1.188  1.00  0.00     0.116 C 
BRANCH   2   3
ATOM      3  N   UNL     1       3.048   0.196  -1.020  1.00  0.00    -0.352 N 
ATOM      4  O   UNL     1       1.069   0.004   0.071  1.00  0.00    -0.269 OA
ATOM      5  C   UNL     1       2.294  -0.044   0.103  1.00  0.00     0.251 C 
ATOM      6  H   UNL     1       2.549   0.492  -1.815  1.00  0.00     0.163 HD
BRANCH   5   7
ATOM      7  C   UNL     1       2.979  -0.389   1.361  1.00  0.00     0.039 A 
ATOM      8  C   UNL     1       3.891   0.499   1.935  1.00  0.00     0.014 A 
ATOM      9  C   UNL     1       2.731  -1.629   1.947  1.00  0.00     0.014 A 
ATOM     10  C   UNL     1       4.626   0.104   3.054  1.00  0.00     0.009 A 
ATOM     11  C   UNL     1       3.469  -2.016   3.069  1.00  0.00     0.009 A 
ATOM     12  C   UNL     1       4.450  -1.170   3.614  1.00  0.00    -0.025 A 
BRANCH  12  13
ATOM     13  C   UNL     1       5.237  -1.659   4.759  1.00  0.00     0.012 C 
ATOM     14  C   UNL     1       6.395  -1.128   5.184  1.00  0.00     0.053 C 
BRANCH  14  15
ATOM     15  C   UNL     1       7.138  -1.656   6.339  1.00  0.00     0.134 A 
ATOM     16  C   UNL     1       7.407  -0.795   7.403  1.00  0.00     0.100 A 
ATOM     17  N   UNL     1       7.587  -2.987   6.367  1.00  0.00    -0.228 N 
ATOM     18  C   UNL     1       8.087  -1.300   8.484  1.00  0.00     0.259 A 
ATOM     19  C   UNL     1       8.291  -3.409   7.498  1.00  0.00     0.333 A 
ATOM     20  O   UNL     1       7.364  -3.783   5.388  1.00  0.00    -0.710 OA
ATOM     21  N   UNL     1       8.519  -2.570   8.559  1.00  0.00    -0.049 NA
BRANCH  19  22
ATOM     22  C   UNL     1       8.848  -4.761   7.590  1.00  0.00     0.076 A 
ATOM     23  C   UNL     1       8.514  -5.600   8.670  1.00  0.00     0.017 A 
ATOM     24  C   UNL     1       9.759  -5.239   6.633  1.00  0.00     0.102 A 
ATOM     25  C   UNL     1       9.054  -6.885   8.784  1.00  0.00     0.008 A 
ATOM     26  C   UNL     1      10.313  -6.521   6.760  1.00  0.00     0.270 A 
ATOM     27  C   UNL     1       9.957  -7.350   7.831  1.00  0.00     0.085 A 
BRANCH  26  28
ATOM     28  N   UNL     1      11.299  -6.987   5.778  1.00  0.00     0.062 N 
ATOM     29  O   UNL     1      11.681  -8.164   5.861  1.00  0.00    -0.258 OA
ATOM     30  O   UNL     1      11.714  -6.171   4.943  1.00  0.00    -0.258 OA
ENDBRANCH  26  28
ENDBRANCH  19  22
ENDBRANCH  14  15
ENDBRANCH  12  13
ENDBRANCH   5   7
ENDBRANCH   2   3
ENDBRANCH   1   2
BRANCH   1  31
ATOM     31  C   UNL     1       4.414  -0.490  -3.707  1.00  0.00     0.023 C 
BRANCH  31  32
ATOM     32  C   UNL     1       4.788   0.923  -4.141  1.00  0.00     0.116 C 
BRANCH  32  33
ATOM     33  N   UNL     1       6.223   1.171  -4.127  1.00  0.00    -0.352 N 
ATOM     34  C   UNL     1       7.022   1.710  -5.108  1.00  0.00     0.251 C 
ATOM     35  H   UNL     1       6.687   0.916  -3.297  1.00  0.00     0.163 HD
ATOM     36  O   UNL     1       8.239   1.751  -4.955  1.00  0.00    -0.269 OA
BRANCH  34  37
ATOM     37  C   UNL     1       6.414   2.201  -6.364  1.00  0.00     0.039 A 
ATOM     38  C   UNL     1       6.950   1.779  -7.583  1.00  0.00     0.014 A 
ATOM     39  C   UNL     1       5.298   3.042  -6.339  1.00  0.00     0.014 A 
ATOM     40  C   UNL     1       6.313   2.126  -8.777  1.00  0.00     0.010 A 
ATOM     41  C   UNL     1       4.626   3.331  -7.524  1.00  0.00     0.010 A 
ATOM     42  C   UNL     1       5.118   2.865  -8.753  1.00  0.00    -0.014 A 
BRANCH  42  43
ATOM     43  C   UNL     1       4.348   3.133  -9.995  1.00  0.00     0.031 A 
ATOM     44  C   UNL     1       4.154   4.544 -10.476  1.00  0.00     0.074 A 
ATOM     45  C   UNL     1       3.750   2.112 -10.641  1.00  0.00     0.049 A 
ATOM     46  N   UNL     1       3.425   4.985 -11.468  1.00  0.00    -0.248 NA
ATOM     47  C   UNL     1       4.849   5.601  -9.724  1.00  0.00     0.031 C 
ATOM     48  C   UNL     1       3.820   0.702 -10.246  1.00  0.00     0.029 A 
ATOM     49  N   UNL     1       2.948   2.103 -11.755  1.00  0.00    -0.354 N 
ATOM     50  C   UNL     1       3.555   6.368 -11.449  1.00  0.00     0.074 A 
ATOM     51  C   UNL     1       4.402   6.696 -10.322  1.00  0.00     0.031 C 
ATOM     52  C   UNL     1       3.104  -0.034 -11.112  1.00  0.00     0.029 A 
ATOM     53  C   UNL     1       2.495   0.851 -12.100  1.00  0.00     0.049 A 
ATOM     54  H   UNL     1       2.720   2.916 -12.260  1.00  0.00     0.167 HD
ATOM     55  C   UNL     1       3.032   7.280 -12.303  1.00  0.00     0.037 A 
ATOM     56  C   UNL     1       1.671   0.460 -13.091  1.00  0.00     0.037 A 
ATOM     57  C   UNL     1       2.217   6.948 -13.442  1.00  0.00     0.049 A 
ATOM     58  C   UNL     1       1.114   1.489 -14.035  1.00  0.00     0.074 A 
ATOM     59  C   UNL     1       1.695   7.797 -14.403  1.00  0.00     0.029 A 
ATOM     60  N   UNL     1       1.808   5.666 -13.776  1.00  0.00    -0.354 N 
ATOM     61  N   UNL     1       1.293   2.788 -14.034  1.00  0.00    -0.248 NA
ATOM     62  C   UNL     1       0.244   1.001 -15.115  1.00  0.00     0.031 C 
ATOM     63  C   UNL     1       0.945   7.031 -15.302  1.00  0.00     0.029 A 
ATOM     64  C   UNL     1       1.028   5.701 -14.920  1.00  0.00     0.049 A 
ATOM     65  H   UNL     1       2.038   4.851 -13.274  1.00  0.00     0.167 HD
ATOM     66  C   UNL     1       0.577   3.271 -15.123  1.00  0.00     0.074 A 
ATOM     67  C   UNL     1      -0.031   2.123 -15.766  1.00  0.00     0.031 C 
ATOM     68  C   UNL     1       0.436   4.549 -15.552  1.00  0.00     0.037 A 
BRANCH  55  69
ATOM     69  C   UNL     1       3.333   8.728 -12.039  1.00  0.00     0.058 A 
ATOM     70  C   UNL     1       4.609   9.266 -12.271  1.00  0.00     0.135 A 
ATOM     71  C   UNL     1       2.331   9.594 -11.573  1.00  0.00     0.135 A 
ATOM     72  F   UNL     1       5.607   8.478 -12.702  1.00  0.00    -0.206 F 
ATOM     73  C   UNL     1       4.889  10.605 -12.022  1.00  0.00     0.059 A 
ATOM     74  C   UNL     1       2.583  10.943 -11.339  1.00  0.00     0.059 A 
ATOM     75  F   UNL     1       1.094   9.131 -11.334  1.00  0.00    -0.206 F 
ATOM     76  C   UNL     1       3.870  11.435 -11.551  1.00  0.00     0.060 A 
BRANCH  76  77
ATOM     77  S   UNL     1       4.249  13.171 -11.227  1.00  0.00     0.124 S 
ATOM     78  O   UNL     1       4.976  13.077  -9.965  1.00  0.00    -0.237 OA
ATOM     79  O   UNL     1       5.048  13.542 -12.391  1.00  0.00    -0.237 OA
ATOM     80  O   UNL     1       2.933  13.796 -11.149  1.00  0.00    -0.744 OA
ENDBRANCH  76  77
ENDBRANCH  55  69
BRANCH  56  81
ATOM     81  C   UNL     1       1.339  -0.980 -13.254  1.00  0.00     0.058 A 
ATOM     82  C   UNL     1       1.887  -1.728 -14.306  1.00  0.00     0.135 A 
ATOM     83  C   UNL     1       0.487  -1.638 -12.355  1.00  0.00     0.135 A 
ATOM     84  F   UNL     1       2.702  -1.139 -15.194  1.00  0.00    -0.206 F 
ATOM     85  C   UNL     1       1.593  -3.077 -14.469  1.00  0.00     0.059 A 
ATOM     86  C   UNL     1       0.194  -2.992 -12.485  1.00  0.00     0.059 A 
ATOM     87  F   UNL     1      -0.049  -0.968 -11.323  1.00  0.00    -0.206 F 
ATOM     88  C   UNL     1       0.746  -3.701 -13.552  1.00  0.00     0.060 A 
BRANCH  88  89
ATOM     89  S   UNL     1       0.413  -5.467 -13.740  1.00  0.00     0.124 S 
ATOM     90  O   UNL     1      -0.542  -5.469 -14.842  1.00  0.00    -0.237 OA
ATOM     91  O   UNL     1       1.738  -6.001 -14.041  1.00  0.00    -0.237 OA
ATOM     92  O   UNL     1      -0.124  -5.845 -12.436  1.00  0.00    -0.744 OA
ENDBRANCH  88  89
ENDBRANCH  56  81
BRANCH  68  93
ATOM     93  C   UNL     1      -0.386   4.777 -16.788  1.00  0.00     0.058 A 
ATOM     94  C   UNL     1      -1.788   4.719 -16.758  1.00  0.00     0.135 A 
ATOM     95  C   UNL     1       0.233   5.113 -18.002  1.00  0.00     0.135 A 
ATOM     96  F   UNL     1      -2.426   4.394 -15.623  1.00  0.00    -0.206 F 
ATOM     97  C   UNL     1      -2.548   4.975 -17.894  1.00  0.00     0.059 A 
ATOM     98  C   UNL     1      -0.508   5.393 -19.145  1.00  0.00     0.059 A 
ATOM     99  F   UNL     1       1.571   5.188 -18.080  1.00  0.00    -0.206 F 
ATOM    100  C   UNL     1      -1.899   5.313 -19.083  1.00  0.00     0.060 A 
BRANCH 100 101
ATOM    101  S   UNL     1      -2.896   5.688 -20.541  1.00  0.00     0.124 S 
ATOM    102  O   UNL     1      -3.293   4.353 -20.977  1.00  0.00    -0.237 OA
ATOM    103  O   UNL     1      -3.963   6.518 -19.988  1.00  0.00    -0.237 OA
ATOM    104  O   UNL     1      -1.962   6.385 -21.420  1.00  0.00    -0.744 OA
ENDBRANCH 100 101
ENDBRANCH  68  93
ENDBRANCH  42  43
ENDBRANCH  34  37
ENDBRANCH  32  33
ENDBRANCH  31  32
ENDBRANCH   1  31
TORSDOF 18
