REMARK SMILES CC[C@H](C(=O)NCCCCNC(=O)c1ccc(-c2c3nc(c(-c4c(F)cc(S(=O)(=O)[O-])cc4F)c4ccc([nH]4)c(-c4c(F)cc(S(=O)(=O)[O-])cc4F)c4nc(c(-c5c(F)cc(S(=O)(=O)[O-])cc5F)c5ccc2[nH]5)C=C4)C=C3)cc1)N(C)c1cc(C)ccc1[N+](=O)[O-]
REMARK SMILES IDX 8 1 7 2 6 3 4 4 5 5 3 7 2 8 1 9 80 10 81 11 82 12 83 13
REMARK SMILES IDX 88 14 84 15 87 16 85 17 86 18 89 19 90 20 91 21 9 22 10 23
REMARK SMILES IDX 11 24 12 25 13 27 14 28 15 29 79 30 16 31 78 32 17 33 18 34
REMARK SMILES IDX 19 35 72 36 20 37 77 38 71 39 73 40 21 41 76 42 70 43 69 44
REMARK SMILES IDX 22 46 56 47 35 48 55 49 36 50 39 51 54 52 74 53 37 54 38 55
REMARK SMILES IDX 53 57 75 58 40 59 23 60 24 61 33 62 25 63 26 64 32 65 34 66
REMARK SMILES IDX 27 67 28 68 29 69 30 70 31 71 57 72 58 73 67 74 59 75 60 76
REMARK SMILES IDX 66 77 68 78 61 79 62 80 63 81 64 82 65 83 41 84 42 85 51 86
REMARK SMILES IDX 43 87 44 88 50 89 52 90 45 91 46 92 47 93 48 94 49 95
REMARK H PARENT 6 6 11 26 73 45 39 56
REMARK Flexibility Score: inf
ROOT
ATOM      1  C   UNL     1       2.802  -1.007   1.711  1.00  0.00     0.023 C 
ENDROOT
BRANCH   1   2
ATOM      2  C   UNL     1       1.763  -1.236   0.617  1.00  0.00     0.116 C 
BRANCH   2   3
ATOM      3  N   UNL     1       1.412  -0.007  -0.049  1.00  0.00    -0.354 N 
ATOM      4  C   UNL     1       1.072   0.243  -1.335  1.00  0.00     0.242 C 
ATOM      5  O   UNL     1       1.078   1.440  -1.655  1.00  0.00    -0.273 OA
ATOM      6  H   UNL     1       1.421   0.788   0.532  1.00  0.00     0.163 HD
BRANCH   4   7
ATOM      7  C   UNL     1       0.837  -0.861  -2.400  1.00  0.00     0.171 C 
BRANCH   7   8
ATOM      8  C   UNL     1       0.258  -2.258  -2.103  1.00  0.00     0.032 C 
ATOM      9  C   UNL     1      -0.991  -2.388  -1.251  1.00  0.00     0.006 C 
ENDBRANCH   7   8
BRANCH   7  10
ATOM     10  N   UNL     1       0.235  -0.276  -3.643  1.00  0.00    -0.357 N 
ATOM     11  C   UNL     1       1.181   0.085  -4.701  1.00  0.00     0.144 C 
BRANCH  10  12
ATOM     12  C   UNL     1      -1.119  -0.141  -3.917  1.00  0.00     0.116 A 
ATOM     13  C   UNL     1      -1.597  -0.680  -5.135  1.00  0.00     0.036 A 
ATOM     14  C   UNL     1      -2.099   0.509  -3.143  1.00  0.00     0.292 A 
ATOM     15  C   UNL     1      -2.939  -0.589  -5.555  1.00  0.00    -0.049 A 
ATOM     16  C   UNL     1      -3.456   0.579  -3.524  1.00  0.00     0.088 A 
ATOM     17  C   UNL     1      -3.340  -1.147  -6.889  1.00  0.00     0.044 C 
ATOM     18  C   UNL     1      -3.873   0.028  -4.728  1.00  0.00     0.010 A 
BRANCH  14  19
ATOM     19  N   UNL     1      -1.796   1.266  -1.946  1.00  0.00     0.064 N 
ATOM     20  O   UNL     1      -1.756   2.499  -2.062  1.00  0.00    -0.258 OA
ATOM     21  O   UNL     1      -1.773   0.640  -0.875  1.00  0.00    -0.258 OA
ENDBRANCH  14  19
ENDBRANCH  10  12
ENDBRANCH   7  10
ENDBRANCH   4   7
ENDBRANCH   2   3
ENDBRANCH   1   2
BRANCH   1  22
ATOM     22  C   UNL     1       2.335  -0.124   2.872  1.00  0.00     0.023 C 
BRANCH  22  23
ATOM     23  C   UNL     1       1.048  -0.577   3.553  1.00  0.00     0.116 C 
BRANCH  23  24
ATOM     24  N   UNL     1       1.154  -1.924   4.093  1.00  0.00    -0.352 N 
ATOM     25  C   UNL     1       1.060  -2.353   5.396  1.00  0.00     0.251 C 
ATOM     26  H   UNL     1       1.317  -2.632   3.429  1.00  0.00     0.163 HD
ATOM     27  O   UNL     1       1.375  -3.500   5.686  1.00  0.00    -0.269 OA
BRANCH  25  28
ATOM     28  C   UNL     1       0.593  -1.417   6.442  1.00  0.00     0.039 A 
ATOM     29  C   UNL     1       1.280  -1.357   7.657  1.00  0.00     0.014 A 
ATOM     30  C   UNL     1      -0.519  -0.601   6.221  1.00  0.00     0.014 A 
ATOM     31  C   UNL     1       0.882  -0.435   8.628  1.00  0.00     0.010 A 
ATOM     32  C   UNL     1      -0.856   0.377   7.152  1.00  0.00     0.010 A 
ATOM     33  C   UNL     1      -0.170   0.460   8.373  1.00  0.00    -0.014 A 
BRANCH  33  34
ATOM     34  C   UNL     1      -0.593   1.466   9.382  1.00  0.00     0.031 A 
ATOM     35  C   UNL     1      -1.984   1.411   9.958  1.00  0.00     0.074 A 
ATOM     36  C   UNL     1       0.251   2.454   9.742  1.00  0.00     0.049 A 
ATOM     37  N   UNL     1      -2.561   2.225  10.805  1.00  0.00    -0.248 NA
ATOM     38  C   UNL     1      -2.851   0.313   9.499  1.00  0.00     0.031 C 
ATOM     39  C   UNL     1       1.605   2.645   9.218  1.00  0.00     0.029 A 
ATOM     40  N   UNL     1       0.091   3.490  10.628  1.00  0.00    -0.354 N 
ATOM     41  C   UNL     1      -3.857   1.746  10.966  1.00  0.00     0.074 A 
ATOM     42  C   UNL     1      -4.001   0.611  10.082  1.00  0.00     0.031 C 
ATOM     43  C   UNL     1       2.161   3.713   9.813  1.00  0.00     0.029 A 
ATOM     44  C   UNL     1       1.193   4.307  10.729  1.00  0.00     0.049 A 
ATOM     45  H   UNL     1      -0.736   3.635  11.143  1.00  0.00     0.167 HD
ATOM     46  C   UNL     1      -4.829   2.192  11.797  1.00  0.00     0.037 A 
ATOM     47  C   UNL     1       1.397   5.412  11.474  1.00  0.00     0.037 A 
ATOM     48  C   UNL     1      -4.670   3.308  12.693  1.00  0.00     0.049 A 
ATOM     49  C   UNL     1       0.301   5.888  12.391  1.00  0.00     0.074 A 
ATOM     50  C   UNL     1      -5.576   3.810  13.611  1.00  0.00     0.029 A 
ATOM     51  N   UNL     1      -3.532   4.096  12.783  1.00  0.00    -0.354 N 
ATOM     52  N   UNL     1      -0.897   5.386  12.577  1.00  0.00    -0.248 NA
ATOM     53  C   UNL     1       0.590   7.073  13.209  1.00  0.00     0.031 C 
ATOM     54  C   UNL     1      -5.003   4.930  14.223  1.00  0.00     0.029 A 
ATOM     55  C   UNL     1      -3.717   5.090  13.730  1.00  0.00     0.049 A 
ATOM     56  H   UNL     1      -2.712   3.967  12.253  1.00  0.00     0.167 HD
ATOM     57  C   UNL     1      -1.492   6.173  13.558  1.00  0.00     0.074 A 
ATOM     58  C   UNL     1      -0.515   7.175  13.935  1.00  0.00     0.031 C 
ATOM     59  C   UNL     1      -2.731   6.074  14.101  1.00  0.00     0.037 A 
BRANCH  46  60
ATOM     60  C   UNL     1      -6.148   1.466  11.780  1.00  0.00     0.058 A 
ATOM     61  C   UNL     1      -6.275   0.152  12.262  1.00  0.00     0.135 A 
ATOM     62  C   UNL     1      -7.307   2.099  11.303  1.00  0.00     0.135 A 
ATOM     63  F   UNL     1      -5.197  -0.510  12.715  1.00  0.00    -0.206 F 
ATOM     64  C   UNL     1      -7.493  -0.518  12.241  1.00  0.00     0.059 A 
ATOM     65  C   UNL     1      -8.544   1.459  11.303  1.00  0.00     0.059 A 
ATOM     66  F   UNL     1      -7.247   3.353  10.830  1.00  0.00    -0.206 F 
ATOM     67  C   UNL     1      -8.623   0.144  11.760  1.00  0.00     0.060 A 
BRANCH  67  68
ATOM     68  S   UNL     1     -10.198  -0.738  11.749  1.00  0.00     0.124 S 
ATOM     69  O   UNL     1      -9.986  -1.698  10.669  1.00  0.00    -0.237 OA
ATOM     70  O   UNL     1     -10.250  -1.300  13.094  1.00  0.00    -0.237 OA
ATOM     71  O   UNL     1     -11.175   0.311  11.472  1.00  0.00    -0.744 OA
ENDBRANCH  67  68
ENDBRANCH  46  60
BRANCH  47  72
ATOM     72  C   UNL     1       2.701   6.127  11.409  1.00  0.00     0.058 A 
ATOM     73  C   UNL     1       3.583   6.121  12.500  1.00  0.00     0.135 A 
ATOM     74  C   UNL     1       3.092   6.829  10.259  1.00  0.00     0.135 A 
ATOM     75  F   UNL     1       3.254   5.469  13.626  1.00  0.00    -0.206 F 
ATOM     76  C   UNL     1       4.794   6.805  12.464  1.00  0.00     0.059 A 
ATOM     77  C   UNL     1       4.312   7.497  10.188  1.00  0.00     0.059 A 
ATOM     78  F   UNL     1       2.294   6.852   9.180  1.00  0.00    -0.206 F 
ATOM     79  C   UNL     1       5.151   7.490  11.301  1.00  0.00     0.060 A 
BRANCH  79  80
ATOM     80  S   UNL     1       6.742   8.341  11.252  1.00  0.00     0.124 S 
ATOM     81  O   UNL     1       6.497   9.474  12.137  1.00  0.00    -0.237 OA
ATOM     82  O   UNL     1       7.652   7.319  11.760  1.00  0.00    -0.237 OA
ATOM     83  O   UNL     1       6.905   8.668   9.839  1.00  0.00    -0.744 OA
ENDBRANCH  79  80
ENDBRANCH  47  72
BRANCH  59  84
ATOM     84  C   UNL     1      -3.084   7.042  15.199  1.00  0.00     0.058 A 
ATOM     85  C   UNL     1      -3.293   8.407  14.951  1.00  0.00     0.135 A 
ATOM     86  C   UNL     1      -3.246   6.585  16.518  1.00  0.00     0.135 A 
ATOM     87  F   UNL     1      -3.149   8.899  13.710  1.00  0.00    -0.206 F 
ATOM     88  C   UNL     1      -3.610   9.293  15.976  1.00  0.00     0.059 A 
ATOM     89  C   UNL     1      -3.595   7.446  17.553  1.00  0.00     0.059 A 
ATOM     90  F   UNL     1      -3.073   5.286  16.811  1.00  0.00    -0.206 F 
ATOM     91  C   UNL     1      -3.757   8.802  17.275  1.00  0.00     0.060 A 
BRANCH  91  92
ATOM     92  S   UNL     1      -4.176   9.959  18.596  1.00  0.00     0.124 S 
ATOM     93  O   UNL     1      -2.915  10.670  18.775  1.00  0.00    -0.237 OA
ATOM     94  O   UNL     1      -5.261  10.733  18.001  1.00  0.00    -0.237 OA
ATOM     95  O   UNL     1      -4.568   9.088  19.700  1.00  0.00    -0.744 OA
ENDBRANCH  91  92
ENDBRANCH  59  84
ENDBRANCH  33  34
ENDBRANCH  25  28
ENDBRANCH  23  24
ENDBRANCH  22  23
ENDBRANCH   1  22
TORSDOF 18
