REMARK SMILES CCN(CC(C)(C)O)C(=O)[C@H]1CC=CC[C@H]1C(=O)NCCCCNC(=O)c1ccc(-c2c3nc(c(-c4c(F)cc(S(=O)(=O)[O-])cc4F)c4ccc([nH]4)c(-c4c(F)cc(S(=O)(=O)[O-])cc4F)c4nc(c(-c5c(F)cc(S(=O)(=O)[O-])cc5F)c5ccc2[nH]5)C=C4)C=C3)cc1
REMARK SMILES IDX 20 1 19 2 17 3 18 4 16 6 11 7 12 8 13 9 15 10 14 11 9 12
REMARK SMILES IDX 10 13 3 14 2 15 1 16 4 17 5 18 6 19 7 20 8 21 21 23 22 24
REMARK SMILES IDX 23 25 24 26 25 27 26 29 27 30 28 31 92 32 29 33 91 34 30 35
REMARK SMILES IDX 31 36 32 37 85 38 33 39 90 40 84 41 86 42 34 43 89 44 83 45
REMARK SMILES IDX 82 46 35 48 69 49 48 50 68 51 49 52 52 53 67 54 87 55 50 56
REMARK SMILES IDX 51 57 66 59 88 60 53 61 36 62 37 63 46 64 38 65 39 66 45 67
REMARK SMILES IDX 47 68 40 69 41 70 42 71 43 72 44 73 70 74 71 75 80 76 72 77
REMARK SMILES IDX 73 78 79 79 81 80 74 81 75 82 76 83 77 84 78 85 54 86 55 87
REMARK SMILES IDX 64 88 56 89 57 90 63 91 65 92 58 93 59 94 60 95 61 96 62 97
REMARK H PARENT 19 5 8 22 24 28 86 47 52 58
REMARK Flexibility Score: inf
ROOT
ATOM      1  C   UNL     1       1.811   3.003  -1.598  1.00  0.00     0.116 C 
ENDROOT
BRANCH   1   2
ATOM      2  N   UNL     1       2.414   3.488  -2.828  1.00  0.00    -0.356 N 
ATOM      3  C   UNL     1       2.671   2.880  -4.019  1.00  0.00     0.224 C 
ATOM      4  O   UNL     1       2.813   3.652  -4.980  1.00  0.00    -0.275 OA
ATOM      5  H   UNL     1       2.687   4.433  -2.794  1.00  0.00     0.163 HD
BRANCH   3   6
ATOM      6  C   UNL     1       2.968   1.384  -4.236  1.00  0.00     0.095 C 
ATOM      7  C   UNL     1       2.857   0.363  -3.110  1.00  0.00     0.095 C 
ATOM      8  C   UNL     1       3.854  -0.776  -3.477  1.00  0.00     0.041 C 
ATOM      9  C   UNL     1       3.521  -1.385  -4.811  1.00  0.00    -0.030 C 
ATOM     10  C   UNL     1       2.454   0.752  -5.555  1.00  0.00     0.041 C 
ATOM     11  C   UNL     1       2.849  -0.694  -5.743  1.00  0.00    -0.030 C 
BRANCH   7  12
ATOM     12  C   UNL     1       1.448  -0.268  -2.857  1.00  0.00     0.226 C 
ATOM     13  O   UNL     1       1.333  -1.481  -2.653  1.00  0.00    -0.275 OA
BRANCH  12  14
ATOM     14  N   UNL     1       0.335   0.572  -2.671  1.00  0.00    -0.340 N 
BRANCH  14  15
ATOM     15  C   UNL     1      -0.413   0.336  -1.404  1.00  0.00     0.116 C 
ATOM     16  C   UNL     1       0.333  -0.261  -0.205  1.00  0.00     0.027 C 
ENDBRANCH  14  15
BRANCH  14  17
ATOM     17  C   UNL     1      -0.595   0.747  -3.836  1.00  0.00     0.154 C 
BRANCH  17  18
ATOM     18  C   UNL     1      -0.964   2.166  -4.435  1.00  0.00     0.077 C 
ATOM     19  C   UNL     1      -0.291   2.510  -5.774  1.00  0.00     0.043 C 
ATOM     20  C   UNL     1      -2.471   2.186  -4.751  1.00  0.00     0.043 C 
BRANCH  18  21
ATOM     21  O   UNL     1      -0.731   3.216  -3.501  1.00  0.00    -0.389 OA
ATOM     22  H   UNL     1       0.211   3.242  -3.272  1.00  0.00     0.211 HD
ENDBRANCH  18  21
ENDBRANCH  17  18
ENDBRANCH  14  17
ENDBRANCH  12  14
ENDBRANCH   7  12
ENDBRANCH   3   6
ENDBRANCH   1   2
BRANCH   1  23
ATOM     23  C   UNL     1       2.202   3.762  -0.336  1.00  0.00     0.023 C 
BRANCH  23  24
ATOM     24  C   UNL     1       1.114   4.671   0.245  1.00  0.00     0.023 C 
BRANCH  24  25
ATOM     25  C   UNL     1      -0.276   4.069   0.469  1.00  0.00     0.116 C 
BRANCH  25  26
ATOM     26  N   UNL     1      -0.314   2.926   1.370  1.00  0.00    -0.352 N 
ATOM     27  C   UNL     1      -1.100   2.696   2.484  1.00  0.00     0.251 C 
ATOM     28  H   UNL     1       0.318   2.204   1.151  1.00  0.00     0.163 HD
ATOM     29  O   UNL     1      -1.006   1.646   3.093  1.00  0.00    -0.269 OA
BRANCH  27  30
ATOM     30  C   UNL     1      -1.999   3.767   2.980  1.00  0.00     0.039 A 
ATOM     31  C   UNL     1      -1.871   4.167   4.313  1.00  0.00     0.014 A 
ATOM     32  C   UNL     1      -2.893   4.424   2.134  1.00  0.00     0.014 A 
ATOM     33  C   UNL     1      -2.541   5.308   4.759  1.00  0.00     0.010 A 
ATOM     34  C   UNL     1      -3.499   5.607   2.558  1.00  0.00     0.010 A 
ATOM     35  C   UNL     1      -3.303   6.079   3.865  1.00  0.00    -0.014 A 
BRANCH  35  36
ATOM     36  C   UNL     1      -3.824   7.414   4.267  1.00  0.00     0.031 A 
ATOM     37  C   UNL     1      -5.302   7.687   4.305  1.00  0.00     0.074 A 
ATOM     38  C   UNL     1      -2.950   8.407   4.536  1.00  0.00     0.049 A 
ATOM     39  N   UNL     1      -5.928   8.795   4.612  1.00  0.00    -0.248 NA
ATOM     40  C   UNL     1      -6.193   6.581   3.922  1.00  0.00     0.031 C 
ATOM     41  C   UNL     1      -1.490   8.294   4.459  1.00  0.00     0.029 A 
ATOM     42  N   UNL     1      -3.157   9.708   4.925  1.00  0.00    -0.354 N 
ATOM     43  C   UNL     1      -7.281   8.524   4.452  1.00  0.00     0.074 A 
ATOM     44  C   UNL     1      -7.383   7.163   3.969  1.00  0.00     0.031 C 
ATOM     45  C   UNL     1      -0.936   9.462   4.822  1.00  0.00     0.029 A 
ATOM     46  C   UNL     1      -1.995  10.417   5.127  1.00  0.00     0.049 A 
ATOM     47  H   UNL     1      -4.053  10.097   5.047  1.00  0.00     0.167 HD
ATOM     48  C   UNL     1      -8.343   9.326   4.708  1.00  0.00     0.037 A 
ATOM     49  C   UNL     1      -1.802  11.692   5.519  1.00  0.00     0.037 A 
ATOM     50  C   UNL     1      -8.239  10.672   5.210  1.00  0.00     0.049 A 
ATOM     51  C   UNL     1      -2.997  12.553   5.827  1.00  0.00     0.074 A 
ATOM     52  C   UNL     1      -9.256  11.542   5.562  1.00  0.00     0.029 A 
ATOM     53  N   UNL     1      -7.046  11.346   5.432  1.00  0.00    -0.354 N 
ATOM     54  N   UNL     1      -4.271  12.252   5.744  1.00  0.00    -0.248 NA
ATOM     55  C   UNL     1      -2.728  13.921   6.290  1.00  0.00     0.031 C 
ATOM     56  C   UNL     1      -8.680  12.754   5.963  1.00  0.00     0.029 A 
ATOM     57  C   UNL     1      -7.302  12.625   5.899  1.00  0.00     0.049 A 
ATOM     58  H   UNL     1      -6.149  10.970   5.279  1.00  0.00     0.167 HD
ATOM     59  C   UNL     1      -4.956  13.387   6.162  1.00  0.00     0.074 A 
ATOM     60  C   UNL     1      -3.954  14.373   6.516  1.00  0.00     0.031 C 
ATOM     61  C   UNL     1      -6.293  13.596   6.243  1.00  0.00     0.037 A 
BRANCH  48  62
ATOM     62  C   UNL     1      -9.714   8.760   4.460  1.00  0.00     0.058 A 
ATOM     63  C   UNL     1     -10.253   7.756   5.281  1.00  0.00     0.135 A 
ATOM     64  C   UNL     1     -10.509   9.239   3.406  1.00  0.00     0.135 A 
ATOM     65  F   UNL     1      -9.531   7.251   6.294  1.00  0.00    -0.206 F 
ATOM     66  C   UNL     1     -11.517   7.223   5.046  1.00  0.00     0.059 A 
ATOM     67  C   UNL     1     -11.787   8.740   3.169  1.00  0.00     0.059 A 
ATOM     68  F   UNL     1     -10.044  10.199   2.591  1.00  0.00    -0.206 F 
ATOM     69  C   UNL     1     -12.275   7.720   3.985  1.00  0.00     0.060 A 
BRANCH  69  70
ATOM     70  S   UNL     1     -13.910   7.014   3.689  1.00  0.00     0.124 S 
ATOM     71  O   UNL     1     -13.567   5.723   3.100  1.00  0.00    -0.237 OA
ATOM     72  O   UNL     1     -14.478   6.965   5.032  1.00  0.00    -0.237 OA
ATOM     73  O   UNL     1     -14.534   7.972   2.782  1.00  0.00    -0.744 OA
ENDBRANCH  69  70
ENDBRANCH  48  62
BRANCH  49  74
ATOM     74  C   UNL     1      -0.421  12.221   5.678  1.00  0.00     0.058 A 
ATOM     75  C   UNL     1       0.112  12.472   6.952  1.00  0.00     0.135 A 
ATOM     76  C   UNL     1       0.397  12.475   4.566  1.00  0.00     0.135 A 
ATOM     77  F   UNL     1      -0.633  12.251   8.045  1.00  0.00    -0.206 F 
ATOM     78  C   UNL     1       1.401  12.970   7.118  1.00  0.00     0.059 A 
ATOM     79  C   UNL     1       1.697  12.951   4.708  1.00  0.00     0.059 A 
ATOM     80  F   UNL     1      -0.060  12.236   3.327  1.00  0.00    -0.206 F 
ATOM     81  C   UNL     1       2.186  13.205   5.989  1.00  0.00     0.060 A 
BRANCH  81  82
ATOM     82  S   UNL     1       3.876  13.801   6.217  1.00  0.00     0.124 S 
ATOM     83  O   UNL     1       3.650  15.199   6.563  1.00  0.00    -0.237 OA
ATOM     84  O   UNL     1       4.362  12.946   7.295  1.00  0.00    -0.237 OA
ATOM     85  O   UNL     1       4.492  13.563   4.914  1.00  0.00    -0.744 OA
ENDBRANCH  81  82
ENDBRANCH  49  74
BRANCH  61  86
ATOM     86  C   UNL     1      -6.747  14.937   6.750  1.00  0.00     0.058 A 
ATOM     87  C   UNL     1      -6.636  16.096   5.966  1.00  0.00     0.135 A 
ATOM     88  C   UNL     1      -7.320  15.060   8.026  1.00  0.00     0.135 A 
ATOM     89  F   UNL     1      -6.090  16.033   4.741  1.00  0.00    -0.206 F 
ATOM     90  C   UNL     1      -7.048  17.336   6.441  1.00  0.00     0.059 A 
ATOM     91  C   UNL     1      -7.763  16.286   8.511  1.00  0.00     0.059 A 
ATOM     92  F   UNL     1      -7.459  13.980   8.812  1.00  0.00    -0.206 F 
ATOM     93  C   UNL     1      -7.607  17.422   7.718  1.00  0.00     0.060 A 
BRANCH  93  94
ATOM     94  S   UNL     1      -8.149  19.035   8.321  1.00  0.00     0.124 S 
ATOM     95  O   UNL     1      -6.877  19.658   8.673  1.00  0.00    -0.237 OA
ATOM     96  O   UNL     1      -8.828  19.595   7.157  1.00  0.00    -0.237 OA
ATOM     97  O   UNL     1      -9.018  18.701   9.445  1.00  0.00    -0.744 OA
ENDBRANCH  93  94
ENDBRANCH  61  86
ENDBRANCH  35  36
ENDBRANCH  27  30
ENDBRANCH  25  26
ENDBRANCH  24  25
ENDBRANCH  23  24
ENDBRANCH   1  23
TORSDOF 20
