REMARK SMILES C[C@H]1[C@H](C(=O)NCCCCNC(=O)c2ccc(-c3c4nc(c(-c5c(F)cc(S(=O)(=O)[O-])cc5F)c5ccc([nH]5)c(-c5c(F)cc(S(=O)(=O)[O-])cc5F)c5nc(c(-c6c(F)cc(S(=O)(=O)[O-])cc6F)c6ccc3[nH]6)C=C5)C=C4)cc2)CCN1C(=O)Nc1ccc(F)c(Cl)c1
REMARK SMILES IDX 9 1 8 2 7 3 6 4 4 5 5 6 3 8 1 9 2 10 82 11 80 12 81 13 83 14
REMARK SMILES IDX 84 15 85 16 86 18 87 19 93 20 88 21 91 22 89 23 92 24 90 25
REMARK SMILES IDX 10 26 11 27 12 28 13 30 14 31 15 32 79 33 16 34 78 35 17 36
REMARK SMILES IDX 18 37 19 38 72 39 20 40 77 41 71 42 73 43 21 44 76 45 70 46
REMARK SMILES IDX 69 47 22 49 56 50 35 51 55 52 36 53 39 54 54 55 74 56 37 57
REMARK SMILES IDX 38 58 53 60 75 61 40 62 23 63 24 64 33 65 25 66 26 67 32 68
REMARK SMILES IDX 34 69 27 70 28 71 29 72 30 73 31 74 57 75 58 76 67 77 59 78
REMARK SMILES IDX 60 79 66 80 68 81 61 82 62 83 63 84 64 85 65 86 41 87 42 88
REMARK SMILES IDX 51 89 43 90 44 91 50 92 52 93 45 94 46 95 47 96 48 97 49 98
REMARK H PARENT 6 7 85 17 11 29 73 48 39 59
REMARK Flexibility Score: inf
ROOT
ATOM      1  C   UNL     1      -0.409   1.015   5.390  1.00  0.00     0.023 C 
ENDROOT
BRANCH   1   2
ATOM      2  C   UNL     1      -0.202   0.204   4.125  1.00  0.00     0.023 C 
BRANCH   2   3
ATOM      3  C   UNL     1      -1.010   0.634   2.906  1.00  0.00     0.116 C 
BRANCH   3   4
ATOM      4  N   UNL     1      -0.545   1.885   2.336  1.00  0.00    -0.356 N 
ATOM      5  C   UNL     1      -0.261   2.242   1.054  1.00  0.00     0.225 C 
ATOM      6  O   UNL     1       0.051   3.420   0.852  1.00  0.00    -0.275 OA
ATOM      7  H   UNL     1      -0.412   2.605   2.994  1.00  0.00     0.163 HD
BRANCH   5   8
ATOM      8  C   UNL     1      -0.268   1.262  -0.117  1.00  0.00     0.102 C 
ATOM      9  C   UNL     1       1.792   0.273  -1.215  1.00  0.00     0.032 C 
ATOM     10  C   UNL     1       0.862   0.225  -0.004  1.00  0.00     0.096 C 
ATOM     11  N   UNL     1       0.198  -1.076   0.123  1.00  0.00    -0.321 N 
ATOM     12  C   UNL     1      -1.567   0.488  -0.302  1.00  0.00     0.037 C 
ATOM     13  C   UNL     1      -1.166  -0.975  -0.379  1.00  0.00     0.122 C 
BRANCH  11  14
ATOM     14  C   UNL     1       0.680  -2.330   0.393  1.00  0.00     0.322 C 
ATOM     15  O   UNL     1      -0.037  -3.325   0.230  1.00  0.00    -0.248 OA
ATOM     16  N   UNL     1       1.976  -2.586   0.703  1.00  0.00    -0.308 N 
ATOM     17  H   UNL     1       2.250  -3.496   0.446  1.00  0.00     0.171 HD
BRANCH  16  18
ATOM     18  C   UNL     1       3.017  -1.866   1.299  1.00  0.00     0.044 A 
ATOM     19  C   UNL     1       4.333  -2.215   0.989  1.00  0.00     0.029 A 
ATOM     20  C   UNL     1       2.796  -0.853   2.220  1.00  0.00     0.049 A 
ATOM     21  C   UNL     1       5.397  -1.448   1.476  1.00  0.00     0.043 A 
ATOM     22  C   UNL     1       3.845  -0.061   2.688  1.00  0.00     0.078 A 
ATOM     23  C   UNL     1       5.144  -0.353   2.296  1.00  0.00     0.141 A 
ATOM     24  Cl  UNL     1       3.517   1.293   3.698  1.00  0.00    -0.081 Cl
ATOM     25  F   UNL     1       6.171   0.410   2.695  1.00  0.00    -0.205 F 
ENDBRANCH  16  18
ENDBRANCH  11  14
ENDBRANCH   5   8
ENDBRANCH   3   4
ENDBRANCH   2   3
ENDBRANCH   1   2
BRANCH   1  26
ATOM     26  C   UNL     1      -1.833   1.010   5.907  1.00  0.00     0.116 C 
BRANCH  26  27
ATOM     27  N   UNL     1      -2.317  -0.329   6.224  1.00  0.00    -0.352 N 
ATOM     28  C   UNL     1      -2.719  -0.854   7.432  1.00  0.00     0.251 C 
ATOM     29  H   UNL     1      -2.364  -0.949   5.460  1.00  0.00     0.163 HD
ATOM     30  O   UNL     1      -2.946  -2.051   7.537  1.00  0.00    -0.269 OA
BRANCH  28  31
ATOM     31  C   UNL     1      -2.837   0.040   8.604  1.00  0.00     0.039 A 
ATOM     32  C   UNL     1      -2.320  -0.370   9.834  1.00  0.00     0.014 A 
ATOM     33  C   UNL     1      -3.408   1.306   8.467  1.00  0.00     0.014 A 
ATOM     34  C   UNL     1      -2.294   0.531  10.901  1.00  0.00     0.010 A 
ATOM     35  C   UNL     1      -3.262   2.237   9.484  1.00  0.00     0.010 A 
ATOM     36  C   UNL     1      -2.718   1.858  10.719  1.00  0.00    -0.014 A 
BRANCH  36  37
ATOM     37  C   UNL     1      -2.631   2.867  11.805  1.00  0.00     0.031 A 
ATOM     38  C   UNL     1      -3.884   3.558  12.278  1.00  0.00     0.074 A 
ATOM     39  C   UNL     1      -1.429   3.222  12.300  1.00  0.00     0.049 A 
ATOM     40  N   UNL     1      -4.014   4.539  13.132  1.00  0.00    -0.248 NA
ATOM     41  C   UNL     1      -5.155   3.116  11.679  1.00  0.00     0.031 C 
ATOM     42  C   UNL     1      -0.138   2.676  11.874  1.00  0.00     0.029 A 
ATOM     43  N   UNL     1      -1.094   4.138  13.266  1.00  0.00    -0.354 N 
ATOM     44  C   UNL     1      -5.370   4.847  13.148  1.00  0.00     0.074 A 
ATOM     45  C   UNL     1      -6.011   3.998  12.171  1.00  0.00     0.031 C 
ATOM     46  C   UNL     1       0.842   3.242  12.596  1.00  0.00     0.029 A 
ATOM     47  C   UNL     1       0.257   4.221  13.507  1.00  0.00     0.049 A 
ATOM     48  H   UNL     1      -1.760   4.686  13.742  1.00  0.00     0.167 HD
ATOM     49  C   UNL     1      -6.029   5.733  13.932  1.00  0.00     0.037 A 
ATOM     50  C   UNL     1       0.946   5.000  14.364  1.00  0.00     0.037 A 
ATOM     51  C   UNL     1      -5.390   6.537  14.939  1.00  0.00     0.049 A 
ATOM     52  C   UNL     1       0.190   5.955  15.246  1.00  0.00     0.074 A 
ATOM     53  C   UNL     1      -5.972   7.411  15.839  1.00  0.00     0.029 A 
ATOM     54  N   UNL     1      -4.024   6.560  15.182  1.00  0.00    -0.354 N 
ATOM     55  N   UNL     1      -1.101   6.184  15.297  1.00  0.00    -0.248 NA
ATOM     56  C   UNL     1       0.981   6.754  16.193  1.00  0.00     0.031 C 
ATOM     57  C   UNL     1      -4.954   7.991  16.602  1.00  0.00     0.029 A 
ATOM     58  C   UNL     1      -3.743   7.444  16.209  1.00  0.00     0.049 A 
ATOM     59  H   UNL     1      -3.355   6.026  14.697  1.00  0.00     0.167 HD
ATOM     60  C   UNL     1      -1.280   7.133  16.298  1.00  0.00     0.074 A 
ATOM     61  C   UNL     1       0.034   7.425  16.834  1.00  0.00     0.031 C 
ATOM     62  C   UNL     1      -2.427   7.712  16.734  1.00  0.00     0.037 A 
BRANCH  49  63
ATOM     63  C   UNL     1      -7.515   5.860  13.742  1.00  0.00     0.058 A 
ATOM     64  C   UNL     1      -8.396   4.828  14.103  1.00  0.00     0.135 A 
ATOM     65  C   UNL     1      -8.070   7.035  13.210  1.00  0.00     0.135 A 
ATOM     66  F   UNL     1      -7.920   3.674  14.599  1.00  0.00    -0.206 F 
ATOM     67  C   UNL     1      -9.769   4.941  13.913  1.00  0.00     0.059 A 
ATOM     68  C   UNL     1      -9.444   7.183  13.039  1.00  0.00     0.059 A 
ATOM     69  F   UNL     1      -7.275   8.053  12.844  1.00  0.00    -0.206 F 
ATOM     70  C   UNL     1     -10.284   6.123  13.379  1.00  0.00     0.060 A 
BRANCH  70  71
ATOM     71  S   UNL     1     -12.068   6.256  13.144  1.00  0.00     0.124 S 
ATOM     72  O   UNL     1     -12.274   5.388  11.989  1.00  0.00    -0.237 OA
ATOM     73  O   UNL     1     -12.589   5.756  14.412  1.00  0.00    -0.237 OA
ATOM     74  O   UNL     1     -12.274   7.681  12.903  1.00  0.00    -0.744 OA
ENDBRANCH  70  71
ENDBRANCH  49  63
BRANCH  50  75
ATOM     75  C   UNL     1       2.426   4.883  14.452  1.00  0.00     0.058 A 
ATOM     76  C   UNL     1       3.037   4.309  15.577  1.00  0.00     0.135 A 
ATOM     77  C   UNL     1       3.259   5.327  13.413  1.00  0.00     0.135 A 
ATOM     78  F   UNL     1       2.284   3.875  16.599  1.00  0.00    -0.206 F 
ATOM     79  C   UNL     1       4.420   4.195  15.679  1.00  0.00     0.059 A 
ATOM     80  C   UNL     1       4.644   5.200  13.480  1.00  0.00     0.059 A 
ATOM     81  F   UNL     1       2.725   5.866  12.306  1.00  0.00    -0.206 F 
ATOM     82  C   UNL     1       5.215   4.642  14.623  1.00  0.00     0.060 A 
BRANCH  82  83
ATOM     83  S   UNL     1       7.007   4.445  14.746  1.00  0.00     0.124 S 
ATOM     84  O   UNL     1       7.349   5.476  15.719  1.00  0.00    -0.237 OA
ATOM     85  O   UNL     1       7.133   3.066  15.206  1.00  0.00    -0.237 OA
ATOM     86  O   UNL     1       7.465   4.687  13.381  1.00  0.00    -0.744 OA
ENDBRANCH  82  83
ENDBRANCH  50  75
BRANCH  62  87
ATOM     87  C   UNL     1      -2.318   8.692  17.867  1.00  0.00     0.058 A 
ATOM     88  C   UNL     1      -1.786   9.977  17.681  1.00  0.00     0.135 A 
ATOM     89  C   UNL     1      -2.808   8.360  19.141  1.00  0.00     0.135 A 
ATOM     90  F   UNL     1      -1.300  10.341  16.484  1.00  0.00    -0.206 F 
ATOM     91  C   UNL     1      -1.723  10.893  18.726  1.00  0.00     0.059 A 
ATOM     92  C   UNL     1      -2.780   9.270  20.192  1.00  0.00     0.059 A 
ATOM     93  F   UNL     1      -3.338   7.147  19.367  1.00  0.00    -0.206 F 
ATOM     94  C   UNL     1      -2.225  10.530  19.978  1.00  0.00     0.060 A 
BRANCH  94  95
ATOM     95  S   UNL     1      -2.170  11.741  21.315  1.00  0.00     0.124 S 
ATOM     96  O   UNL     1      -0.754  11.728  21.665  1.00  0.00    -0.237 OA
ATOM     97  O   UNL     1      -2.650  12.953  20.660  1.00  0.00    -0.237 OA
ATOM     98  O   UNL     1      -3.070  11.179  22.318  1.00  0.00    -0.744 OA
ENDBRANCH  94  95
ENDBRANCH  62  87
ENDBRANCH  36  37
ENDBRANCH  28  31
ENDBRANCH  26  27
ENDBRANCH   1  26
TORSDOF 16
