REMARK SMILES CC1=C(C#N)C(=O)N(C)C(=O)/C1=C\Nc1ccc(C(=O)NCCCCNC(=O)c2ccc(-c3c4nc(c(-c5c(F)cc(S(=O)(=O)[O-])cc5F)c5ccc([nH]5)c(-c5c(F)cc(S(=O)(=O)[O-])cc5F)c5nc(c(-c6c(F)cc(S(=O)(=O)[O-])cc6F)c6ccc3[nH]6)C=C5)C=C4)cc2)c(O)c1
REMARK SMILES IDX 23 1 22 2 21 3 19 4 20 5 18 7 15 8 16 9 97 10 17 11 95 12
REMARK SMILES IDX 14 13 13 15 1 16 2 17 3 18 12 19 6 20 10 21 7 22 8 23 11 24
REMARK SMILES IDX 9 25 4 26 5 27 96 28 24 30 25 31 26 32 27 33 28 35 29 36
REMARK SMILES IDX 30 37 94 38 31 39 93 40 32 41 33 42 34 43 87 44 35 45 92 46
REMARK SMILES IDX 86 47 88 48 36 49 91 50 85 51 84 52 37 54 71 55 50 56 70 57
REMARK SMILES IDX 51 58 54 59 69 60 89 61 52 62 53 63 68 65 90 66 55 67 38 68
REMARK SMILES IDX 39 69 48 70 40 71 41 72 47 73 49 74 42 75 43 76 44 77 45 78
REMARK SMILES IDX 46 79 72 80 73 81 82 82 74 83 75 84 81 85 83 86 76 87 77 88
REMARK SMILES IDX 78 89 79 90 80 91 56 92 57 93 66 94 58 95 59 96 65 97 67 98
REMARK SMILES IDX 60 99 61 100 62 101 63 102 64 103
REMARK H PARENT 21 6 14 14 96 29 26 34 88 53 54 64
REMARK Flexibility Score: inf
ROOT
ATOM      1  C   UNL     1       6.681   8.775  -2.033  1.00  0.00     0.023 C 
ENDROOT
BRANCH   1   2
ATOM      2  C   UNL     1       5.198   8.592  -1.722  1.00  0.00     0.116 C 
BRANCH   2   3
ATOM      3  N   UNL     1       4.325   8.730  -2.879  1.00  0.00    -0.352 N 
ATOM      4  C   UNL     1       3.126   8.111  -3.138  1.00  0.00     0.255 C 
ATOM      5  O   UNL     1       2.545   8.309  -4.201  1.00  0.00    -0.269 OA
ATOM      6  H   UNL     1       4.637   9.356  -3.572  1.00  0.00     0.163 HD
BRANCH   4   7
ATOM      7  C   UNL     1       2.541   7.173  -2.158  1.00  0.00     0.081 A 
ATOM      8  C   UNL     1       1.590   5.209  -0.371  1.00  0.00     0.042 A 
ATOM      9  C   UNL     1       1.679   4.941  -1.740  1.00  0.00     0.027 A 
ATOM     10  C   UNL     1       1.927   6.497   0.076  1.00  0.00     0.073 A 
ATOM     11  C   UNL     1       2.151   5.914  -2.629  1.00  0.00     0.020 A 
ATOM     12  C   UNL     1       2.361   7.479  -0.810  1.00  0.00     0.130 A 
BRANCH   8  13
ATOM     13  N   UNL     1       1.203   4.268   0.591  1.00  0.00    -0.361 N 
ATOM     14  H   UNL     1       1.052   4.641   1.490  1.00  0.00     0.166 HD
BRANCH  13  15
ATOM     15  C   UNL     1       0.999   2.914   0.495  1.00  0.00     0.097 C 
ATOM     16  C   UNL     1       0.841   0.026  -0.039  1.00  0.00     0.047 C 
ATOM     17  C   UNL     1       0.419   0.629   1.284  1.00  0.00    -0.013 C 
ATOM     18  C   UNL     1      -0.097  -0.111   2.285  1.00  0.00     0.121 C 
ATOM     19  C   UNL     1       0.593   2.071   1.471  1.00  0.00     0.060 C 
ATOM     20  C   UNL     1      -0.509   0.482   3.581  1.00  0.00     0.271 C 
ATOM     21  C   UNL     1       0.313   2.677   2.827  1.00  0.00     0.262 C 
ATOM     22  O   UNL     1      -1.024  -0.225   4.445  1.00  0.00    -0.268 OA
ATOM     23  N   UNL     1      -0.273   1.835   3.760  1.00  0.00    -0.277 N 
ATOM     24  O   UNL     1       0.590   3.851   3.076  1.00  0.00    -0.269 OA
ATOM     25  C   UNL     1      -0.643   2.393   5.050  1.00  0.00     0.157 C 
BRANCH  18  26
ATOM     26  C   UNL     1      -0.312  -1.609   2.146  1.00  0.00     0.105 C 
ATOM     27  N   UNL     1      -0.491  -2.853   2.031  1.00  0.00    -0.192 NA
ENDBRANCH  18  26
ENDBRANCH  13  15
ENDBRANCH   8  13
BRANCH  12  28
ATOM     28  O   UNL     1       2.568   8.719  -0.273  1.00  0.00    -0.507 OA
ATOM     29  H   UNL     1       2.860   9.423  -0.819  1.00  0.00     0.293 HD
ENDBRANCH  12  28
ENDBRANCH   4   7
ENDBRANCH   2   3
ENDBRANCH   1   2
BRANCH   1  30
ATOM     30  C   UNL     1       7.064  10.087  -2.717  1.00  0.00     0.023 C 
BRANCH  30  31
ATOM     31  C   UNL     1       6.451  11.353  -2.127  1.00  0.00     0.116 C 
BRANCH  31  32
ATOM     32  N   UNL     1       6.883  11.627  -0.764  1.00  0.00    -0.352 N 
ATOM     33  C   UNL     1       7.635  12.673  -0.277  1.00  0.00     0.251 C 
ATOM     34  H   UNL     1       6.595  10.968  -0.092  1.00  0.00     0.163 HD
ATOM     35  O   UNL     1       7.994  12.681   0.897  1.00  0.00    -0.269 OA
BRANCH  33  36
ATOM     36  C   UNL     1       8.044  13.764  -1.187  1.00  0.00     0.039 A 
ATOM     37  C   UNL     1       9.393  14.123  -1.255  1.00  0.00     0.014 A 
ATOM     38  C   UNL     1       7.107  14.390  -2.010  1.00  0.00     0.014 A 
ATOM     39  C   UNL     1       9.819  15.030  -2.230  1.00  0.00     0.010 A 
ATOM     40  C   UNL     1       7.543  15.226  -3.032  1.00  0.00     0.010 A 
ATOM     41  C   UNL     1       8.906  15.543  -3.164  1.00  0.00    -0.014 A 
BRANCH  41  42
ATOM     42  C   UNL     1       9.331  16.404  -4.300  1.00  0.00     0.031 A 
ATOM     43  C   UNL     1       8.772  17.795  -4.426  1.00  0.00     0.074 A 
ATOM     44  C   UNL     1      10.122  15.903  -5.271  1.00  0.00     0.049 A 
ATOM     45  N   UNL     1       8.840  18.627  -5.431  1.00  0.00    -0.248 NA
ATOM     46  C   UNL     1       8.002  18.300  -3.277  1.00  0.00     0.031 C 
ATOM     47  C   UNL     1      10.709  14.561  -5.283  1.00  0.00     0.029 A 
ATOM     48  N   UNL     1      10.550  16.459  -6.452  1.00  0.00    -0.354 N 
ATOM     49  C   UNL     1       8.099  19.739  -5.051  1.00  0.00     0.074 A 
ATOM     50  C   UNL     1       7.553  19.457  -3.741  1.00  0.00     0.031 C 
ATOM     51  C   UNL     1      11.428  14.403  -6.407  1.00  0.00     0.029 A 
ATOM     52  C   UNL     1      11.313  15.610  -7.220  1.00  0.00     0.049 A 
ATOM     53  H   UNL     1      10.331  17.380  -6.724  1.00  0.00     0.167 HD
ATOM     54  C   UNL     1       7.905  20.898  -5.724  1.00  0.00     0.037 A 
ATOM     55  C   UNL     1      11.842  15.775  -8.449  1.00  0.00     0.037 A 
ATOM     56  C   UNL     1       8.482  21.189  -7.010  1.00  0.00     0.049 A 
ATOM     57  C   UNL     1      11.610  17.071  -9.180  1.00  0.00     0.074 A 
ATOM     58  C   UNL     1       8.374  22.347  -7.760  1.00  0.00     0.029 A 
ATOM     59  N   UNL     1       9.284  20.317  -7.731  1.00  0.00    -0.354 N 
ATOM     60  N   UNL     1      10.922  18.120  -8.797  1.00  0.00    -0.248 NA
ATOM     61  C   UNL     1      12.222  17.206 -10.510  1.00  0.00     0.031 C 
ATOM     62  C   UNL     1       9.091  22.166  -8.947  1.00  0.00     0.029 A 
ATOM     63  C   UNL     1       9.678  20.911  -8.918  1.00  0.00     0.049 A 
ATOM     64  H   UNL     1       9.537  19.411  -7.442  1.00  0.00     0.167 HD
ATOM     65  C   UNL     1      11.051  19.053  -9.821  1.00  0.00     0.074 A 
ATOM     66  C   UNL     1      11.879  18.445 -10.841  1.00  0.00     0.031 C 
ATOM     67  C   UNL     1      10.533  20.302  -9.906  1.00  0.00     0.037 A 
BRANCH  54  68
ATOM     68  C   UNL     1       7.040  21.942  -5.074  1.00  0.00     0.058 A 
ATOM     69  C   UNL     1       7.476  22.658  -3.948  1.00  0.00     0.135 A 
ATOM     70  C   UNL     1       5.772  22.246  -5.594  1.00  0.00     0.135 A 
ATOM     71  F   UNL     1       8.674  22.394  -3.401  1.00  0.00    -0.206 F 
ATOM     72  C   UNL     1       6.672  23.614  -3.339  1.00  0.00     0.059 A 
ATOM     73  C   UNL     1       4.961  23.220  -5.017  1.00  0.00     0.059 A 
ATOM     74  F   UNL     1       5.307  21.592  -6.670  1.00  0.00    -0.206 F 
ATOM     75  C   UNL     1       5.414  23.886  -3.879  1.00  0.00     0.060 A 
BRANCH  75  76
ATOM     76  S   UNL     1       4.379  25.126  -3.073  1.00  0.00     0.124 S 
ATOM     77  O   UNL     1       3.925  24.400  -1.891  1.00  0.00    -0.237 OA
ATOM     78  O   UNL     1       5.324  26.210  -2.825  1.00  0.00    -0.237 OA
ATOM     79  O   UNL     1       3.351  25.410  -4.070  1.00  0.00    -0.744 OA
ENDBRANCH  75  76
ENDBRANCH  54  68
BRANCH  55  80
ATOM     80  C   UNL     1      12.657  14.694  -9.066  1.00  0.00     0.058 A 
ATOM     81  C   UNL     1      14.044  14.841  -9.217  1.00  0.00     0.135 A 
ATOM     82  C   UNL     1      12.073  13.500  -9.517  1.00  0.00     0.135 A 
ATOM     83  F   UNL     1      14.647  15.967  -8.807  1.00  0.00    -0.206 F 
ATOM     84  C   UNL     1      14.822  13.853  -9.812  1.00  0.00     0.059 A 
ATOM     85  C   UNL     1      12.834  12.488 -10.094  1.00  0.00     0.059 A 
ATOM     86  F   UNL     1      10.753  13.303  -9.380  1.00  0.00    -0.206 F 
ATOM     87  C   UNL     1      14.207  12.679 -10.249  1.00  0.00     0.060 A 
BRANCH  87  88
ATOM     88  S   UNL     1      15.230  11.388 -10.989  1.00  0.00     0.124 S 
ATOM     89  O   UNL     1      15.504  11.949 -12.306  1.00  0.00    -0.237 OA
ATOM     90  O   UNL     1      16.364  11.330 -10.070  1.00  0.00    -0.237 OA
ATOM     91  O   UNL     1      14.358  10.217 -10.968  1.00  0.00    -0.744 OA
ENDBRANCH  87  88
ENDBRANCH  55  80
BRANCH  67  92
ATOM     92  C   UNL     1      10.890  21.129 -11.107  1.00  0.00     0.058 A 
ATOM     93  C   UNL     1      10.293  20.912 -12.357  1.00  0.00     0.135 A 
ATOM     94  C   UNL     1      11.772  22.214 -10.977  1.00  0.00     0.135 A 
ATOM     95  F   UNL     1       9.450  19.883 -12.534  1.00  0.00    -0.206 F 
ATOM     96  C   UNL     1      10.559  21.744 -13.440  1.00  0.00     0.059 A 
ATOM     97  C   UNL     1      12.035  23.072 -12.040  1.00  0.00     0.059 A 
ATOM     98  F   UNL     1      12.363  22.467  -9.798  1.00  0.00    -0.206 F 
ATOM     99  C   UNL     1      11.425  22.827 -13.269  1.00  0.00     0.060 A 
BRANCH  99 100
ATOM    100  S   UNL     1      11.702  23.944 -14.661  1.00  0.00     0.124 S 
ATOM    101  O   UNL     1      12.583  23.147 -15.507  1.00  0.00    -0.237 OA
ATOM    102  O   UNL     1      10.349  24.150 -15.170  1.00  0.00    -0.237 OA
ATOM    103  O   UNL     1      12.316  25.114 -14.040  1.00  0.00    -0.744 OA
ENDBRANCH  99 100
ENDBRANCH  67  92
ENDBRANCH  41  42
ENDBRANCH  33  36
ENDBRANCH  31  32
ENDBRANCH  30  31
ENDBRANCH   1  30
TORSDOF 18
