REMARK SMILES O=C(COc1c(Cl)cc(/C=C2/C(=O)NC(=O)N=C2O)cc1Cl)NCCCCNC(=O)c1ccc(-c2c3nc(c(-c4c(F)cc(S(=O)(=O)[O-])cc4F)c4ccc([nH]4)c(-c4c(F)cc(S(=O)(=O)[O-])cc4F)c4nc(c(-c5c(F)cc(S(=O)(=O)[O-])cc5F)c5ccc2[nH]5)C=C4)C=C3)cc1
REMARK SMILES IDX 25 1 24 2 23 3 1 4 2 5 3 7 4 8 5 9 6 10 21 11 7 12 8 13
REMARK SMILES IDX 20 14 22 15 9 16 10 17 11 18 12 19 18 20 13 21 14 22 17 23
REMARK SMILES IDX 15 24 16 26 19 27 26 29 27 30 28 31 29 32 30 34 31 35 32 36
REMARK SMILES IDX 96 37 33 38 95 39 34 40 35 41 36 42 89 43 37 44 94 45 88 46
REMARK SMILES IDX 90 47 38 48 93 49 87 50 86 51 39 53 73 54 52 55 72 56 53 57
REMARK SMILES IDX 56 58 71 59 91 60 54 61 55 62 70 64 92 65 57 66 40 67 41 68
REMARK SMILES IDX 50 69 42 70 43 71 49 72 51 73 44 74 45 75 46 76 47 77 48 78
REMARK SMILES IDX 74 79 75 80 84 81 76 82 77 83 83 84 85 85 78 86 79 87 80 88
REMARK SMILES IDX 81 89 82 90 58 91 59 92 68 93 60 94 61 95 67 96 69 97 62 98
REMARK SMILES IDX 63 99 64 100 65 101 66 102
REMARK H PARENT 23 6 14 25 19 28 28 33 90 52 56 63
REMARK Flexibility Score: inf
ROOT
ATOM      1  C   UNL     1       2.564  -3.576   1.264  1.00  0.00     0.023 C 
ENDROOT
BRANCH   1   2
ATOM      2  C   UNL     1       1.966  -2.179   1.369  1.00  0.00     0.116 C 
BRANCH   2   3
ATOM      3  N   UNL     1       2.688  -1.183   0.604  1.00  0.00    -0.353 N 
ATOM      4  O   UNL     1       0.902  -0.433  -0.646  1.00  0.00    -0.271 OA
ATOM      5  C   UNL     1       2.063  -0.314  -0.267  1.00  0.00     0.257 C 
ATOM      6  H   UNL     1       3.665  -1.123   0.710  1.00  0.00     0.163 HD
BRANCH   5   7
ATOM      7  C   UNL     1       2.959   0.835  -0.732  1.00  0.00     0.329 C 
BRANCH   7   8
ATOM      8  O   UNL     1       3.664   1.438   0.362  1.00  0.00    -0.481 OA
BRANCH   8   9
ATOM      9  C   UNL     1       2.987   2.514   0.884  1.00  0.00     0.157 A 
ATOM     10  C   UNL     1       2.299   2.386   2.093  1.00  0.00     0.085 A 
ATOM     11  C   UNL     1       3.051   3.778   0.283  1.00  0.00     0.085 A 
ATOM     12  Cl  UNL     1       2.268   0.924   3.001  1.00  0.00    -0.080 Cl
ATOM     13  C   UNL     1       1.639   3.482   2.652  1.00  0.00     0.032 A 
ATOM     14  C   UNL     1       2.382   4.876   0.847  1.00  0.00     0.032 A 
ATOM     15  Cl  UNL     1       3.995   4.051  -1.141  1.00  0.00    -0.080 Cl
ATOM     16  C   UNL     1       1.697   4.748   2.057  1.00  0.00    -0.021 A 
BRANCH  16  17
ATOM     17  C   UNL     1       0.980   5.823   2.764  1.00  0.00     0.027 C 
ATOM     18  C   UNL     1       1.245   7.128   2.972  1.00  0.00     0.102 C 
ATOM     19  C   UNL     1       0.277   7.845   3.848  1.00  0.00     0.264 C 
ATOM     20  C   UNL     1       2.341   7.978   2.501  1.00  0.00     0.228 C 
ATOM     21  O   UNL     1      -0.636   7.300   4.459  1.00  0.00    -0.269 OA
ATOM     22  N   UNL     1       0.474   9.191   3.920  1.00  0.00    -0.272 N 
ATOM     23  N   UNL     1       2.434   9.250   2.616  1.00  0.00    -0.157 NA
ATOM     24  C   UNL     1       1.431   9.914   3.264  1.00  0.00     0.351 C 
ATOM     25  H   UNL     1      -0.137   9.696   4.505  1.00  0.00     0.175 HD
ATOM     26  O   UNL     1       1.358  11.141   3.282  1.00  0.00    -0.246 OA
BRANCH  20  27
ATOM     27  O   UNL     1       3.364   7.360   1.910  1.00  0.00    -0.493 OA
ATOM     28  H   UNL     1       3.349   6.429   1.799  1.00  0.00     0.295 HD
ENDBRANCH  20  27
ENDBRANCH  16  17
ENDBRANCH   8   9
ENDBRANCH   7   8
ENDBRANCH   5   7
ENDBRANCH   2   3
ENDBRANCH   1   2
BRANCH   1  29
ATOM     29  C   UNL     1       4.051  -3.680   1.612  1.00  0.00     0.023 C 
BRANCH  29  30
ATOM     30  C   UNL     1       4.461  -3.121   2.973  1.00  0.00     0.116 C 
BRANCH  30  31
ATOM     31  N   UNL     1       3.858  -3.838   4.086  1.00  0.00    -0.352 N 
ATOM     32  C   UNL     1       4.453  -4.559   5.095  1.00  0.00     0.251 C 
ATOM     33  H   UNL     1       2.875  -3.800   4.123  1.00  0.00     0.163 HD
ATOM     34  O   UNL     1       3.756  -5.227   5.856  1.00  0.00    -0.269 OA
BRANCH  32  35
ATOM     35  C   UNL     1       5.926  -4.560   5.253  1.00  0.00     0.039 A 
ATOM     36  C   UNL     1       6.580  -5.774   5.478  1.00  0.00     0.014 A 
ATOM     37  C   UNL     1       6.662  -3.374   5.189  1.00  0.00     0.014 A 
ATOM     38  C   UNL     1       7.976  -5.808   5.560  1.00  0.00     0.010 A 
ATOM     39  C   UNL     1       8.056  -3.420   5.191  1.00  0.00     0.010 A 
ATOM     40  C   UNL     1       8.730  -4.637   5.373  1.00  0.00    -0.014 A 
BRANCH  40  41
ATOM     41  C   UNL     1      10.218  -4.674   5.348  1.00  0.00     0.031 A 
ATOM     42  C   UNL     1      11.019  -3.917   6.374  1.00  0.00     0.074 A 
ATOM     43  C   UNL     1      10.852  -5.341   4.362  1.00  0.00     0.049 A 
ATOM     44  N   UNL     1      12.317  -3.779   6.472  1.00  0.00    -0.248 NA
ATOM     45  C   UNL     1      10.262  -3.201   7.413  1.00  0.00     0.031 C 
ATOM     46  C   UNL     1      10.194  -6.075   3.279  1.00  0.00     0.029 A 
ATOM     47  N   UNL     1      12.191  -5.501   4.100  1.00  0.00    -0.354 N 
ATOM     48  C   UNL     1      12.531  -2.960   7.575  1.00  0.00     0.074 A 
ATOM     49  C   UNL     1      11.227  -2.582   8.076  1.00  0.00     0.031 C 
ATOM     50  C   UNL     1      11.127  -6.623   2.485  1.00  0.00     0.029 A 
ATOM     51  C   UNL     1      12.450  -6.244   2.971  1.00  0.00     0.049 A 
ATOM     52  H   UNL     1      12.900  -5.120   4.668  1.00  0.00     0.167 HD
ATOM     53  C   UNL     1      13.705  -2.577   8.134  1.00  0.00     0.037 A 
ATOM     54  C   UNL     1      13.618  -6.572   2.382  1.00  0.00     0.037 A 
ATOM     55  C   UNL     1      15.001  -2.964   7.636  1.00  0.00     0.049 A 
ATOM     56  C   UNL     1      14.909  -6.117   3.008  1.00  0.00     0.074 A 
ATOM     57  C   UNL     1      16.247  -2.665   8.159  1.00  0.00     0.029 A 
ATOM     58  N   UNL     1      15.220  -3.727   6.498  1.00  0.00    -0.354 N 
ATOM     59  N   UNL     1      15.092  -5.394   4.087  1.00  0.00    -0.248 NA
ATOM     60  C   UNL     1      16.153  -6.528   2.342  1.00  0.00     0.031 C 
ATOM     61  C   UNL     1      17.220  -3.198   7.307  1.00  0.00     0.029 A 
ATOM     62  C   UNL     1      16.581  -3.887   6.288  1.00  0.00     0.049 A 
ATOM     63  H   UNL     1      14.513  -4.100   5.923  1.00  0.00     0.167 HD
ATOM     64  C   UNL     1      16.470  -5.288   4.245  1.00  0.00     0.074 A 
ATOM     65  C   UNL     1      17.072  -6.033   3.159  1.00  0.00     0.031 C 
ATOM     66  C   UNL     1      17.172  -4.635   5.205  1.00  0.00     0.037 A 
BRANCH  53  67
ATOM     67  C   UNL     1      13.643  -1.693   9.352  1.00  0.00     0.058 A 
ATOM     68  C   UNL     1      13.158  -2.164  10.583  1.00  0.00     0.135 A 
ATOM     69  C   UNL     1      14.108  -0.368   9.300  1.00  0.00     0.135 A 
ATOM     70  F   UNL     1      12.689  -3.417  10.691  1.00  0.00    -0.206 F 
ATOM     71  C   UNL     1      13.104  -1.346  11.707  1.00  0.00     0.059 A 
ATOM     72  C   UNL     1      14.094   0.458  10.420  1.00  0.00     0.059 A 
ATOM     73  F   UNL     1      14.585   0.137   8.151  1.00  0.00    -0.206 F 
ATOM     74  C   UNL     1      13.574  -0.035  11.616  1.00  0.00     0.060 A 
BRANCH  74  75
ATOM     75  S   UNL     1      13.495   1.012  13.084  1.00  0.00     0.124 S 
ATOM     76  O   UNL     1      12.058   1.244  13.198  1.00  0.00    -0.237 OA
ATOM     77  O   UNL     1      14.081   0.154  14.109  1.00  0.00    -0.237 OA
ATOM     78  O   UNL     1      14.291   2.178  12.715  1.00  0.00    -0.744 OA
ENDBRANCH  74  75
ENDBRANCH  53  67
BRANCH  54  79
ATOM     79  C   UNL     1      13.617  -7.383   1.133  1.00  0.00     0.058 A 
ATOM     80  C   UNL     1      14.091  -8.703   1.125  1.00  0.00     0.135 A 
ATOM     81  C   UNL     1      13.129  -6.858  -0.074  1.00  0.00     0.135 A 
ATOM     82  F   UNL     1      14.576  -9.249   2.251  1.00  0.00    -0.206 F 
ATOM     83  C   UNL     1      14.097  -9.469  -0.037  1.00  0.00     0.059 A 
ATOM     84  C   UNL     1      13.097  -7.614  -1.242  1.00  0.00     0.059 A 
ATOM     85  F   UNL     1      12.649  -5.605  -0.118  1.00  0.00    -0.206 F 
ATOM     86  C   UNL     1      13.592  -8.916  -1.215  1.00  0.00     0.060 A 
BRANCH  86  87
ATOM     87  S   UNL     1      13.556  -9.937  -2.705  1.00  0.00     0.124 S 
ATOM     88  O   UNL     1      14.972 -10.013  -3.044  1.00  0.00    -0.237 OA
ATOM     89  O   UNL     1      12.949 -11.170  -2.214  1.00  0.00    -0.237 OA
ATOM     90  O   UNL     1      12.728  -9.161  -3.623  1.00  0.00    -0.744 OA
ENDBRANCH  86  87
ENDBRANCH  54  79
BRANCH  66  91
ATOM     91  C   UNL     1      18.674  -4.723   5.152  1.00  0.00     0.058 A 
ATOM     92  C   UNL     1      19.423  -4.066   4.163  1.00  0.00     0.135 A 
ATOM     93  C   UNL     1      19.378  -5.434   6.139  1.00  0.00     0.135 A 
ATOM     94  F   UNL     1      18.802  -3.378   3.191  1.00  0.00    -0.206 F 
ATOM     95  C   UNL     1      20.813  -4.131   4.139  1.00  0.00     0.059 A 
ATOM     96  C   UNL     1      20.768  -5.485   6.154  1.00  0.00     0.059 A 
ATOM     97  F   UNL     1      18.713  -6.073   7.115  1.00  0.00    -0.206 F 
ATOM     98  C   UNL     1      21.477  -4.840   5.143  1.00  0.00     0.060 A 
BRANCH  98  99
ATOM     99  S   UNL     1      23.281  -4.885   5.120  1.00  0.00     0.124 S 
ATOM    100  O   UNL     1      23.540  -5.762   3.983  1.00  0.00    -0.237 OA
ATOM    101  O   UNL     1      23.625  -3.479   4.927  1.00  0.00    -0.237 OA
ATOM    102  O   UNL     1      23.625  -5.435   6.427  1.00  0.00    -0.744 OA
ENDBRANCH  98  99
ENDBRANCH  66  91
ENDBRANCH  40  41
ENDBRANCH  32  35
ENDBRANCH  30  31
ENDBRANCH  29  30
ENDBRANCH   1  29
TORSDOF 18
