REMARK SMILES CCOC(=O)NC(=O)C[N@H+]1CC[C@@H](C(=O)NCCCCNC(=O)c2ccc(-c3c4nc(c(-c5c(F)cc(S(=O)(=O)[O-])cc5F)c5ccc([nH]5)c(-c5c(F)cc(S(=O)(=O)[O-])cc5F)c5nc(c(-c6c(F)cc(S(=O)(=O)[O-])cc6F)c6ccc3[nH]6)C=C5)C=C4)cc2)[C@@H]1C
REMARK SMILES IDX 18 1 17 2 16 3 14 4 15 5 13 7 10 8 11 9 90 10 12 12 91 13
REMARK SMILES IDX 9 14 7 15 4 16 5 17 6 18 8 20 3 21 2 22 1 23 19 24 20 25
REMARK SMILES IDX 21 26 22 27 23 29 24 30 25 31 89 32 26 33 88 34 27 35 28 36
REMARK SMILES IDX 29 37 82 38 30 39 87 40 81 41 83 42 31 43 86 44 80 45 79 46
REMARK SMILES IDX 32 48 66 49 45 50 65 51 46 52 49 53 64 54 84 55 47 56 48 57
REMARK SMILES IDX 63 59 85 60 50 61 33 62 34 63 43 64 35 65 36 66 42 67 44 68
REMARK SMILES IDX 37 69 38 70 39 71 40 72 41 73 67 74 68 75 77 76 69 77 70 78
REMARK SMILES IDX 76 79 78 80 71 81 72 82 73 83 74 84 75 85 51 86 52 87 61 88
REMARK SMILES IDX 53 89 54 90 60 91 62 92 55 93 56 94 57 95 58 96 59 97
REMARK H PARENT 16 6 10 11 6 19 21 28 83 47 49 58
REMARK Flexibility Score: inf
ROOT
ATOM      1  C   UNL     1       3.018   1.527  -6.417  1.00  0.00     0.023 C 
ENDROOT
BRANCH   1   2
ATOM      2  C   UNL     1       1.562   1.600  -6.876  1.00  0.00     0.116 C 
BRANCH   2   3
ATOM      3  N   UNL     1       1.085   0.301  -7.298  1.00  0.00    -0.356 N 
ATOM      4  C   UNL     1       0.232  -0.562  -6.692  1.00  0.00     0.229 C 
ATOM      5  O   UNL     1       0.033  -1.645  -7.251  1.00  0.00    -0.275 OA
ATOM      6  H   UNL     1       1.436  -0.005  -8.165  1.00  0.00     0.163 HD
BRANCH   4   7
ATOM      7  C   UNL     1      -0.506  -0.235  -5.404  1.00  0.00     0.142 C 
ATOM      8  N   UNL     1      -0.417   1.286  -3.508  1.00  0.00    -0.324 N 
ATOM      9  C   UNL     1      -1.784   1.230  -4.077  1.00  0.00     0.263 C 
ATOM     10  C   UNL     1       0.344   0.223  -4.209  1.00  0.00     0.194 C 
ATOM     11  H   UNL     1      -0.324   1.081  -2.514  1.00  0.00     0.348 HD
ATOM     12  C   UNL     1      -1.591   0.816  -5.529  1.00  0.00     0.081 C 
ATOM     13  C   UNL     1       0.537  -0.953  -3.242  1.00  0.00     0.076 C 
BRANCH   8  14
ATOM     14  C   UNL     1       0.062   2.690  -3.603  1.00  0.00     0.364 C 
BRANCH  14  15
ATOM     15  C   UNL     1       1.560   2.957  -3.564  1.00  0.00     0.284 C 
ATOM     16  C   UNL     1       2.183   1.930  -1.363  1.00  0.00     0.414 C 
ATOM     17  O   UNL     1       3.124   1.674  -0.623  1.00  0.00    -0.224 OA
ATOM     18  N   UNL     1       2.397   2.421  -2.626  1.00  0.00    -0.256 N 
ATOM     19  H   UNL     1       3.338   2.377  -2.913  1.00  0.00     0.176 HD
ATOM     20  O   UNL     1       2.047   3.768  -4.365  1.00  0.00    -0.268 OA
BRANCH  16  21
ATOM     21  O   UNL     1       0.881   1.829  -1.024  1.00  0.00    -0.450 OA
BRANCH  21  22
ATOM     22  C   UNL     1       0.602   1.366   0.301  1.00  0.00     0.231 C 
ATOM     23  C   UNL     1       0.833  -0.128   0.440  1.00  0.00     0.049 C 
ENDBRANCH  21  22
ENDBRANCH  16  21
ENDBRANCH  14  15
ENDBRANCH   8  14
ENDBRANCH   4   7
ENDBRANCH   2   3
ENDBRANCH   1   2
BRANCH   1  24
ATOM     24  C   UNL     1       4.040   1.660  -7.535  1.00  0.00     0.023 C 
BRANCH  24  25
ATOM     25  C   UNL     1       3.873   2.899  -8.402  1.00  0.00     0.116 C 
BRANCH  25  26
ATOM     26  N   UNL     1       3.842   4.159  -7.667  1.00  0.00    -0.352 N 
ATOM     27  C   UNL     1       4.396   5.364  -8.048  1.00  0.00     0.251 C 
ATOM     28  H   UNL     1       3.372   4.149  -6.802  1.00  0.00     0.163 HD
ATOM     29  O   UNL     1       4.359   6.344  -7.313  1.00  0.00    -0.269 OA
BRANCH  27  30
ATOM     30  C   UNL     1       5.093   5.427  -9.349  1.00  0.00     0.039 A 
ATOM     31  C   UNL     1       6.426   5.838  -9.381  1.00  0.00     0.014 A 
ATOM     32  C   UNL     1       4.468   4.942 -10.501  1.00  0.00     0.014 A 
ATOM     33  C   UNL     1       7.165   5.666 -10.553  1.00  0.00     0.010 A 
ATOM     34  C   UNL     1       5.233   4.679 -11.630  1.00  0.00     0.010 A 
ATOM     35  C   UNL     1       6.591   5.030 -11.667  1.00  0.00    -0.014 A 
BRANCH  35  36
ATOM     36  C   UNL     1       7.392   4.714 -12.879  1.00  0.00     0.031 A 
ATOM     37  C   UNL     1       6.998   5.303 -14.207  1.00  0.00     0.074 A 
ATOM     38  C   UNL     1       8.425   3.850 -12.799  1.00  0.00     0.049 A 
ATOM     39  N   UNL     1       7.505   5.079 -15.392  1.00  0.00    -0.248 NA
ATOM     40  C   UNL     1       5.866   6.244 -14.209  1.00  0.00     0.031 C 
ATOM     41  C   UNL     1       8.877   3.176 -11.578  1.00  0.00     0.029 A 
ATOM     42  N   UNL     1       9.280   3.381 -13.766  1.00  0.00    -0.354 N 
ATOM     43  C   UNL     1       6.755   5.847 -16.274  1.00  0.00     0.074 A 
ATOM     44  C   UNL     1       5.712   6.484 -15.502  1.00  0.00     0.031 C 
ATOM     45  C   UNL     1       9.943   2.410 -11.864  1.00  0.00     0.029 A 
ATOM     46  C   UNL     1      10.222   2.496 -13.294  1.00  0.00     0.049 A 
ATOM     47  H   UNL     1       9.223   3.653 -14.710  1.00  0.00     0.167 HD
ATOM     48  C   UNL     1       6.938   6.033 -17.602  1.00  0.00     0.037 A 
ATOM     49  C   UNL     1      11.195   1.824 -13.941  1.00  0.00     0.037 A 
ATOM     50  C   UNL     1       7.991   5.414 -18.363  1.00  0.00     0.049 A 
ATOM     51  C   UNL     1      11.353   2.021 -15.427  1.00  0.00     0.074 A 
ATOM     52  C   UNL     1       8.282   5.565 -19.707  1.00  0.00     0.029 A 
ATOM     53  N   UNL     1       8.928   4.532 -17.847  1.00  0.00    -0.354 N 
ATOM     54  N   UNL     1      10.665   2.792 -16.236  1.00  0.00    -0.248 NA
ATOM     55  C   UNL     1      12.420   1.257 -16.090  1.00  0.00     0.031 C 
ATOM     56  C   UNL     1       9.368   4.739 -20.014  1.00  0.00     0.029 A 
ATOM     57  C   UNL     1       9.788   4.117 -18.850  1.00  0.00     0.049 A 
ATOM     58  H   UNL     1       8.976   4.243 -16.907  1.00  0.00     0.167 HD
ATOM     59  C   UNL     1      11.241   2.634 -17.492  1.00  0.00     0.074 A 
ATOM     60  C   UNL     1      12.339   1.704 -17.335  1.00  0.00     0.031 C 
ATOM     61  C   UNL     1      10.892   3.207 -18.671  1.00  0.00     0.037 A 
BRANCH  48  62
ATOM     62  C   UNL     1       5.994   6.963 -18.314  1.00  0.00     0.058 A 
ATOM     63  C   UNL     1       6.020   8.348 -18.085  1.00  0.00     0.135 A 
ATOM     64  C   UNL     1       5.088   6.474 -19.269  1.00  0.00     0.135 A 
ATOM     65  F   UNL     1       6.853   8.867 -17.168  1.00  0.00    -0.206 F 
ATOM     66  C   UNL     1       5.168   9.214 -18.761  1.00  0.00     0.059 A 
ATOM     67  C   UNL     1       4.247   7.326 -19.980  1.00  0.00     0.059 A 
ATOM     68  F   UNL     1       5.018   5.158 -19.524  1.00  0.00    -0.206 F 
ATOM     69  C   UNL     1       4.288   8.693 -19.711  1.00  0.00     0.060 A 
BRANCH  69  70
ATOM     70  S   UNL     1       3.209   9.837 -20.597  1.00  0.00     0.124 S 
ATOM     71  O   UNL     1       2.275  10.229 -19.547  1.00  0.00    -0.237 OA
ATOM     72  O   UNL     1       4.143  10.871 -21.032  1.00  0.00    -0.237 OA
ATOM     73  O   UNL     1       2.645   9.016 -21.664  1.00  0.00    -0.744 OA
ENDBRANCH  69  70
ENDBRANCH  48  62
BRANCH  49  74
ATOM     74  C   UNL     1      12.108   0.910 -13.200  1.00  0.00     0.058 A 
ATOM     75  C   UNL     1      13.474   1.207 -13.069  1.00  0.00     0.135 A 
ATOM     76  C   UNL     1      11.647  -0.290 -12.637  1.00  0.00     0.135 A 
ATOM     77  F   UNL     1      13.967   2.339 -13.594  1.00  0.00    -0.206 F 
ATOM     78  C   UNL     1      14.356   0.333 -12.440  1.00  0.00     0.059 A 
ATOM     79  C   UNL     1      12.504  -1.166 -11.976  1.00  0.00     0.059 A 
ATOM     80  F   UNL     1      10.348  -0.616 -12.717  1.00  0.00    -0.206 F 
ATOM     81  C   UNL     1      13.860  -0.854 -11.900  1.00  0.00     0.060 A 
BRANCH  81  82
ATOM     82  S   UNL     1      15.011  -1.979 -11.079  1.00  0.00     0.124 S 
ATOM     83  O   UNL     1      15.745  -2.525 -12.214  1.00  0.00    -0.237 OA
ATOM     84  O   UNL     1      15.757  -1.073 -10.211  1.00  0.00    -0.237 OA
ATOM     85  O   UNL     1      14.129  -2.914 -10.388  1.00  0.00    -0.744 OA
ENDBRANCH  81  82
ENDBRANCH  49  74
BRANCH  61  86
ATOM     86  C   UNL     1      11.732   2.887 -19.877  1.00  0.00     0.058 A 
ATOM     87  C   UNL     1      11.684   1.631 -20.500  1.00  0.00     0.135 A 
ATOM     88  C   UNL     1      12.547   3.875 -20.453  1.00  0.00     0.135 A 
ATOM     89  F   UNL     1      10.926   0.649 -19.986  1.00  0.00    -0.206 F 
ATOM     90  C   UNL     1      12.431   1.358 -21.642  1.00  0.00     0.059 A 
ATOM     91  C   UNL     1      13.279   3.634 -21.612  1.00  0.00     0.059 A 
ATOM     92  F   UNL     1      12.621   5.097 -19.903  1.00  0.00    -0.206 F 
ATOM     93  C   UNL     1      13.222   2.369 -22.193  1.00  0.00     0.060 A 
BRANCH  93  94
ATOM     94  S   UNL     1      14.149   2.014 -23.701  1.00  0.00     0.124 S 
ATOM     95  O   UNL     1      15.202   1.138 -23.200  1.00  0.00    -0.237 OA
ATOM     96  O   UNL     1      13.141   1.377 -24.543  1.00  0.00    -0.237 OA
ATOM     97  O   UNL     1      14.588   3.332 -24.149  1.00  0.00    -0.744 OA
ENDBRANCH  93  94
ENDBRANCH  61  86
ENDBRANCH  35  36
ENDBRANCH  27  30
ENDBRANCH  25  26
ENDBRANCH  24  25
ENDBRANCH   1  24
TORSDOF 18
