REMARK SMILES Nc1nn(-c2cc(Cl)ccc2Cl)nc1C(=O)NCCCCNC(=O)c1ccc(-c2c3nc(c(-c4c(F)cc(S(=O)(=O)[O-])cc4F)c4ccc([nH]4)c(-c4c(F)cc(S(=O)(=O)[O-])cc4F)c4nc(c(-c5c(F)cc(S(=O)(=O)[O-])cc5F)c5ccc2[nH]5)C=C4)C=C3)cc1
REMARK SMILES IDX 20 1 19 2 18 3 17 4 15 5 16 6 14 8 2 9 3 10 4 11 13 12 1 13
REMARK SMILES IDX 5 16 6 17 11 18 7 19 10 20 12 21 8 22 9 23 21 24 22 25 23 26
REMARK SMILES IDX 24 28 25 29 26 30 90 31 27 32 89 33 28 34 29 35 30 36 83 37
REMARK SMILES IDX 31 38 88 39 82 40 84 41 32 42 87 43 81 44 80 45 33 47 67 48
REMARK SMILES IDX 46 49 66 50 47 51 50 52 65 53 85 54 48 55 49 56 64 58 86 59
REMARK SMILES IDX 51 60 34 61 35 62 44 63 36 64 37 65 43 66 45 67 38 68 39 69
REMARK SMILES IDX 40 70 41 71 42 72 68 73 69 74 78 75 70 76 71 77 77 78 79 79
REMARK SMILES IDX 72 80 73 81 74 82 75 83 76 84 52 85 53 86 62 87 54 88 55 89
REMARK SMILES IDX 61 90 63 91 56 92 57 93 58 94 59 95 60 96
REMARK H PARENT 17 7 1 14 1 15 22 27 84 46 50 57
REMARK Flexibility Score: inf
ROOT
ATOM      1  C   UNL     1       2.727   2.336   3.309  1.00  0.00     0.023 C 
ENDROOT
BRANCH   1   2
ATOM      2  C   UNL     1       1.552   1.868   2.444  1.00  0.00     0.023 C 
BRANCH   2   3
ATOM      3  C   UNL     1       1.740   0.607   1.597  1.00  0.00     0.116 C 
BRANCH   3   4
ATOM      4  N   UNL     1       1.918  -0.608   2.361  1.00  0.00    -0.351 N 
ATOM      5  C   UNL     1       1.236  -1.810   2.336  1.00  0.00     0.275 C 
ATOM      6  O   UNL     1       1.564  -2.619   3.209  1.00  0.00    -0.267 OA
ATOM      7  H   UNL     1       2.654  -0.573   3.014  1.00  0.00     0.163 HD
BRANCH   5   8
ATOM      8  C   UNL     1       0.175  -2.123   1.364  1.00  0.00     0.194 A 
ATOM      9  C   UNL     1      -0.027  -1.780  -0.007  1.00  0.00     0.179 A 
ATOM     10  N   UNL     1      -1.115  -2.384  -0.469  1.00  0.00    -0.130 NA
ATOM     11  N   UNL     1      -1.428  -3.221   0.536  1.00  0.00    -0.147 N 
ATOM     12  N   UNL     1      -0.842  -2.948   1.724  1.00  0.00    -0.141 NA
BRANCH   9  13
ATOM     13  N   UNL     1       0.703  -1.018  -0.830  1.00  0.00    -0.380 N 
ATOM     14  H   UNL     1       0.415  -0.884  -1.762  1.00  0.00     0.158 HD
ATOM     15  H   UNL     1       1.528  -0.592  -0.503  1.00  0.00     0.158 HD
ENDBRANCH   9  13
BRANCH  11  16
ATOM     16  C   UNL     1      -2.376  -4.261   0.382  1.00  0.00     0.106 A 
ATOM     17  C   UNL     1      -3.187  -4.598   1.481  1.00  0.00     0.052 A 
ATOM     18  C   UNL     1      -2.521  -4.957  -0.830  1.00  0.00     0.068 A 
ATOM     19  C   UNL     1      -4.171  -5.577   1.342  1.00  0.00     0.043 A 
ATOM     20  C   UNL     1      -3.490  -5.964  -0.937  1.00  0.00     0.024 A 
ATOM     21  Cl  UNL     1      -1.484  -4.773  -2.203  1.00  0.00    -0.082 Cl
ATOM     22  Cl  UNL     1      -5.229  -5.928   2.654  1.00  0.00    -0.084 Cl
ATOM     23  C   UNL     1      -4.324  -6.263   0.140  1.00  0.00     0.022 A 
ENDBRANCH  11  16
ENDBRANCH   5   8
ENDBRANCH   3   4
ENDBRANCH   2   3
ENDBRANCH   1   2
BRANCH   1  24
ATOM     24  C   UNL     1       4.018   2.606   2.553  1.00  0.00     0.116 C 
BRANCH  24  25
ATOM     25  N   UNL     1       3.918   3.677   1.558  1.00  0.00    -0.352 N 
ATOM     26  C   UNL     1       4.944   4.201   0.785  1.00  0.00     0.251 C 
ATOM     27  H   UNL     1       3.025   4.068   1.423  1.00  0.00     0.163 HD
ATOM     28  O   UNL     1       4.830   5.293   0.235  1.00  0.00    -0.269 OA
BRANCH  26  29
ATOM     29  C   UNL     1       6.175   3.406   0.633  1.00  0.00     0.039 A 
ATOM     30  C   UNL     1       7.453   3.967   0.729  1.00  0.00     0.014 A 
ATOM     31  C   UNL     1       6.008   2.038   0.460  1.00  0.00     0.014 A 
ATOM     32  C   UNL     1       8.559   3.117   0.740  1.00  0.00     0.010 A 
ATOM     33  C   UNL     1       7.068   1.202   0.668  1.00  0.00     0.010 A 
ATOM     34  C   UNL     1       8.353   1.731   0.728  1.00  0.00    -0.014 A 
BRANCH  34  35
ATOM     35  C   UNL     1       9.449   0.778   0.853  1.00  0.00     0.031 A 
ATOM     36  C   UNL     1      10.220   0.868   2.124  1.00  0.00     0.074 A 
ATOM     37  C   UNL     1       9.538  -0.289   0.027  1.00  0.00     0.049 A 
ATOM     38  N   UNL     1      11.446   1.240   2.290  1.00  0.00    -0.248 NA
ATOM     39  C   UNL     1       9.491   0.670   3.389  1.00  0.00     0.031 C 
ATOM     40  C   UNL     1       8.611  -0.685  -1.045  1.00  0.00     0.029 A 
ATOM     41  N   UNL     1      10.401  -1.336   0.063  1.00  0.00    -0.354 N 
ATOM     42  C   UNL     1      11.716   1.070   3.648  1.00  0.00     0.074 A 
ATOM     43  C   UNL     1      10.433   0.964   4.287  1.00  0.00     0.031 C 
ATOM     44  C   UNL     1       8.811  -1.981  -1.363  1.00  0.00     0.029 A 
ATOM     45  C   UNL     1       9.989  -2.450  -0.660  1.00  0.00     0.049 A 
ATOM     46  H   UNL     1      11.251  -1.308   0.560  1.00  0.00     0.167 HD
ATOM     47  C   UNL     1      12.970   0.752   4.086  1.00  0.00     0.037 A 
ATOM     48  C   UNL     1      10.556  -3.682  -0.648  1.00  0.00     0.037 A 
ATOM     49  C   UNL     1      13.937   0.950   3.029  1.00  0.00     0.049 A 
ATOM     50  C   UNL     1      11.938  -3.510  -0.125  1.00  0.00     0.074 A 
ATOM     51  C   UNL     1      14.324   2.021   2.248  1.00  0.00     0.029 A 
ATOM     52  N   UNL     1      14.400  -0.172   2.381  1.00  0.00    -0.354 N 
ATOM     53  N   UNL     1      12.864  -2.820  -0.740  1.00  0.00    -0.248 NA
ATOM     54  C   UNL     1      12.146  -3.688   1.304  1.00  0.00     0.031 C 
ATOM     55  C   UNL     1      14.555   1.467   0.954  1.00  0.00     0.029 A 
ATOM     56  C   UNL     1      14.375   0.084   1.036  1.00  0.00     0.049 A 
ATOM     57  H   UNL     1      14.696  -1.008   2.808  1.00  0.00     0.167 HD
ATOM     58  C   UNL     1      13.526  -2.129   0.267  1.00  0.00     0.074 A 
ATOM     59  C   UNL     1      13.098  -2.772   1.508  1.00  0.00     0.031 C 
ATOM     60  C   UNL     1      14.120  -0.922   0.026  1.00  0.00     0.037 A 
BRANCH  47  61
ATOM     61  C   UNL     1      13.293  -0.123   5.288  1.00  0.00     0.058 A 
ATOM     62  C   UNL     1      14.652  -0.362   5.599  1.00  0.00     0.135 A 
ATOM     63  C   UNL     1      12.374  -0.971   5.946  1.00  0.00     0.135 A 
ATOM     64  F   UNL     1      15.621   0.407   5.077  1.00  0.00    -0.206 F 
ATOM     65  C   UNL     1      15.069  -1.448   6.370  1.00  0.00     0.059 A 
ATOM     66  C   UNL     1      12.767  -2.028   6.761  1.00  0.00     0.059 A 
ATOM     67  F   UNL     1      11.053  -0.886   5.772  1.00  0.00    -0.206 F 
ATOM     68  C   UNL     1      14.115  -2.295   6.919  1.00  0.00     0.060 A 
BRANCH  68  69
ATOM     69  S   UNL     1      14.645  -3.783   7.782  1.00  0.00     0.124 S 
ATOM     70  O   UNL     1      15.176  -4.578   6.681  1.00  0.00    -0.237 OA
ATOM     71  O   UNL     1      15.626  -3.253   8.723  1.00  0.00    -0.237 OA
ATOM     72  O   UNL     1      13.410  -4.277   8.383  1.00  0.00    -0.744 OA
ENDBRANCH  68  69
ENDBRANCH  47  61
BRANCH  48  73
ATOM     73  C   UNL     1       9.862  -4.996  -0.730  1.00  0.00     0.058 A 
ATOM     74  C   UNL     1      10.562  -6.186  -0.996  1.00  0.00     0.135 A 
ATOM     75  C   UNL     1       8.528  -5.149  -0.296  1.00  0.00     0.135 A 
ATOM     76  F   UNL     1      11.844  -6.137  -1.389  1.00  0.00    -0.206 F 
ATOM     77  C   UNL     1       9.986  -7.450  -0.812  1.00  0.00     0.059 A 
ATOM     78  C   UNL     1       7.929  -6.396  -0.116  1.00  0.00     0.059 A 
ATOM     79  F   UNL     1       7.786  -4.086   0.049  1.00  0.00    -0.206 F 
ATOM     80  C   UNL     1       8.672  -7.545  -0.356  1.00  0.00     0.060 A 
BRANCH  80  81
ATOM     81  S   UNL     1       7.971  -9.170   0.024  1.00  0.00     0.124 S 
ATOM     82  O   UNL     1       7.852  -9.765  -1.303  1.00  0.00    -0.237 OA
ATOM     83  O   UNL     1       8.988  -9.750   0.894  1.00  0.00    -0.237 OA
ATOM     84  O   UNL     1       6.705  -8.849   0.678  1.00  0.00    -0.744 OA
ENDBRANCH  80  81
ENDBRANCH  48  73
BRANCH  60  85
ATOM     85  C   UNL     1      14.326  -0.484  -1.402  1.00  0.00     0.058 A 
ATOM     86  C   UNL     1      13.288  -0.153  -2.291  1.00  0.00     0.135 A 
ATOM     87  C   UNL     1      15.636  -0.191  -1.811  1.00  0.00     0.135 A 
ATOM     88  F   UNL     1      12.005  -0.309  -1.944  1.00  0.00    -0.206 F 
ATOM     89  C   UNL     1      13.543   0.426  -3.536  1.00  0.00     0.059 A 
ATOM     90  C   UNL     1      15.911   0.413  -3.034  1.00  0.00     0.059 A 
ATOM     91  F   UNL     1      16.666  -0.427  -0.981  1.00  0.00    -0.206 F 
ATOM     92  C   UNL     1      14.859   0.715  -3.895  1.00  0.00     0.060 A 
BRANCH  92  93
ATOM     93  S   UNL     1      15.180   1.567  -5.455  1.00  0.00     0.124 S 
ATOM     94  O   UNL     1      14.898   0.525  -6.437  1.00  0.00    -0.237 OA
ATOM     95  O   UNL     1      14.229   2.674  -5.414  1.00  0.00    -0.237 OA
ATOM     96  O   UNL     1      16.583   1.960  -5.347  1.00  0.00    -0.744 OA
ENDBRANCH  92  93
ENDBRANCH  60  85
ENDBRANCH  34  35
ENDBRANCH  26  29
ENDBRANCH  24  25
ENDBRANCH   1  24
TORSDOF 16
