REMARK SMILES CC(C)OCCS(=O)(=O)Nc1nccnc1C(=O)NCCCCNC(=O)c1ccc(-c2c3nc(c(-c4c(F)cc(S(=O)(=O)[O-])cc4F)c4ccc([nH]4)c(-c4c(F)cc(S(=O)(=O)[O-])cc4F)c4nc(c(-c5c(F)cc(S(=O)(=O)[O-])cc5F)c5ccc2[nH]5)C=C4)C=C3)cc1
REMARK SMILES IDX 20 1 19 2 17 3 18 4 16 6 11 7 12 8 13 9 15 10 14 11 10 12
REMARK SMILES IDX 7 14 8 15 9 16 6 17 5 18 4 19 2 20 1 21 3 22 21 23 22 24
REMARK SMILES IDX 23 25 24 26 25 27 26 29 27 30 28 31 92 32 29 33 91 34 30 35
REMARK SMILES IDX 31 36 32 37 85 38 33 39 90 40 84 41 86 42 34 43 89 44 83 45
REMARK SMILES IDX 82 46 35 48 69 49 48 50 68 51 49 52 52 53 67 54 87 55 50 56
REMARK SMILES IDX 51 57 66 59 88 60 53 61 36 62 37 63 46 64 38 65 39 66 45 67
REMARK SMILES IDX 47 68 40 69 41 70 42 71 43 72 44 73 70 74 71 75 80 76 72 77
REMARK SMILES IDX 73 78 79 79 81 80 74 81 75 82 76 83 77 84 78 85 54 86 55 87
REMARK SMILES IDX 64 88 56 89 57 90 63 91 65 92 58 93 59 94 60 95 61 96 62 97
REMARK H PARENT 19 5 10 13 24 28 86 47 52 58
REMARK Flexibility Score: inf
ROOT
ATOM      1  C   UNL     1       2.628  -3.189   3.507  1.00  0.00     0.116 C 
ENDROOT
BRANCH   1   2
ATOM      2  N   UNL     1       3.056  -4.355   2.813  1.00  0.00    -0.351 N 
ATOM      3  C   UNL     1       2.589  -4.753   1.592  1.00  0.00     0.273 C 
ATOM      4  O   UNL     1       3.174  -5.686   1.036  1.00  0.00    -0.267 OA
ATOM      5  H   UNL     1       3.740  -4.917   3.244  1.00  0.00     0.163 HD
BRANCH   3   6
ATOM      6  C   UNL     1       1.375  -4.159   0.936  1.00  0.00     0.171 A 
ATOM      7  C   UNL     1       1.156  -2.806   0.615  1.00  0.00     0.171 A 
ATOM      8  N   UNL     1       0.463  -2.536  -0.512  1.00  0.00    -0.235 NA
ATOM      9  C   UNL     1      -0.119  -3.556  -1.197  1.00  0.00     0.133 A 
ATOM     10  N   UNL     1       0.659  -5.169   0.321  1.00  0.00    -0.246 NA
ATOM     11  C   UNL     1      -0.076  -4.848  -0.752  1.00  0.00     0.132 A 
BRANCH   7  12
ATOM     12  N   UNL     1       1.802  -1.601   1.049  1.00  0.00    -0.265 N 
ATOM     13  H   UNL     1       2.717  -1.497   0.702  1.00  0.00     0.181 HD
BRANCH  12  14
ATOM     14  S   UNL     1       1.308  -0.334   2.030  1.00  0.00     0.236 S 
ATOM     15  O   UNL     1       1.633   0.839   1.243  1.00  0.00    -0.207 OA
ATOM     16  O   UNL     1       2.024  -0.503   3.281  1.00  0.00    -0.207 OA
BRANCH  14  17
ATOM     17  C   UNL     1      -0.426  -0.188   2.551  1.00  0.00     0.188 C 
BRANCH  17  18
ATOM     18  C   UNL     1      -1.257   0.927   1.909  1.00  0.00     0.178 C 
BRANCH  18  19
ATOM     19  O   UNL     1      -2.308   0.575   1.008  1.00  0.00    -0.378 OA
BRANCH  19  20
ATOM     20  C   UNL     1      -2.008  -0.311  -0.064  1.00  0.00     0.112 C 
ATOM     21  C   UNL     1      -0.806   0.177  -0.883  1.00  0.00     0.038 C 
ATOM     22  C   UNL     1      -2.115  -1.727   0.499  1.00  0.00     0.038 C 
ENDBRANCH  19  20
ENDBRANCH  18  19
ENDBRANCH  17  18
ENDBRANCH  14  17
ENDBRANCH  12  14
ENDBRANCH   7  12
ENDBRANCH   3   6
ENDBRANCH   1   2
BRANCH   1  23
ATOM     23  C   UNL     1       2.922  -3.153   4.988  1.00  0.00     0.023 C 
BRANCH  23  24
ATOM     24  C   UNL     1       4.391  -2.972   5.341  1.00  0.00     0.023 C 
BRANCH  24  25
ATOM     25  C   UNL     1       5.173  -1.952   4.519  1.00  0.00     0.116 C 
BRANCH  25  26
ATOM     26  N   UNL     1       4.667  -0.584   4.580  1.00  0.00    -0.352 N 
ATOM     27  C   UNL     1       5.301   0.561   5.014  1.00  0.00     0.251 C 
ATOM     28  H   UNL     1       3.741  -0.462   4.267  1.00  0.00     0.163 HD
ATOM     29  O   UNL     1       4.726   1.647   5.024  1.00  0.00    -0.269 OA
BRANCH  27  30
ATOM     30  C   UNL     1       6.676   0.452   5.546  1.00  0.00     0.039 A 
ATOM     31  C   UNL     1       6.931   0.901   6.842  1.00  0.00     0.014 A 
ATOM     32  C   UNL     1       7.656  -0.235   4.830  1.00  0.00     0.014 A 
ATOM     33  C   UNL     1       8.123   0.534   7.471  1.00  0.00     0.010 A 
ATOM     34  C   UNL     1       8.778  -0.707   5.502  1.00  0.00     0.010 A 
ATOM     35  C   UNL     1       9.019  -0.342   6.836  1.00  0.00    -0.014 A 
BRANCH  35  36
ATOM     36  C   UNL     1      10.194  -0.907   7.556  1.00  0.00     0.031 A 
ATOM     37  C   UNL     1      11.583  -0.707   7.005  1.00  0.00     0.074 A 
ATOM     38  C   UNL     1      10.010  -1.666   8.658  1.00  0.00     0.049 A 
ATOM     39  N   UNL     1      12.720  -1.181   7.443  1.00  0.00    -0.248 NA
ATOM     40  C   UNL     1      11.706   0.099   5.779  1.00  0.00     0.031 C 
ATOM     41  C   UNL     1       8.712  -2.009   9.249  1.00  0.00     0.029 A 
ATOM     42  N   UNL     1      10.914  -2.299   9.477  1.00  0.00    -0.354 N 
ATOM     43  C   UNL     1      13.683  -0.752   6.537  1.00  0.00     0.074 A 
ATOM     44  C   UNL     1      12.992  -0.036   5.490  1.00  0.00     0.031 C 
ATOM     45  C   UNL     1       8.906  -2.755  10.348  1.00  0.00     0.029 A 
ATOM     46  C   UNL     1      10.336  -2.984  10.523  1.00  0.00     0.049 A 
ATOM     47  H   UNL     1      11.887  -2.266   9.329  1.00  0.00     0.167 HD
ATOM     48  C   UNL     1      15.026  -0.910   6.589  1.00  0.00     0.037 A 
ATOM     49  C   UNL     1      10.893  -3.719  11.507  1.00  0.00     0.037 A 
ATOM     50  C   UNL     1      15.716  -1.579   7.659  1.00  0.00     0.049 A 
ATOM     51  C   UNL     1      12.393  -3.850  11.559  1.00  0.00     0.074 A 
ATOM     52  C   UNL     1      17.080  -1.716   7.848  1.00  0.00     0.029 A 
ATOM     53  N   UNL     1      15.098  -2.219   8.723  1.00  0.00    -0.354 N 
ATOM     54  N   UNL     1      13.292  -3.360  10.740  1.00  0.00    -0.248 NA
ATOM     55  C   UNL     1      12.955  -4.627  12.673  1.00  0.00     0.031 C 
ATOM     56  C   UNL     1      17.286  -2.481   8.999  1.00  0.00     0.029 A 
ATOM     57  C   UNL     1      16.052  -2.773   9.559  1.00  0.00     0.049 A 
ATOM     58  H   UNL     1      14.124  -2.272   8.863  1.00  0.00     0.167 HD
ATOM     59  C   UNL     1      14.526  -3.745  11.255  1.00  0.00     0.074 A 
ATOM     60  C   UNL     1      14.258  -4.492  12.465  1.00  0.00     0.031 C 
ATOM     61  C   UNL     1      15.768  -3.504  10.768  1.00  0.00     0.037 A 
BRANCH  48  62
ATOM     62  C   UNL     1      15.846  -0.332   5.468  1.00  0.00     0.058 A 
ATOM     63  C   UNL     1      15.998   1.054   5.303  1.00  0.00     0.135 A 
ATOM     64  C   UNL     1      16.536  -1.176   4.582  1.00  0.00     0.135 A 
ATOM     65  F   UNL     1      15.345   1.907   6.108  1.00  0.00    -0.206 F 
ATOM     66  C   UNL     1      16.790   1.584   4.290  1.00  0.00     0.059 A 
ATOM     67  C   UNL     1      17.358  -0.668   3.580  1.00  0.00     0.059 A 
ATOM     68  F   UNL     1      16.422  -2.509   4.691  1.00  0.00    -0.206 F 
ATOM     69  C   UNL     1      17.472   0.714   3.438  1.00  0.00     0.060 A 
BRANCH  69  70
ATOM     70  S   UNL     1      18.528   1.420   2.156  1.00  0.00     0.124 S 
ATOM     71  O   UNL     1      17.539   1.961   1.228  1.00  0.00    -0.237 OA
ATOM     72  O   UNL     1      19.304   2.407   2.901  1.00  0.00    -0.237 OA
ATOM     73  O   UNL     1      19.284   0.272   1.666  1.00  0.00    -0.744 OA
ENDBRANCH  69  70
ENDBRANCH  48  62
BRANCH  49  74
ATOM     74  C   UNL     1      10.038  -4.377  12.535  1.00  0.00     0.058 A 
ATOM     75  C   UNL     1      10.056  -3.954  13.874  1.00  0.00     0.135 A 
ATOM     76  C   UNL     1       9.200  -5.454  12.207  1.00  0.00     0.135 A 
ATOM     77  F   UNL     1      10.843  -2.932  14.243  1.00  0.00    -0.206 F 
ATOM     78  C   UNL     1       9.301  -4.593  14.854  1.00  0.00     0.059 A 
ATOM     79  C   UNL     1       8.413  -6.090  13.163  1.00  0.00     0.059 A 
ATOM     80  F   UNL     1       9.130  -5.889  10.939  1.00  0.00    -0.206 F 
ATOM     81  C   UNL     1       8.483  -5.662  14.488  1.00  0.00     0.060 A 
BRANCH  81  82
ATOM     82  S   UNL     1       7.489  -6.471  15.762  1.00  0.00     0.124 S 
ATOM     83  O   UNL     1       8.505  -7.212  16.500  1.00  0.00    -0.237 OA
ATOM     84  O   UNL     1       6.897  -5.333  16.457  1.00  0.00    -0.237 OA
ATOM     85  O   UNL     1       6.551  -7.282  14.991  1.00  0.00    -0.744 OA
ENDBRANCH  81  82
ENDBRANCH  49  74
BRANCH  61  86
ATOM     86  C   UNL     1      16.937  -4.017  11.563  1.00  0.00     0.058 A 
ATOM     87  C   UNL     1      17.242  -5.386  11.631  1.00  0.00     0.135 A 
ATOM     88  C   UNL     1      17.793  -3.121  12.225  1.00  0.00     0.135 A 
ATOM     89  F   UNL     1      16.454  -6.285  11.020  1.00  0.00    -0.206 F 
ATOM     90  C   UNL     1      18.338  -5.850  12.350  1.00  0.00     0.059 A 
ATOM     91  C   UNL     1      18.912  -3.561  12.924  1.00  0.00     0.059 A 
ATOM     92  F   UNL     1      17.555  -1.801  12.181  1.00  0.00    -0.206 F 
ATOM     93  C   UNL     1      19.168  -4.929  12.993  1.00  0.00     0.060 A 
BRANCH  93  94
ATOM     94  S   UNL     1      20.601  -5.544  13.902  1.00  0.00     0.124 S 
ATOM     95  O   UNL     1      19.972  -6.127  15.082  1.00  0.00    -0.237 OA
ATOM     96  O   UNL     1      21.185  -6.494  12.960  1.00  0.00    -0.237 OA
ATOM     97  O   UNL     1      21.393  -4.342  14.142  1.00  0.00    -0.744 OA
ENDBRANCH  93  94
ENDBRANCH  61  86
ENDBRANCH  35  36
ENDBRANCH  27  30
ENDBRANCH  25  26
ENDBRANCH  24  25
ENDBRANCH  23  24
ENDBRANCH   1  23
TORSDOF 20
