REMARK SMILES C#Cc1cc(Cl)c2c(c1)C=C(C(=O)NCCCCNC(=O)c1ccc(-c3c4nc(c(-c5c(F)cc(S(=O)(=O)[O-])cc5F)c5ccc([nH]5)c(-c5c(F)cc(S(=O)(=O)[O-])cc5F)c5nc(c(-c6c(F)cc(S(=O)(=O)[O-])cc6F)c6ccc3[nH]6)C=C5)C=C4)cc1)[C@@H](C(F)(F)F)O2
REMARK SMILES IDX 17 1 16 2 15 3 14 4 12 5 13 6 11 8 3 9 4 10 9 11 5 12 8 13
REMARK SMILES IDX 6 14 7 15 10 16 93 17 88 18 2 19 1 20 89 21 90 22 91 23
REMARK SMILES IDX 92 24 18 25 19 26 20 27 21 29 22 30 23 31 87 32 24 33 86 34
REMARK SMILES IDX 25 35 26 36 27 37 80 38 28 39 85 40 79 41 81 42 29 43 84 44
REMARK SMILES IDX 78 45 77 46 30 48 64 49 43 50 63 51 44 52 47 53 62 54 82 55
REMARK SMILES IDX 45 56 46 57 61 59 83 60 48 61 31 62 32 63 41 64 33 65 34 66
REMARK SMILES IDX 40 67 42 68 35 69 36 70 37 71 38 72 39 73 65 74 66 75 75 76
REMARK SMILES IDX 67 77 68 78 74 79 76 80 69 81 70 82 71 83 72 84 73 85 49 86
REMARK SMILES IDX 50 87 59 88 51 89 52 90 58 91 60 92 53 93 54 94 55 95 56 96
REMARK SMILES IDX 57 97
REMARK H PARENT 14 7 19 28 81 47 47 58
REMARK Flexibility Score: inf
ROOT
ATOM      1  C   UNL     1     -11.004   3.610   1.651  1.00  0.00     0.023 C 
ENDROOT
BRANCH   1   2
ATOM      2  C   UNL     1      -9.944   2.525   1.506  1.00  0.00     0.023 C 
BRANCH   2   3
ATOM      3  C   UNL     1      -9.192   2.595   0.184  1.00  0.00     0.116 C 
BRANCH   3   4
ATOM      4  N   UNL     1      -8.086   3.538   0.230  1.00  0.00    -0.352 N 
ATOM      5  C   UNL     1      -6.734   3.478   0.157  1.00  0.00     0.251 C 
ATOM      6  O   UNL     1      -6.144   4.562   0.191  1.00  0.00    -0.270 OA
ATOM      7  H   UNL     1      -8.403   4.463   0.344  1.00  0.00     0.163 HD
BRANCH   5   8
ATOM      8  C   UNL     1      -5.946   2.214   0.045  1.00  0.00     0.067 C 
ATOM      9  C   UNL     1      -1.635   0.012   0.022  1.00  0.00     0.027 A 
ATOM     10  C   UNL     1      -2.262  -1.235   0.021  1.00  0.00     0.041 A 
ATOM     11  C   UNL     1      -2.396   1.186   0.049  1.00  0.00     0.029 A 
ATOM     12  C   UNL     1      -3.650  -1.307   0.046  1.00  0.00     0.084 A 
ATOM     13  C   UNL     1      -3.794   1.116   0.073  1.00  0.00     0.020 A 
ATOM     14  Cl  UNL     1      -4.396  -2.866   0.055  1.00  0.00    -0.080 Cl
ATOM     15  C   UNL     1      -4.415  -0.137   0.065  1.00  0.00     0.146 A 
ATOM     16  C   UNL     1      -4.609   2.324   0.161  1.00  0.00     0.025 C 
ATOM     17  O   UNL     1      -5.770  -0.275   0.129  1.00  0.00    -0.474 OA
ATOM     18  C   UNL     1      -6.574   0.877  -0.208  1.00  0.00     0.314 C 
BRANCH   9  19
ATOM     19  C   UNL     1      -0.208   0.071   0.014  1.00  0.00    -0.070 C 
ATOM     20  C   UNL     1       0.994   0.083   0.014  1.00  0.00     0.010 C 
ENDBRANCH   9  19
BRANCH  18  21
ATOM     21  C   UNL     1      -7.083   0.733  -1.656  1.00  0.00     0.429 C 
ATOM     22  F   UNL     1      -7.991  -0.271  -1.741  1.00  0.00    -0.167 F 
ATOM     23  F   UNL     1      -7.702   1.848  -2.111  1.00  0.00    -0.167 F 
ATOM     24  F   UNL     1      -6.086   0.457  -2.526  1.00  0.00    -0.167 F 
ENDBRANCH  18  21
ENDBRANCH   5   8
ENDBRANCH   3   4
ENDBRANCH   2   3
ENDBRANCH   1   2
BRANCH   1  25
ATOM     25  C   UNL     1     -12.003   3.673   0.501  1.00  0.00     0.116 C 
BRANCH  25  26
ATOM     26  N   UNL     1     -12.669   2.401   0.245  1.00  0.00    -0.352 N 
ATOM     27  C   UNL     1     -14.012   2.177   0.057  1.00  0.00     0.251 C 
ATOM     28  H   UNL     1     -12.087   1.608   0.200  1.00  0.00     0.163 HD
ATOM     29  O   UNL     1     -14.458   1.038  -0.019  1.00  0.00    -0.269 OA
BRANCH  27  30
ATOM     30  C   UNL     1     -14.903   3.349  -0.009  1.00  0.00     0.039 A 
ATOM     31  C   UNL     1     -15.980   3.432   0.873  1.00  0.00     0.014 A 
ATOM     32  C   UNL     1     -14.585   4.412  -0.860  1.00  0.00     0.014 A 
ATOM     33  C   UNL     1     -16.703   4.621   0.948  1.00  0.00     0.010 A 
ATOM     34  C   UNL     1     -15.242   5.624  -0.710  1.00  0.00     0.010 A 
ATOM     35  C   UNL     1     -16.314   5.738   0.188  1.00  0.00    -0.014 A 
BRANCH  35  36
ATOM     36  C   UNL     1     -17.039   7.027   0.298  1.00  0.00     0.031 A 
ATOM     37  C   UNL     1     -17.764   7.574  -0.901  1.00  0.00     0.074 A 
ATOM     38  C   UNL     1     -17.022   7.712   1.458  1.00  0.00     0.049 A 
ATOM     39  N   UNL     1     -18.439   8.686  -1.018  1.00  0.00    -0.248 NA
ATOM     40  C   UNL     1     -17.704   6.776  -2.138  1.00  0.00     0.031 C 
ATOM     41  C   UNL     1     -16.323   7.295   2.677  1.00  0.00     0.029 A 
ATOM     42  N   UNL     1     -17.614   8.900   1.807  1.00  0.00    -0.354 N 
ATOM     43  C   UNL     1     -18.887   8.718  -2.332  1.00  0.00     0.074 A 
ATOM     44  C   UNL     1     -18.341   7.556  -2.997  1.00  0.00     0.031 C 
ATOM     45  C   UNL     1     -16.564   8.190   3.649  1.00  0.00     0.029 A 
ATOM     46  C   UNL     1     -17.393   9.266   3.114  1.00  0.00     0.049 A 
ATOM     47  H   UNL     1     -18.146   9.440   1.179  1.00  0.00     0.167 HD
ATOM     48  C   UNL     1     -19.711   9.613  -2.922  1.00  0.00     0.037 A 
ATOM     49  C   UNL     1     -17.813  10.346   3.803  1.00  0.00     0.037 A 
ATOM     50  C   UNL     1     -20.259  10.760  -2.248  1.00  0.00     0.049 A 
ATOM     51  C   UNL     1     -18.686  11.358   3.109  1.00  0.00     0.074 A 
ATOM     52  C   UNL     1     -21.126  11.714  -2.748  1.00  0.00     0.029 A 
ATOM     53  N   UNL     1     -19.989  11.112  -0.933  1.00  0.00    -0.354 N 
ATOM     54  N   UNL     1     -19.145  11.344   1.880  1.00  0.00    -0.248 NA
ATOM     55  C   UNL     1     -19.099  12.530   3.892  1.00  0.00     0.031 C 
ATOM     56  C   UNL     1     -21.333  12.676  -1.756  1.00  0.00     0.029 A 
ATOM     57  C   UNL     1     -20.649  12.287  -0.615  1.00  0.00     0.049 A 
ATOM     58  H   UNL     1     -19.414  10.602  -0.318  1.00  0.00     0.167 HD
ATOM     59  C   UNL     1     -19.922  12.491   1.750  1.00  0.00     0.074 A 
ATOM     60  C   UNL     1     -19.883  13.166   3.032  1.00  0.00     0.031 C 
ATOM     61  C   UNL     1     -20.603  12.945   0.668  1.00  0.00     0.037 A 
BRANCH  48  62
ATOM     62  C   UNL     1     -20.081   9.382  -4.362  1.00  0.00     0.058 A 
ATOM     63  C   UNL     1     -20.897   8.306  -4.748  1.00  0.00     0.135 A 
ATOM     64  C   UNL     1     -19.655  10.271  -5.362  1.00  0.00     0.135 A 
ATOM     65  F   UNL     1     -21.316   7.413  -3.837  1.00  0.00    -0.206 F 
ATOM     66  C   UNL     1     -21.258   8.106  -6.075  1.00  0.00     0.059 A 
ATOM     67  C   UNL     1     -20.033  10.110  -6.692  1.00  0.00     0.059 A 
ATOM     68  F   UNL     1     -18.869  11.314  -5.051  1.00  0.00    -0.206 F 
ATOM     69  C   UNL     1     -20.826   9.017  -7.040  1.00  0.00     0.060 A 
BRANCH  69  70
ATOM     70  S   UNL     1     -21.321   8.748  -8.754  1.00  0.00     0.124 S 
ATOM     71  O   UNL     1     -20.597   7.522  -9.078  1.00  0.00    -0.237 OA
ATOM     72  O   UNL     1     -22.769   8.617  -8.639  1.00  0.00    -0.237 OA
ATOM     73  O   UNL     1     -20.853   9.950  -9.437  1.00  0.00    -0.744 OA
ENDBRANCH  69  70
ENDBRANCH  48  62
BRANCH  49  74
ATOM     74  C   UNL     1     -17.440  10.504   5.236  1.00  0.00     0.058 A 
ATOM     75  C   UNL     1     -18.406  10.404   6.248  1.00  0.00     0.135 A 
ATOM     76  C   UNL     1     -16.110  10.727   5.626  1.00  0.00     0.135 A 
ATOM     77  F   UNL     1     -19.693  10.200   5.928  1.00  0.00    -0.206 F 
ATOM     78  C   UNL     1     -18.071  10.526   7.593  1.00  0.00     0.059 A 
ATOM     79  C   UNL     1     -15.745  10.823   6.966  1.00  0.00     0.059 A 
ATOM     80  F   UNL     1     -15.143  10.819   4.700  1.00  0.00    -0.206 F 
ATOM     81  C   UNL     1     -16.734  10.726   7.942  1.00  0.00     0.060 A 
BRANCH  81  82
ATOM     82  S   UNL     1     -16.306  10.819   9.694  1.00  0.00     0.124 S 
ATOM     83  O   UNL     1     -16.957  12.062  10.092  1.00  0.00    -0.237 OA
ATOM     84  O   UNL     1     -16.898   9.591  10.215  1.00  0.00    -0.237 OA
ATOM     85  O   UNL     1     -14.847  10.848   9.683  1.00  0.00    -0.744 OA
ENDBRANCH  81  82
ENDBRANCH  49  74
BRANCH  61  86
ATOM     86  C   UNL     1     -21.382  14.225   0.815  1.00  0.00     0.058 A 
ATOM     87  C   UNL     1     -20.741  15.468   0.928  1.00  0.00     0.135 A 
ATOM     88  C   UNL     1     -22.786  14.215   0.751  1.00  0.00     0.135 A 
ATOM     89  F   UNL     1     -19.402  15.535   0.997  1.00  0.00    -0.206 F 
ATOM     90  C   UNL     1     -21.464  16.654   0.991  1.00  0.00     0.059 A 
ATOM     91  C   UNL     1     -23.527  15.392   0.777  1.00  0.00     0.059 A 
ATOM     92  F   UNL     1     -23.450  13.055   0.630  1.00  0.00    -0.206 F 
ATOM     93  C   UNL     1     -22.857  16.607   0.906  1.00  0.00     0.060 A 
BRANCH  93  94
ATOM     94  S   UNL     1     -23.773  18.161   0.944  1.00  0.00     0.124 S 
ATOM     95  O   UNL     1     -23.538  18.609   2.313  1.00  0.00    -0.237 OA
ATOM     96  O   UNL     1     -23.110  18.936  -0.100  1.00  0.00    -0.237 OA
ATOM     97  O   UNL     1     -25.144  17.757   0.645  1.00  0.00    -0.744 OA
ENDBRANCH  93  94
ENDBRANCH  61  86
ENDBRANCH  35  36
ENDBRANCH  27  30
ENDBRANCH  25  26
ENDBRANCH   1  25
TORSDOF 16
