REMARK SMILES CC(C)[C@H](NC(=O)[C@@H]1CC2=c3ccccc3=N[C@H]2[C@@H]2c3ccccc3C(=O)N12)C(=O)N[C@H](C)C(=O)NCCCCNC(=O)c1ccc(-c2c3nc(c(-c4c(F)cc(S(=O)(=O)[O-])cc4F)c4ccc([nH]4)c(-c4c(F)cc(S(=O)(=O)[O-])cc4F)c4nc(c(-c5c(F)cc(S(=O)(=O)[O-])cc5F)c5ccc2[nH]5)C=C4)C=C3)cc1
REMARK SMILES IDX 38 1 37 2 36 3 34 4 35 5 32 7 33 8 31 9 29 10 30 11 4 13
REMARK SMILES IDX 2 14 1 15 3 16 5 17 6 18 7 20 8 21 9 22 28 23 10 24 19 25
REMARK SMILES IDX 26 26 11 27 18 28 20 29 25 30 27 31 12 32 16 33 17 34 21 35
REMARK SMILES IDX 24 36 13 37 15 38 22 39 23 40 14 41 39 42 40 43 41 44 42 45
REMARK SMILES IDX 43 47 44 48 45 49 109 50 46 51 108 52 47 53 48 54 49 55
REMARK SMILES IDX 102 56 50 57 107 58 101 59 103 60 51 61 106 62 100 63 99 64
REMARK SMILES IDX 52 66 86 67 65 68 85 69 66 70 69 71 84 72 104 73 67 74 68 75
REMARK SMILES IDX 83 77 105 78 70 79 53 80 54 81 63 82 55 83 56 84 62 85 64 86
REMARK SMILES IDX 57 87 58 88 59 89 60 90 61 91 87 92 88 93 97 94 89 95 90 96
REMARK SMILES IDX 96 97 98 98 91 99 92 100 93 101 94 102 95 103 71 104 72 105
REMARK SMILES IDX 81 106 73 107 74 108 80 109 82 110 75 111 76 112 77 113
REMARK SMILES IDX 78 114 79 115
REMARK H PARENT 36 6 31 12 5 19 41 46 103 65 69 76
REMARK Flexibility Score: inf
ROOT
ATOM      1  C   UNL     1      -3.584  -5.761   3.205  1.00  0.00     0.023 C 
ENDROOT
BRANCH   1   2
ATOM      2  C   UNL     1      -2.514  -5.694   2.116  1.00  0.00     0.116 C 
BRANCH   2   3
ATOM      3  N   UNL     1      -2.918  -5.079   0.878  1.00  0.00    -0.354 N 
ATOM      4  C   UNL     1      -2.326  -4.087   0.156  1.00  0.00     0.242 C 
ATOM      5  O   UNL     1      -2.651  -4.023  -1.038  1.00  0.00    -0.273 OA
ATOM      6  H   UNL     1      -3.753  -5.431   0.493  1.00  0.00     0.163 HD
BRANCH   4   7
ATOM      7  C   UNL     1      -1.503  -2.908   0.760  1.00  0.00     0.168 C 
ATOM      8  C   UNL     1      -2.524  -2.038   1.518  1.00  0.00     0.041 C 
BRANCH   7   9
ATOM      9  N   UNL     1      -0.307  -2.977   1.611  1.00  0.00    -0.343 N 
ATOM     10  C   UNL     1       0.963  -3.349   1.281  1.00  0.00     0.243 C 
ATOM     11  O   UNL     1       1.831  -2.474   1.347  1.00  0.00    -0.273 OA
ATOM     12  H   UNL     1      -0.442  -2.719   2.552  1.00  0.00     0.164 HD
BRANCH  10  13
ATOM     13  C   UNL     1       1.277  -4.771   0.831  1.00  0.00     0.174 C 
BRANCH  13  14
ATOM     14  C   UNL     1       1.019  -4.920  -0.701  1.00  0.00     0.015 C 
ATOM     15  C   UNL     1       1.964  -4.015  -1.511  1.00  0.00     0.010 C 
ATOM     16  C   UNL     1       1.185  -6.354  -1.220  1.00  0.00     0.010 C 
ENDBRANCH  13  14
BRANCH  13  17
ATOM     17  N   UNL     1       0.547  -5.746   1.661  1.00  0.00    -0.342 N 
ATOM     18  C   UNL     1       0.662  -6.070   2.982  1.00  0.00     0.243 C 
ATOM     19  H   UNL     1      -0.144  -6.253   1.177  1.00  0.00     0.164 HD
ATOM     20  O   UNL     1       0.640  -7.295   3.189  1.00  0.00    -0.273 OA
BRANCH  18  21
ATOM     21  C   UNL     1       0.719  -5.106   4.229  1.00  0.00     0.179 C 
ATOM     22  C   UNL     1      -0.161  -3.820   4.343  1.00  0.00     0.069 C 
ATOM     23  N   UNL     1       2.013  -4.847   4.872  1.00  0.00    -0.317 N 
ATOM     24  C   UNL     1      -0.479  -3.644   5.798  1.00  0.00    -0.031 C 
ATOM     25  C   UNL     1       2.022  -4.126   6.178  1.00  0.00     0.146 C 
ATOM     26  C   UNL     1       3.029  -4.377   4.049  1.00  0.00     0.255 C 
ATOM     27  C   UNL     1      -1.645  -3.788   6.420  1.00  0.00     0.001 A 
ATOM     28  C   UNL     1       0.638  -3.758   6.784  1.00  0.00     0.160 C 
ATOM     29  C   UNL     1       2.808  -2.879   5.801  1.00  0.00    -0.010 A 
ATOM     30  C   UNL     1       3.431  -3.074   4.571  1.00  0.00     0.045 A 
ATOM     31  O   UNL     1       3.413  -4.837   2.991  1.00  0.00    -0.269 OA
ATOM     32  C   UNL     1      -3.018  -3.701   6.050  1.00  0.00     0.010 A 
ATOM     33  C   UNL     1      -1.202  -4.550   7.618  1.00  0.00     0.066 A 
ATOM     34  N   UNL     1       0.084  -4.673   7.819  1.00  0.00    -0.274 NA
ATOM     35  C   UNL     1       2.858  -1.623   6.392  1.00  0.00     0.007 A 
ATOM     36  C   UNL     1       4.050  -2.058   3.864  1.00  0.00     0.014 A 
ATOM     37  C   UNL     1      -3.941  -4.288   6.826  1.00  0.00     0.001 A 
ATOM     38  C   UNL     1      -2.280  -5.216   8.384  1.00  0.00     0.028 A 
ATOM     39  C   UNL     1       3.466  -0.573   5.692  1.00  0.00     0.000 A 
ATOM     40  C   UNL     1       4.053  -0.787   4.434  1.00  0.00     0.001 A 
ATOM     41  C   UNL     1      -3.557  -5.075   7.984  1.00  0.00     0.002 A 
ENDBRANCH  18  21
ENDBRANCH  13  17
ENDBRANCH  10  13
ENDBRANCH   7   9
ENDBRANCH   4   7
ENDBRANCH   2   3
ENDBRANCH   1   2
BRANCH   1  42
ATOM     42  C   UNL     1      -3.916  -7.175   3.697  1.00  0.00     0.023 C 
BRANCH  42  43
ATOM     43  C   UNL     1      -2.718  -7.980   4.212  1.00  0.00     0.116 C 
BRANCH  43  44
ATOM     44  N   UNL     1      -2.460  -7.854   5.643  1.00  0.00    -0.352 N 
ATOM     45  C   UNL     1      -2.697  -8.733   6.681  1.00  0.00     0.251 C 
ATOM     46  H   UNL     1      -2.049  -7.001   5.913  1.00  0.00     0.163 HD
ATOM     47  O   UNL     1      -2.423  -8.419   7.837  1.00  0.00    -0.269 OA
BRANCH  45  48
ATOM     48  C   UNL     1      -3.368 -10.024   6.420  1.00  0.00     0.039 A 
ATOM     49  C   UNL     1      -2.949 -10.854   5.384  1.00  0.00     0.014 A 
ATOM     50  C   UNL     1      -4.495 -10.362   7.175  1.00  0.00     0.014 A 
ATOM     51  C   UNL     1      -3.807 -11.845   4.922  1.00  0.00     0.010 A 
ATOM     52  C   UNL     1      -5.297 -11.435   6.779  1.00  0.00     0.010 A 
ATOM     53  C   UNL     1      -5.012 -12.120   5.589  1.00  0.00    -0.014 A 
BRANCH  53  54
ATOM     54  C   UNL     1      -5.994 -13.053   4.971  1.00  0.00     0.031 A 
ATOM     55  C   UNL     1      -7.354 -12.552   4.540  1.00  0.00     0.074 A 
ATOM     56  C   UNL     1      -5.629 -14.321   4.699  1.00  0.00     0.049 A 
ATOM     57  N   UNL     1      -8.335 -13.209   3.974  1.00  0.00    -0.248 NA
ATOM     58  C   UNL     1      -7.656 -11.130   4.779  1.00  0.00     0.031 C 
ATOM     59  C   UNL     1      -4.335 -14.915   5.038  1.00  0.00     0.029 A 
ATOM     60  N   UNL     1      -6.291 -15.323   4.037  1.00  0.00    -0.354 N 
ATOM     61  C   UNL     1      -9.374 -12.296   3.823  1.00  0.00     0.074 A 
ATOM     62  C   UNL     1      -8.915 -11.041   4.375  1.00  0.00     0.031 C 
ATOM     63  C   UNL     1      -4.266 -16.148   4.513  1.00  0.00     0.029 A 
ATOM     64  C   UNL     1      -5.535 -16.458   3.864  1.00  0.00     0.049 A 
ATOM     65  H   UNL     1      -7.218 -15.238   3.717  1.00  0.00     0.167 HD
ATOM     66  C   UNL     1     -10.595 -12.482   3.266  1.00  0.00     0.037 A 
ATOM     67  C   UNL     1      -5.832 -17.623   3.258  1.00  0.00     0.037 A 
ATOM     68  C   UNL     1     -11.033 -13.719   2.674  1.00  0.00     0.049 A 
ATOM     69  C   UNL     1      -7.195 -17.810   2.659  1.00  0.00     0.074 A 
ATOM     70  C   UNL     1     -12.250 -14.009   2.082  1.00  0.00     0.029 A 
ATOM     71  N   UNL     1     -10.261 -14.868   2.584  1.00  0.00    -0.354 N 
ATOM     72  N   UNL     1      -8.181 -16.950   2.578  1.00  0.00    -0.248 NA
ATOM     73  C   UNL     1      -7.494 -19.131   2.094  1.00  0.00     0.031 C 
ATOM     74  C   UNL     1     -12.223 -15.342   1.655  1.00  0.00     0.029 A 
ATOM     75  C   UNL     1     -10.978 -15.872   1.955  1.00  0.00     0.049 A 
ATOM     76  H   UNL     1      -9.339 -14.957   2.918  1.00  0.00     0.167 HD
ATOM     77  C   UNL     1      -9.226 -17.630   1.966  1.00  0.00     0.074 A 
ATOM     78  C   UNL     1      -8.738 -18.962   1.666  1.00  0.00     0.031 C 
ATOM     79  C   UNL     1     -10.480 -17.197   1.688  1.00  0.00     0.037 A 
BRANCH  66  80
ATOM     80  C   UNL     1     -11.553 -11.323   3.278  1.00  0.00     0.058 A 
ATOM     81  C   UNL     1     -11.404 -10.232   2.407  1.00  0.00     0.135 A 
ATOM     82  C   UNL     1     -12.655 -11.319   4.149  1.00  0.00     0.135 A 
ATOM     83  F   UNL     1     -10.358 -10.175   1.568  1.00  0.00    -0.206 F 
ATOM     84  C   UNL     1     -12.303  -9.169   2.413  1.00  0.00     0.059 A 
ATOM     85  C   UNL     1     -13.577 -10.276   4.159  1.00  0.00     0.059 A 
ATOM     86  F   UNL     1     -12.843 -12.336   5.005  1.00  0.00    -0.206 F 
ATOM     87  C   UNL     1     -13.385  -9.199   3.295  1.00  0.00     0.060 A 
BRANCH  87  88
ATOM     88  S   UNL     1     -14.538  -7.809   3.293  1.00  0.00     0.124 S 
ATOM     89  O   UNL     1     -13.747  -6.775   3.953  1.00  0.00    -0.237 OA
ATOM     90  O   UNL     1     -14.782  -7.606   1.868  1.00  0.00    -0.237 OA
ATOM     91  O   UNL     1     -15.677  -8.310   4.056  1.00  0.00    -0.744 OA
ENDBRANCH  87  88
ENDBRANCH  66  80
BRANCH  67  92
ATOM     92  C   UNL     1      -4.811 -18.701   3.205  1.00  0.00     0.058 A 
ATOM     93  C   UNL     1      -4.166 -19.022   2.003  1.00  0.00     0.135 A 
ATOM     94  C   UNL     1      -4.426 -19.392   4.364  1.00  0.00     0.135 A 
ATOM     95  F   UNL     1      -4.508 -18.394   0.868  1.00  0.00    -0.206 F 
ATOM     96  C   UNL     1      -3.166 -19.988   1.951  1.00  0.00     0.059 A 
ATOM     97  C   UNL     1      -3.414 -20.345   4.342  1.00  0.00     0.059 A 
ATOM     98  F   UNL     1      -5.007 -19.110   5.540  1.00  0.00    -0.206 F 
ATOM     99  C   UNL     1      -2.792 -20.639   3.129  1.00  0.00     0.060 A 
BRANCH  99 100
ATOM    100  S   UNL     1      -1.435 -21.830   3.072  1.00  0.00     0.124 S 
ATOM    101  O   UNL     1      -2.089 -22.991   2.480  1.00  0.00    -0.237 OA
ATOM    102  O   UNL     1      -0.459 -21.147   2.228  1.00  0.00    -0.237 OA
ATOM    103  O   UNL     1      -1.051 -21.965   4.474  1.00  0.00    -0.744 OA
ENDBRANCH  99 100
ENDBRANCH  67  92
BRANCH  79 104
ATOM    104  C   UNL     1     -11.413 -18.183   1.051  1.00  0.00     0.058 A 
ATOM    105  C   UNL     1     -12.014 -19.202   1.806  1.00  0.00     0.135 A 
ATOM    106  C   UNL     1     -11.734 -18.093  -0.312  1.00  0.00     0.135 A 
ATOM    107  F   UNL     1     -11.732 -19.331   3.112  1.00  0.00    -0.206 F 
ATOM    108  C   UNL     1     -12.888 -20.114   1.225  1.00  0.00     0.059 A 
ATOM    109  C   UNL     1     -12.620 -18.983  -0.909  1.00  0.00     0.059 A 
ATOM    110  F   UNL     1     -11.191 -17.129  -1.072  1.00  0.00    -0.206 F 
ATOM    111  C   UNL     1     -13.182 -19.998  -0.135  1.00  0.00     0.060 A 
BRANCH 111 112
ATOM    112  S   UNL     1     -14.333 -21.176  -0.874  1.00  0.00     0.124 S 
ATOM    113  O   UNL     1     -13.495 -22.364  -1.000  1.00  0.00    -0.237 OA
ATOM    114  O   UNL     1     -15.393 -21.251   0.126  1.00  0.00    -0.237 OA
ATOM    115  O   UNL     1     -14.710 -20.537  -2.131  1.00  0.00    -0.744 OA
ENDBRANCH 111 112
ENDBRANCH  79 104
ENDBRANCH  53  54
ENDBRANCH  45  48
ENDBRANCH  43  44
ENDBRANCH  42  43
ENDBRANCH   1  42
TORSDOF 19
