REMARK SMILES CC[C@@H](C)N(C)S(=O)(=O)c1cc(C(=O)NCCCCNC(=O)c2ccc(-c3c4nc(c(-c5c(F)cc(S(=O)(=O)[O-])cc5F)c5ccc([nH]5)c(-c5c(F)cc(S(=O)(=O)[O-])cc5F)c5nc(c(-c6c(F)cc(S(=O)(=O)[O-])cc6F)c6ccc3[nH]6)C=C5)C=C4)cc2)ccc1Br
REMARK SMILES IDX 17 1 16 2 15 3 13 4 14 5 12 7 10 8 11 9 91 10 90 11 92 12
REMARK SMILES IDX 89 13 7 14 8 15 9 16 5 17 6 18 3 19 4 20 2 21 1 22 18 23
REMARK SMILES IDX 19 24 20 25 21 26 22 28 23 29 24 30 88 31 25 32 87 33 26 34
REMARK SMILES IDX 27 35 28 36 81 37 29 38 86 39 80 40 82 41 30 42 85 43 79 44
REMARK SMILES IDX 78 45 31 47 65 48 44 49 64 50 45 51 48 52 63 53 83 54 46 55
REMARK SMILES IDX 47 56 62 58 84 59 49 60 32 61 33 62 42 63 34 64 35 65 41 66
REMARK SMILES IDX 43 67 36 68 37 69 38 70 39 71 40 72 66 73 67 74 76 75 68 76
REMARK SMILES IDX 69 77 75 78 77 79 70 80 71 81 72 82 73 83 74 84 50 85 51 86
REMARK SMILES IDX 60 87 52 88 53 89 59 90 61 91 54 92 55 93 56 94 57 95 58 96
REMARK H PARENT 15 6 20 27 82 46 48 57
REMARK Flexibility Score: inf
ROOT
ATOM      1  C   UNL     1      -2.933  -1.355 -11.316  1.00  0.00     0.023 C 
ENDROOT
BRANCH   1   2
ATOM      2  C   UNL     1      -3.969  -1.629 -10.225  1.00  0.00     0.116 C 
BRANCH   2   3
ATOM      3  N   UNL     1      -3.533  -2.733  -9.400  1.00  0.00    -0.352 N 
ATOM      4  C   UNL     1      -2.841  -2.782  -8.223  1.00  0.00     0.251 C 
ATOM      5  O   UNL     1      -2.550  -3.894  -7.781  1.00  0.00    -0.269 OA
ATOM      6  H   UNL     1      -3.781  -3.618  -9.755  1.00  0.00     0.163 HD
BRANCH   4   7
ATOM      7  C   UNL     1      -2.458  -1.579  -7.430  1.00  0.00     0.041 A 
ATOM      8  C   UNL     1      -1.830  -0.758  -5.213  1.00  0.00     0.097 A 
ATOM      9  C   UNL     1      -2.249  -1.795  -6.062  1.00  0.00     0.036 A 
ATOM     10  C   UNL     1      -1.666   0.533  -5.715  1.00  0.00     0.038 A 
ATOM     11  C   UNL     1      -1.875   0.755  -7.080  1.00  0.00     0.018 A 
ATOM     12  Br  UNL     1      -1.109   2.035  -4.700  1.00  0.00    -0.049 Br
ATOM     13  C   UNL     1      -2.231  -0.298  -7.934  1.00  0.00     0.015 A 
BRANCH   8  14
ATOM     14  S   UNL     1      -1.459  -1.191  -3.533  1.00  0.00     0.244 S 
ATOM     15  O   UNL     1      -1.763  -2.600  -3.361  1.00  0.00    -0.207 OA
ATOM     16  O   UNL     1      -2.089  -0.213  -2.681  1.00  0.00    -0.207 OA
BRANCH  14  17
ATOM     17  N   UNL     1       0.258  -1.043  -3.477  1.00  0.00    -0.198 NA
ATOM     18  C   UNL     1       0.969  -1.896  -4.474  1.00  0.00     0.124 C 
BRANCH  17  19
ATOM     19  C   UNL     1       0.913  -1.121  -2.119  1.00  0.00     0.069 C 
ATOM     20  C   UNL     1       0.593  -2.427  -1.394  1.00  0.00     0.026 C 
BRANCH  19  21
ATOM     21  C   UNL     1       0.611   0.139  -1.291  1.00  0.00     0.016 C 
ATOM     22  C   UNL     1       1.325   0.175   0.053  1.00  0.00     0.005 C 
ENDBRANCH  19  21
ENDBRANCH  17  19
ENDBRANCH  14  17
ENDBRANCH   8  14
ENDBRANCH   4   7
ENDBRANCH   2   3
ENDBRANCH   1   2
BRANCH   1  23
ATOM     23  C   UNL     1      -3.003  -2.340 -12.487  1.00  0.00     0.023 C 
BRANCH  23  24
ATOM     24  C   UNL     1      -4.326  -2.325 -13.239  1.00  0.00     0.116 C 
BRANCH  24  25
ATOM     25  N   UNL     1      -4.667  -1.013 -13.774  1.00  0.00    -0.352 N 
ATOM     26  C   UNL     1      -5.354  -0.739 -14.934  1.00  0.00     0.251 C 
ATOM     27  H   UNL     1      -4.372  -0.236 -13.247  1.00  0.00     0.163 HD
ATOM     28  O   UNL     1      -5.478   0.411 -15.339  1.00  0.00    -0.269 OA
BRANCH  26  29
ATOM     29  C   UNL     1      -5.903  -1.879 -15.690  1.00  0.00     0.039 A 
ATOM     30  C   UNL     1      -5.505  -2.075 -17.013  1.00  0.00     0.014 A 
ATOM     31  C   UNL     1      -6.706  -2.813 -15.033  1.00  0.00     0.014 A 
ATOM     32  C   UNL     1      -5.860  -3.259 -17.662  1.00  0.00     0.010 A 
ATOM     33  C   UNL     1      -6.985  -4.022 -15.653  1.00  0.00     0.010 A 
ATOM     34  C   UNL     1      -6.566  -4.258 -16.973  1.00  0.00    -0.014 A 
BRANCH  34  35
ATOM     35  C   UNL     1      -6.908  -5.558 -17.602  1.00  0.00     0.031 A 
ATOM     36  C   UNL     1      -8.355  -5.938 -17.754  1.00  0.00     0.074 A 
ATOM     37  C   UNL     1      -5.935  -6.429 -17.935  1.00  0.00     0.049 A 
ATOM     38  N   UNL     1      -8.877  -7.081 -18.110  1.00  0.00    -0.248 NA
ATOM     39  C   UNL     1      -9.347  -4.901 -17.422  1.00  0.00     0.031 C 
ATOM     40  C   UNL     1      -4.497  -6.186 -17.806  1.00  0.00     0.029 A 
ATOM     41  N   UNL     1      -6.011  -7.708 -18.429  1.00  0.00    -0.354 N 
ATOM     42  C   UNL     1     -10.254  -6.909 -18.022  1.00  0.00     0.074 A 
ATOM     43  C   UNL     1     -10.484  -5.572 -17.524  1.00  0.00     0.031 C 
ATOM     44  C   UNL     1      -3.828  -7.275 -18.220  1.00  0.00     0.029 A 
ATOM     45  C   UNL     1      -4.785  -8.311 -18.594  1.00  0.00     0.049 A 
ATOM     46  H   UNL     1      -6.863  -8.152 -18.644  1.00  0.00     0.167 HD
ATOM     47  C   UNL     1     -11.236  -7.781 -18.347  1.00  0.00     0.037 A 
ATOM     48  C   UNL     1      -4.472  -9.564 -18.981  1.00  0.00     0.037 A 
ATOM     49  C   UNL     1     -10.994  -9.101 -18.867  1.00  0.00     0.049 A 
ATOM     50  C   UNL     1      -5.582 -10.525 -19.320  1.00  0.00     0.074 A 
ATOM     51  C   UNL     1     -11.918 -10.046 -19.273  1.00  0.00     0.029 A 
ATOM     52  N   UNL     1      -9.739  -9.662 -19.051  1.00  0.00    -0.354 N 
ATOM     53  N   UNL     1      -6.880 -10.334 -19.274  1.00  0.00    -0.248 NA
ATOM     54  C   UNL     1      -5.190 -11.869 -19.768  1.00  0.00     0.031 C 
ATOM     55  C   UNL     1     -11.224 -11.198 -19.652  1.00  0.00     0.029 A 
ATOM     56  C   UNL     1      -9.865 -10.947 -19.549  1.00  0.00     0.049 A 
ATOM     57  H   UNL     1      -8.884  -9.213 -18.857  1.00  0.00     0.167 HD
ATOM     58  C   UNL     1      -7.456 -11.515 -19.730  1.00  0.00     0.074 A 
ATOM     59  C   UNL     1      -6.367 -12.417 -20.042  1.00  0.00     0.031 C 
ATOM     60  C   UNL     1      -8.768 -11.821 -19.884  1.00  0.00     0.037 A 
BRANCH  47  61
ATOM     61  C   UNL     1     -12.660  -7.337 -18.148  1.00  0.00     0.058 A 
ATOM     62  C   UNL     1     -13.236  -6.325 -18.933  1.00  0.00     0.135 A 
ATOM     63  C   UNL     1     -13.469  -7.954 -17.180  1.00  0.00     0.135 A 
ATOM     64  F   UNL     1     -12.505  -5.689 -19.861  1.00  0.00    -0.206 F 
ATOM     65  C   UNL     1     -14.552  -5.918 -18.743  1.00  0.00     0.059 A 
ATOM     66  C   UNL     1     -14.798  -7.587 -16.996  1.00  0.00     0.059 A 
ATOM     67  F   UNL     1     -12.969  -8.925 -16.399  1.00  0.00    -0.206 F 
ATOM     68  C   UNL     1     -15.326  -6.557 -17.773  1.00  0.00     0.060 A 
BRANCH  68  69
ATOM     69  S   UNL     1     -17.034  -6.020 -17.546  1.00  0.00     0.124 S 
ATOM     70  O   UNL     1     -16.848  -4.713 -16.922  1.00  0.00    -0.237 OA
ATOM     71  O   UNL     1     -17.538  -6.002 -18.916  1.00  0.00    -0.237 OA
ATOM     72  O   UNL     1     -17.604  -7.051 -16.684  1.00  0.00    -0.744 OA
ENDBRANCH  68  69
ENDBRANCH  47  61
BRANCH  48  73
ATOM     73  C   UNL     1      -3.046  -9.980 -19.083  1.00  0.00     0.058 A 
ATOM     74  C   UNL     1      -2.457 -10.239 -20.331  1.00  0.00     0.135 A 
ATOM     75  C   UNL     1      -2.240 -10.121 -17.942  1.00  0.00     0.135 A 
ATOM     76  F   UNL     1      -3.186 -10.126 -21.452  1.00  0.00    -0.206 F 
ATOM     77  C   UNL     1      -1.131 -10.643 -20.443  1.00  0.00     0.059 A 
ATOM     78  C   UNL     1      -0.903 -10.495 -18.031  1.00  0.00     0.059 A 
ATOM     79  F   UNL     1      -2.748  -9.869 -16.725  1.00  0.00    -0.206 F 
ATOM     80  C   UNL     1      -0.360 -10.764 -19.286  1.00  0.00     0.060 A 
BRANCH  80  81
ATOM     81  S   UNL     1       1.373 -11.246 -19.449  1.00  0.00     0.124 S 
ATOM     82  O   UNL     1       1.255 -12.647 -19.834  1.00  0.00    -0.237 OA
ATOM     83  O   UNL     1       1.846 -10.335 -20.486  1.00  0.00    -0.237 OA
ATOM     84  O   UNL     1       1.917 -11.002 -18.116  1.00  0.00    -0.744 OA
ENDBRANCH  80  81
ENDBRANCH  48  73
BRANCH  60  85
ATOM     85  C   UNL     1      -9.115 -13.156 -20.485  1.00  0.00     0.058 A 
ATOM     86  C   UNL     1      -8.977 -14.355 -19.771  1.00  0.00     0.135 A 
ATOM     87  C   UNL     1      -9.688 -13.217 -21.767  1.00  0.00     0.135 A 
ATOM     88  F   UNL     1      -8.429 -14.354 -18.546  1.00  0.00    -0.206 F 
ATOM     89  C   UNL     1      -9.388 -15.571 -20.311  1.00  0.00     0.059 A 
ATOM     90  C   UNL     1     -10.133 -14.415 -22.313  1.00  0.00     0.059 A 
ATOM     91  F   UNL     1      -9.850 -12.096 -22.489  1.00  0.00    -0.206 F 
ATOM     92  C   UNL     1      -9.975 -15.589 -21.578  1.00  0.00     0.060 A 
BRANCH  92  93
ATOM     93  S   UNL     1     -10.566 -17.162 -22.236  1.00  0.00     0.124 S 
ATOM     94  O   UNL     1      -9.313 -17.847 -22.534  1.00  0.00    -0.237 OA
ATOM     95  O   UNL     1     -11.332 -17.699 -21.115  1.00  0.00    -0.237 OA
ATOM     96  O   UNL     1     -11.359 -16.770 -23.398  1.00  0.00    -0.744 OA
ENDBRANCH  92  93
ENDBRANCH  60  85
ENDBRANCH  34  35
ENDBRANCH  26  29
ENDBRANCH  24  25
ENDBRANCH  23  24
ENDBRANCH   1  23
TORSDOF 18
