REMARK SMILES [NH3+][C@H]1CCCC[C@@H]1C(=O)N1CC(C(=O)NCCCCNC(=O)c2ccc(-c3c4nc(c(-c5c(F)cc(S(=O)(=O)[O-])cc5F)c5ccc([nH]5)c(-c5c(F)cc(S(=O)(=O)[O-])cc5F)c5nc(c(-c6c(F)cc(S(=O)(=O)[O-])cc6F)c6ccc3[nH]6)C=C5)C=C4)cc2)C1
REMARK SMILES IDX 18 1 17 2 16 3 15 4 13 5 14 6 12 8 8 9 9 10 10 11 11 12
REMARK SMILES IDX 89 13 7 14 2 15 3 16 4 17 6 18 5 19 1 20 19 24 20 25 21 26
REMARK SMILES IDX 22 28 23 29 24 30 88 31 25 32 87 33 26 34 27 35 28 36 81 37
REMARK SMILES IDX 29 38 86 39 80 40 82 41 30 42 85 43 79 44 78 45 31 47 65 48
REMARK SMILES IDX 44 49 64 50 45 51 48 52 63 53 83 54 46 55 47 56 62 58 84 59
REMARK SMILES IDX 49 60 32 61 33 62 42 63 34 64 35 65 41 66 43 67 36 68 37 69
REMARK SMILES IDX 38 70 39 71 40 72 66 73 67 74 76 75 68 76 69 77 75 78 77 79
REMARK SMILES IDX 70 80 71 81 72 82 73 83 74 84 50 85 51 86 60 87 52 88 53 89
REMARK SMILES IDX 59 90 61 91 54 92 55 93 56 94 57 95 58 96
REMARK H PARENT 15 7 1 21 1 22 1 23 20 27 82 46 48 57
REMARK Flexibility Score: inf
ROOT
ATOM      1  C   UNL     1      -2.019   1.812  -6.154  1.00  0.00     0.023 C 
ENDROOT
BRANCH   1   2
ATOM      2  C   UNL     1      -1.548   1.030  -4.926  1.00  0.00     0.023 C 
BRANCH   2   3
ATOM      3  C   UNL     1      -2.663   0.331  -4.152  1.00  0.00     0.116 C 
BRANCH   3   4
ATOM      4  N   UNL     1      -3.270  -0.734  -4.927  1.00  0.00    -0.356 N 
ATOM      5  C   UNL     1      -3.286  -2.094  -4.736  1.00  0.00     0.226 C 
ATOM      6  O   UNL     1      -3.875  -2.749  -5.611  1.00  0.00    -0.275 OA
ATOM      7  H   UNL     1      -3.754  -0.429  -5.728  1.00  0.00     0.163 HD
BRANCH   5   8
ATOM      8  C   UNL     1      -2.646  -2.776  -3.523  1.00  0.00     0.117 C 
ATOM      9  C   UNL     1      -1.046  -2.350  -0.645  1.00  0.00     0.231 C 
ATOM     10  O   UNL     1      -0.963  -3.504  -0.227  1.00  0.00    -0.274 OA
ATOM     11  N   UNL     1      -1.642  -2.027  -1.845  1.00  0.00    -0.341 N 
ATOM     12  C   UNL     1      -3.050  -2.357  -2.118  1.00  0.00     0.134 C 
ATOM     13  C   UNL     1      -1.192  -2.539  -3.146  1.00  0.00     0.134 C 
BRANCH   9  14
ATOM     14  C   UNL     1      -0.367  -1.177   0.062  1.00  0.00     0.136 C 
ATOM     15  C   UNL     1      -1.011   0.197  -0.241  1.00  0.00     0.193 C 
ATOM     16  C   UNL     1      -0.193   1.359   0.335  1.00  0.00     0.066 C 
ATOM     17  C   UNL     1       1.259   1.300  -0.129  1.00  0.00     0.006 C 
ATOM     18  C   UNL     1       1.121  -1.204  -0.322  1.00  0.00     0.020 C 
ATOM     19  C   UNL     1       1.897  -0.027   0.259  1.00  0.00     0.001 C 
BRANCH  15  20
ATOM     20  N   UNL     1      -2.385   0.277   0.271  1.00  0.00    -0.354 N 
ATOM     21  H   UNL     1      -2.776   1.193   0.053  1.00  0.00     0.344 HD
ATOM     22  H   UNL     1      -2.380   0.140   1.282  1.00  0.00     0.344 HD
ATOM     23  H   UNL     1      -2.954  -0.448  -0.167  1.00  0.00     0.344 HD
ENDBRANCH  15  20
ENDBRANCH   9  14
ENDBRANCH   5   8
ENDBRANCH   3   4
ENDBRANCH   2   3
ENDBRANCH   1   2
BRANCH   1  24
ATOM     24  C   UNL     1      -3.067   2.885  -5.877  1.00  0.00     0.116 C 
BRANCH  24  25
ATOM     25  N   UNL     1      -2.600   3.905  -4.951  1.00  0.00    -0.352 N 
ATOM     26  C   UNL     1      -2.714   5.271  -5.043  1.00  0.00     0.251 C 
ATOM     27  H   UNL     1      -2.140   3.571  -4.148  1.00  0.00     0.163 HD
ATOM     28  O   UNL     1      -2.126   5.986  -4.233  1.00  0.00    -0.269 OA
BRANCH  26  29
ATOM     29  C   UNL     1      -3.520   5.877  -6.126  1.00  0.00     0.039 A 
ATOM     30  C   UNL     1      -3.014   6.984  -6.811  1.00  0.00     0.014 A 
ATOM     31  C   UNL     1      -4.771   5.356  -6.466  1.00  0.00     0.014 A 
ATOM     32  C   UNL     1      -3.743   7.538  -7.867  1.00  0.00     0.010 A 
ATOM     33  C   UNL     1      -5.454   5.853  -7.573  1.00  0.00     0.010 A 
ATOM     34  C   UNL     1      -4.958   6.963  -8.274  1.00  0.00    -0.014 A 
BRANCH  34  35
ATOM     35  C   UNL     1      -5.747   7.533  -9.398  1.00  0.00     0.031 A 
ATOM     36  C   UNL     1      -7.127   8.081  -9.142  1.00  0.00     0.074 A 
ATOM     37  C   UNL     1      -5.248   7.515 -10.650  1.00  0.00     0.049 A 
ATOM     38  N   UNL     1      -7.994   8.568  -9.992  1.00  0.00    -0.248 NA
ATOM     39  C   UNL     1      -7.608   8.049  -7.751  1.00  0.00     0.031 C 
ATOM     40  C   UNL     1      -3.944   6.971 -11.035  1.00  0.00     0.029 A 
ATOM     41  N   UNL     1      -5.781   7.962 -11.833  1.00  0.00    -0.354 N 
ATOM     42  C   UNL     1      -9.122   8.887  -9.242  1.00  0.00     0.074 A 
ATOM     43  C   UNL     1      -8.854   8.475  -7.883  1.00  0.00     0.031 C 
ATOM     44  C   UNL     1      -3.768   7.142 -12.356  1.00  0.00     0.029 A 
ATOM     45  C   UNL     1      -4.959   7.771 -12.919  1.00  0.00     0.049 A 
ATOM     46  H   UNL     1      -6.670   8.380 -11.899  1.00  0.00     0.167 HD
ATOM     47  C   UNL     1     -10.264   9.494  -9.642  1.00  0.00     0.037 A 
ATOM     48  C   UNL     1      -5.145   8.066 -14.221  1.00  0.00     0.037 A 
ATOM     49  C   UNL     1     -10.514   9.925 -10.993  1.00  0.00     0.049 A 
ATOM     50  C   UNL     1      -6.425   8.738 -14.644  1.00  0.00     0.074 A 
ATOM     51  C   UNL     1     -11.619  10.591 -11.494  1.00  0.00     0.029 A 
ATOM     52  N   UNL     1      -9.647   9.732 -12.059  1.00  0.00    -0.354 N 
ATOM     53  N   UNL     1      -7.458   9.083 -13.911  1.00  0.00    -0.248 NA
ATOM     54  C   UNL     1      -6.561   9.071 -16.068  1.00  0.00     0.031 C 
ATOM     55  C   UNL     1     -11.442  10.758 -12.871  1.00  0.00     0.029 A 
ATOM     56  C   UNL     1     -10.199  10.252 -13.218  1.00  0.00     0.049 A 
ATOM     57  H   UNL     1      -8.769   9.290 -12.001  1.00  0.00     0.167 HD
ATOM     58  C   UNL     1      -8.347   9.711 -14.778  1.00  0.00     0.074 A 
ATOM     59  C   UNL     1      -7.728   9.702 -16.087  1.00  0.00     0.031 C 
ATOM     60  C   UNL     1      -9.562  10.251 -14.512  1.00  0.00     0.037 A 
BRANCH  47  61
ATOM     61  C   UNL     1     -11.328   9.734  -8.603  1.00  0.00     0.058 A 
ATOM     62  C   UNL     1     -11.145  10.655  -7.558  1.00  0.00     0.135 A 
ATOM     63  C   UNL     1     -12.556   9.056  -8.667  1.00  0.00     0.135 A 
ATOM     64  F   UNL     1      -9.986  11.321  -7.437  1.00  0.00    -0.206 F 
ATOM     65  C   UNL     1     -12.125  10.867  -6.594  1.00  0.00     0.059 A 
ATOM     66  C   UNL     1     -13.563   9.277  -7.732  1.00  0.00     0.059 A 
ATOM     67  F   UNL     1     -12.787   8.164  -9.644  1.00  0.00    -0.206 F 
ATOM     68  C   UNL     1     -13.332  10.172  -6.689  1.00  0.00     0.060 A 
BRANCH  68  69
ATOM     69  S   UNL     1     -14.592  10.460  -5.430  1.00  0.00     0.124 S 
ATOM     70  O   UNL     1     -14.003   9.794  -4.272  1.00  0.00    -0.237 OA
ATOM     71  O   UNL     1     -14.640  11.918  -5.365  1.00  0.00    -0.237 OA
ATOM     72  O   UNL     1     -15.780   9.820  -5.984  1.00  0.00    -0.744 OA
ENDBRANCH  68  69
ENDBRANCH  47  61
BRANCH  48  73
ATOM     73  C   UNL     1      -4.080   7.761 -15.215  1.00  0.00     0.058 A 
ATOM     74  C   UNL     1      -3.357   8.790 -15.839  1.00  0.00     0.135 A 
ATOM     75  C   UNL     1      -3.759   6.439 -15.560  1.00  0.00     0.135 A 
ATOM     76  F   UNL     1      -3.630  10.071 -15.549  1.00  0.00    -0.206 F 
ATOM     77  C   UNL     1      -2.372   8.522 -16.784  1.00  0.00     0.059 A 
ATOM     78  C   UNL     1      -2.757   6.144 -16.480  1.00  0.00     0.059 A 
ATOM     79  F   UNL     1      -4.407   5.416 -14.980  1.00  0.00    -0.206 F 
ATOM     80  C   UNL     1      -2.077   7.194 -17.096  1.00  0.00     0.060 A 
BRANCH  80  81
ATOM     81  S   UNL     1      -0.767   6.858 -18.292  1.00  0.00     0.124 S 
ATOM     82  O   UNL     1      -1.394   7.275 -19.541  1.00  0.00    -0.237 OA
ATOM     83  O   UNL     1       0.316   7.707 -17.805  1.00  0.00    -0.237 OA
ATOM     84  O   UNL     1      -0.541   5.423 -18.147  1.00  0.00    -0.744 OA
ENDBRANCH  80  81
ENDBRANCH  48  73
BRANCH  60  85
ATOM     85  C   UNL     1     -10.282  10.935 -15.644  1.00  0.00     0.058 A 
ATOM     86  C   UNL     1     -10.844  10.220 -16.712  1.00  0.00     0.135 A 
ATOM     87  C   UNL     1     -10.453  12.330 -15.628  1.00  0.00     0.135 A 
ATOM     88  F   UNL     1     -10.707   8.886 -16.779  1.00  0.00    -0.206 F 
ATOM     89  C   UNL     1     -11.522  10.865 -17.742  1.00  0.00     0.059 A 
ATOM     90  C   UNL     1     -11.155  12.992 -16.630  1.00  0.00     0.059 A 
ATOM     91  F   UNL     1      -9.947  13.062 -14.623  1.00  0.00    -0.206 F 
ATOM     92  C   UNL     1     -11.673  12.253 -17.691  1.00  0.00     0.060 A 
BRANCH  92  93
ATOM     93  S   UNL     1     -12.576  13.075 -19.020  1.00  0.00     0.124 S 
ATOM     94  O   UNL     1     -11.620  12.993 -20.119  1.00  0.00    -0.237 OA
ATOM     95  O   UNL     1     -13.767  12.241 -19.151  1.00  0.00    -0.237 OA
ATOM     96  O   UNL     1     -12.813  14.415 -18.492  1.00  0.00    -0.744 OA
ENDBRANCH  92  93
ENDBRANCH  60  85
ENDBRANCH  34  35
ENDBRANCH  26  29
ENDBRANCH  24  25
ENDBRANCH   1  24
TORSDOF 16
