REMARK SMILES Cc1nc(C)c(C(=O)N2CCC([C@H](C)C(=O)NCCCCNC(=O)c3ccc(-c4c5nc(c(-c6c(F)cc(S(=O)(=O)[O-])cc6F)c6ccc([nH]6)c(-c6c(F)cc(S(=O)(=O)[O-])cc6F)c6nc(c(-c7c(F)cc(S(=O)(=O)[O-])cc7F)c7ccc4[nH]7)C=C6)C=C5)cc3)CC2)s1
REMARK SMILES IDX 20 1 19 2 18 3 17 4 15 5 16 6 13 8 14 9 12 10 7 11 8 12 9 13
REMARK SMILES IDX 10 14 92 15 11 16 91 17 6 18 1 19 2 20 3 21 93 22 4 23 5 24
REMARK SMILES IDX 21 25 22 26 23 27 24 29 25 30 26 31 90 32 27 33 89 34 28 35
REMARK SMILES IDX 29 36 30 37 83 38 31 39 88 40 82 41 84 42 32 43 87 44 81 45
REMARK SMILES IDX 80 46 33 48 67 49 46 50 66 51 47 52 50 53 65 54 85 55 48 56
REMARK SMILES IDX 49 57 64 59 86 60 51 61 34 62 35 63 44 64 36 65 37 66 43 67
REMARK SMILES IDX 45 68 38 69 39 70 40 71 41 72 42 73 68 74 69 75 78 76 70 77
REMARK SMILES IDX 71 78 77 79 79 80 72 81 73 82 74 83 75 84 76 85 52 86 53 87
REMARK SMILES IDX 62 88 54 89 55 90 61 91 63 92 56 93 57 94 58 95 59 96 60 97
REMARK H PARENT 17 7 22 28 84 47 50 58
REMARK Flexibility Score: inf
ROOT
ATOM      1  C   UNL     1       4.779  -6.617   2.671  1.00  0.00     0.023 C 
ENDROOT
BRANCH   1   2
ATOM      2  C   UNL     1       3.696  -6.310   1.644  1.00  0.00     0.023 C 
BRANCH   2   3
ATOM      3  C   UNL     1       2.656  -7.403   1.457  1.00  0.00     0.116 C 
BRANCH   3   4
ATOM      4  N   UNL     1       1.812  -7.606   2.611  1.00  0.00    -0.356 N 
ATOM      5  C   UNL     1       0.476  -7.844   2.674  1.00  0.00     0.223 C 
ATOM      6  O   UNL     1      -0.003  -8.130   3.776  1.00  0.00    -0.275 OA
ATOM      7  H   UNL     1       2.273  -7.567   3.481  1.00  0.00     0.163 HD
BRANCH   5   8
ATOM      8  C   UNL     1      -0.436  -7.763   1.443  1.00  0.00     0.078 C 
ATOM      9  C   UNL     1      -0.518  -6.328   0.911  1.00  0.00     0.018 C 
BRANCH   8  10
ATOM     10  C   UNL     1      -0.298  -8.897   0.375  1.00  0.00     0.005 C 
ATOM     11  C   UNL     1       2.323 -11.165  -1.948  1.00  0.00     0.265 C 
ATOM     12  O   UNL     1       3.095 -10.338  -2.437  1.00  0.00    -0.268 OA
ATOM     13  N   UNL     1       1.130 -10.729  -1.365  1.00  0.00    -0.338 N 
ATOM     14  C   UNL     1       0.425  -9.613  -1.962  1.00  0.00     0.120 C 
ATOM     15  C   UNL     1       0.555 -11.269  -0.139  1.00  0.00     0.120 C 
ATOM     16  C   UNL     1       0.276  -8.457  -0.988  1.00  0.00     0.026 C 
ATOM     17  C   UNL     1       0.402 -10.167   0.913  1.00  0.00     0.026 C 
BRANCH  11  18
ATOM     18  C   UNL     1       2.555 -12.598  -2.061  1.00  0.00     0.115 A 
ATOM     19  C   UNL     1       1.819 -16.360  -2.730  1.00  0.00     0.079 C 
ATOM     20  C   UNL     1       2.329 -14.985  -2.480  1.00  0.00     0.091 A 
ATOM     21  N   UNL     1       3.599 -14.655  -2.477  1.00  0.00    -0.246 NA
ATOM     22  S   UNL     1       1.239 -13.699  -2.219  1.00  0.00    -0.113 S 
ATOM     23  C   UNL     1       3.745 -13.286  -2.264  1.00  0.00     0.061 A 
ATOM     24  C   UNL     1       5.131 -12.742  -2.322  1.00  0.00     0.068 C 
ENDBRANCH  11  18
ENDBRANCH   8  10
ENDBRANCH   5   8
ENDBRANCH   3   4
ENDBRANCH   2   3
ENDBRANCH   1   2
BRANCH   1  25
ATOM     25  C   UNL     1       5.496  -7.950   2.486  1.00  0.00     0.116 C 
BRANCH  25  26
ATOM     26  N   UNL     1       6.121  -8.095   1.178  1.00  0.00    -0.352 N 
ATOM     27  C   UNL     1       7.420  -8.427   0.873  1.00  0.00     0.251 C 
ATOM     28  H   UNL     1       5.532  -7.932   0.406  1.00  0.00     0.163 HD
ATOM     29  O   UNL     1       7.817  -8.378  -0.287  1.00  0.00    -0.269 OA
BRANCH  27  30
ATOM     30  C   UNL     1       8.344  -8.808   1.961  1.00  0.00     0.039 A 
ATOM     31  C   UNL     1       9.593  -8.188   2.036  1.00  0.00     0.014 A 
ATOM     32  C   UNL     1       7.956  -9.739   2.928  1.00  0.00     0.014 A 
ATOM     33  C   UNL     1      10.421  -8.443   3.131  1.00  0.00     0.010 A 
ATOM     34  C   UNL     1       8.747  -9.928   4.056  1.00  0.00     0.010 A 
ATOM     35  C   UNL     1       9.986  -9.281   4.172  1.00  0.00    -0.014 A 
BRANCH  35  36
ATOM     36  C   UNL     1      10.810  -9.487   5.390  1.00  0.00     0.031 A 
ATOM     37  C   UNL     1      11.331 -10.858   5.724  1.00  0.00     0.074 A 
ATOM     38  C   UNL     1      11.031  -8.454   6.229  1.00  0.00     0.049 A 
ATOM     39  N   UNL     1      12.005 -11.251   6.774  1.00  0.00    -0.248 NA
ATOM     40  C   UNL     1      11.030 -11.934   4.767  1.00  0.00     0.031 C 
ATOM     41  C   UNL     1      10.527  -7.091   6.046  1.00  0.00     0.029 A 
ATOM     42  N   UNL     1      11.729  -8.392   7.409  1.00  0.00    -0.354 N 
ATOM     43  C   UNL     1      12.201 -12.617   6.608  1.00  0.00     0.074 A 
ATOM     44  C   UNL     1      11.521 -12.996   5.388  1.00  0.00     0.031 C 
ATOM     45  C   UNL     1      10.947  -6.325   7.067  1.00  0.00     0.029 A 
ATOM     46  C   UNL     1      11.721  -7.146   7.991  1.00  0.00     0.049 A 
ATOM     47  H   UNL     1      12.191  -9.167   7.803  1.00  0.00     0.167 HD
ATOM     48  C   UNL     1      12.908 -13.473   7.384  1.00  0.00     0.037 A 
ATOM     49  C   UNL     1      12.272  -6.715   9.143  1.00  0.00     0.037 A 
ATOM     50  C   UNL     1      13.602 -13.087   8.584  1.00  0.00     0.049 A 
ATOM     51  C   UNL     1      13.064  -7.681   9.982  1.00  0.00     0.074 A 
ATOM     52  C   UNL     1      14.382 -13.869   9.417  1.00  0.00     0.029 A 
ATOM     53  N   UNL     1      13.604 -11.807   9.120  1.00  0.00    -0.354 N 
ATOM     54  N   UNL     1      13.287  -8.958   9.778  1.00  0.00    -0.248 NA
ATOM     55  C   UNL     1      13.687  -7.148  11.201  1.00  0.00     0.031 C 
ATOM     56  C   UNL     1      14.829 -13.069  10.475  1.00  0.00     0.029 A 
ATOM     57  C   UNL     1      14.363 -11.779  10.277  1.00  0.00     0.049 A 
ATOM     58  H   UNL     1      13.134 -11.032   8.733  1.00  0.00     0.167 HD
ATOM     59  C   UNL     1      14.097  -9.375  10.829  1.00  0.00     0.074 A 
ATOM     60  C   UNL     1      14.335  -8.211  11.658  1.00  0.00     0.031 C 
ATOM     61  C   UNL     1      14.597 -10.609  11.086  1.00  0.00     0.037 A 
BRANCH  48  62
ATOM     62  C   UNL     1      12.977 -14.910   6.944  1.00  0.00     0.058 A 
ATOM     63  C   UNL     1      13.712 -15.294   5.810  1.00  0.00     0.135 A 
ATOM     64  C   UNL     1      12.327 -15.917   7.675  1.00  0.00     0.135 A 
ATOM     65  F   UNL     1      14.339 -14.369   5.066  1.00  0.00    -0.206 F 
ATOM     66  C   UNL     1      13.774 -16.620   5.398  1.00  0.00     0.059 A 
ATOM     67  C   UNL     1      12.399 -17.255   7.296  1.00  0.00     0.059 A 
ATOM     68  F   UNL     1      11.610 -15.607   8.766  1.00  0.00    -0.206 F 
ATOM     69  C   UNL     1      13.112 -17.595   6.147  1.00  0.00     0.060 A 
BRANCH  69  70
ATOM     70  S   UNL     1      13.206 -19.312   5.600  1.00  0.00     0.124 S 
ATOM     71  O   UNL     1      12.315 -19.298   4.444  1.00  0.00    -0.237 OA
ATOM     72  O   UNL     1      14.626 -19.469   5.303  1.00  0.00    -0.237 OA
ATOM     73  O   UNL     1      12.724 -20.063   6.755  1.00  0.00    -0.744 OA
ENDBRANCH  69  70
ENDBRANCH  48  62
BRANCH  49  74
ATOM     74  C   UNL     1      12.112  -5.296   9.560  1.00  0.00     0.058 A 
ATOM     75  C   UNL     1      13.197  -4.407   9.528  1.00  0.00     0.135 A 
ATOM     76  C   UNL     1      10.873  -4.800   9.992  1.00  0.00     0.135 A 
ATOM     77  F   UNL     1      14.403  -4.836   9.127  1.00  0.00    -0.206 F 
ATOM     78  C   UNL     1      13.065  -3.082   9.929  1.00  0.00     0.059 A 
ATOM     79  C   UNL     1      10.710  -3.472  10.374  1.00  0.00     0.059 A 
ATOM     80  F   UNL     1       9.799  -5.605  10.022  1.00  0.00    -0.206 F 
ATOM     81  C   UNL     1      11.816  -2.623  10.351  1.00  0.00     0.060 A 
BRANCH  81  82
ATOM     82  S   UNL     1      11.645  -0.890  10.831  1.00  0.00     0.124 S 
ATOM     83  O   UNL     1      12.290  -0.883  12.139  1.00  0.00    -0.237 OA
ATOM     84  O   UNL     1      12.360  -0.202   9.761  1.00  0.00    -0.237 OA
ATOM     85  O   UNL     1      10.199  -0.687  10.838  1.00  0.00    -0.744 OA
ENDBRANCH  81  82
ENDBRANCH  49  74
BRANCH  61  86
ATOM     86  C   UNL     1      15.479 -10.758  12.294  1.00  0.00     0.058 A 
ATOM     87  C   UNL     1      14.955 -10.740  13.596  1.00  0.00     0.135 A 
ATOM     88  C   UNL     1      16.859 -10.968  12.143  1.00  0.00     0.135 A 
ATOM     89  F   UNL     1      13.643 -10.538  13.794  1.00  0.00    -0.206 F 
ATOM     90  C   UNL     1      15.774 -10.899  14.709  1.00  0.00     0.059 A 
ATOM     91  C   UNL     1      17.692 -11.155  13.242  1.00  0.00     0.059 A 
ATOM     92  F   UNL     1      17.408 -11.004  10.919  1.00  0.00    -0.206 F 
ATOM     93  C   UNL     1      17.142 -11.107  14.522  1.00  0.00     0.060 A 
BRANCH  93  94
ATOM     94  S   UNL     1      18.190 -11.341  15.973  1.00  0.00     0.124 S 
ATOM     95  O   UNL     1      18.288  -9.978  16.486  1.00  0.00    -0.237 OA
ATOM     96  O   UNL     1      17.404 -12.267  16.781  1.00  0.00    -0.237 OA
ATOM     97  O   UNL     1      19.421 -11.893  15.417  1.00  0.00    -0.744 OA
ENDBRANCH  93  94
ENDBRANCH  61  86
ENDBRANCH  35  36
ENDBRANCH  27  30
ENDBRANCH  25  26
ENDBRANCH   1  25
TORSDOF 16
