REMARK SMILES C[C@@]1(C(=O)NCCCCNC(=O)c2ccc(-c3c4nc(c(-c5c(F)cc(S(=O)(=O)[O-])cc5F)c5ccc([nH]5)c(-c5c(F)cc(S(=O)(=O)[O-])cc5F)c5nc(c(-c6c(F)cc(S(=O)(=O)[O-])cc6F)c6ccc3[nH]6)C=C5)C=C4)cc2)CCCCCC[C@@H]1O
REMARK SMILES IDX 7 1 6 2 5 3 3 4 4 5 2 7 1 8 79 9 80 10 81 11 82 12 85 14
REMARK SMILES IDX 84 15 83 16 86 18 8 20 9 21 10 22 11 23 12 25 13 26 14 27
REMARK SMILES IDX 78 28 15 29 77 30 16 31 17 32 18 33 71 34 19 35 76 36 70 37
REMARK SMILES IDX 72 38 20 39 75 40 69 41 68 42 21 44 55 45 34 46 54 47 35 48
REMARK SMILES IDX 38 49 53 50 73 51 36 52 37 53 52 55 74 56 39 57 22 58 23 59
REMARK SMILES IDX 32 60 24 61 25 62 31 63 33 64 26 65 27 66 28 67 29 68 30 69
REMARK SMILES IDX 56 70 57 71 66 72 58 73 59 74 65 75 67 76 60 77 61 78 62 79
REMARK SMILES IDX 63 80 64 81 40 82 41 83 50 84 42 85 43 86 49 87 51 88 44 89
REMARK SMILES IDX 45 90 46 91 47 92 48 93
REMARK H PARENT 5 6 86 19 10 24 72 43 38 54
REMARK Flexibility Score: 90.00
ROOT
ATOM      1  C   UNL     1      -0.480  -1.099  -5.639  1.00  0.00     0.023 C 
ENDROOT
BRANCH   1   2
ATOM      2  C   UNL     1       0.237  -0.111  -4.689  1.00  0.00     0.116 C 
BRANCH   2   3
ATOM      3  N   UNL     1      -0.484   0.041  -3.419  1.00  0.00    -0.356 N 
ATOM      4  C   UNL     1      -0.149   0.137  -1.957  1.00  0.00     0.228 C 
ATOM      5  O   UNL     1      -0.816   0.379  -0.944  1.00  0.00    -0.274 OA
ATOM      6  H   UNL     1      -1.456   0.096  -3.566  1.00  0.00     0.163 HD
BRANCH   4   7
ATOM      7  C   UNL     1       1.214  -0.100  -1.699  1.00  0.00     0.072 C 
ATOM      8  C   UNL     1       1.627  -0.042  -0.197  1.00  0.00     0.024 C 
BRANCH   7   9
ATOM      9  C   UNL     1       1.271   1.444  -2.269  1.00  0.00     0.019 C 
BRANCH   9  10
ATOM     10  C   UNL     1      -0.140   2.400  -2.616  1.00  0.00     0.001 C 
BRANCH  10  11
ATOM     11  C   UNL     1      -1.785   2.070  -2.276  1.00  0.00     0.000 C 
BRANCH  11  12
ATOM     12  C   UNL     1      -2.752   0.625  -2.346  1.00  0.00     0.000 CG0
ATOM     13  G   UNL     1      -2.403  -1.032  -1.934  1.00  0.00     0.000 G0
ENDBRANCH  11  12
ENDBRANCH  10  11
ENDBRANCH   9  10
ENDBRANCH   7   9
BRANCH   7  14
ATOM     14  C   UNL     1       0.699  -1.620  -2.047  1.00  0.00     0.129 C 
BRANCH  14  15
ATOM     15  C   UNL     1      -1.002  -2.043  -2.068  1.00  0.00     0.033 C 
BRANCH  15  16
ATOM     16  C   UNL     1      -2.403  -1.032  -1.934  1.00  0.00     0.003 CG0
ATOM     17  G   UNL     1      -2.752   0.625  -2.346  1.00  0.00     0.000 G0
ENDBRANCH  15  16
ENDBRANCH  14  15
BRANCH  14  18
ATOM     18  O   UNL     1       1.352  -2.561  -1.164  1.00  0.00    -0.392 OA
ATOM     19  H   UNL     1       1.036  -2.426  -0.257  1.00  0.00     0.210 HD
ENDBRANCH  14  18
ENDBRANCH   7  14
ENDBRANCH   4   7
ENDBRANCH   2   3
ENDBRANCH   1   2
BRANCH   1  20
ATOM     20  C   UNL     1      -2.023  -1.053  -5.783  1.00  0.00     0.023 C 
BRANCH  20  21
ATOM     21  C   UNL     1      -2.694   0.206  -6.350  1.00  0.00     0.116 C 
BRANCH  21  22
ATOM     22  N   UNL     1      -2.330   0.474  -7.728  1.00  0.00    -0.352 N 
ATOM     23  C   UNL     1      -3.115   0.748  -8.828  1.00  0.00     0.251 C 
ATOM     24  H   UNL     1      -1.362   0.457  -7.907  1.00  0.00     0.163 HD
ATOM     25  O   UNL     1      -2.580   0.814  -9.928  1.00  0.00    -0.269 OA
BRANCH  23  26
ATOM     26  C   UNL     1      -4.585   0.944  -8.720  1.00  0.00     0.039 A 
ATOM     27  C   UNL     1      -5.408   0.340  -9.679  1.00  0.00     0.014 A 
ATOM     28  C   UNL     1      -5.159   1.777  -7.756  1.00  0.00     0.014 A 
ATOM     29  C   UNL     1      -6.797   0.528  -9.644  1.00  0.00     0.010 A 
ATOM     30  C   UNL     1      -6.552   1.930  -7.696  1.00  0.00     0.010 A 
ATOM     31  C   UNL     1      -7.389   1.309  -8.639  1.00  0.00    -0.014 A 
BRANCH  31  32
ATOM     32  C   UNL     1      -8.872   1.475  -8.578  1.00  0.00     0.031 A 
ATOM     33  C   UNL     1      -9.508   2.824  -8.808  1.00  0.00     0.074 A 
ATOM     34  C   UNL     1      -9.655   0.413  -8.290  1.00  0.00     0.049 A 
ATOM     35  N   UNL     1     -10.775   3.156  -8.790  1.00  0.00    -0.248 NA
ATOM     36  C   UNL     1      -8.601   3.950  -9.077  1.00  0.00     0.031 C 
ATOM     37  C   UNL     1      -9.169  -0.939  -8.009  1.00  0.00     0.029 A 
ATOM     38  N   UNL     1     -11.021   0.300  -8.181  1.00  0.00    -0.354 N 
ATOM     39  C   UNL     1     -10.817   4.526  -9.031  1.00  0.00     0.074 A 
ATOM     40  C   UNL     1      -9.445   4.971  -9.147  1.00  0.00     0.031 C 
ATOM     41  C   UNL     1     -10.218  -1.748  -7.784  1.00  0.00     0.029 A 
ATOM     42  C   UNL     1     -11.450  -0.971  -7.869  1.00  0.00     0.049 A 
ATOM     43  H   UNL     1     -11.635   1.057  -8.315  1.00  0.00     0.167 HD
ATOM     44  C   UNL     1     -11.897   5.335  -9.162  1.00  0.00     0.037 A 
ATOM     45  C   UNL     1     -12.693  -1.456  -7.668  1.00  0.00     0.037 A 
ATOM     46  C   UNL     1     -13.263   4.884  -9.069  1.00  0.00     0.049 A 
ATOM     47  C   UNL     1     -13.876  -0.534  -7.810  1.00  0.00     0.074 A 
ATOM     48  C   UNL     1     -14.425   5.615  -9.256  1.00  0.00     0.029 A 
ATOM     49  N   UNL     1     -13.654   3.590  -8.756  1.00  0.00    -0.354 N 
ATOM     50  N   UNL     1     -13.895   0.741  -8.118  1.00  0.00    -0.248 NA
ATOM     51  C   UNL     1     -15.207  -1.116  -7.584  1.00  0.00     0.031 C 
ATOM     52  C   UNL     1     -15.516   4.779  -8.999  1.00  0.00     0.029 A 
ATOM     53  C   UNL     1     -15.037   3.510  -8.713  1.00  0.00     0.049 A 
ATOM     54  H   UNL     1     -13.040   2.840  -8.588  1.00  0.00     0.167 HD
ATOM     55  C   UNL     1     -15.238   1.104  -8.156  1.00  0.00     0.074 A 
ATOM     56  C   UNL     1     -16.001  -0.088  -7.852  1.00  0.00     0.031 C 
ATOM     57  C   UNL     1     -15.789   2.315  -8.420  1.00  0.00     0.037 A 
BRANCH  44  58
ATOM     58  C   UNL     1     -11.656   6.801  -9.416  1.00  0.00     0.058 A 
ATOM     59  C   UNL     1     -11.144   7.267 -10.637  1.00  0.00     0.135 A 
ATOM     60  C   UNL     1     -11.995   7.758  -8.444  1.00  0.00     0.135 A 
ATOM     61  F   UNL     1     -10.793   6.399 -11.599  1.00  0.00    -0.206 F 
ATOM     62  C   UNL     1     -10.952   8.625 -10.876  1.00  0.00     0.059 A 
ATOM     63  C   UNL     1     -11.839   9.122  -8.673  1.00  0.00     0.059 A 
ATOM     64  F   UNL     1     -12.492   7.371  -7.258  1.00  0.00    -0.206 F 
ATOM     65  C   UNL     1     -11.304   9.545  -9.888  1.00  0.00     0.060 A 
BRANCH  65  66
ATOM     66  S   UNL     1     -11.058  11.303 -10.221  1.00  0.00     0.124 S 
ATOM     67  O   UNL     1      -9.603  11.408 -10.173  1.00  0.00    -0.237 OA
ATOM     68  O   UNL     1     -11.661  11.457 -11.541  1.00  0.00    -0.237 OA
ATOM     69  O   UNL     1     -11.770  11.960  -9.129  1.00  0.00    -0.744 OA
ENDBRANCH  65  66
ENDBRANCH  44  58
BRANCH  45  70
ATOM     70  C   UNL     1     -12.891  -2.893  -7.323  1.00  0.00     0.058 A 
ATOM     71  C   UNL     1     -13.515  -3.775  -8.219  1.00  0.00     0.135 A 
ATOM     72  C   UNL     1     -12.474  -3.410  -6.087  1.00  0.00     0.135 A 
ATOM     73  F   UNL     1     -13.942  -3.329  -9.411  1.00  0.00    -0.206 F 
ATOM     74  C   UNL     1     -13.740  -5.109  -7.894  1.00  0.00     0.059 A 
ATOM     75  C   UNL     1     -12.660  -4.748  -5.751  1.00  0.00     0.059 A 
ATOM     76  F   UNL     1     -11.859  -2.615  -5.197  1.00  0.00    -0.206 F 
ATOM     77  C   UNL     1     -13.308  -5.587  -6.656  1.00  0.00     0.060 A 
BRANCH  77  78
ATOM     78  S   UNL     1     -13.575  -7.329  -6.258  1.00  0.00     0.124 S 
ATOM     79  O   UNL     1     -15.016  -7.362  -6.037  1.00  0.00    -0.237 OA
ATOM     80  O   UNL     1     -13.098  -7.995  -7.466  1.00  0.00    -0.237 OA
ATOM     81  O   UNL     1     -12.748  -7.532  -5.072  1.00  0.00    -0.744 OA
ENDBRANCH  77  78
ENDBRANCH  45  70
BRANCH  57  82
ATOM     82  C   UNL     1     -17.291   2.410  -8.436  1.00  0.00     0.058 A 
ATOM     83  C   UNL     1     -18.052   2.333  -7.259  1.00  0.00     0.135 A 
ATOM     84  C   UNL     1     -17.975   2.636  -9.642  1.00  0.00     0.135 A 
ATOM     85  F   UNL     1     -17.452   2.111  -6.079  1.00  0.00    -0.206 F 
ATOM     86  C   UNL     1     -19.439   2.452  -7.280  1.00  0.00     0.059 A 
ATOM     87  C   UNL     1     -19.357   2.790  -9.683  1.00  0.00     0.059 A 
ATOM     88  F   UNL     1     -17.296   2.729 -10.797  1.00  0.00    -0.206 F 
ATOM     89  C   UNL     1     -20.082   2.684  -8.497  1.00  0.00     0.060 A 
BRANCH  89  90
ATOM     90  S   UNL     1     -21.878   2.873  -8.505  1.00  0.00     0.124 S 
ATOM     91  O   UNL     1     -22.319   1.502  -8.270  1.00  0.00    -0.237 OA
ATOM     92  O   UNL     1     -22.098   3.807  -7.406  1.00  0.00    -0.237 OA
ATOM     93  O   UNL     1     -22.159   3.402  -9.837  1.00  0.00    -0.744 OA
ENDBRANCH  89  90
ENDBRANCH  57  82
ENDBRANCH  31  32
ENDBRANCH  23  26
ENDBRANCH  21  22
ENDBRANCH  20  21
ENDBRANCH   1  20
TORSDOF 15
