REMARK SMILES CC1(C)CCCC[C@@]1(C(=O)NCCCCNC(=O)c1ccc(-c2c3nc(c(-c4c(F)cc(S(=O)(=O)[O-])cc4F)c4ccc([nH]4)c(-c4c(F)cc(S(=O)(=O)[O-])cc4F)c4nc(c(-c5c(F)cc(S(=O)(=O)[O-])cc5F)c5ccc2[nH]5)C=C4)C=C3)cc1)[NH+]1CC[NH2+]CC1
REMARK SMILES IDX 14 1 13 2 12 3 11 4 9 5 10 6 8 8 1 9 2 10 3 11 4 12 5 13
REMARK SMILES IDX 7 14 6 15 85 16 86 17 90 18 87 20 89 21 88 22 15 25 16 26
REMARK SMILES IDX 17 27 18 29 19 30 20 31 84 32 21 33 83 34 22 35 23 36 24 37
REMARK SMILES IDX 77 38 25 39 82 40 76 41 78 42 26 43 81 44 75 45 74 46 27 48
REMARK SMILES IDX 61 49 40 50 60 51 41 52 44 53 59 54 79 55 42 56 43 57 58 59
REMARK SMILES IDX 80 60 45 61 28 62 29 63 38 64 30 65 31 66 37 67 39 68 32 69
REMARK SMILES IDX 33 70 34 71 35 72 36 73 62 74 63 75 72 76 64 77 65 78 71 79
REMARK SMILES IDX 73 80 66 81 67 82 68 83 69 84 70 85 46 86 47 87 56 88 48 89
REMARK SMILES IDX 49 90 55 91 57 92 50 93 51 94 52 95 53 96 54 97
REMARK H PARENT 11 7 85 19 88 23 88 24 16 28 78 47 44 58
REMARK Flexibility Score: inf
ROOT
ATOM      1  C   UNL     1      -3.141   1.356  -4.754  1.00  0.00     0.023 C 
ENDROOT
BRANCH   1   2
ATOM      2  C   UNL     1      -2.334   1.280  -3.468  1.00  0.00     0.023 C 
BRANCH   2   3
ATOM      3  C   UNL     1      -1.456   0.037  -3.301  1.00  0.00     0.116 C 
BRANCH   3   4
ATOM      4  N   UNL     1      -0.126   0.205  -3.845  1.00  0.00    -0.351 N 
ATOM      5  C   UNL     1       1.144   0.249  -3.382  1.00  0.00     0.281 C 
ATOM      6  O   UNL     1       1.943   0.504  -4.309  1.00  0.00    -0.268 OA
ATOM      7  H   UNL     1      -0.153   0.318  -4.822  1.00  0.00     0.163 HD
BRANCH   5   8
ATOM      8  C   UNL     1       1.754  -0.041  -1.886  1.00  0.00     0.182 C 
ATOM      9  C   UNL     1       1.464   0.383   0.793  1.00  0.00     0.018 C 
ATOM     10  C   UNL     1       0.799   0.271  -0.628  1.00  0.00     0.029 C 
ATOM     11  C   UNL     1      -0.251  -0.855  -0.431  1.00  0.00     0.018 C 
ATOM     12  C   UNL     1       0.200   1.690  -0.846  1.00  0.00     0.013 C 
ATOM     13  C   UNL     1       1.280   2.779  -0.911  1.00  0.00     0.001 C 
ATOM     14  C   UNL     1       2.928   1.007  -1.817  1.00  0.00     0.080 C 
ATOM     15  C   UNL     1       2.417   2.460  -1.882  1.00  0.00     0.007 C 
BRANCH   8  16
ATOM     16  N   UNL     1       2.253  -1.480  -1.864  1.00  0.00    -0.313 N 
ATOM     17  C   UNL     1       3.186  -1.828  -0.777  1.00  0.00     0.325 C 
ATOM     18  C   UNL     1       2.853  -1.972  -3.134  1.00  0.00     0.325 C 
ATOM     19  H   UNL     1       1.364  -1.954  -1.702  1.00  0.00     0.349 HD
ATOM     20  C   UNL     1       3.476  -3.344  -0.722  1.00  0.00     0.322 C 
ATOM     21  C   UNL     1       3.268  -3.469  -3.086  1.00  0.00     0.322 C 
ATOM     22  N   UNL     1       4.128  -3.826  -1.945  1.00  0.00    -0.337 N 
ATOM     23  H   UNL     1       4.244  -4.838  -1.901  1.00  0.00     0.346 HD
ATOM     24  H   UNL     1       5.050  -3.401  -2.047  1.00  0.00     0.346 HD
ENDBRANCH   8  16
ENDBRANCH   5   8
ENDBRANCH   3   4
ENDBRANCH   2   3
ENDBRANCH   1   2
BRANCH   1  25
ATOM     25  C   UNL     1      -3.962   0.119  -5.094  1.00  0.00     0.116 C 
BRANCH  25  26
ATOM     26  N   UNL     1      -4.775  -0.390  -3.995  1.00  0.00    -0.352 N 
ATOM     27  C   UNL     1      -6.055  -0.900  -4.046  1.00  0.00     0.251 C 
ATOM     28  H   UNL     1      -4.357  -0.367  -3.105  1.00  0.00     0.163 HD
ATOM     29  O   UNL     1      -6.628  -1.261  -3.027  1.00  0.00    -0.269 OA
BRANCH  27  30
ATOM     30  C   UNL     1      -6.739  -0.942  -5.354  1.00  0.00     0.039 A 
ATOM     31  C   UNL     1      -7.963  -0.287  -5.495  1.00  0.00     0.014 A 
ATOM     32  C   UNL     1      -6.097  -1.505  -6.460  1.00  0.00     0.014 A 
ATOM     33  C   UNL     1      -8.494  -0.101  -6.772  1.00  0.00     0.010 A 
ATOM     34  C   UNL     1      -6.580  -1.236  -7.733  1.00  0.00     0.010 A 
ATOM     35  C   UNL     1      -7.776  -0.521  -7.904  1.00  0.00    -0.014 A 
BRANCH  35  36
ATOM     36  C   UNL     1      -8.242  -0.212  -9.280  1.00  0.00     0.031 A 
ATOM     37  C   UNL     1      -8.548  -1.334 -10.232  1.00  0.00     0.074 A 
ATOM     38  C   UNL     1      -8.295   1.069  -9.699  1.00  0.00     0.049 A 
ATOM     39  N   UNL     1      -8.848  -1.279 -11.503  1.00  0.00    -0.248 NA
ATOM     40  C   UNL     1      -8.463  -2.701  -9.694  1.00  0.00     0.031 C 
ATOM     41  C   UNL     1      -7.954   2.244  -8.891  1.00  0.00     0.029 A 
ATOM     42  N   UNL     1      -8.643   1.598 -10.916  1.00  0.00    -0.354 N 
ATOM     43  C   UNL     1      -8.956  -2.599 -11.922  1.00  0.00     0.074 A 
ATOM     44  C   UNL     1      -8.638  -3.433 -10.783  1.00  0.00     0.031 C 
ATOM     45  C   UNL     1      -8.136   3.353  -9.626  1.00  0.00     0.029 A 
ATOM     46  C   UNL     1      -8.572   2.971 -10.965  1.00  0.00     0.049 A 
ATOM     47  H   UNL     1      -8.918   1.046 -11.684  1.00  0.00     0.167 HD
ATOM     48  C   UNL     1      -9.315  -3.076 -13.137  1.00  0.00     0.037 A 
ATOM     49  C   UNL     1      -8.830   3.824 -11.976  1.00  0.00     0.037 A 
ATOM     50  C   UNL     1      -9.685  -2.243 -14.249  1.00  0.00     0.049 A 
ATOM     51  C   UNL     1      -9.281   3.274 -13.301  1.00  0.00     0.074 A 
ATOM     52  C   UNL     1     -10.134  -2.627 -15.501  1.00  0.00     0.029 A 
ATOM     53  N   UNL     1      -9.660  -0.856 -14.239  1.00  0.00    -0.354 N 
ATOM     54  N   UNL     1      -9.434   2.022 -13.662  1.00  0.00    -0.248 NA
ATOM     55  C   UNL     1      -9.600   4.248 -14.353  1.00  0.00     0.031 C 
ATOM     56  C   UNL     1     -10.361  -1.470 -16.255  1.00  0.00     0.029 A 
ATOM     57  C   UNL     1     -10.083  -0.367 -15.463  1.00  0.00     0.049 A 
ATOM     58  H   UNL     1      -9.383  -0.302 -13.475  1.00  0.00     0.167 HD
ATOM     59  C   UNL     1      -9.892   2.059 -14.974  1.00  0.00     0.074 A 
ATOM     60  C   UNL     1      -9.998   3.457 -15.340  1.00  0.00     0.031 C 
ATOM     61  C   UNL     1     -10.196   1.029 -15.801  1.00  0.00     0.037 A 
BRANCH  48  62
ATOM     62  C   UNL     1      -9.342  -4.568 -13.312  1.00  0.00     0.058 A 
ATOM     63  C   UNL     1     -10.326  -5.360 -12.698  1.00  0.00     0.135 A 
ATOM     64  C   UNL     1      -8.381  -5.213 -14.105  1.00  0.00     0.135 A 
ATOM     65  F   UNL     1     -11.257  -4.794 -11.913  1.00  0.00    -0.206 F 
ATOM     66  C   UNL     1     -10.335  -6.743 -12.835  1.00  0.00     0.059 A 
ATOM     67  C   UNL     1      -8.387  -6.594 -14.278  1.00  0.00     0.059 A 
ATOM     68  F   UNL     1      -7.418  -4.503 -14.713  1.00  0.00    -0.206 F 
ATOM     69  C   UNL     1      -9.357  -7.352 -13.623  1.00  0.00     0.060 A 
BRANCH  69  70
ATOM     70  S   UNL     1      -9.375  -9.149 -13.786  1.00  0.00     0.124 S 
ATOM     71  O   UNL     1      -8.810  -9.562 -12.505  1.00  0.00    -0.237 OA
ATOM     72  O   UNL     1     -10.794  -9.435 -13.973  1.00  0.00    -0.237 OA
ATOM     73  O   UNL     1      -8.532  -9.392 -14.953  1.00  0.00    -0.744 OA
ENDBRANCH  69  70
ENDBRANCH  48  62
BRANCH  49  74
ATOM     74  C   UNL     1      -8.707   5.290 -11.762  1.00  0.00     0.058 A 
ATOM     75  C   UNL     1      -9.850   6.097 -11.658  1.00  0.00     0.135 A 
ATOM     76  C   UNL     1      -7.455   5.911 -11.643  1.00  0.00     0.135 A 
ATOM     77  F   UNL     1     -11.069   5.548 -11.771  1.00  0.00    -0.206 F 
ATOM     78  C   UNL     1      -9.758   7.470 -11.459  1.00  0.00     0.059 A 
ATOM     79  C   UNL     1      -7.337   7.281 -11.423  1.00  0.00     0.059 A 
ATOM     80  F   UNL     1      -6.332   5.180 -11.717  1.00  0.00    -0.206 F 
ATOM     81  C   UNL     1      -8.495   8.054 -11.341  1.00  0.00     0.060 A 
BRANCH  81  82
ATOM     82  S   UNL     1      -8.385   9.830 -11.030  1.00  0.00     0.124 S 
ATOM     83  O   UNL     1      -8.678  10.377 -12.349  1.00  0.00    -0.237 OA
ATOM     84  O   UNL     1      -9.413  10.029 -10.013  1.00  0.00    -0.237 OA
ATOM     85  O   UNL     1      -7.013  10.001 -10.563  1.00  0.00    -0.744 OA
ENDBRANCH  81  82
ENDBRANCH  49  74
BRANCH  61  86
ATOM     86  C   UNL     1     -10.708   1.371 -17.170  1.00  0.00     0.058 A 
ATOM     87  C   UNL     1      -9.849   1.819 -18.184  1.00  0.00     0.135 A 
ATOM     88  C   UNL     1     -12.063   1.188 -17.486  1.00  0.00     0.135 A 
ATOM     89  F   UNL     1      -8.546   2.015 -17.927  1.00  0.00    -0.206 F 
ATOM     90  C   UNL     1     -10.319   2.090 -19.464  1.00  0.00     0.059 A 
ATOM     91  C   UNL     1     -12.551   1.432 -18.765  1.00  0.00     0.059 A 
ATOM     92  F   UNL     1     -12.923   0.752 -16.551  1.00  0.00    -0.206 F 
ATOM     93  C   UNL     1     -11.672   1.891 -19.746  1.00  0.00     0.060 A 
BRANCH  93  94
ATOM     94  S   UNL     1     -12.265   2.202 -21.422  1.00  0.00     0.124 S 
ATOM     95  O   UNL     1     -12.341   3.659 -21.441  1.00  0.00    -0.237 OA
ATOM     96  O   UNL     1     -11.213   1.611 -22.243  1.00  0.00    -0.237 OA
ATOM     97  O   UNL     1     -13.547   1.504 -21.462  1.00  0.00    -0.744 OA
ENDBRANCH  93  94
ENDBRANCH  61  86
ENDBRANCH  35  36
ENDBRANCH  27  30
ENDBRANCH  25  26
ENDBRANCH   1  25
TORSDOF 15
