REMARK SMILES Cc1nsc(NC(=O)C2([NH3+])CCCCC2)c1C(=O)NCCCCNC(=O)c1ccc(-c2c3nc(c(-c4c(F)cc(S(=O)(=O)[O-])cc4F)c4ccc([nH]4)c(-c4c(F)cc(S(=O)(=O)[O-])cc4F)c4nc(c(-c5c(F)cc(S(=O)(=O)[O-])cc5F)c5ccc2[nH]5)C=C4)C=C3)cc1
REMARK SMILES IDX 21 1 20 2 19 3 17 4 18 5 16 7 1 8 2 9 3 10 4 11 5 12 6 13
REMARK SMILES IDX 7 14 8 16 9 17 11 18 15 19 12 20 14 21 13 22 10 23 22 27
REMARK SMILES IDX 23 28 24 29 25 30 26 32 27 33 28 34 92 35 29 36 91 37 30 38
REMARK SMILES IDX 31 39 32 40 85 41 33 42 90 43 84 44 86 45 34 46 89 47 83 48
REMARK SMILES IDX 82 49 35 51 69 52 48 53 68 54 49 55 52 56 67 57 87 58 50 59
REMARK SMILES IDX 51 60 66 62 88 63 53 64 36 65 37 66 46 67 38 68 39 69 45 70
REMARK SMILES IDX 47 71 40 72 41 73 42 74 43 75 44 76 70 77 71 78 80 79 72 80
REMARK SMILES IDX 73 81 79 82 81 83 74 84 75 85 76 86 77 87 78 88 54 89 55 90
REMARK SMILES IDX 64 91 56 92 57 93 63 94 65 95 58 96 59 97 60 98 61 99 62 100
REMARK H PARENT 19 6 6 15 10 24 10 25 10 26 24 31 86 50 52 61
REMARK Flexibility Score: inf
ROOT
ATOM      1  C   UNL     1       0.069   2.003  -1.430  1.00  0.00     0.023 C 
ENDROOT
BRANCH   1   2
ATOM      2  C   UNL     1       1.038   2.261  -0.273  1.00  0.00     0.116 C 
BRANCH   2   3
ATOM      3  N   UNL     1       0.322   2.492   0.957  1.00  0.00    -0.352 N 
ATOM      4  C   UNL     1      -0.133   1.705   1.976  1.00  0.00     0.256 C 
ATOM      5  O   UNL     1      -0.745   2.341   2.843  1.00  0.00    -0.269 OA
ATOM      6  H   UNL     1       0.111   3.444   1.095  1.00  0.00     0.163 HD
BRANCH   4   7
ATOM      7  C   UNL     1       0.056   0.248   2.140  1.00  0.00     0.097 A 
ATOM      8  C   UNL     1       0.838  -0.904  -0.185  1.00  0.00     0.069 C 
ATOM      9  C   UNL     1       0.482  -0.846   1.256  1.00  0.00     0.066 A 
ATOM     10  N   UNL     1       0.536  -2.056   1.810  1.00  0.00    -0.195 NA
ATOM     11  S   UNL     1       0.045  -1.975   3.344  1.00  0.00    -0.017 S 
ATOM     12  C   UNL     1      -0.262  -0.321   3.397  1.00  0.00     0.129 A 
BRANCH  12  13
ATOM     13  N   UNL     1      -0.779   0.329   4.516  1.00  0.00    -0.310 N 
ATOM     14  C   UNL     1      -1.129   0.005   5.801  1.00  0.00     0.286 C 
ATOM     15  H   UNL     1      -0.937   1.283   4.333  1.00  0.00     0.171 HD
ATOM     16  O   UNL     1      -1.667   0.916   6.448  1.00  0.00    -0.267 OA
BRANCH  14  17
ATOM     17  C   UNL     1      -0.924  -1.391   6.482  1.00  0.00     0.174 C 
ATOM     18  C   UNL     1      -1.043  -1.314   8.031  1.00  0.00     0.079 C 
ATOM     19  C   UNL     1      -1.925  -2.415   5.896  1.00  0.00     0.079 C 
ATOM     20  C   UNL     1      -2.461  -1.337   8.595  1.00  0.00     0.007 C 
ATOM     21  C   UNL     1      -3.324  -2.360   6.508  1.00  0.00     0.007 C 
ATOM     22  C   UNL     1      -3.267  -2.488   8.017  1.00  0.00     0.001 C 
BRANCH  17  23
ATOM     23  N   UNL     1       0.493  -1.805   6.310  1.00  0.00    -0.345 N 
ATOM     24  H   UNL     1       1.106  -1.096   6.713  1.00  0.00     0.345 HD
ATOM     25  H   UNL     1       0.699  -1.908   5.316  1.00  0.00     0.345 HD
ATOM     26  H   UNL     1       0.647  -2.696   6.783  1.00  0.00     0.345 HD
ENDBRANCH  17  23
ENDBRANCH  14  17
ENDBRANCH  12  13
ENDBRANCH   4   7
ENDBRANCH   2   3
ENDBRANCH   1   2
BRANCH   1  27
ATOM     27  C   UNL     1      -0.419   3.251  -2.172  1.00  0.00     0.023 C 
BRANCH  27  28
ATOM     28  C   UNL     1       0.651   3.923  -3.025  1.00  0.00     0.116 C 
BRANCH  28  29
ATOM     29  N   UNL     1       1.166   3.045  -4.075  1.00  0.00    -0.352 N 
ATOM     30  C   UNL     1       2.319   3.205  -4.824  1.00  0.00     0.251 C 
ATOM     31  H   UNL     1       0.628   2.245  -4.274  1.00  0.00     0.163 HD
ATOM     32  O   UNL     1       2.454   2.658  -5.903  1.00  0.00    -0.269 OA
BRANCH  30  33
ATOM     33  C   UNL     1       3.392   4.042  -4.260  1.00  0.00     0.039 A 
ATOM     34  C   UNL     1       4.008   5.041  -5.018  1.00  0.00     0.014 A 
ATOM     35  C   UNL     1       3.718   3.842  -2.921  1.00  0.00     0.014 A 
ATOM     36  C   UNL     1       4.900   5.905  -4.388  1.00  0.00     0.010 A 
ATOM     37  C   UNL     1       4.501   4.767  -2.276  1.00  0.00     0.010 A 
ATOM     38  C   UNL     1       5.125   5.778  -3.009  1.00  0.00    -0.014 A 
BRANCH  38  39
ATOM     39  C   UNL     1       5.856   6.809  -2.268  1.00  0.00     0.031 A 
ATOM     40  C   UNL     1       5.248   8.169  -2.387  1.00  0.00     0.074 A 
ATOM     41  C   UNL     1       6.790   6.485  -1.342  1.00  0.00     0.049 A 
ATOM     42  N   UNL     1       5.757   9.235  -2.913  1.00  0.00    -0.248 NA
ATOM     43  C   UNL     1       3.822   8.325  -2.033  1.00  0.00     0.031 C 
ATOM     44  C   UNL     1       7.196   5.128  -0.943  1.00  0.00     0.029 A 
ATOM     45  N   UNL     1       7.473   7.264  -0.454  1.00  0.00    -0.354 N 
ATOM     46  C   UNL     1       4.825  10.251  -2.683  1.00  0.00     0.074 A 
ATOM     47  C   UNL     1       3.587   9.591  -2.384  1.00  0.00     0.031 C 
ATOM     48  C   UNL     1       7.825   5.170   0.250  1.00  0.00     0.029 A 
ATOM     49  C   UNL     1       8.033   6.559   0.614  1.00  0.00     0.049 A 
ATOM     50  H   UNL     1       7.563   8.239  -0.557  1.00  0.00     0.167 HD
ATOM     51  C   UNL     1       5.239  11.523  -2.415  1.00  0.00     0.037 A 
ATOM     52  C   UNL     1       8.615   7.073   1.727  1.00  0.00     0.037 A 
ATOM     53  C   UNL     1       6.629  11.671  -2.764  1.00  0.00     0.049 A 
ATOM     54  C   UNL     1       8.996   8.467   1.407  1.00  0.00     0.074 A 
ATOM     55  C   UNL     1       7.374  11.734  -3.921  1.00  0.00     0.029 A 
ATOM     56  N   UNL     1       7.483  11.367  -1.738  1.00  0.00    -0.354 N 
ATOM     57  N   UNL     1       9.889   8.777   0.506  1.00  0.00    -0.248 NA
ATOM     58  C   UNL     1       8.121   9.557   1.819  1.00  0.00     0.031 C 
ATOM     59  C   UNL     1       8.671  11.250  -3.577  1.00  0.00     0.029 A 
ATOM     60  C   UNL     1       8.699  10.963  -2.213  1.00  0.00     0.049 A 
ATOM     61  H   UNL     1       7.252  11.431  -0.783  1.00  0.00     0.167 HD
ATOM     62  C   UNL     1       9.414   9.943  -0.062  1.00  0.00     0.074 A 
ATOM     63  C   UNL     1       8.437  10.462   0.888  1.00  0.00     0.031 C 
ATOM     64  C   UNL     1       9.609  10.197  -1.388  1.00  0.00     0.037 A 
BRANCH  51  65
ATOM     65  C   UNL     1       4.613  12.449  -1.372  1.00  0.00     0.058 A 
ATOM     66  C   UNL     1       5.176  13.735  -1.183  1.00  0.00     0.135 A 
ATOM     67  C   UNL     1       3.730  12.034  -0.350  1.00  0.00     0.135 A 
ATOM     68  F   UNL     1       6.019  14.252  -2.092  1.00  0.00    -0.206 F 
ATOM     69  C   UNL     1       4.959  14.494  -0.030  1.00  0.00     0.059 A 
ATOM     70  C   UNL     1       3.467  12.794   0.786  1.00  0.00     0.059 A 
ATOM     71  F   UNL     1       3.141  10.835  -0.344  1.00  0.00    -0.206 F 
ATOM     72  C   UNL     1       4.117  14.002   0.960  1.00  0.00     0.060 A 
BRANCH  72  73
ATOM     73  S   UNL     1       3.906  14.923   2.494  1.00  0.00     0.124 S 
ATOM     74  O   UNL     1       5.228  14.794   3.095  1.00  0.00    -0.237 OA
ATOM     75  O   UNL     1       3.550  16.250   2.002  1.00  0.00    -0.237 OA
ATOM     76  O   UNL     1       2.830  14.203   3.170  1.00  0.00    -0.744 OA
ENDBRANCH  72  73
ENDBRANCH  51  65
BRANCH  52  77
ATOM     77  C   UNL     1       8.636   6.543   3.117  1.00  0.00     0.058 A 
ATOM     78  C   UNL     1       9.530   7.048   4.080  1.00  0.00     0.135 A 
ATOM     79  C   UNL     1       7.582   5.746   3.609  1.00  0.00     0.135 A 
ATOM     80  F   UNL     1      10.559   7.821   3.703  1.00  0.00    -0.206 F 
ATOM     81  C   UNL     1       9.353   6.834   5.453  1.00  0.00     0.059 A 
ATOM     82  C   UNL     1       7.389   5.514   4.971  1.00  0.00     0.059 A 
ATOM     83  F   UNL     1       6.652   5.248   2.780  1.00  0.00    -0.206 F 
ATOM     84  C   UNL     1       8.261   6.086   5.891  1.00  0.00     0.060 A 
BRANCH  84  85
ATOM     85  S   UNL     1       7.915   5.970   7.664  1.00  0.00     0.124 S 
ATOM     86  O   UNL     1       9.009   5.125   8.131  1.00  0.00    -0.237 OA
ATOM     87  O   UNL     1       7.966   7.367   8.081  1.00  0.00    -0.237 OA
ATOM     88  O   UNL     1       6.590   5.356   7.710  1.00  0.00    -0.744 OA
ENDBRANCH  84  85
ENDBRANCH  52  77
BRANCH  64  89
ATOM     89  C   UNL     1      10.767   9.526  -2.066  1.00  0.00     0.058 A 
ATOM     90  C   UNL     1      10.868   8.152  -2.335  1.00  0.00     0.135 A 
ATOM     91  C   UNL     1      11.786  10.357  -2.554  1.00  0.00     0.135 A 
ATOM     92  F   UNL     1       9.896   7.303  -1.972  1.00  0.00    -0.206 F 
ATOM     93  C   UNL     1      11.955   7.624  -3.034  1.00  0.00     0.059 A 
ATOM     94  C   UNL     1      12.860   9.859  -3.279  1.00  0.00     0.059 A 
ATOM     95  F   UNL     1      11.716  11.686  -2.367  1.00  0.00    -0.206 F 
ATOM     96  C   UNL     1      12.946   8.488  -3.504  1.00  0.00     0.060 A 
BRANCH  96  97
ATOM     97  S   UNL     1      14.320   7.821  -4.466  1.00  0.00     0.124 S 
ATOM     98  O   UNL     1      15.075   7.090  -3.455  1.00  0.00    -0.237 OA
ATOM     99  O   UNL     1      13.638   7.003  -5.465  1.00  0.00    -0.237 OA
ATOM    100  O   UNL     1      14.977   9.014  -4.994  1.00  0.00    -0.744 OA
ENDBRANCH  96  97
ENDBRANCH  64  89
ENDBRANCH  38  39
ENDBRANCH  30  33
ENDBRANCH  28  29
ENDBRANCH  27  28
ENDBRANCH   1  27
TORSDOF 17
