REMARK SMILES CCn1cc(CC(=O)NCCCCNC(=O)c2ccc(-c3c4nc(c(-c5c(F)cc(S(=O)(=O)[O-])cc5F)c5ccc([nH]5)c(-c5c(F)cc(S(=O)(=O)[O-])cc5F)c5nc(c(-c6c(F)cc(S(=O)(=O)[O-])cc6F)c6ccc3[nH]6)C=C5)C=C4)cc2)c2ccccc21
REMARK SMILES IDX 12 1 11 2 10 3 9 4 7 5 8 6 6 8 5 9 3 10 4 11 88 12 83 13
REMARK SMILES IDX 87 14 84 15 86 16 85 17 2 18 1 19 13 20 14 21 15 22 16 24
REMARK SMILES IDX 17 25 18 26 82 27 19 28 81 29 20 30 21 31 22 32 75 33 23 34
REMARK SMILES IDX 80 35 74 36 76 37 24 38 79 39 73 40 72 41 25 43 59 44 38 45
REMARK SMILES IDX 58 46 39 47 42 48 57 49 77 50 40 51 41 52 56 54 78 55 43 56
REMARK SMILES IDX 26 57 27 58 36 59 28 60 29 61 35 62 37 63 30 64 31 65 32 66
REMARK SMILES IDX 33 67 34 68 60 69 61 70 70 71 62 72 63 73 69 74 71 75 64 76
REMARK SMILES IDX 65 77 66 78 67 79 68 80 44 81 45 82 54 83 46 84 47 85 53 86
REMARK SMILES IDX 55 87 48 88 49 89 50 90 51 91 52 92
REMARK H PARENT 9 7 14 23 76 42 42 53
REMARK Flexibility Score: inf
ROOT
ATOM      1  C   UNL     1      -3.286   2.288   5.334  1.00  0.00     0.023 C 
ENDROOT
BRANCH   1   2
ATOM      2  C   UNL     1      -2.286   2.264   4.167  1.00  0.00     0.023 C 
BRANCH   2   3
ATOM      3  C   UNL     1      -1.959   3.636   3.578  1.00  0.00     0.116 C 
BRANCH   3   4
ATOM      4  N   UNL     1      -1.202   4.463   4.498  1.00  0.00    -0.356 N 
ATOM      5  C   UNL     1       0.096   4.882   4.407  1.00  0.00     0.224 C 
ATOM      6  O   UNL     1       0.541   5.602   5.305  1.00  0.00    -0.275 OA
ATOM      7  H   UNL     1      -1.691   4.764   5.299  1.00  0.00     0.163 HD
BRANCH   5   8
ATOM      8  C   UNL     1       0.934   4.535   3.185  1.00  0.00     0.137 C 
BRANCH   8   9
ATOM      9  C   UNL     1       1.191   3.070   3.042  1.00  0.00    -0.013 A 
ATOM     10  N   UNL     1       1.100   0.973   2.272  1.00  0.00    -0.347 N 
ATOM     11  C   UNL     1       0.811   2.280   1.974  1.00  0.00     0.091 A 
ATOM     12  C   UNL     1       1.758   0.902   3.483  1.00  0.00     0.048 A 
ATOM     13  C   UNL     1       1.834   2.208   3.983  1.00  0.00     0.003 A 
ATOM     14  C   UNL     1       2.264  -0.192   4.205  1.00  0.00     0.027 A 
ATOM     15  C   UNL     1       2.438   2.423   5.240  1.00  0.00     0.010 A 
ATOM     16  C   UNL     1       2.857   0.050   5.448  1.00  0.00     0.002 A 
ATOM     17  C   UNL     1       2.946   1.339   5.960  1.00  0.00     0.001 A 
BRANCH  10  18
ATOM     18  C   UNL     1       0.646  -0.154   1.471  1.00  0.00     0.119 C 
ATOM     19  C   UNL     1       1.122  -0.105   0.028  1.00  0.00     0.027 C 
ENDBRANCH  10  18
ENDBRANCH   8   9
ENDBRANCH   5   8
ENDBRANCH   3   4
ENDBRANCH   2   3
ENDBRANCH   1   2
BRANCH   1  20
ATOM     20  C   UNL     1      -4.565   3.081   5.061  1.00  0.00     0.116 C 
BRANCH  20  21
ATOM     21  N   UNL     1      -5.282   2.639   3.883  1.00  0.00    -0.352 N 
ATOM     22  C   UNL     1      -6.259   1.716   3.639  1.00  0.00     0.251 C 
ATOM     23  H   UNL     1      -4.999   3.114   3.068  1.00  0.00     0.163 HD
ATOM     24  O   UNL     1      -6.709   1.708   2.489  1.00  0.00    -0.269 OA
BRANCH  22  25
ATOM     25  C   UNL     1      -6.767   0.717   4.620  1.00  0.00     0.039 A 
ATOM     26  C   UNL     1      -6.411   0.641   5.967  1.00  0.00     0.014 A 
ATOM     27  C   UNL     1      -7.646  -0.254   4.104  1.00  0.00     0.014 A 
ATOM     28  C   UNL     1      -6.852  -0.414   6.759  1.00  0.00     0.010 A 
ATOM     29  C   UNL     1      -8.101  -1.303   4.893  1.00  0.00     0.010 A 
ATOM     30  C   UNL     1      -7.665  -1.406   6.211  1.00  0.00    -0.014 A 
BRANCH  30  31
ATOM     31  C   UNL     1      -8.091  -2.501   7.078  1.00  0.00     0.031 A 
ATOM     32  C   UNL     1      -8.954  -2.112   8.235  1.00  0.00     0.074 A 
ATOM     33  C   UNL     1      -7.834  -3.790   6.781  1.00  0.00     0.049 A 
ATOM     34  N   UNL     1      -8.770  -2.344   9.495  1.00  0.00    -0.248 NA
ATOM     35  C   UNL     1     -10.132  -1.275   7.954  1.00  0.00     0.031 C 
ATOM     36  C   UNL     1      -7.227  -4.326   5.559  1.00  0.00     0.029 A 
ATOM     37  N   UNL     1      -8.173  -4.915   7.470  1.00  0.00    -0.354 N 
ATOM     38  C   UNL     1      -9.893  -1.840  10.154  1.00  0.00     0.074 A 
ATOM     39  C   UNL     1     -10.634  -1.088   9.175  1.00  0.00     0.031 C 
ATOM     40  C   UNL     1      -7.461  -5.655   5.493  1.00  0.00     0.029 A 
ATOM     41  C   UNL     1      -8.122  -6.080   6.715  1.00  0.00     0.049 A 
ATOM     42  H   UNL     1      -8.431  -4.903   8.420  1.00  0.00     0.167 HD
ATOM     43  C   UNL     1     -10.230  -2.212  11.421  1.00  0.00     0.037 A 
ATOM     44  C   UNL     1      -8.661  -7.284   7.037  1.00  0.00     0.037 A 
ATOM     45  C   UNL     1      -9.126  -2.818  12.111  1.00  0.00     0.049 A 
ATOM     46  C   UNL     1      -8.872  -7.292   8.508  1.00  0.00     0.074 A 
ATOM     47  C   UNL     1      -7.878  -2.381  12.511  1.00  0.00     0.029 A 
ATOM     48  N   UNL     1      -9.093  -4.187  12.210  1.00  0.00    -0.354 N 
ATOM     49  N   UNL     1      -7.905  -7.297   9.385  1.00  0.00    -0.248 NA
ATOM     50  C   UNL     1     -10.165  -6.852   9.013  1.00  0.00     0.031 C 
ATOM     51  C   UNL     1      -7.025  -3.510  12.358  1.00  0.00     0.029 A 
ATOM     52  C   UNL     1      -7.811  -4.577  11.918  1.00  0.00     0.049 A 
ATOM     53  H   UNL     1      -9.846  -4.776  12.446  1.00  0.00     0.167 HD
ATOM     54  C   UNL     1      -8.351  -6.478  10.412  1.00  0.00     0.074 A 
ATOM     55  C   UNL     1      -9.782  -6.312  10.173  1.00  0.00     0.031 C 
ATOM     56  C   UNL     1      -7.475  -5.786  11.199  1.00  0.00     0.037 A 
BRANCH  43  57
ATOM     57  C   UNL     1     -11.645  -2.301  11.938  1.00  0.00     0.058 A 
ATOM     58  C   UNL     1     -11.881  -2.474  13.319  1.00  0.00     0.135 A 
ATOM     59  C   UNL     1     -12.760  -2.511  11.098  1.00  0.00     0.135 A 
ATOM     60  F   UNL     1     -10.890  -2.305  14.209  1.00  0.00    -0.206 F 
ATOM     61  C   UNL     1     -13.114  -2.898  13.818  1.00  0.00     0.059 A 
ATOM     62  C   UNL     1     -14.011  -2.883  11.579  1.00  0.00     0.059 A 
ATOM     63  F   UNL     1     -12.661  -2.463   9.763  1.00  0.00    -0.206 F 
ATOM     64  C   UNL     1     -14.167  -3.119  12.935  1.00  0.00     0.060 A 
BRANCH  64  65
ATOM     65  S   UNL     1     -15.715  -3.800  13.559  1.00  0.00     0.124 S 
ATOM     66  O   UNL     1     -15.305  -5.143  13.952  1.00  0.00    -0.237 OA
ATOM     67  O   UNL     1     -16.033  -2.883  14.648  1.00  0.00    -0.237 OA
ATOM     68  O   UNL     1     -16.605  -3.725  12.403  1.00  0.00    -0.744 OA
ENDBRANCH  64  65
ENDBRANCH  43  57
BRANCH  44  69
ATOM     69  C   UNL     1      -9.285  -8.280   6.124  1.00  0.00     0.058 A 
ATOM     70  C   UNL     1      -9.603  -9.578   6.562  1.00  0.00     0.135 A 
ATOM     71  C   UNL     1      -9.827  -7.902   4.877  1.00  0.00     0.135 A 
ATOM     72  F   UNL     1      -9.155 -10.018   7.748  1.00  0.00    -0.206 F 
ATOM     73  C   UNL     1     -10.441 -10.431   5.832  1.00  0.00     0.059 A 
ATOM     74  C   UNL     1     -10.649  -8.738   4.124  1.00  0.00     0.059 A 
ATOM     75  F   UNL     1      -9.653  -6.665   4.388  1.00  0.00    -0.206 F 
ATOM     76  C   UNL     1     -10.975  -9.992   4.621  1.00  0.00     0.060 A 
BRANCH  76  77
ATOM     77  S   UNL     1     -12.193 -11.014   3.759  1.00  0.00     0.124 S 
ATOM     78  O   UNL     1     -11.392 -12.163   3.351  1.00  0.00    -0.237 OA
ATOM     79  O   UNL     1     -13.179 -11.263   4.806  1.00  0.00    -0.237 OA
ATOM     80  O   UNL     1     -12.649 -10.154   2.670  1.00  0.00    -0.744 OA
ENDBRANCH  76  77
ENDBRANCH  44  69
BRANCH  56  81
ATOM     81  C   UNL     1      -6.010  -6.129  11.112  1.00  0.00     0.058 A 
ATOM     82  C   UNL     1      -5.228  -5.935   9.960  1.00  0.00     0.135 A 
ATOM     83  C   UNL     1      -5.338  -6.493  12.288  1.00  0.00     0.135 A 
ATOM     84  F   UNL     1      -5.774  -5.482   8.823  1.00  0.00    -0.206 F 
ATOM     85  C   UNL     1      -3.846  -6.129   9.966  1.00  0.00     0.059 A 
ATOM     86  C   UNL     1      -3.955  -6.661  12.326  1.00  0.00     0.059 A 
ATOM     87  F   UNL     1      -6.019  -6.629  13.438  1.00  0.00    -0.206 F 
ATOM     88  C   UNL     1      -3.217  -6.487  11.158  1.00  0.00     0.060 A 
BRANCH  88  89
ATOM     89  S   UNL     1      -1.417  -6.636  11.182  1.00  0.00     0.124 S 
ATOM     90  O   UNL     1      -1.200  -7.860  10.420  1.00  0.00    -0.237 OA
ATOM     91  O   UNL     1      -0.987  -5.401  10.536  1.00  0.00    -0.237 OA
ATOM     92  O   UNL     1      -1.102  -6.724  12.608  1.00  0.00    -0.744 OA
ENDBRANCH  88  89
ENDBRANCH  56  81
ENDBRANCH  30  31
ENDBRANCH  22  25
ENDBRANCH  20  21
ENDBRANCH   1  20
TORSDOF 16
