REMARK SMILES C[C@H](C(=O)NCCCCNC(=O)c1ccc(-c2c3nc(c(-c4c(F)cc(S(=O)(=O)[O-])cc4F)c4ccc([nH]4)c(-c4c(F)cc(S(=O)(=O)[O-])cc4F)c4nc(c(-c5c(F)cc(S(=O)(=O)[O-])cc5F)c5ccc2[nH]5)C=C4)C=C3)cc1)c1ccc2c3cc(Cl)ccc3n(C(=O)c3ccc(Cl)cc3)c2c1
REMARK SMILES IDX 7 1 6 2 5 3 3 4 4 5 2 7 1 8 79 9 80 10 101 11 81 12 100 13
REMARK SMILES IDX 82 14 90 15 83 16 89 17 84 18 88 19 85 20 87 21 86 22 91 23
REMARK SMILES IDX 92 24 93 25 94 26 99 27 95 28 98 29 96 30 97 31 8 32 9 33
REMARK SMILES IDX 10 34 11 35 12 37 13 38 14 39 78 40 15 41 77 42 16 43 17 44
REMARK SMILES IDX 18 45 71 46 19 47 76 48 70 49 72 50 20 51 75 52 69 53 68 54
REMARK SMILES IDX 21 56 55 57 34 58 54 59 35 60 38 61 53 62 73 63 36 64 37 65
REMARK SMILES IDX 52 67 74 68 39 69 22 70 23 71 32 72 24 73 25 74 31 75 33 76
REMARK SMILES IDX 26 77 27 78 28 79 29 80 30 81 56 82 57 83 66 84 58 85 59 86
REMARK SMILES IDX 65 87 67 88 60 89 61 90 62 91 63 92 64 93 40 94 41 95 50 96
REMARK SMILES IDX 42 97 43 98 49 99 51 100 44 101 45 102 46 103 47 104 48 105
REMARK H PARENT 5 6 10 36 72 55 38 66
REMARK Flexibility Score: inf
ROOT
ATOM      1  C   UNL     1      -0.913  -2.009   0.472  1.00  0.00     0.023 C 
ENDROOT
BRANCH   1   2
ATOM      2  C   UNL     1      -0.560  -0.684   1.145  1.00  0.00     0.116 C 
BRANCH   2   3
ATOM      3  N   UNL     1       0.783  -0.266   0.804  1.00  0.00    -0.356 N 
ATOM      4  C   UNL     1       1.308   0.440  -0.224  1.00  0.00     0.227 C 
ATOM      5  O   UNL     1       2.545   0.548  -0.184  1.00  0.00    -0.274 OA
ATOM      6  H   UNL     1       1.458  -0.557   1.460  1.00  0.00     0.163 HD
BRANCH   4   7
ATOM      7  C   UNL     1       0.559   1.112  -1.389  1.00  0.00     0.105 C 
ATOM      8  C   UNL     1       1.140   0.602  -2.715  1.00  0.00     0.023 C 
BRANCH   7   9
ATOM      9  C   UNL     1      -0.960   1.161  -1.447  1.00  0.00    -0.034 A 
ATOM     10  C   UNL     1      -1.623   2.371  -1.225  1.00  0.00     0.005 A 
ATOM     11  C   UNL     1      -1.727   0.031  -1.776  1.00  0.00     0.032 A 
ATOM     12  C   UNL     1      -3.019   2.454  -1.276  1.00  0.00     0.011 A 
ATOM     13  C   UNL     1      -3.137   0.072  -1.667  1.00  0.00     0.057 A 
ATOM     14  C   UNL     1      -3.785   1.281  -1.443  1.00  0.00     0.008 A 
ATOM     15  N   UNL     1      -4.105  -0.958  -1.683  1.00  0.00    -0.276 N 
ATOM     16  C   UNL     1      -5.177   1.014  -1.407  1.00  0.00     0.009 A 
ATOM     17  C   UNL     1      -5.339  -0.379  -1.339  1.00  0.00     0.057 A 
ATOM     18  C   UNL     1      -6.302   1.863  -1.320  1.00  0.00     0.031 A 
ATOM     19  C   UNL     1      -6.600  -0.911  -1.004  1.00  0.00     0.029 A 
ATOM     20  C   UNL     1      -7.561   1.313  -1.113  1.00  0.00     0.041 A 
ATOM     21  C   UNL     1      -7.705  -0.051  -0.916  1.00  0.00     0.023 A 
ATOM     22  Cl  UNL     1      -8.940   2.342  -1.062  1.00  0.00    -0.084 Cl
BRANCH  15  23
ATOM     23  C   UNL     1      -3.782  -2.320  -1.961  1.00  0.00     0.262 C 
ATOM     24  O   UNL     1      -2.709  -2.533  -2.533  1.00  0.00    -0.268 OA
BRANCH  23  25
ATOM     25  C   UNL     1      -4.510  -3.556  -1.606  1.00  0.00     0.040 A 
ATOM     26  C   UNL     1      -3.776  -4.526  -0.899  1.00  0.00     0.015 A 
ATOM     27  C   UNL     1      -5.782  -3.877  -2.077  1.00  0.00     0.015 A 
ATOM     28  C   UNL     1      -4.327  -5.773  -0.604  1.00  0.00     0.021 A 
ATOM     29  C   UNL     1      -6.348  -5.120  -1.756  1.00  0.00     0.021 A 
ATOM     30  C   UNL     1      -5.621  -6.060  -1.022  1.00  0.00     0.041 A 
ATOM     31  Cl  UNL     1      -6.308  -7.596  -0.669  1.00  0.00    -0.084 Cl
ENDBRANCH  23  25
ENDBRANCH  15  23
ENDBRANCH   7   9
ENDBRANCH   4   7
ENDBRANCH   2   3
ENDBRANCH   1   2
BRANCH   1  32
ATOM     32  C   UNL     1      -0.632  -3.257   1.299  1.00  0.00     0.023 C 
BRANCH  32  33
ATOM     33  C   UNL     1      -1.504  -3.418   2.538  1.00  0.00     0.116 C 
BRANCH  33  34
ATOM     34  N   UNL     1      -2.939  -3.334   2.279  1.00  0.00    -0.352 N 
ATOM     35  C   UNL     1      -3.959  -4.134   2.756  1.00  0.00     0.251 C 
ATOM     36  H   UNL     1      -3.219  -2.605   1.679  1.00  0.00     0.163 HD
ATOM     37  O   UNL     1      -5.104  -3.975   2.367  1.00  0.00    -0.269 OA
BRANCH  35  38
ATOM     38  C   UNL     1      -3.622  -5.206   3.719  1.00  0.00     0.039 A 
ATOM     39  C   UNL     1      -4.053  -6.513   3.478  1.00  0.00     0.014 A 
ATOM     40  C   UNL     1      -2.799  -4.920   4.808  1.00  0.00     0.014 A 
ATOM     41  C   UNL     1      -3.559  -7.555   4.270  1.00  0.00     0.010 A 
ATOM     42  C   UNL     1      -2.240  -5.963   5.532  1.00  0.00     0.010 A 
ATOM     43  C   UNL     1      -2.604  -7.293   5.265  1.00  0.00    -0.014 A 
BRANCH  43  44
ATOM     44  C   UNL     1      -1.943  -8.367   6.052  1.00  0.00     0.031 A 
ATOM     45  C   UNL     1      -2.059  -8.353   7.552  1.00  0.00     0.074 A 
ATOM     46  C   UNL     1      -1.122  -9.245   5.441  1.00  0.00     0.049 A 
ATOM     47  N   UNL     1      -1.376  -9.025   8.441  1.00  0.00    -0.248 NA
ATOM     48  C   UNL     1      -3.040  -7.418   8.128  1.00  0.00     0.031 C 
ATOM     49  C   UNL     1      -0.878  -9.323   3.999  1.00  0.00     0.029 A 
ATOM     50  N   UNL     1      -0.307 -10.219   5.965  1.00  0.00    -0.354 N 
ATOM     51  C   UNL     1      -1.806  -8.556   9.677  1.00  0.00     0.074 A 
ATOM     52  C   UNL     1      -2.783  -7.520   9.423  1.00  0.00     0.031 C 
ATOM     53  C   UNL     1       0.021 -10.291   3.754  1.00  0.00     0.029 A 
ATOM     54  C   UNL     1       0.453 -10.871   5.021  1.00  0.00     0.049 A 
ATOM     55  H   UNL     1      -0.271 -10.431   6.926  1.00  0.00     0.167 HD
ATOM     56  C   UNL     1      -1.431  -8.966  10.912  1.00  0.00     0.037 A 
ATOM     57  C   UNL     1       1.409 -11.810   5.164  1.00  0.00     0.037 A 
ATOM     58  C   UNL     1      -0.513 -10.046  11.154  1.00  0.00     0.049 A 
ATOM     59  C   UNL     1       1.773 -12.283   6.545  1.00  0.00     0.074 A 
ATOM     60  C   UNL     1      -0.153 -10.612  12.363  1.00  0.00     0.029 A 
ATOM     61  N   UNL     1       0.180 -10.730  10.167  1.00  0.00    -0.354 N 
ATOM     62  N   UNL     1       1.308 -11.877   7.703  1.00  0.00    -0.248 NA
ATOM     63  C   UNL     1       2.791 -13.338   6.643  1.00  0.00     0.031 C 
ATOM     64  C   UNL     1       0.783 -11.620  12.110  1.00  0.00     0.029 A 
ATOM     65  C   UNL     1       0.980 -11.702  10.741  1.00  0.00     0.049 A 
ATOM     66  H   UNL     1       0.114 -10.550   9.201  1.00  0.00     0.167 HD
ATOM     67  C   UNL     1       1.962 -12.640   8.664  1.00  0.00     0.074 A 
ATOM     68  C   UNL     1       2.847 -13.540   7.953  1.00  0.00     0.031 C 
ATOM     69  C   UNL     1       1.843 -12.598  10.013  1.00  0.00     0.037 A 
BRANCH  56  70
ATOM     70  C   UNL     1      -2.024  -8.253  12.094  1.00  0.00     0.058 A 
ATOM     71  C   UNL     1      -3.371  -8.415  12.454  1.00  0.00     0.135 A 
ATOM     72  C   UNL     1      -1.226  -7.422  12.897  1.00  0.00     0.135 A 
ATOM     73  F   UNL     1      -4.181  -9.184  11.710  1.00  0.00    -0.206 F 
ATOM     74  C   UNL     1      -3.914  -7.754  13.550  1.00  0.00     0.059 A 
ATOM     75  C   UNL     1      -1.742  -6.772  14.014  1.00  0.00     0.059 A 
ATOM     76  F   UNL     1       0.069  -7.231  12.596  1.00  0.00    -0.206 F 
ATOM     77  C   UNL     1      -3.092  -6.933  14.323  1.00  0.00     0.060 A 
BRANCH  77  78
ATOM     78  S   UNL     1      -3.811  -6.088  15.747  1.00  0.00     0.124 S 
ATOM     79  O   UNL     1      -4.564  -5.018  15.098  1.00  0.00    -0.237 OA
ATOM     80  O   UNL     1      -4.612  -7.140  16.365  1.00  0.00    -0.237 OA
ATOM     81  O   UNL     1      -2.644  -5.660  16.512  1.00  0.00    -0.744 OA
ENDBRANCH  77  78
ENDBRANCH  56  70
BRANCH  57  82
ATOM     82  C   UNL     1       2.089 -12.371   3.966  1.00  0.00     0.058 A 
ATOM     83  C   UNL     1       1.822 -13.680   3.538  1.00  0.00     0.135 A 
ATOM     84  C   UNL     1       3.011 -11.616   3.226  1.00  0.00     0.135 A 
ATOM     85  F   UNL     1       0.953 -14.443   4.218  1.00  0.00    -0.206 F 
ATOM     86  C   UNL     1       2.458 -14.228   2.429  1.00  0.00     0.059 A 
ATOM     87  C   UNL     1       3.644 -12.135   2.100  1.00  0.00     0.059 A 
ATOM     88  F   UNL     1       3.288 -10.353   3.584  1.00  0.00    -0.206 F 
ATOM     89  C   UNL     1       3.369 -13.447   1.716  1.00  0.00     0.060 A 
BRANCH  89  90
ATOM     90  S   UNL     1       4.157 -14.153   0.252  1.00  0.00     0.124 S 
ATOM     91  O   UNL     1       5.147 -15.040   0.852  1.00  0.00    -0.237 OA
ATOM     92  O   UNL     1       3.037 -14.807  -0.417  1.00  0.00    -0.237 OA
ATOM     93  O   UNL     1       4.690 -12.982  -0.437  1.00  0.00    -0.744 OA
ENDBRANCH  89  90
ENDBRANCH  57  82
BRANCH  69  94
ATOM     94  C   UNL     1       2.664 -13.566  10.813  1.00  0.00     0.058 A 
ATOM     95  C   UNL     1       4.035 -13.363  11.025  1.00  0.00     0.135 A 
ATOM     96  C   UNL     1       2.054 -14.663  11.443  1.00  0.00     0.135 A 
ATOM     97  F   UNL     1       4.664 -12.332  10.438  1.00  0.00    -0.206 F 
ATOM     98  C   UNL     1       4.778 -14.218  11.832  1.00  0.00     0.059 A 
ATOM     99  C   UNL     1       2.773 -15.518  12.271  1.00  0.00     0.059 A 
ATOM    100  F   UNL     1       0.742 -14.895  11.277  1.00  0.00    -0.206 F 
ATOM    101  C   UNL     1       4.136 -15.290  12.456  1.00  0.00     0.060 A 
BRANCH 101 102
ATOM    102  S   UNL     1       5.096 -16.355  13.553  1.00  0.00     0.124 S 
ATOM    103  O   UNL     1       5.851 -17.157  12.596  1.00  0.00    -0.237 OA
ATOM    104  O   UNL     1       5.874 -15.391  14.325  1.00  0.00    -0.237 OA
ATOM    105  O   UNL     1       4.073 -17.073  14.308  1.00  0.00    -0.744 OA
ENDBRANCH 101 102
ENDBRANCH  69  94
ENDBRANCH  43  44
ENDBRANCH  35  38
ENDBRANCH  33  34
ENDBRANCH  32  33
ENDBRANCH   1  32
TORSDOF 17
