REMARK SMILES CC[NH+]1CCN(c2ccc(NS(=O)(=O)c3cccc(F)c3)cc2C(=O)NCCCCNC(=O)c2ccc(-c3c4nc(c(-c5c(F)cc(S(=O)(=O)[O-])cc5F)c5ccc([nH]5)c(-c5c(F)cc(S(=O)(=O)[O-])cc5F)c5nc(c(-c6c(F)cc(S(=O)(=O)[O-])cc6F)c6ccc3[nH]6)C=C5)C=C4)cc2)CC1
REMARK SMILES IDX 28 1 27 2 26 3 24 4 25 5 23 7 7 8 8 9 9 10 22 11 10 12 6 13
REMARK SMILES IDX 3 14 4 15 101 16 5 18 100 19 2 20 1 21 11 22 12 24 13 25
REMARK SMILES IDX 14 26 15 27 16 28 21 29 17 30 19 31 18 32 20 33 29 34 30 35
REMARK SMILES IDX 31 36 32 37 33 39 34 40 35 41 99 42 36 43 98 44 37 45 38 46
REMARK SMILES IDX 39 47 92 48 40 49 97 50 91 51 93 52 41 53 96 54 90 55 89 56
REMARK SMILES IDX 42 58 76 59 55 60 75 61 56 62 59 63 74 64 94 65 57 66 58 67
REMARK SMILES IDX 73 69 95 70 60 71 43 72 44 73 53 74 45 75 46 76 52 77 54 78
REMARK SMILES IDX 47 79 48 80 49 81 50 82 51 83 77 84 78 85 87 86 79 87 80 88
REMARK SMILES IDX 86 89 88 90 81 91 82 92 83 93 84 94 85 95 61 96 62 97 71 98
REMARK SMILES IDX 63 99 64 100 70 101 72 102 65 103 66 104 67 105 68 106
REMARK SMILES IDX 69 107
REMARK H PARENT 26 6 3 17 11 23 31 38 93 57 59 68
REMARK Flexibility Score: inf
ROOT
ATOM      1  C   UNL     1       2.677  -3.662   0.874  1.00  0.00     0.023 C 
ENDROOT
BRANCH   1   2
ATOM      2  C   UNL     1       3.070  -4.365  -0.416  1.00  0.00     0.116 C 
BRANCH   2   3
ATOM      3  N   UNL     1       3.244  -5.790  -0.209  1.00  0.00    -0.352 N 
ATOM      4  C   UNL     1       2.552  -6.952  -0.364  1.00  0.00     0.253 C 
ATOM      5  O   UNL     1       3.265  -7.942  -0.121  1.00  0.00    -0.269 OA
ATOM      6  H   UNL     1       4.139  -5.973   0.157  1.00  0.00     0.163 HD
BRANCH   4   7
ATOM      7  C   UNL     1       1.113  -7.242  -0.727  1.00  0.00     0.065 A 
ATOM      8  C   UNL     1      -0.053  -6.455  -0.600  1.00  0.00     0.050 A 
ATOM      9  C   UNL     1      -1.294  -7.146  -0.580  1.00  0.00     0.029 A 
ATOM     10  C   UNL     1      -1.408  -8.522  -0.690  1.00  0.00     0.029 A 
ATOM     11  C   UNL     1       0.933  -8.635  -1.037  1.00  0.00     0.042 A 
ATOM     12  C   UNL     1      -0.315  -9.263  -1.062  1.00  0.00     0.050 A 
BRANCH   8  13
ATOM     13  N   UNL     1      -0.118  -5.058  -0.491  1.00  0.00    -0.360 N 
ATOM     14  N   UNL     1      -0.433  -2.207  -0.308  1.00  0.00    -0.332 N 
ATOM     15  C   UNL     1      -0.917  -3.065   0.772  1.00  0.00     0.283 C 
ATOM     16  C   UNL     1      -0.064  -2.822  -1.593  1.00  0.00     0.283 C 
ATOM     17  H   UNL     1       0.529  -2.019  -0.028  1.00  0.00     0.348 HD
ATOM     18  C   UNL     1      -1.166  -4.526   0.410  1.00  0.00     0.178 C 
ATOM     19  C   UNL     1      -0.178  -4.355  -1.788  1.00  0.00     0.178 C 
BRANCH  14  20
ATOM     20  C   UNL     1      -1.046  -0.881  -0.324  1.00  0.00     0.258 C 
ATOM     21  C   UNL     1      -0.660  -0.078   0.925  1.00  0.00     0.071 C 
ENDBRANCH  14  20
ENDBRANCH   8  13
BRANCH  12  22
ATOM     22  N   UNL     1      -0.435 -10.679  -1.261  1.00  0.00    -0.280 N 
ATOM     23  H   UNL     1       0.072 -11.293  -0.682  1.00  0.00     0.180 HD
BRANCH  22  24
ATOM     24  S   UNL     1      -1.443 -11.321  -2.486  1.00  0.00     0.261 S 
ATOM     25  O   UNL     1      -0.673 -11.302  -3.708  1.00  0.00    -0.201 OA
ATOM     26  O   UNL     1      -1.951 -12.578  -1.965  1.00  0.00    -0.201 OA
BRANCH  24  27
ATOM     27  C   UNL     1      -2.838 -10.247  -2.737  1.00  0.00     0.090 A 
ATOM     28  C   UNL     1      -2.659  -9.022  -3.399  1.00  0.00     0.022 A 
ATOM     29  C   UNL     1      -4.103 -10.624  -2.279  1.00  0.00     0.061 A 
ATOM     30  C   UNL     1      -3.721  -8.118  -3.481  1.00  0.00     0.004 A 
ATOM     31  C   UNL     1      -5.159  -9.728  -2.409  1.00  0.00     0.124 A 
ATOM     32  C   UNL     1      -4.973  -8.470  -2.977  1.00  0.00     0.039 A 
ATOM     33  F   UNL     1      -6.374 -10.070  -1.962  1.00  0.00    -0.207 F 
ENDBRANCH  24  27
ENDBRANCH  22  24
ENDBRANCH  12  22
ENDBRANCH   4   7
ENDBRANCH   2   3
ENDBRANCH   1   2
BRANCH   1  34
ATOM     34  C   UNL     1       2.954  -2.157   1.035  1.00  0.00     0.023 C 
BRANCH  34  35
ATOM     35  C   UNL     1       3.330  -1.297  -0.170  1.00  0.00     0.116 C 
BRANCH  35  36
ATOM     36  N   UNL     1       2.213  -0.571  -0.765  1.00  0.00    -0.352 N 
ATOM     37  C   UNL     1       2.058   0.754  -1.092  1.00  0.00     0.251 C 
ATOM     38  H   UNL     1       1.430  -1.132  -0.969  1.00  0.00     0.163 HD
ATOM     39  O   UNL     1       1.036   1.189  -1.611  1.00  0.00    -0.269 OA
BRANCH  37  40
ATOM     40  C   UNL     1       3.118   1.680  -0.719  1.00  0.00     0.039 A 
ATOM     41  C   UNL     1       2.815   2.745   0.136  1.00  0.00     0.014 A 
ATOM     42  C   UNL     1       4.418   1.392  -1.118  1.00  0.00     0.014 A 
ATOM     43  C   UNL     1       3.855   3.506   0.650  1.00  0.00     0.010 A 
ATOM     44  C   UNL     1       5.450   2.067  -0.509  1.00  0.00     0.010 A 
ATOM     45  C   UNL     1       5.175   3.143   0.351  1.00  0.00    -0.014 A 
BRANCH  45  46
ATOM     46  C   UNL     1       6.331   3.913   0.836  1.00  0.00     0.031 A 
ATOM     47  C   UNL     1       7.218   4.543  -0.197  1.00  0.00     0.074 A 
ATOM     48  C   UNL     1       6.636   3.902   2.145  1.00  0.00     0.049 A 
ATOM     49  N   UNL     1       8.416   5.035  -0.066  1.00  0.00    -0.248 NA
ATOM     50  C   UNL     1       6.713   4.548  -1.586  1.00  0.00     0.031 C 
ATOM     51  C   UNL     1       5.846   3.261   3.201  1.00  0.00     0.029 A 
ATOM     52  N   UNL     1       7.716   4.419   2.806  1.00  0.00    -0.354 N 
ATOM     53  C   UNL     1       8.824   5.362  -1.353  1.00  0.00     0.074 A 
ATOM     54  C   UNL     1       7.780   4.947  -2.259  1.00  0.00     0.031 C 
ATOM     55  C   UNL     1       6.466   3.433   4.380  1.00  0.00     0.029 A 
ATOM     56  C   UNL     1       7.715   4.151   4.154  1.00  0.00     0.049 A 
ATOM     57  H   UNL     1       8.427   4.933   2.359  1.00  0.00     0.167 HD
ATOM     58  C   UNL     1       9.962   5.982  -1.732  1.00  0.00     0.037 A 
ATOM     59  C   UNL     1       8.639   4.444   5.087  1.00  0.00     0.037 A 
ATOM     60  C   UNL     1      10.947   6.434  -0.790  1.00  0.00     0.049 A 
ATOM     61  C   UNL     1       9.877   5.178   4.644  1.00  0.00     0.074 A 
ATOM     62  C   UNL     1      12.103   7.150  -1.029  1.00  0.00     0.029 A 
ATOM     63  N   UNL     1      10.876   6.223   0.581  1.00  0.00    -0.354 N 
ATOM     64  N   UNL     1      10.231   5.539   3.430  1.00  0.00    -0.248 NA
ATOM     65  C   UNL     1      10.835   5.556   5.688  1.00  0.00     0.031 C 
ATOM     66  C   UNL     1      12.754   7.334   0.194  1.00  0.00     0.029 A 
ATOM     67  C   UNL     1      11.974   6.785   1.202  1.00  0.00     0.049 A 
ATOM     68  H   UNL     1      10.150   5.743   1.042  1.00  0.00     0.167 HD
ATOM     69  C   UNL     1      11.434   6.218   3.571  1.00  0.00     0.074 A 
ATOM     70  C   UNL     1      11.739   6.227   4.989  1.00  0.00     0.031 C 
ATOM     71  C   UNL     1      12.222   6.785   2.622  1.00  0.00     0.037 A 
BRANCH  58  72
ATOM     72  C   UNL     1      10.181   6.223  -3.199  1.00  0.00     0.058 A 
ATOM     73  C   UNL     1       9.381   7.116  -3.931  1.00  0.00     0.135 A 
ATOM     74  C   UNL     1      11.229   5.580  -3.877  1.00  0.00     0.135 A 
ATOM     75  F   UNL     1       8.346   7.738  -3.342  1.00  0.00    -0.206 F 
ATOM     76  C   UNL     1       9.601   7.352  -5.283  1.00  0.00     0.059 A 
ATOM     77  C   UNL     1      11.489   5.827  -5.222  1.00  0.00     0.059 A 
ATOM     78  F   UNL     1      12.015   4.704  -3.232  1.00  0.00    -0.206 F 
ATOM     79  C   UNL     1      10.665   6.710  -5.918  1.00  0.00     0.060 A 
BRANCH  79  80
ATOM     80  S   UNL     1      10.967   7.070  -7.660  1.00  0.00     0.124 S 
ATOM     81  O   UNL     1       9.834   6.407  -8.297  1.00  0.00    -0.237 OA
ATOM     82  O   UNL     1      10.941   8.529  -7.683  1.00  0.00    -0.237 OA
ATOM     83  O   UNL     1      12.271   6.465  -7.912  1.00  0.00    -0.744 OA
ENDBRANCH  79  80
ENDBRANCH  58  72
BRANCH  59  84
ATOM     84  C   UNL     1       8.418   4.077   6.511  1.00  0.00     0.058 A 
ATOM     85  C   UNL     1       8.197   5.067   7.481  1.00  0.00     0.135 A 
ATOM     86  C   UNL     1       8.412   2.739   6.936  1.00  0.00     0.135 A 
ATOM     87  F   UNL     1       8.186   6.361   7.126  1.00  0.00    -0.206 F 
ATOM     88  C   UNL     1       8.014   4.749   8.823  1.00  0.00     0.059 A 
ATOM     89  C   UNL     1       8.202   2.394   8.268  1.00  0.00     0.059 A 
ATOM     90  F   UNL     1       8.591   1.750   6.046  1.00  0.00    -0.206 F 
ATOM     91  C   UNL     1       8.021   3.408   9.207  1.00  0.00     0.060 A 
BRANCH  91  92
ATOM     92  S   UNL     1       7.767   3.008  10.950  1.00  0.00     0.124 S 
ATOM     93  O   UNL     1       9.026   3.449  11.538  1.00  0.00    -0.237 OA
ATOM     94  O   UNL     1       6.592   3.809  11.279  1.00  0.00    -0.237 OA
ATOM     95  O   UNL     1       7.548   1.565  10.934  1.00  0.00    -0.744 OA
ENDBRANCH  91  92
ENDBRANCH  59  84
BRANCH  71  96
ATOM     96  C   UNL     1      13.451   7.504   3.095  1.00  0.00     0.058 A 
ATOM     97  C   UNL     1      14.570   6.812   3.581  1.00  0.00     0.135 A 
ATOM     98  C   UNL     1      13.528   8.903   2.996  1.00  0.00     0.135 A 
ATOM     99  F   UNL     1      14.540   5.475   3.698  1.00  0.00    -0.206 F 
ATOM    100  C   UNL     1      15.716   7.486   3.981  1.00  0.00     0.059 A 
ATOM    101  C   UNL     1      14.678   9.594   3.356  1.00  0.00     0.059 A 
ATOM    102  F   UNL     1      12.488   9.607   2.522  1.00  0.00    -0.206 F 
ATOM    103  C   UNL     1      15.762   8.877   3.860  1.00  0.00     0.060 A 
BRANCH 103 104
ATOM    104  S   UNL     1      17.271   9.734   4.349  1.00  0.00     0.124 S 
ATOM    105  O   UNL     1      17.210   9.629   5.803  1.00  0.00    -0.237 OA
ATOM    106  O   UNL     1      18.306   8.937   3.698  1.00  0.00    -0.237 OA
ATOM    107  O   UNL     1      17.089  11.078   3.808  1.00  0.00    -0.744 OA
ENDBRANCH 103 104
ENDBRANCH  71  96
ENDBRANCH  45  46
ENDBRANCH  37  40
ENDBRANCH  35  36
ENDBRANCH  34  35
ENDBRANCH   1  34
TORSDOF 19
