REMARK SMILES Cc1ccc(/C=C2/SC(=O)N(CC(=O)NCCCCNC(=O)c3ccc(-c4c5nc(c(-c6c(F)cc(S(=O)(=O)[O-])cc6F)c6ccc([nH]6)c(-c6c(F)cc(S(=O)(=O)[O-])cc6F)c6nc(c(-c7c(F)cc(S(=O)(=O)[O-])cc7F)c7ccc4[nH]7)C=C6)C=C5)cc3)C2=O)cc1
REMARK SMILES IDX 18 1 17 2 16 3 15 4 13 5 14 6 12 8 11 9 6 10 7 11 8 12 89 13
REMARK SMILES IDX 9 14 90 15 10 16 5 17 1 18 2 19 3 20 92 21 4 22 91 23 19 24
REMARK SMILES IDX 20 25 21 26 22 28 23 29 24 30 88 31 25 32 87 33 26 34 27 35
REMARK SMILES IDX 28 36 81 37 29 38 86 39 80 40 82 41 30 42 85 43 79 44 78 45
REMARK SMILES IDX 31 47 65 48 44 49 64 50 45 51 48 52 63 53 83 54 46 55 47 56
REMARK SMILES IDX 62 58 84 59 49 60 32 61 33 62 42 63 34 64 35 65 41 66 43 67
REMARK SMILES IDX 36 68 37 69 38 70 39 71 40 72 66 73 67 74 76 75 68 76 69 77
REMARK SMILES IDX 75 78 77 79 70 80 71 81 72 82 73 83 74 84 50 85 51 86 60 87
REMARK SMILES IDX 52 88 53 89 59 90 61 91 54 92 55 93 56 94 57 95 58 96
REMARK H PARENT 15 7 20 27 82 46 48 57
REMARK Flexibility Score: inf
ROOT
ATOM      1  C   UNL     1      -4.252   5.473  -0.694  1.00  0.00     0.023 C 
ENDROOT
BRANCH   1   2
ATOM      2  C   UNL     1      -5.040   4.458  -1.521  1.00  0.00     0.023 C 
BRANCH   2   3
ATOM      3  C   UNL     1      -4.916   4.611  -3.042  1.00  0.00     0.116 C 
BRANCH   3   4
ATOM      4  N   UNL     1      -3.548   4.485  -3.516  1.00  0.00    -0.355 N 
ATOM      5  C   UNL     1      -2.945   3.479  -4.213  1.00  0.00     0.240 C 
ATOM      6  O   UNL     1      -1.831   3.703  -4.694  1.00  0.00    -0.273 OA
ATOM      7  H   UNL     1      -2.963   5.246  -3.300  1.00  0.00     0.163 HD
BRANCH   5   8
ATOM      8  C   UNL     1      -3.667   2.158  -4.491  1.00  0.00     0.229 C 
BRANCH   8   9
ATOM      9  N   UNL     1      -4.085   1.502  -3.267  1.00  0.00    -0.259 N 
ATOM     10  C   UNL     1      -3.223   0.010  -0.069  1.00  0.00     0.029 C 
ATOM     11  C   UNL     1      -3.814   0.427  -1.198  1.00  0.00     0.083 C 
ATOM     12  S   UNL     1      -5.524   0.433  -1.431  1.00  0.00    -0.022 SA
ATOM     13  C   UNL     1      -3.146   0.963  -2.422  1.00  0.00     0.268 C 
ATOM     14  C   UNL     1      -5.387   1.210  -2.999  1.00  0.00     0.294 C 
ATOM     15  O   UNL     1      -1.952   0.894  -2.661  1.00  0.00    -0.268 OA
ATOM     16  O   UNL     1      -6.352   1.393  -3.731  1.00  0.00    -0.261 OA
BRANCH  10  17
ATOM     17  C   UNL     1      -1.772   0.003   0.125  1.00  0.00    -0.024 A 
ATOM     18  C   UNL     1       2.531  -0.046   0.072  1.00  0.00     0.044 C 
ATOM     19  C   UNL     1       1.034  -0.025   0.160  1.00  0.00    -0.051 A 
ATOM     20  C   UNL     1       0.314  -1.225   0.103  1.00  0.00     0.004 A 
ATOM     21  C   UNL     1       0.339   1.185   0.256  1.00  0.00     0.004 A 
ATOM     22  C   UNL     1      -1.082  -1.212   0.085  1.00  0.00     0.008 A 
ATOM     23  C   UNL     1      -1.058   1.199   0.249  1.00  0.00     0.008 A 
ENDBRANCH  10  17
ENDBRANCH   8   9
ENDBRANCH   5   8
ENDBRANCH   3   4
ENDBRANCH   2   3
ENDBRANCH   1   2
BRANCH   1  24
ATOM     24  C   UNL     1      -4.696   6.917  -0.871  1.00  0.00     0.116 C 
BRANCH  24  25
ATOM     25  N   UNL     1      -5.632   7.402   0.136  1.00  0.00    -0.352 N 
ATOM     26  C   UNL     1      -5.903   8.729   0.455  1.00  0.00     0.251 C 
ATOM     27  H   UNL     1      -6.125   6.718   0.644  1.00  0.00     0.163 HD
ATOM     28  O   UNL     1      -6.342   9.083   1.542  1.00  0.00    -0.269 OA
BRANCH  26  29
ATOM     29  C   UNL     1      -5.804   9.703  -0.653  1.00  0.00     0.039 A 
ATOM     30  C   UNL     1      -7.012  10.192  -1.174  1.00  0.00     0.014 A 
ATOM     31  C   UNL     1      -4.628   9.751  -1.387  1.00  0.00     0.014 A 
ATOM     32  C   UNL     1      -7.100  10.471  -2.529  1.00  0.00     0.010 A 
ATOM     33  C   UNL     1      -4.747   9.867  -2.745  1.00  0.00     0.010 A 
ATOM     34  C   UNL     1      -5.994  10.174  -3.310  1.00  0.00    -0.014 A 
BRANCH  34  35
ATOM     35  C   UNL     1      -5.960  10.236  -4.753  1.00  0.00     0.031 A 
ATOM     36  C   UNL     1      -5.352  11.443  -5.331  1.00  0.00     0.074 A 
ATOM     37  C   UNL     1      -6.206   9.097  -5.432  1.00  0.00     0.049 A 
ATOM     38  N   UNL     1      -5.353  11.739  -6.577  1.00  0.00    -0.248 NA
ATOM     39  C   UNL     1      -4.700  12.455  -4.500  1.00  0.00     0.031 C 
ATOM     40  C   UNL     1      -5.832   8.747  -6.795  1.00  0.00     0.029 A 
ATOM     41  N   UNL     1      -7.068   8.067  -5.040  1.00  0.00    -0.354 N 
ATOM     42  C   UNL     1      -4.438  12.758  -6.752  1.00  0.00     0.074 A 
ATOM     43  C   UNL     1      -4.174  13.254  -5.428  1.00  0.00     0.031 C 
ATOM     44  C   UNL     1      -6.665   7.786  -7.236  1.00  0.00     0.029 A 
ATOM     45  C   UNL     1      -7.698   7.619  -6.223  1.00  0.00     0.049 A 
ATOM     46  H   UNL     1      -7.208   7.724  -4.127  1.00  0.00     0.167 HD
ATOM     47  C   UNL     1      -3.908  12.921  -7.997  1.00  0.00     0.037 A 
ATOM     48  C   UNL     1      -9.024   7.917  -6.403  1.00  0.00     0.037 A 
ATOM     49  C   UNL     1      -4.641  12.076  -8.948  1.00  0.00     0.049 A 
ATOM     50  C   UNL     1      -9.267   8.950  -7.492  1.00  0.00     0.074 A 
ATOM     51  C   UNL     1      -4.423  10.822  -9.493  1.00  0.00     0.029 A 
ATOM     52  N   UNL     1      -5.979  12.353  -9.159  1.00  0.00    -0.354 N 
ATOM     53  N   UNL     1      -8.319   9.612  -8.101  1.00  0.00    -0.248 NA
ATOM     54  C   UNL     1     -10.596   9.342  -7.961  1.00  0.00     0.031 C 
ATOM     55  C   UNL     1      -5.688  10.309  -9.923  1.00  0.00     0.029 A 
ATOM     56  C   UNL     1      -6.659  11.261  -9.662  1.00  0.00     0.049 A 
ATOM     57  H   UNL     1      -6.398  13.224  -8.972  1.00  0.00     0.167 HD
ATOM     58  C   UNL     1      -8.862  10.496  -8.990  1.00  0.00     0.074 A 
ATOM     59  C   UNL     1     -10.296  10.302  -8.855  1.00  0.00     0.031 C 
ATOM     60  C   UNL     1      -8.111  11.331  -9.769  1.00  0.00     0.037 A 
BRANCH  47  61
ATOM     61  C   UNL     1      -2.619  13.640  -8.344  1.00  0.00     0.058 A 
ATOM     62  C   UNL     1      -2.056  13.458  -9.627  1.00  0.00     0.135 A 
ATOM     63  C   UNL     1      -1.840  14.446  -7.484  1.00  0.00     0.135 A 
ATOM     64  F   UNL     1      -2.690  12.754 -10.576  1.00  0.00    -0.206 F 
ATOM     65  C   UNL     1      -0.815  13.974 -10.002  1.00  0.00     0.059 A 
ATOM     66  C   UNL     1      -0.591  14.970  -7.834  1.00  0.00     0.059 A 
ATOM     67  F   UNL     1      -2.239  14.791  -6.259  1.00  0.00    -0.206 F 
ATOM     68  C   UNL     1      -0.080  14.720  -9.094  1.00  0.00     0.060 A 
BRANCH  68  69
ATOM     69  S   UNL     1       1.522  15.368  -9.591  1.00  0.00     0.124 S 
ATOM     70  O   UNL     1       2.272  14.145  -9.859  1.00  0.00    -0.237 OA
ATOM     71  O   UNL     1       1.176  16.172 -10.758  1.00  0.00    -0.237 OA
ATOM     72  O   UNL     1       1.963  16.124  -8.421  1.00  0.00    -0.744 OA
ENDBRANCH  68  69
ENDBRANCH  47  61
BRANCH  48  73
ATOM     73  C   UNL     1      -9.788   7.777  -5.121  1.00  0.00     0.058 A 
ATOM     74  C   UNL     1      -9.811   6.497  -4.521  1.00  0.00     0.135 A 
ATOM     75  C   UNL     1     -10.026   8.878  -4.287  1.00  0.00     0.135 A 
ATOM     76  F   UNL     1      -9.604   5.402  -5.272  1.00  0.00    -0.206 F 
ATOM     77  C   UNL     1      -9.872   6.331  -3.141  1.00  0.00     0.059 A 
ATOM     78  C   UNL     1     -10.113   8.730  -2.898  1.00  0.00     0.059 A 
ATOM     79  F   UNL     1     -10.026  10.121  -4.791  1.00  0.00    -0.206 F 
ATOM     80  C   UNL     1      -9.958   7.461  -2.334  1.00  0.00     0.060 A 
BRANCH  80  81
ATOM     81  S   UNL     1      -9.690   7.250  -0.554  1.00  0.00     0.124 S 
ATOM     82  O   UNL     1     -10.851   6.456  -0.170  1.00  0.00    -0.237 OA
ATOM     83  O   UNL     1      -8.403   6.552  -0.518  1.00  0.00    -0.237 OA
ATOM     84  O   UNL     1      -9.675   8.620  -0.057  1.00  0.00    -0.744 OA
ENDBRANCH  80  81
ENDBRANCH  48  73
BRANCH  60  85
ATOM     85  C   UNL     1      -8.732  12.301 -10.728  1.00  0.00     0.058 A 
ATOM     86  C   UNL     1      -9.691  11.896 -11.668  1.00  0.00     0.135 A 
ATOM     87  C   UNL     1      -8.305  13.645 -10.803  1.00  0.00     0.135 A 
ATOM     88  F   UNL     1     -10.113  10.623 -11.710  1.00  0.00    -0.206 F 
ATOM     89  C   UNL     1     -10.242  12.787 -12.586  1.00  0.00     0.059 A 
ATOM     90  C   UNL     1      -8.787  14.531 -11.757  1.00  0.00     0.059 A 
ATOM     91  F   UNL     1      -7.430  14.153  -9.923  1.00  0.00    -0.206 F 
ATOM     92  C   UNL     1      -9.784  14.103 -12.620  1.00  0.00     0.060 A 
BRANCH  92  93
ATOM     93  S   UNL     1     -10.511  15.260 -13.790  1.00  0.00     0.124 S 
ATOM     94  O   UNL     1     -10.672  14.441 -14.988  1.00  0.00    -0.237 OA
ATOM     95  O   UNL     1     -11.746  15.623 -13.102  1.00  0.00    -0.237 OA
ATOM     96  O   UNL     1      -9.510  16.317 -13.889  1.00  0.00    -0.744 OA
ENDBRANCH  92  93
ENDBRANCH  60  85
ENDBRANCH  34  35
ENDBRANCH  26  29
ENDBRANCH  24  25
ENDBRANCH   1  24
TORSDOF 16
