REMARK SMILES CCN1C(=O)N/C(=C/c2cc(Cl)c(OCc3cccc(C(=O)NCCCCNC(=O)c4ccc(-c5c6nc(c(-c7c(F)cc(S(=O)(=O)[O-])cc7F)c7ccc([nH]7)c(-c7c(F)cc(S(=O)(=O)[O-])cc7F)c7nc(c(-c8c(F)cc(S(=O)(=O)[O-])cc8F)c8ccc5[nH]8)C=C7)C=C6)cc4)c3)c(OC)c2)C1=O
REMARK SMILES IDX 24 1 23 2 21 3 22 4 20 6 16 7 17 8 97 9 18 10 19 11 15 12
REMARK SMILES IDX 14 13 13 14 9 15 10 16 101 17 11 18 98 19 12 20 8 21 3 22
REMARK SMILES IDX 4 23 102 24 5 25 6 26 7 27 103 28 2 30 1 31 99 32 100 33
REMARK SMILES IDX 25 34 26 35 27 36 28 37 29 38 30 40 31 41 32 42 96 43 33 44
REMARK SMILES IDX 95 45 34 46 35 47 36 48 89 49 37 50 94 51 88 52 90 53 38 54
REMARK SMILES IDX 93 55 87 56 86 57 39 59 73 60 52 61 72 62 53 63 56 64 71 65
REMARK SMILES IDX 91 66 54 67 55 68 70 70 92 71 57 72 40 73 41 74 50 75 42 76
REMARK SMILES IDX 43 77 49 78 51 79 44 80 45 81 46 82 47 83 48 84 74 85 75 86
REMARK SMILES IDX 84 87 76 88 77 89 83 90 85 91 78 92 79 93 80 94 81 95 82 96
REMARK SMILES IDX 58 97 59 98 68 99 60 100 61 101 67 102 69 103 62 104 63 105
REMARK SMILES IDX 64 106 65 107 66 108
REMARK H PARENT 23 5 6 29 28 39 90 58 56 69
REMARK Flexibility Score: inf
ROOT
ATOM      1  C   UNL     1      -7.328   6.658   5.294  1.00  0.00     0.116 C 
ENDROOT
BRANCH   1   2
ATOM      2  N   UNL     1      -7.258   5.288   5.777  1.00  0.00    -0.352 N 
ATOM      3  C   UNL     1      -6.201   4.412   5.891  1.00  0.00     0.251 C 
ATOM      4  O   UNL     1      -6.414   3.293   6.358  1.00  0.00    -0.269 OA
ATOM      5  H   UNL     1      -8.121   4.921   6.077  1.00  0.00     0.163 HD
BRANCH   3   6
ATOM      6  C   UNL     1      -4.836   4.744   5.400  1.00  0.00     0.040 A 
ATOM      7  C   UNL     1      -3.194   6.376   4.612  1.00  0.00    -0.010 A 
ATOM      8  C   UNL     1      -2.418   5.315   4.137  1.00  0.00     0.007 A 
ATOM      9  C   UNL     1      -4.331   6.047   5.366  1.00  0.00     0.021 A 
ATOM     10  C   UNL     1      -2.819   3.987   4.313  1.00  0.00     0.001 A 
ATOM     11  C   UNL     1      -4.044   3.703   4.909  1.00  0.00     0.014 A 
BRANCH   7  12
ATOM     12  C   UNL     1      -2.874   7.849   4.394  1.00  0.00     0.265 C 
BRANCH  12  13
ATOM     13  O   UNL     1      -2.750   8.336   3.047  1.00  0.00    -0.483 OA
BRANCH  13  14
ATOM     14  C   UNL     1      -1.754   7.884   2.224  1.00  0.00     0.180 A 
ATOM     15  C   UNL     1       0.001   6.631   0.415  1.00  0.00    -0.018 A 
ATOM     16  C   UNL     1       0.411   6.915   1.716  1.00  0.00     0.033 A 
ATOM     17  C   UNL     1      -1.237   7.091  -0.029  1.00  0.00     0.058 A 
ATOM     18  C   UNL     1      -0.442   7.573   2.606  1.00  0.00     0.087 A 
ATOM     19  C   UNL     1      -2.104   7.743   0.860  1.00  0.00     0.162 A 
ATOM     20  Cl  UNL     1       0.263   7.988   4.129  1.00  0.00    -0.080 Cl
BRANCH  15  21
ATOM     21  C   UNL     1       0.887   5.878  -0.469  1.00  0.00     0.040 C 
ATOM     22  N   UNL     1       0.908   2.317   0.054  1.00  0.00    -0.259 N 
ATOM     23  C   UNL     1       1.899   2.513  -0.883  1.00  0.00     0.328 C 
ATOM     24  C   UNL     1       0.361   3.523   0.440  1.00  0.00     0.278 C 
ATOM     25  O   UNL     1       2.655   1.696  -1.382  1.00  0.00    -0.248 OA
ATOM     26  N   UNL     1       1.938   3.864  -1.185  1.00  0.00    -0.303 N 
ATOM     27  C   UNL     1       1.042   4.550  -0.421  1.00  0.00     0.109 C 
ATOM     28  O   UNL     1      -0.465   3.730   1.312  1.00  0.00    -0.267 OA
ATOM     29  H   UNL     1       2.530   4.272  -1.857  1.00  0.00     0.172 HD
BRANCH  22  30
ATOM     30  C   UNL     1       0.538   1.065   0.694  1.00  0.00     0.127 C 
ATOM     31  C   UNL     1       0.906  -0.203  -0.057  1.00  0.00     0.028 C 
ENDBRANCH  22  30
ENDBRANCH  15  21
BRANCH  19  32
ATOM     32  O   UNL     1      -3.328   8.235   0.463  1.00  0.00    -0.493 OA
ATOM     33  C   UNL     1      -3.414   8.662  -0.897  1.00  0.00     0.278 C 
ENDBRANCH  19  32
ENDBRANCH  13  14
ENDBRANCH  12  13
ENDBRANCH   7  12
ENDBRANCH   3   6
ENDBRANCH   1   2
BRANCH   1  34
ATOM     34  C   UNL     1      -8.428   6.928   4.280  1.00  0.00     0.023 C 
BRANCH  34  35
ATOM     35  C   UNL     1      -9.852   6.737   4.773  1.00  0.00     0.023 C 
BRANCH  35  36
ATOM     36  C   UNL     1     -10.185   7.415   6.094  1.00  0.00     0.116 C 
BRANCH  36  37
ATOM     37  N   UNL     1      -9.946   8.853   6.092  1.00  0.00    -0.352 N 
ATOM     38  C   UNL     1     -10.799   9.873   6.446  1.00  0.00     0.251 C 
ATOM     39  H   UNL     1      -9.050   9.134   5.795  1.00  0.00     0.163 HD
ATOM     40  O   UNL     1     -10.464  11.043   6.290  1.00  0.00    -0.269 OA
BRANCH  38  41
ATOM     41  C   UNL     1     -12.138   9.541   6.975  1.00  0.00     0.039 A 
ATOM     42  C   UNL     1     -13.260  10.149   6.409  1.00  0.00     0.014 A 
ATOM     43  C   UNL     1     -12.285   8.578   7.976  1.00  0.00     0.014 A 
ATOM     44  C   UNL     1     -14.535   9.722   6.785  1.00  0.00     0.010 A 
ATOM     45  C   UNL     1     -13.551   8.088   8.277  1.00  0.00     0.010 A 
ATOM     46  C   UNL     1     -14.690   8.652   7.684  1.00  0.00    -0.014 A 
BRANCH  46  47
ATOM     47  C   UNL     1     -16.033   8.108   8.015  1.00  0.00     0.031 A 
ATOM     48  C   UNL     1     -16.529   8.147   9.436  1.00  0.00     0.074 A 
ATOM     49  C   UNL     1     -16.777   7.524   7.052  1.00  0.00     0.049 A 
ATOM     50  N   UNL     1     -17.633   7.658   9.938  1.00  0.00    -0.248 NA
ATOM     51  C   UNL     1     -15.657   8.796  10.430  1.00  0.00     0.031 C 
ATOM     52  C   UNL     1     -16.383   7.378   5.648  1.00  0.00     0.029 A 
ATOM     53  N   UNL     1     -18.016   6.935   7.107  1.00  0.00    -0.354 N 
ATOM     54  C   UNL     1     -17.585   7.934  11.299  1.00  0.00     0.074 A 
ATOM     55  C   UNL     1     -16.315   8.574  11.558  1.00  0.00     0.031 C 
ATOM     56  C   UNL     1     -17.370   6.766   4.973  1.00  0.00     0.029 A 
ATOM     57  C   UNL     1     -18.447   6.434   5.900  1.00  0.00     0.049 A 
ATOM     58  H   UNL     1     -18.547   6.876   7.935  1.00  0.00     0.167 HD
ATOM     59  C   UNL     1     -18.527   7.703  12.244  1.00  0.00     0.037 A 
ATOM     60  C   UNL     1     -19.577   5.772   5.579  1.00  0.00     0.037 A 
ATOM     61  C   UNL     1     -19.799   7.086  11.976  1.00  0.00     0.049 A 
ATOM     62  C   UNL     1     -20.600   5.511   6.655  1.00  0.00     0.074 A 
ATOM     63  C   UNL     1     -20.841   6.849  12.857  1.00  0.00     0.029 A 
ATOM     64  N   UNL     1     -20.206   6.610  10.739  1.00  0.00    -0.354 N 
ATOM     65  N   UNL     1     -20.563   5.838   7.925  1.00  0.00    -0.248 NA
ATOM     66  C   UNL     1     -21.821   4.799   6.253  1.00  0.00     0.031 C 
ATOM     67  C   UNL     1     -21.857   6.186  12.163  1.00  0.00     0.029 A 
ATOM     68  C   UNL     1     -21.475   6.064  10.836  1.00  0.00     0.049 A 
ATOM     69  H   UNL     1     -19.672   6.655   9.913  1.00  0.00     0.167 HD
ATOM     70  C   UNL     1     -21.769   5.402   8.465  1.00  0.00     0.074 A 
ATOM     71  C   UNL     1     -22.518   4.803   7.381  1.00  0.00     0.031 C 
ATOM     72  C   UNL     1     -22.216   5.488   9.742  1.00  0.00     0.037 A 
BRANCH  59  73
ATOM     73  C   UNL     1     -18.230   8.135  13.654  1.00  0.00     0.058 A 
ATOM     74  C   UNL     1     -18.177   9.493  14.010  1.00  0.00     0.135 A 
ATOM     75  C   UNL     1     -18.060   7.185  14.674  1.00  0.00     0.135 A 
ATOM     76  F   UNL     1     -18.313  10.444  13.072  1.00  0.00    -0.206 F 
ATOM     77  C   UNL     1     -17.954   9.893  15.323  1.00  0.00     0.059 A 
ATOM     78  C   UNL     1     -17.866   7.562  16.000  1.00  0.00     0.059 A 
ATOM     79  F   UNL     1     -18.096   5.874  14.389  1.00  0.00    -0.206 F 
ATOM     80  C   UNL     1     -17.807   8.920  16.312  1.00  0.00     0.060 A 
BRANCH  80  81
ATOM     81  S   UNL     1     -17.558   9.460  18.016  1.00  0.00     0.124 S 
ATOM     82  O   UNL     1     -16.205  10.005  17.955  1.00  0.00    -0.237 OA
ATOM     83  O   UNL     1     -18.627  10.438  18.191  1.00  0.00    -0.237 OA
ATOM     84  O   UNL     1     -17.703   8.231  18.789  1.00  0.00    -0.744 OA
ENDBRANCH  80  81
ENDBRANCH  59  73
BRANCH  60  85
ATOM     85  C   UNL     1     -19.812   5.312   4.182  1.00  0.00     0.058 A 
ATOM     86  C   UNL     1     -20.841   5.862   3.401  1.00  0.00     0.135 A 
ATOM     87  C   UNL     1     -19.034   4.295   3.608  1.00  0.00     0.135 A 
ATOM     88  F   UNL     1     -21.617   6.834   3.904  1.00  0.00    -0.206 F 
ATOM     89  C   UNL     1     -21.113   5.397   2.118  1.00  0.00     0.059 A 
ATOM     90  C   UNL     1     -19.266   3.835   2.315  1.00  0.00     0.059 A 
ATOM     91  F   UNL     1     -18.025   3.746   4.302  1.00  0.00    -0.206 F 
ATOM     92  C   UNL     1     -20.321   4.380   1.585  1.00  0.00     0.060 A 
BRANCH  92  93
ATOM     93  S   UNL     1     -20.676   3.791  -0.085  1.00  0.00     0.124 S 
ATOM     94  O   UNL     1     -21.914   3.049   0.123  1.00  0.00    -0.237 OA
ATOM     95  O   UNL     1     -20.797   5.039  -0.831  1.00  0.00    -0.237 OA
ATOM     96  O   UNL     1     -19.504   2.984  -0.412  1.00  0.00    -0.744 OA
ENDBRANCH  92  93
ENDBRANCH  60  85
BRANCH  72  97
ATOM     97  C   UNL     1     -23.598   4.970  10.033  1.00  0.00     0.058 A 
ATOM     98  C   UNL     1     -23.892   3.598  10.034  1.00  0.00     0.135 A 
ATOM     99  C   UNL     1     -24.631   5.861  10.371  1.00  0.00     0.135 A 
ATOM    100  F   UNL     1     -22.944   2.704   9.712  1.00  0.00    -0.206 F 
ATOM    101  C   UNL     1     -25.166   3.128  10.333  1.00  0.00     0.059 A 
ATOM    102  C   UNL     1     -25.904   5.412  10.707  1.00  0.00     0.059 A 
ATOM    103  F   UNL     1     -24.402   7.184  10.397  1.00  0.00    -0.206 F 
ATOM    104  C   UNL     1     -26.165   4.043  10.673  1.00  0.00     0.060 A 
BRANCH 104 105
ATOM    105  S   UNL     1     -27.804   3.417  11.095  1.00  0.00     0.124 S 
ATOM    106  O   UNL     1     -28.301   2.991   9.790  1.00  0.00    -0.237 OA
ATOM    107  O   UNL     1     -27.495   2.345  12.036  1.00  0.00    -0.237 OA
ATOM    108  O   UNL     1     -28.475   4.577  11.673  1.00  0.00    -0.744 OA
ENDBRANCH 104 105
ENDBRANCH  72  97
ENDBRANCH  46  47
ENDBRANCH  38  41
ENDBRANCH  36  37
ENDBRANCH  35  36
ENDBRANCH  34  35
ENDBRANCH   1  34
TORSDOF 20
