REMARK SMILES CC(C)C[C@H](CNC(=O)[C@H]1CCCCC[C@H]1[NH3+])CC(=O)NCCCCNC(=O)c1ccc(-c2c3nc(c(-c4c(F)cc(S(=O)(=O)[O-])cc4F)c4ccc([nH]4)c(-c4c(F)cc(S(=O)(=O)[O-])cc4F)c4nc(c(-c5c(F)cc(S(=O)(=O)[O-])cc5F)c5ccc2[nH]5)C=C4)C=C3)cc1
REMARK SMILES IDX 19 1 20 2 21 3 18 5 5 6 4 7 2 8 1 9 3 10 6 11 7 12 8 13 9 15
REMARK SMILES IDX 10 16 11 17 12 18 13 19 14 20 16 22 15 23 17 25 22 29 23 30
REMARK SMILES IDX 24 31 25 32 26 33 27 34 28 36 29 37 30 38 94 39 31 40 93 41
REMARK SMILES IDX 32 42 33 43 34 44 87 45 35 46 92 47 86 48 88 49 36 50 91 51
REMARK SMILES IDX 85 52 84 53 37 55 71 56 50 57 70 58 51 59 54 60 69 61 89 62
REMARK SMILES IDX 52 63 53 64 68 66 90 67 55 68 38 69 39 70 48 71 40 72 41 73
REMARK SMILES IDX 47 74 49 75 42 76 43 77 44 78 45 79 46 80 72 81 73 82 82 83
REMARK SMILES IDX 74 84 75 85 81 86 83 87 76 88 77 89 78 90 79 91 80 92 56 93
REMARK SMILES IDX 57 94 66 95 58 96 59 97 65 98 67 99 60 100 61 101 62 102
REMARK SMILES IDX 63 103 64 104
REMARK H PARENT 21 4 7 14 17 26 17 27 17 28 26 35 88 54 54 65
REMARK Flexibility Score: 90.00
ROOT
ATOM      1  C   UNL     1      -3.457   0.248  -1.896  1.00  0.00     0.220 C 
ATOM      2  O   UNL     1      -4.321   0.076  -2.755  1.00  0.00    -0.275 OA
ATOM      3  N   UNL     1      -2.494  -0.713  -1.717  1.00  0.00    -0.356 N 
ATOM      4  H   UNL     1      -2.324  -1.289  -2.497  1.00  0.00     0.163 HD
ENDROOT
BRANCH   1   5
ATOM      5  C   UNL     1      -3.366   1.554  -1.128  1.00  0.00     0.105 C 
BRANCH   5   6
ATOM      6  C   UNL     1      -4.557   1.944  -0.215  1.00  0.00     0.018 C 
BRANCH   6   7
ATOM      7  C   UNL     1      -4.372   3.417   0.282  1.00  0.00     0.009 C 
BRANCH   7   8
ATOM      8  C   UNL     1      -3.338   3.736   1.405  1.00  0.00    -0.017 C 
ATOM      9  C   UNL     1      -1.895   3.332   1.108  1.00  0.00     0.007 C 
ATOM     10  C   UNL     1      -3.367   5.236   1.725  1.00  0.00     0.007 C 
ENDBRANCH   7   8
ENDBRANCH   6   7
BRANCH   6  11
ATOM     11  C   UNL     1      -4.761   0.978   0.963  1.00  0.00     0.120 C 
BRANCH  11  12
ATOM     12  N   UNL     1      -6.099   0.446   1.178  1.00  0.00    -0.355 N 
ATOM     13  C   UNL     1      -6.450  -0.640   1.967  1.00  0.00     0.229 C 
ATOM     14  H   UNL     1      -6.834   0.906   0.713  1.00  0.00     0.163 HD
ATOM     15  O   UNL     1      -7.631  -0.774   2.291  1.00  0.00    -0.275 OA
BRANCH  13  16
ATOM     16  C   UNL     1      -5.359  -1.648   2.372  1.00  0.00     0.136 C 
BRANCH  16  17
ATOM     17  C   UNL     1      -4.322  -1.083   3.360  1.00  0.00     0.020 C 
BRANCH  17  18
ATOM     18  C   UNL     1      -4.864  -0.744   4.737  1.00  0.00     0.001 C 
BRANCH  18  19
ATOM     19  C   UNL     1      -4.742  -1.895   5.723  1.00  0.00     0.000 C 
BRANCH  19  20
ATOM     20  C   UNL     1      -5.103  -3.274   5.184  1.00  0.00     0.006 CG0
ATOM     21  G   UNL     1      -6.267  -3.313   4.190  1.00  0.00     0.000 G0
ENDBRANCH  19  20
ENDBRANCH  18  19
ENDBRANCH  17  18
ENDBRANCH  16  17
BRANCH  16  22
ATOM     22  C   UNL     1      -5.806  -3.086   2.741  1.00  0.00     0.193 C 
BRANCH  22  23
ATOM     23  C   UNL     1      -6.267  -3.313   4.190  1.00  0.00     0.066 CG0
ATOM     24  G   UNL     1      -5.103  -3.274   5.184  1.00  0.00     0.000 G0
ENDBRANCH  22  23
BRANCH  22  25
ATOM     25  N   UNL     1      -6.785  -3.614   1.784  1.00  0.00    -0.354 N 
ATOM     26  H   UNL     1      -7.650  -3.077   1.852  1.00  0.00     0.344 HD
ATOM     27  H   UNL     1      -6.975  -4.593   1.997  1.00  0.00     0.344 HD
ATOM     28  H   UNL     1      -6.411  -3.538   0.838  1.00  0.00     0.344 HD
ENDBRANCH  22  25
ENDBRANCH  16  22
ENDBRANCH  13  16
ENDBRANCH  11  12
ENDBRANCH   6  11
ENDBRANCH   5   6
ENDBRANCH   1   5
BRANCH   3  29
ATOM     29  C   UNL     1      -1.684  -1.005  -0.536  1.00  0.00     0.116 C 
BRANCH  29  30
ATOM     30  C   UNL     1      -2.529  -1.794   0.460  1.00  0.00     0.023 C 
BRANCH  30  31
ATOM     31  C   UNL     1      -2.139  -3.232   0.769  1.00  0.00     0.023 C 
BRANCH  31  32
ATOM     32  C   UNL     1      -0.903  -3.348   1.650  1.00  0.00     0.116 C 
BRANCH  32  33
ATOM     33  N   UNL     1      -1.138  -3.121   3.077  1.00  0.00    -0.352 N 
ATOM     34  C   UNL     1      -1.395  -3.940   4.158  1.00  0.00     0.251 C 
ATOM     35  H   UNL     1      -1.104  -2.168   3.321  1.00  0.00     0.163 HD
ATOM     36  O   UNL     1      -1.530  -3.408   5.261  1.00  0.00    -0.269 OA
BRANCH  34  37
ATOM     37  C   UNL     1      -1.563  -5.412   4.044  1.00  0.00     0.039 A 
ATOM     38  C   UNL     1      -2.389  -6.098   4.952  1.00  0.00     0.014 A 
ATOM     39  C   UNL     1      -0.883  -6.150   3.088  1.00  0.00     0.014 A 
ATOM     40  C   UNL     1      -2.569  -7.487   4.848  1.00  0.00     0.010 A 
ATOM     41  C   UNL     1      -1.179  -7.488   2.883  1.00  0.00     0.010 A 
ATOM     42  C   UNL     1      -1.980  -8.191   3.791  1.00  0.00    -0.014 A 
BRANCH  42  43
ATOM     43  C   UNL     1      -2.028  -9.670   3.635  1.00  0.00     0.031 A 
ATOM     44  C   UNL     1      -0.717 -10.422   3.565  1.00  0.00     0.074 A 
ATOM     45  C   UNL     1      -3.189 -10.312   3.409  1.00  0.00     0.049 A 
ATOM     46  N   UNL     1      -0.470 -11.631   3.134  1.00  0.00    -0.248 NA
ATOM     47  C   UNL     1       0.490  -9.675   3.966  1.00  0.00     0.031 C 
ATOM     48  C   UNL     1      -4.519  -9.700   3.417  1.00  0.00     0.029 A 
ATOM     49  N   UNL     1      -3.430 -11.626   3.090  1.00  0.00    -0.354 N 
ATOM     50  C   UNL     1       0.916 -11.760   3.154  1.00  0.00     0.074 A 
ATOM     51  C   UNL     1       1.457 -10.486   3.568  1.00  0.00     0.031 C 
ATOM     52  C   UNL     1      -5.435 -10.639   3.125  1.00  0.00     0.029 A 
ATOM     53  C   UNL     1      -4.757 -11.904   2.858  1.00  0.00     0.049 A 
ATOM     54  H   UNL     1      -2.720 -12.305   3.034  1.00  0.00     0.167 HD
ATOM     55  C   UNL     1       1.671 -12.852   2.885  1.00  0.00     0.037 A 
ATOM     56  C   UNL     1      -5.350 -13.045   2.454  1.00  0.00     0.037 A 
ATOM     57  C   UNL     1       1.115 -14.135   2.552  1.00  0.00     0.049 A 
ATOM     58  C   UNL     1      -4.496 -14.260   2.193  1.00  0.00     0.074 A 
ATOM     59  C   UNL     1       1.775 -15.332   2.342  1.00  0.00     0.029 A 
ATOM     60  N   UNL     1      -0.241 -14.392   2.401  1.00  0.00    -0.354 N 
ATOM     61  N   UNL     1      -3.190 -14.381   2.253  1.00  0.00    -0.248 NA
ATOM     62  C   UNL     1      -5.196 -15.495   1.815  1.00  0.00     0.031 C 
ATOM     63  C   UNL     1       0.822 -16.303   2.023  1.00  0.00     0.029 A 
ATOM     64  C   UNL     1      -0.436 -15.725   2.090  1.00  0.00     0.049 A 
ATOM     65  H   UNL     1      -0.957 -13.723   2.500  1.00  0.00     0.167 HD
ATOM     66  C   UNL     1      -2.917 -15.713   1.959  1.00  0.00     0.074 A 
ATOM     67  C   UNL     1      -4.193 -16.358   1.728  1.00  0.00     0.031 C 
ATOM     68  C   UNL     1      -1.720 -16.349   1.887  1.00  0.00     0.037 A 
BRANCH  55  69
ATOM     69  C   UNL     1       3.169 -12.710   2.961  1.00  0.00     0.058 A 
ATOM     70  C   UNL     1       3.830 -12.469   4.177  1.00  0.00     0.135 A 
ATOM     71  C   UNL     1       3.959 -12.844   1.807  1.00  0.00     0.135 A 
ATOM     72  F   UNL     1       3.128 -12.315   5.311  1.00  0.00    -0.206 F 
ATOM     73  C   UNL     1       5.212 -12.326   4.240  1.00  0.00     0.059 A 
ATOM     74  C   UNL     1       5.347 -12.742   1.853  1.00  0.00     0.059 A 
ATOM     75  F   UNL     1       3.384 -13.073   0.616  1.00  0.00    -0.206 F 
ATOM     76  C   UNL     1       5.963 -12.466   3.072  1.00  0.00     0.060 A 
BRANCH  76  77
ATOM     77  S   UNL     1       7.756 -12.290   3.180  1.00  0.00     0.124 S 
ATOM     78  O   UNL     1       7.894 -10.854   3.398  1.00  0.00    -0.237 OA
ATOM     79  O   UNL     1       8.085 -13.140   4.317  1.00  0.00    -0.237 OA
ATOM     80  O   UNL     1       8.223 -12.774   1.881  1.00  0.00    -0.744 OA
ENDBRANCH  76  77
ENDBRANCH  55  69
BRANCH  56  81
ATOM     81  C   UNL     1      -6.830 -13.105   2.302  1.00  0.00     0.058 A 
ATOM     82  C   UNL     1      -7.611 -13.858   3.193  1.00  0.00     0.135 A 
ATOM     83  C   UNL     1      -7.496 -12.413   1.278  1.00  0.00     0.135 A 
ATOM     84  F   UNL     1      -7.022 -14.543   4.184  1.00  0.00    -0.206 F 
ATOM     85  C   UNL     1      -8.993 -13.941   3.064  1.00  0.00     0.059 A 
ATOM     86  C   UNL     1      -8.882 -12.457   1.146  1.00  0.00     0.059 A 
ATOM     87  F   UNL     1      -6.800 -11.665   0.409  1.00  0.00    -0.206 F 
ATOM     88  C   UNL     1      -9.621 -13.233   2.038  1.00  0.00     0.060 A 
BRANCH  88  89
ATOM     89  S   UNL     1     -11.421 -13.317   1.911  1.00  0.00     0.124 S 
ATOM     90  O   UNL     1     -11.620 -14.681   1.440  1.00  0.00    -0.237 OA
ATOM     91  O   UNL     1     -11.836 -13.045   3.282  1.00  0.00    -0.237 OA
ATOM     92  O   UNL     1     -11.738 -12.264   0.947  1.00  0.00    -0.744 OA
ENDBRANCH  88  89
ENDBRANCH  56  81
BRANCH  68  93
ATOM     93  C   UNL     1      -1.732 -17.826   1.605  1.00  0.00     0.058 A 
ATOM     94  C   UNL     1      -2.050 -18.337   0.337  1.00  0.00     0.135 A 
ATOM     95  C   UNL     1      -1.354 -18.737   2.605  1.00  0.00     0.135 A 
ATOM     96  F   UNL     1      -2.420 -17.509  -0.652  1.00  0.00    -0.206 F 
ATOM     97  C   UNL     1      -2.017 -19.703   0.078  1.00  0.00     0.059 A 
ATOM     98  C   UNL     1      -1.283 -20.104   2.359  1.00  0.00     0.059 A 
ATOM     99  F   UNL     1      -1.025 -18.299   3.831  1.00  0.00    -0.206 F 
ATOM    100  C   UNL     1      -1.629 -20.579   1.095  1.00  0.00     0.060 A 
BRANCH 100 101
ATOM    101  S   UNL     1      -1.555 -22.345   0.733  1.00  0.00     0.124 S 
ATOM    102  O   UNL     1      -2.972 -22.689   0.658  1.00  0.00    -0.237 OA
ATOM    103  O   UNL     1      -0.828 -22.374  -0.532  1.00  0.00    -0.237 OA
ATOM    104  O   UNL     1      -0.835 -22.897   1.877  1.00  0.00    -0.744 OA
ENDBRANCH 100 101
ENDBRANCH  68  93
ENDBRANCH  42  43
ENDBRANCH  34  37
ENDBRANCH  32  33
ENDBRANCH  31  32
ENDBRANCH  30  31
ENDBRANCH  29  30
ENDBRANCH   3  29
TORSDOF 21
