REMARK SMILES COc1ccccc1S(=O)(=O)[C@@H](C)[C@H](C)C(=O)NCCCCNC(=O)c1ccc(-c2c3nc(c(-c4c(F)cc(S(=O)(=O)[O-])cc4F)c4ccc([nH]4)c(-c4c(F)cc(S(=O)(=O)[O-])cc4F)c4nc(c(-c5c(F)cc(S(=O)(=O)[O-])cc5F)c5ccc2[nH]5)C=C4)C=C3)cc1
REMARK SMILES IDX 20 1 19 2 18 3 16 4 17 5 14 7 15 8 12 9 13 10 9 11 10 12
REMARK SMILES IDX 11 13 8 14 3 15 4 16 5 17 7 18 6 19 2 20 1 21 21 22 22 23
REMARK SMILES IDX 23 24 24 25 25 27 26 28 27 29 91 30 28 31 90 32 29 33 30 34
REMARK SMILES IDX 31 35 84 36 32 37 89 38 83 39 85 40 33 41 88 42 82 43 81 44
REMARK SMILES IDX 34 46 68 47 47 48 67 49 48 50 51 51 66 52 86 53 49 54 50 55
REMARK SMILES IDX 65 57 87 58 52 59 35 60 36 61 45 62 37 63 38 64 44 65 46 66
REMARK SMILES IDX 39 67 40 68 41 69 42 70 43 71 69 72 70 73 79 74 71 75 72 76
REMARK SMILES IDX 78 77 80 78 73 79 74 80 75 81 76 82 77 83 53 84 54 85 63 86
REMARK SMILES IDX 55 87 56 88 62 89 64 90 57 91 58 92 59 93 60 94 61 95
REMARK H PARENT 18 6 23 26 85 45 51 56
REMARK Flexibility Score: inf
ROOT
ATOM      1  C   UNL     1       3.474  -1.309   3.529  1.00  0.00     0.023 C 
ENDROOT
BRANCH   1   2
ATOM      2  C   UNL     1       3.332  -2.523   2.618  1.00  0.00     0.116 C 
BRANCH   2   3
ATOM      3  N   UNL     1       1.950  -2.883   2.379  1.00  0.00    -0.356 N 
ATOM      4  C   UNL     1       1.184  -2.731   1.261  1.00  0.00     0.224 C 
ATOM      5  O   UNL     1       0.006  -3.083   1.309  1.00  0.00    -0.275 OA
ATOM      6  H   UNL     1       1.491  -3.303   3.143  1.00  0.00     0.163 HD
BRANCH   4   7
ATOM      7  C   UNL     1       1.777  -2.128  -0.014  1.00  0.00     0.093 C 
ATOM      8  C   UNL     1       2.162  -0.672   0.288  1.00  0.00     0.019 C 
BRANCH   7   9
ATOM      9  C   UNL     1       2.798  -3.133  -0.631  1.00  0.00     0.122 C 
ATOM     10  C   UNL     1       4.296  -2.812  -0.694  1.00  0.00     0.026 C 
BRANCH   9  11
ATOM     11  S   UNL     1       2.231  -3.922  -2.136  1.00  0.00     0.185 S 
ATOM     12  O   UNL     1       0.893  -4.423  -1.886  1.00  0.00    -0.223 OA
ATOM     13  O   UNL     1       3.271  -4.861  -2.538  1.00  0.00    -0.223 OA
BRANCH  11  14
ATOM     14  C   UNL     1       2.068  -2.818  -3.516  1.00  0.00     0.109 A 
ATOM     15  C   UNL     1       2.416  -1.473  -3.523  1.00  0.00     0.137 A 
ATOM     16  C   UNL     1       2.110  -0.688  -4.644  1.00  0.00     0.048 A 
ATOM     17  C   UNL     1       1.559  -1.264  -5.789  1.00  0.00     0.004 A 
ATOM     18  C   UNL     1       1.537  -3.400  -4.682  1.00  0.00     0.024 A 
ATOM     19  C   UNL     1       1.298  -2.628  -5.818  1.00  0.00     0.002 A 
BRANCH  15  20
ATOM     20  O   UNL     1       2.995  -0.896  -2.440  1.00  0.00    -0.495 OA
ATOM     21  C   UNL     1       4.249  -0.274  -2.728  1.00  0.00     0.278 C 
ENDBRANCH  15  20
ENDBRANCH  11  14
ENDBRANCH   9  11
ENDBRANCH   7   9
ENDBRANCH   4   7
ENDBRANCH   2   3
ENDBRANCH   1   2
BRANCH   1  22
ATOM     22  C   UNL     1       3.094  -1.574   4.981  1.00  0.00     0.023 C 
BRANCH  22  23
ATOM     23  C   UNL     1       3.783  -2.780   5.602  1.00  0.00     0.116 C 
BRANCH  23  24
ATOM     24  N   UNL     1       5.236  -2.709   5.527  1.00  0.00    -0.352 N 
ATOM     25  C   UNL     1       6.150  -3.073   6.485  1.00  0.00     0.251 C 
ATOM     26  H   UNL     1       5.608  -2.358   4.686  1.00  0.00     0.163 HD
ATOM     27  O   UNL     1       7.343  -2.826   6.330  1.00  0.00    -0.269 OA
BRANCH  25  28
ATOM     28  C   UNL     1       5.666  -3.729   7.715  1.00  0.00     0.039 A 
ATOM     29  C   UNL     1       6.091  -3.247   8.953  1.00  0.00     0.014 A 
ATOM     30  C   UNL     1       4.744  -4.777   7.637  1.00  0.00     0.014 A 
ATOM     31  C   UNL     1       5.548  -3.789  10.119  1.00  0.00     0.010 A 
ATOM     32  C   UNL     1       4.134  -5.244   8.794  1.00  0.00     0.010 A 
ATOM     33  C   UNL     1       4.544  -4.770  10.048  1.00  0.00    -0.014 A 
BRANCH  33  34
ATOM     34  C   UNL     1       3.945  -5.343  11.280  1.00  0.00     0.031 A 
ATOM     35  C   UNL     1       4.110  -6.810  11.578  1.00  0.00     0.074 A 
ATOM     36  C   UNL     1       3.230  -4.555  12.107  1.00  0.00     0.049 A 
ATOM     37  N   UNL     1       3.650  -7.505  12.586  1.00  0.00    -0.248 NA
ATOM     38  C   UNL     1       4.867  -7.608  10.598  1.00  0.00     0.031 C 
ATOM     39  C   UNL     1       2.954  -3.131  11.896  1.00  0.00     0.029 A 
ATOM     40  N   UNL     1       2.607  -4.839  13.295  1.00  0.00    -0.354 N 
ATOM     41  C   UNL     1       4.060  -8.814  12.360  1.00  0.00     0.074 A 
ATOM     42  C   UNL     1       4.735  -8.833  11.082  1.00  0.00     0.031 C 
ATOM     43  C   UNL     1       2.251  -2.659  12.939  1.00  0.00     0.029 A 
ATOM     44  C   UNL     1       1.996  -3.750  13.874  1.00  0.00     0.049 A 
ATOM     45  H   UNL     1       2.597  -5.738  13.697  1.00  0.00     0.167 HD
ATOM     46  C   UNL     1       3.924  -9.896  13.163  1.00  0.00     0.037 A 
ATOM     47  C   UNL     1       1.313  -3.647  15.030  1.00  0.00     0.037 A 
ATOM     48  C   UNL     1       3.267  -9.866  14.443  1.00  0.00     0.049 A 
ATOM     49  C   UNL     1       1.168  -4.867  15.902  1.00  0.00     0.074 A 
ATOM     50  C   UNL     1       3.097 -10.898  15.349  1.00  0.00     0.029 A 
ATOM     51  N   UNL     1       2.677  -8.742  15.002  1.00  0.00    -0.354 N 
ATOM     52  N   UNL     1       1.611  -6.086  15.698  1.00  0.00    -0.248 NA
ATOM     53  C   UNL     1       0.444  -4.694  17.168  1.00  0.00     0.031 C 
ATOM     54  C   UNL     1       2.369 -10.408  16.438  1.00  0.00     0.029 A 
ATOM     55  C   UNL     1       2.134  -9.057  16.237  1.00  0.00     0.049 A 
ATOM     56  H   UNL     1       2.647  -7.852  14.583  1.00  0.00     0.167 HD
ATOM     57  C   UNL     1       1.254  -6.813  16.829  1.00  0.00     0.074 A 
ATOM     58  C   UNL     1       0.571  -5.893  17.716  1.00  0.00     0.031 C 
ATOM     59  C   UNL     1       1.472  -8.122  17.112  1.00  0.00     0.037 A 
BRANCH  46  60
ATOM     60  C   UNL     1       4.513 -11.195  12.682  1.00  0.00     0.058 A 
ATOM     61  C   UNL     1       5.903 -11.379  12.582  1.00  0.00     0.135 A 
ATOM     62  C   UNL     1       3.686 -12.277  12.340  1.00  0.00     0.135 A 
ATOM     63  F   UNL     1       6.741 -10.372  12.876  1.00  0.00    -0.206 F 
ATOM     64  C   UNL     1       6.450 -12.575  12.132  1.00  0.00     0.059 A 
ATOM     65  C   UNL     1       4.213 -13.495  11.918  1.00  0.00     0.059 A 
ATOM     66  F   UNL     1       2.351 -12.158  12.414  1.00  0.00    -0.206 F 
ATOM     67  C   UNL     1       5.596 -13.629  11.803  1.00  0.00     0.060 A 
BRANCH  67  68
ATOM     68  S   UNL     1       6.325 -15.178  11.231  1.00  0.00     0.124 S 
ATOM     69  O   UNL     1       6.793 -14.805   9.900  1.00  0.00    -0.237 OA
ATOM     70  O   UNL     1       7.366 -15.417  12.225  1.00  0.00    -0.237 OA
ATOM     71  O   UNL     1       5.205 -16.113  11.263  1.00  0.00    -0.744 OA
ENDBRANCH  67  68
ENDBRANCH  46  60
BRANCH  47  72
ATOM     72  C   UNL     1       0.747  -2.337  15.456  1.00  0.00     0.058 A 
ATOM     73  C   UNL     1       1.260  -1.656  16.570  1.00  0.00     0.135 A 
ATOM     74  C   UNL     1      -0.329  -1.750  14.772  1.00  0.00     0.135 A 
ATOM     75  F   UNL     1       2.287  -2.176  17.260  1.00  0.00    -0.206 F 
ATOM     76  C   UNL     1       0.707  -0.459  17.014  1.00  0.00     0.059 A 
ATOM     77  C   UNL     1      -0.880  -0.538  15.177  1.00  0.00     0.059 A 
ATOM     78  F   UNL     1      -0.844  -2.348  13.687  1.00  0.00    -0.206 F 
ATOM     79  C   UNL     1      -0.366   0.091  16.311  1.00  0.00     0.060 A 
BRANCH  79  80
ATOM     80  S   UNL     1      -1.066   1.655  16.883  1.00  0.00     0.124 S 
ATOM     81  O   UNL     1      -1.771   1.236  18.089  1.00  0.00    -0.237 OA
ATOM     82  O   UNL     1       0.129   2.467  17.090  1.00  0.00    -0.237 OA
ATOM     83  O   UNL     1      -1.912   2.071  15.768  1.00  0.00    -0.744 OA
ENDBRANCH  79  80
ENDBRANCH  47  72
BRANCH  59  84
ATOM     84  C   UNL     1       1.021  -8.619  18.459  1.00  0.00     0.058 A 
ATOM     85  C   UNL     1      -0.337  -8.759  18.786  1.00  0.00     0.135 A 
ATOM     86  C   UNL     1       1.970  -8.978  19.432  1.00  0.00     0.135 A 
ATOM     87  F   UNL     1      -1.284  -8.429  17.895  1.00  0.00    -0.206 F 
ATOM     88  C   UNL     1      -0.739  -9.190  20.046  1.00  0.00     0.059 A 
ATOM     89  C   UNL     1       1.590  -9.444  20.686  1.00  0.00     0.059 A 
ATOM     90  F   UNL     1       3.282  -8.880  19.166  1.00  0.00    -0.206 F 
ATOM     91  C   UNL     1       0.233  -9.526  20.991  1.00  0.00     0.060 A 
BRANCH  91  92
ATOM     92  S   UNL     1      -0.301 -10.081  22.623  1.00  0.00     0.124 S 
ATOM     93  O   UNL     1      -0.746  -8.829  23.227  1.00  0.00    -0.237 OA
ATOM     94  O   UNL     1      -1.355 -11.038  22.300  1.00  0.00    -0.237 OA
ATOM     95  O   UNL     1       0.909 -10.660  23.198  1.00  0.00    -0.744 OA
ENDBRANCH  91  92
ENDBRANCH  59  84
ENDBRANCH  33  34
ENDBRANCH  25  28
ENDBRANCH  23  24
ENDBRANCH  22  23
ENDBRANCH   1  22
TORSDOF 18
