REMARK SMILES Cc1nc2n(n1)[C@@H](c1ccc([N+](=O)[O-])o1)CC(C(=O)NCCCCNC(=O)c1ccc(-c3c4nc(c(-c5c(F)cc(S(=O)(=O)[O-])cc5F)c5ccc([nH]5)c(-c5c(F)cc(S(=O)(=O)[O-])cc5F)c5nc(c(-c6c(F)cc(S(=O)(=O)[O-])cc6F)c6ccc3[nH]6)C=C5)C=C4)cc1)=N2
REMARK SMILES IDX 23 1 22 2 21 3 20 4 18 5 19 6 17 8 1 9 2 10 3 11 6 12 4 13
REMARK SMILES IDX 5 14 94 15 7 16 16 17 8 18 9 19 15 20 10 21 11 22 12 23
REMARK SMILES IDX 13 24 14 25 24 26 25 27 26 28 27 30 28 31 29 32 93 33 30 34
REMARK SMILES IDX 92 35 31 36 32 37 33 38 86 39 34 40 91 41 85 42 87 43 35 44
REMARK SMILES IDX 90 45 84 46 83 47 36 49 70 50 49 51 69 52 50 53 53 54 68 55
REMARK SMILES IDX 88 56 51 57 52 58 67 60 89 61 54 62 37 63 38 64 47 65 39 66
REMARK SMILES IDX 40 67 46 68 48 69 41 70 42 71 43 72 44 73 45 74 71 75 72 76
REMARK SMILES IDX 81 77 73 78 74 79 80 80 82 81 75 82 76 83 77 84 78 85 79 86
REMARK SMILES IDX 55 87 56 88 65 89 57 90 58 91 64 92 66 93 59 94 60 95 61 96
REMARK SMILES IDX 62 97 63 98
REMARK H PARENT 20 7 25 29 87 48 53 59
REMARK Flexibility Score: inf
ROOT
ATOM      1  C   UNL     1      -1.153   5.222 -10.035  1.00  0.00     0.023 C 
ENDROOT
BRANCH   1   2
ATOM      2  C   UNL     1      -0.688   5.221  -8.560  1.00  0.00     0.023 C 
BRANCH   2   3
ATOM      3  C   UNL     1      -1.709   4.666  -7.559  1.00  0.00     0.116 C 
BRANCH   3   4
ATOM      4  N   UNL     1      -1.728   3.209  -7.560  1.00  0.00    -0.351 N 
ATOM      5  C   UNL     1      -1.367   2.195  -6.706  1.00  0.00     0.265 C 
ATOM      6  O   UNL     1      -1.549   1.047  -7.111  1.00  0.00    -0.268 OA
ATOM      7  H   UNL     1      -2.100   2.855  -8.400  1.00  0.00     0.163 HD
BRANCH   5   8
ATOM      8  C   UNL     1      -0.760   2.363  -5.296  1.00  0.00     0.112 C 
ATOM      9  C   UNL     1       0.966   0.304  -0.133  1.00  0.00     0.092 C 
ATOM     10  C   UNL     1       0.607   1.020  -1.374  1.00  0.00     0.149 A 
ATOM     11  N   UNL     1       0.025   0.392  -2.444  1.00  0.00    -0.195 NA
ATOM     12  N   UNL     1       0.849   2.325  -1.554  1.00  0.00    -0.154 NA
ATOM     13  C   UNL     1      -0.110   1.340  -3.348  1.00  0.00     0.249 A 
ATOM     14  N   UNL     1       0.404   2.488  -2.816  1.00  0.00    -0.219 N 
ATOM     15  N   UNL     1      -0.616   1.272  -4.599  1.00  0.00    -0.211 NA
ATOM     16  C   UNL     1       0.463   3.746  -3.523  1.00  0.00     0.184 C 
ATOM     17  C   UNL     1      -0.419   3.734  -4.779  1.00  0.00     0.098 C 
BRANCH  16  18
ATOM     18  C   UNL     1       1.879   4.133  -3.850  1.00  0.00     0.136 A 
ATOM     19  C   UNL     1       3.137   3.627  -3.563  1.00  0.00     0.056 A 
ATOM     20  O   UNL     1       2.010   5.282  -4.587  1.00  0.00    -0.404 OA
ATOM     21  C   UNL     1       4.083   4.493  -4.174  1.00  0.00     0.134 A 
ATOM     22  C   UNL     1       3.339   5.469  -4.789  1.00  0.00     0.433 A 
BRANCH  22  23
ATOM     23  N   UNL     1       3.701   6.600  -5.582  1.00  0.00     0.102 N 
ATOM     24  O   UNL     1       4.914   6.813  -5.712  1.00  0.00    -0.256 OA
ATOM     25  O   UNL     1       2.786   7.264  -6.084  1.00  0.00    -0.256 OA
ENDBRANCH  22  23
ENDBRANCH  16  18
ENDBRANCH   5   8
ENDBRANCH   3   4
ENDBRANCH   2   3
ENDBRANCH   1   2
BRANCH   1  26
ATOM     26  C   UNL     1      -2.263   6.231 -10.404  1.00  0.00     0.116 C 
BRANCH  26  27
ATOM     27  N   UNL     1      -1.817   7.602 -10.214  1.00  0.00    -0.352 N 
ATOM     28  C   UNL     1      -2.030   8.759 -10.917  1.00  0.00     0.251 C 
ATOM     29  H   UNL     1      -1.247   7.723  -9.421  1.00  0.00     0.163 HD
ATOM     30  O   UNL     1      -1.313   9.722 -10.635  1.00  0.00    -0.269 OA
BRANCH  28  31
ATOM     31  C   UNL     1      -3.049   8.924 -11.985  1.00  0.00     0.039 A 
ATOM     32  C   UNL     1      -2.735   9.787 -13.050  1.00  0.00     0.014 A 
ATOM     33  C   UNL     1      -4.339   8.404 -11.902  1.00  0.00     0.014 A 
ATOM     34  C   UNL     1      -3.673  10.088 -14.048  1.00  0.00     0.010 A 
ATOM     35  C   UNL     1      -5.282   8.717 -12.898  1.00  0.00     0.010 A 
ATOM     36  C   UNL     1      -4.954   9.537 -13.999  1.00  0.00    -0.014 A 
BRANCH  36  37
ATOM     37  C   UNL     1      -5.848   9.671 -15.186  1.00  0.00     0.031 A 
ATOM     38  C   UNL     1      -6.462   8.389 -15.623  1.00  0.00     0.074 A 
ATOM     39  C   UNL     1      -6.469  10.802 -15.599  1.00  0.00     0.049 A 
ATOM     40  N   UNL     1      -7.488   7.921 -14.986  1.00  0.00    -0.248 NA
ATOM     41  C   UNL     1      -5.885   7.442 -16.571  1.00  0.00     0.031 C 
ATOM     42  C   UNL     1      -6.675  11.987 -14.761  1.00  0.00     0.029 A 
ATOM     43  N   UNL     1      -7.208  11.069 -16.741  1.00  0.00    -0.354 N 
ATOM     44  C   UNL     1      -7.676   6.614 -15.376  1.00  0.00     0.074 A 
ATOM     45  C   UNL     1      -6.668   6.363 -16.382  1.00  0.00     0.031 C 
ATOM     46  C   UNL     1      -7.586  12.788 -15.354  1.00  0.00     0.029 A 
ATOM     47  C   UNL     1      -7.930  12.263 -16.679  1.00  0.00     0.049 A 
ATOM     48  H   UNL     1      -7.223  10.472 -17.523  1.00  0.00     0.167 HD
ATOM     49  C   UNL     1      -8.685   5.877 -14.836  1.00  0.00     0.037 A 
ATOM     50  C   UNL     1      -9.129  12.519 -17.276  1.00  0.00     0.037 A 
ATOM     51  C   UNL     1      -9.554   6.587 -13.919  1.00  0.00     0.049 A 
ATOM     52  C   UNL     1     -10.055  11.518 -16.647  1.00  0.00     0.074 A 
ATOM     53  C   UNL     1     -10.094   6.467 -12.658  1.00  0.00     0.029 A 
ATOM     54  N   UNL     1      -9.981   7.798 -14.386  1.00  0.00    -0.354 N 
ATOM     55  N   UNL     1     -10.582  11.620 -15.458  1.00  0.00    -0.248 NA
ATOM     56  C   UNL     1     -10.265  10.217 -17.301  1.00  0.00     0.031 C 
ATOM     57  C   UNL     1     -10.814   7.686 -12.383  1.00  0.00     0.029 A 
ATOM     58  C   UNL     1     -10.735   8.508 -13.499  1.00  0.00     0.049 A 
ATOM     59  H   UNL     1      -9.763   8.130 -15.287  1.00  0.00     0.167 HD
ATOM     60  C   UNL     1     -10.963  10.328 -15.124  1.00  0.00     0.074 A 
ATOM     61  C   UNL     1     -10.921   9.559 -16.351  1.00  0.00     0.031 C 
ATOM     62  C   UNL     1     -11.032   9.883 -13.836  1.00  0.00     0.037 A 
BRANCH  49  63
ATOM     63  C   UNL     1      -9.095   4.553 -15.348  1.00  0.00     0.058 A 
ATOM     64  C   UNL     1     -10.233   4.491 -16.171  1.00  0.00     0.135 A 
ATOM     65  C   UNL     1      -8.517   3.351 -14.932  1.00  0.00     0.135 A 
ATOM     66  F   UNL     1     -10.806   5.623 -16.612  1.00  0.00    -0.206 F 
ATOM     67  C   UNL     1     -10.812   3.282 -16.529  1.00  0.00     0.059 A 
ATOM     68  C   UNL     1      -9.077   2.122 -15.285  1.00  0.00     0.059 A 
ATOM     69  F   UNL     1      -7.428   3.359 -14.147  1.00  0.00    -0.206 F 
ATOM     70  C   UNL     1     -10.238   2.101 -16.064  1.00  0.00     0.060 A 
BRANCH  70  71
ATOM     71  S   UNL     1     -11.057   0.544 -16.475  1.00  0.00     0.124 S 
ATOM     72  O   UNL     1     -12.338   0.689 -15.792  1.00  0.00    -0.237 OA
ATOM     73  O   UNL     1     -11.102   0.602 -17.932  1.00  0.00    -0.237 OA
ATOM     74  O   UNL     1     -10.161  -0.466 -15.919  1.00  0.00    -0.744 OA
ENDBRANCH  70  71
ENDBRANCH  49  63
BRANCH  50  75
ATOM     75  C   UNL     1      -9.192  12.844 -18.740  1.00  0.00     0.058 A 
ATOM     76  C   UNL     1      -8.234  13.700 -19.319  1.00  0.00     0.135 A 
ATOM     77  C   UNL     1     -10.207  12.398 -19.609  1.00  0.00     0.135 A 
ATOM     78  F   UNL     1      -7.321  14.315 -18.551  1.00  0.00    -0.206 F 
ATOM     79  C   UNL     1      -8.190  13.954 -20.692  1.00  0.00     0.059 A 
ATOM     80  C   UNL     1     -10.163  12.602 -20.988  1.00  0.00     0.059 A 
ATOM     81  F   UNL     1     -11.278  11.739 -19.145  1.00  0.00    -0.206 F 
ATOM     82  C   UNL     1      -9.129  13.356 -21.526  1.00  0.00     0.060 A 
BRANCH  82  83
ATOM     83  S   UNL     1      -8.940  13.503 -23.315  1.00  0.00     0.124 S 
ATOM     84  O   UNL     1      -9.287  14.905 -23.542  1.00  0.00    -0.237 OA
ATOM     85  O   UNL     1      -7.529  13.164 -23.496  1.00  0.00    -0.237 OA
ATOM     86  O   UNL     1      -9.882  12.527 -23.838  1.00  0.00    -0.744 OA
ENDBRANCH  82  83
ENDBRANCH  50  75
BRANCH  62  87
ATOM     87  C   UNL     1     -11.201  10.948 -12.813  1.00  0.00     0.058 A 
ATOM     88  C   UNL     1     -12.331  11.782 -12.872  1.00  0.00     0.135 A 
ATOM     89  C   UNL     1     -10.269  11.180 -11.792  1.00  0.00     0.135 A 
ATOM     90  F   UNL     1     -13.272  11.583 -13.811  1.00  0.00    -0.206 F 
ATOM     91  C   UNL     1     -12.525  12.816 -11.968  1.00  0.00     0.059 A 
ATOM     92  C   UNL     1     -10.455  12.199 -10.860  1.00  0.00     0.059 A 
ATOM     93  F   UNL     1      -9.165  10.423 -11.686  1.00  0.00    -0.206 F 
ATOM     94  C   UNL     1     -11.583  13.016 -10.962  1.00  0.00     0.060 A 
BRANCH  94  95
ATOM     95  S   UNL     1     -11.894  14.316  -9.752  1.00  0.00     0.124 S 
ATOM     96  O   UNL     1     -11.633  15.524 -10.527  1.00  0.00    -0.237 OA
ATOM     97  O   UNL     1     -13.291  14.082  -9.395  1.00  0.00    -0.237 OA
ATOM     98  O   UNL     1     -10.932  14.032  -8.690  1.00  0.00    -0.744 OA
ENDBRANCH  94  95
ENDBRANCH  62  87
ENDBRANCH  36  37
ENDBRANCH  28  31
ENDBRANCH  26  27
ENDBRANCH   1  26
TORSDOF 16
