REMARK SMILES Cc1coc2cc3c(cc12)[C@@H](C)[C@H](CCC(=O)N[C@@H](Cc1c[nH]c2ccccc12)C(=O)NCCCCNC(=O)c1ccc(-c2c4nc(c(-c5c(F)cc(S(=O)(=O)[O-])cc5F)c5ccc([nH]5)c(-c5c(F)cc(S(=O)(=O)[O-])cc5F)c5nc(c(-c6c(F)cc(S(=O)(=O)[O-])cc6F)c6ccc2[nH]6)C=C5)C=C4)cc1)C(=O)O3
REMARK SMILES IDX 34 1 33 2 32 3 30 4 31 5 19 7 18 8 16 9 17 10 15 12 14 13
REMARK SMILES IDX 13 14 1 15 2 16 3 17 10 18 4 19 5 20 9 21 6 22 8 23 7 24
REMARK SMILES IDX 11 25 108 26 12 27 106 28 107 29 20 30 21 31 22 32 29 33
REMARK SMILES IDX 23 34 24 35 28 36 25 38 27 39 26 40 35 41 36 42 37 43 38 44
REMARK SMILES IDX 39 46 40 47 41 48 105 49 42 50 104 51 43 52 44 53 45 54
REMARK SMILES IDX 98 55 46 56 103 57 97 58 99 59 47 60 102 61 96 62 95 63
REMARK SMILES IDX 48 65 82 66 61 67 81 68 62 69 65 70 80 71 100 72 63 73 64 74
REMARK SMILES IDX 79 76 101 77 66 78 49 79 50 80 59 81 51 82 52 83 58 84 60 85
REMARK SMILES IDX 53 86 54 87 55 88 56 89 57 90 83 91 84 92 93 93 85 94 86 95
REMARK SMILES IDX 92 96 94 97 87 98 88 99 89 100 90 101 91 102 67 103 68 104
REMARK SMILES IDX 77 105 69 106 70 107 76 108 78 109 71 110 72 111 73 112
REMARK SMILES IDX 74 113 75 114
REMARK H PARENT 32 6 18 11 23 37 37 45 99 64 65 75
REMARK Flexibility Score: inf
ROOT
ATOM      1  C   UNL     1      -5.459  -1.213  -9.350  1.00  0.00     0.023 C 
ENDROOT
BRANCH   1   2
ATOM      2  C   UNL     1      -5.072  -2.124  -8.221  1.00  0.00     0.116 C 
BRANCH   2   3
ATOM      3  N   UNL     1      -5.170  -3.542  -8.436  1.00  0.00    -0.354 N 
ATOM      4  C   UNL     1      -4.510  -4.479  -7.684  1.00  0.00     0.242 C 
ATOM      5  O   UNL     1      -4.913  -5.645  -7.686  1.00  0.00    -0.273 OA
ATOM      6  H   UNL     1      -5.746  -3.860  -9.168  1.00  0.00     0.163 HD
BRANCH   4   7
ATOM      7  C   UNL     1      -3.304  -4.055  -6.820  1.00  0.00     0.175 C 
BRANCH   7   8
ATOM      8  N   UNL     1      -2.228  -3.534  -7.704  1.00  0.00    -0.344 N 
ATOM      9  C   UNL     1      -0.926  -3.846  -7.952  1.00  0.00     0.220 C 
ATOM     10  O   UNL     1      -0.322  -3.135  -8.762  1.00  0.00    -0.275 OA
ATOM     11  H   UNL     1      -2.534  -2.771  -8.246  1.00  0.00     0.164 HD
BRANCH   9  12
ATOM     12  C   UNL     1      -0.168  -4.977  -7.252  1.00  0.00     0.101 C 
BRANCH  12  13
ATOM     13  C   UNL     1       0.542  -4.687  -5.894  1.00  0.00     0.026 C 
BRANCH  13  14
ATOM     14  C   UNL     1      -0.347  -3.900  -4.938  1.00  0.00     0.107 C 
ATOM     15  C   UNL     1       1.108   0.200   0.793  1.00  0.00     0.048 C 
ATOM     16  C   UNL     1       0.762   0.590  -0.588  1.00  0.00    -0.005 A 
ATOM     17  C   UNL     1       0.741   1.866  -1.115  1.00  0.00     0.199 A 
ATOM     18  C   UNL     1       0.515  -0.293  -1.677  1.00  0.00     0.024 A 
ATOM     19  O   UNL     1       0.591   1.829  -2.460  1.00  0.00    -0.464 OA
ATOM     20  C   UNL     1       0.533   0.518  -2.806  1.00  0.00     0.137 A 
ATOM     21  C   UNL     1       0.355  -1.692  -1.826  1.00  0.00     0.020 A 
ATOM     22  C   UNL     1       0.563   0.042  -4.097  1.00  0.00     0.095 A 
ATOM     23  C   UNL     1       0.349  -2.234  -3.115  1.00  0.00    -0.001 A 
ATOM     24  C   UNL     1       0.563  -1.349  -4.196  1.00  0.00     0.138 A 
ATOM     25  C   UNL     1       0.000  -3.704  -3.430  1.00  0.00     0.034 C 
ATOM     26  O   UNL     1       0.729  -1.860  -5.460  1.00  0.00    -0.426 OA
ATOM     27  C   UNL     1      -1.250  -4.128  -2.611  1.00  0.00     0.014 C 
ATOM     28  C   UNL     1      -0.438  -2.520  -5.490  1.00  0.00     0.314 C 
ATOM     29  O   UNL     1      -1.490  -1.992  -5.798  1.00  0.00    -0.251 OA
ENDBRANCH  13  14
ENDBRANCH  12  13
ENDBRANCH   9  12
ENDBRANCH   7   8
BRANCH   7  30
ATOM     30  C   UNL     1      -3.766  -3.295  -5.509  1.00  0.00     0.072 C 
BRANCH  30  31
ATOM     31  C   UNL     1      -4.401  -1.892  -5.361  1.00  0.00    -0.020 A 
ATOM     32  C   UNL     1      -5.600  -1.741  -4.668  1.00  0.00     0.087 A 
ATOM     33  C   UNL     1      -4.028  -0.519  -5.755  1.00  0.00     0.003 A 
ATOM     34  N   UNL     1      -5.993  -0.435  -4.694  1.00  0.00    -0.361 N 
ATOM     35  C   UNL     1      -5.074   0.327  -5.365  1.00  0.00     0.046 A 
ATOM     36  C   UNL     1      -2.979   0.126  -6.470  1.00  0.00     0.010 A 
ATOM     37  H   UNL     1      -6.821  -0.090  -4.288  1.00  0.00     0.166 HD
ATOM     38  C   UNL     1      -5.131   1.698  -5.676  1.00  0.00     0.026 A 
ATOM     39  C   UNL     1      -2.984   1.503  -6.734  1.00  0.00     0.001 A 
ATOM     40  C   UNL     1      -4.067   2.276  -6.364  1.00  0.00     0.002 A 
ENDBRANCH  30  31
ENDBRANCH   7  30
ENDBRANCH   4   7
ENDBRANCH   2   3
ENDBRANCH   1   2
BRANCH   1  41
ATOM     41  C   UNL     1      -6.947  -1.246  -9.649  1.00  0.00     0.023 C 
BRANCH  41  42
ATOM     42  C   UNL     1      -7.869  -1.030  -8.438  1.00  0.00     0.116 C 
BRANCH  42  43
ATOM     43  N   UNL     1      -7.730   0.256  -7.787  1.00  0.00    -0.352 N 
ATOM     44  C   UNL     1      -8.392   1.447  -7.929  1.00  0.00     0.251 C 
ATOM     45  H   UNL     1      -7.018   0.280  -7.107  1.00  0.00     0.163 HD
ATOM     46  O   UNL     1      -8.314   2.253  -6.999  1.00  0.00    -0.269 OA
BRANCH  44  47
ATOM     47  C   UNL     1      -9.068   1.851  -9.190  1.00  0.00     0.039 A 
ATOM     48  C   UNL     1      -9.260   1.009 -10.280  1.00  0.00     0.014 A 
ATOM     49  C   UNL     1      -9.375   3.216  -9.330  1.00  0.00     0.014 A 
ATOM     50  C   UNL     1      -9.514   1.536 -11.530  1.00  0.00     0.010 A 
ATOM     51  C   UNL     1      -9.712   3.743 -10.571  1.00  0.00     0.010 A 
ATOM     52  C   UNL     1      -9.692   2.912 -11.682  1.00  0.00    -0.014 A 
BRANCH  52  53
ATOM     53  C   UNL     1     -10.006   3.385 -13.024  1.00  0.00     0.031 A 
ATOM     54  C   UNL     1     -11.179   2.679 -13.614  1.00  0.00     0.074 A 
ATOM     55  C   UNL     1      -9.334   4.367 -13.658  1.00  0.00     0.049 A 
ATOM     56  N   UNL     1     -11.171   1.816 -14.576  1.00  0.00    -0.248 NA
ATOM     57  C   UNL     1     -12.465   2.760 -12.900  1.00  0.00     0.031 C 
ATOM     58  C   UNL     1      -8.299   5.260 -13.135  1.00  0.00     0.029 A 
ATOM     59  N   UNL     1      -9.494   4.815 -14.935  1.00  0.00    -0.354 N 
ATOM     60  C   UNL     1     -12.495   1.423 -14.748  1.00  0.00     0.074 A 
ATOM     61  C   UNL     1     -13.206   1.887 -13.586  1.00  0.00     0.031 C 
ATOM     62  C   UNL     1      -8.104   6.283 -14.002  1.00  0.00     0.029 A 
ATOM     63  C   UNL     1      -8.880   6.038 -15.205  1.00  0.00     0.049 A 
ATOM     64  H   UNL     1     -10.002   4.315 -15.614  1.00  0.00     0.167 HD
ATOM     65  C   UNL     1     -12.934   0.955 -15.948  1.00  0.00     0.037 A 
ATOM     66  C   UNL     1      -9.037   6.791 -16.328  1.00  0.00     0.037 A 
ATOM     67  C   UNL     1     -11.829   0.517 -16.764  1.00  0.00     0.049 A 
ATOM     68  C   UNL     1      -9.502   5.863 -17.395  1.00  0.00     0.074 A 
ATOM     69  C   UNL     1     -10.874  -0.475 -16.659  1.00  0.00     0.029 A 
ATOM     70  N   UNL     1     -11.360   1.392 -17.712  1.00  0.00    -0.354 N 
ATOM     71  N   UNL     1      -8.764   4.900 -17.879  1.00  0.00    -0.248 NA
ATOM     72  C   UNL     1     -10.939   5.690 -17.549  1.00  0.00     0.031 C 
ATOM     73  C   UNL     1      -9.681   0.106 -17.181  1.00  0.00     0.029 A 
ATOM     74  C   UNL     1      -9.991   1.385 -17.644  1.00  0.00     0.049 A 
ATOM     75  H   UNL     1     -11.908   1.928 -18.330  1.00  0.00     0.167 HD
ATOM     76  C   UNL     1      -9.627   3.821 -18.001  1.00  0.00     0.074 A 
ATOM     77  C   UNL     1     -10.966   4.383 -17.824  1.00  0.00     0.031 C 
ATOM     78  C   UNL     1      -9.168   2.535 -17.946  1.00  0.00     0.037 A 
BRANCH  65  79
ATOM     79  C   UNL     1     -14.289   1.280 -16.538  1.00  0.00     0.058 A 
ATOM     80  C   UNL     1     -14.646   0.711 -17.779  1.00  0.00     0.135 A 
ATOM     81  C   UNL     1     -15.104   2.349 -16.105  1.00  0.00     0.135 A 
ATOM     82  F   UNL     1     -13.951  -0.319 -18.287  1.00  0.00    -0.206 F 
ATOM     83  C   UNL     1     -15.668   1.232 -18.574  1.00  0.00     0.059 A 
ATOM     84  C   UNL     1     -16.156   2.853 -16.860  1.00  0.00     0.059 A 
ATOM     85  F   UNL     1     -14.869   3.023 -14.973  1.00  0.00    -0.206 F 
ATOM     86  C   UNL     1     -16.404   2.318 -18.111  1.00  0.00     0.060 A 
BRANCH  86  87
ATOM     87  S   UNL     1     -17.651   3.057 -19.178  1.00  0.00     0.124 S 
ATOM     88  O   UNL     1     -16.832   3.583 -20.264  1.00  0.00    -0.237 OA
ATOM     89  O   UNL     1     -18.484   1.904 -19.504  1.00  0.00    -0.237 OA
ATOM     90  O   UNL     1     -18.280   4.055 -18.319  1.00  0.00    -0.744 OA
ENDBRANCH  86  87
ENDBRANCH  65  79
BRANCH  66  91
ATOM     91  C   UNL     1      -9.255   8.267 -16.418  1.00  0.00     0.058 A 
ATOM     92  C   UNL     1      -9.281   8.930 -17.662  1.00  0.00     0.135 A 
ATOM     93  C   UNL     1      -9.746   9.003 -15.322  1.00  0.00     0.135 A 
ATOM     94  F   UNL     1      -8.851   8.304 -18.768  1.00  0.00    -0.206 F 
ATOM     95  C   UNL     1      -9.813  10.219 -17.818  1.00  0.00     0.059 A 
ATOM     96  C   UNL     1     -10.277  10.288 -15.452  1.00  0.00     0.059 A 
ATOM     97  F   UNL     1      -9.811   8.458 -14.099  1.00  0.00    -0.206 F 
ATOM     98  C   UNL     1     -10.334  10.881 -16.708  1.00  0.00     0.060 A 
BRANCH  98  99
ATOM     99  S   UNL     1     -11.182  12.467 -16.924  1.00  0.00     0.124 S 
ATOM    100  O   UNL     1     -10.090  13.343 -17.335  1.00  0.00    -0.237 OA
ATOM    101  O   UNL     1     -12.167  12.153 -17.954  1.00  0.00    -0.237 OA
ATOM    102  O   UNL     1     -11.735  12.741 -15.600  1.00  0.00    -0.744 OA
ENDBRANCH  98  99
ENDBRANCH  66  91
BRANCH  78 103
ATOM    103  C   UNL     1      -7.681   2.299 -18.014  1.00  0.00     0.058 A 
ATOM    104  C   UNL     1      -6.759   2.695 -17.026  1.00  0.00     0.135 A 
ATOM    105  C   UNL     1      -7.199   1.482 -19.047  1.00  0.00     0.135 A 
ATOM    106  F   UNL     1      -7.156   3.397 -15.955  1.00  0.00    -0.206 F 
ATOM    107  C   UNL     1      -5.414   2.316 -17.083  1.00  0.00     0.059 A 
ATOM    108  C   UNL     1      -5.873   1.068 -19.107  1.00  0.00     0.059 A 
ATOM    109  F   UNL     1      -8.042   1.022 -19.986  1.00  0.00    -0.206 F 
ATOM    110  C   UNL     1      -4.982   1.497 -18.127  1.00  0.00     0.060 A 
BRANCH 110 111
ATOM    111  S   UNL     1      -3.261   0.946 -18.169  1.00  0.00     0.124 S 
ATOM    112  O   UNL     1      -2.545   2.192 -18.420  1.00  0.00    -0.237 OA
ATOM    113  O   UNL     1      -3.084   0.367 -16.840  1.00  0.00    -0.237 OA
ATOM    114  O   UNL     1      -3.237  -0.018 -19.267  1.00  0.00    -0.744 OA
ENDBRANCH 110 111
ENDBRANCH  78 103
ENDBRANCH  52  53
ENDBRANCH  44  47
ENDBRANCH  42  43
ENDBRANCH  41  42
ENDBRANCH   1  41
TORSDOF 20
