REMARK SMILES CC(C)Nc1ncc(C(=O)N2CCC[C@H](c3cccc(C(=O)NCCCCNC(=O)c4ccc(-c5c6nc(c(-c7c(F)cc(S(=O)(=O)[O-])cc7F)c7ccc([nH]7)c(-c7c(F)cc(S(=O)(=O)[O-])cc7F)c7nc(c(-c8c(F)cc(S(=O)(=O)[O-])cc8F)c8ccc5[nH]8)C=C7)C=C6)cc4)c3)C2)cn1
REMARK SMILES IDX 24 1 23 2 21 3 22 4 20 6 16 7 17 8 97 9 18 10 19 11 15 12
REMARK SMILES IDX 11 13 12 14 98 15 13 16 14 17 9 18 10 19 8 20 5 21 6 22
REMARK SMILES IDX 100 23 7 24 99 25 4 26 2 28 1 29 3 30 25 31 26 32 27 33
REMARK SMILES IDX 28 34 29 35 30 37 31 38 32 39 96 40 33 41 95 42 34 43 35 44
REMARK SMILES IDX 36 45 89 46 37 47 94 48 88 49 90 50 38 51 93 52 87 53 86 54
REMARK SMILES IDX 39 56 73 57 52 58 72 59 53 60 56 61 71 62 91 63 54 64 55 65
REMARK SMILES IDX 70 67 92 68 57 69 40 70 41 71 50 72 42 73 43 74 49 75 51 76
REMARK SMILES IDX 44 77 45 78 46 79 47 80 48 81 74 82 75 83 84 84 76 85 77 86
REMARK SMILES IDX 83 87 85 88 78 89 79 90 80 91 81 92 82 93 58 94 59 95 68 96
REMARK SMILES IDX 60 97 61 98 67 99 69 100 62 101 63 102 64 103 65 104 66 105
REMARK H PARENT 23 5 4 27 28 36 90 55 56 66
REMARK Flexibility Score: inf
ROOT
ATOM      1  C   UNL     1      -6.358  -4.063  10.650  1.00  0.00     0.116 C 
ENDROOT
BRANCH   1   2
ATOM      2  N   UNL     1      -5.485  -3.539  11.691  1.00  0.00    -0.352 N 
ATOM      3  C   UNL     1      -4.432  -2.647  11.644  1.00  0.00     0.251 C 
ATOM      4  O   UNL     1      -3.843  -2.371  12.688  1.00  0.00    -0.269 OA
ATOM      5  H   UNL     1      -5.681  -3.883  12.593  1.00  0.00     0.163 HD
BRANCH   3   6
ATOM      6  C   UNL     1      -3.942  -2.067  10.363  1.00  0.00     0.040 A 
ATOM      7  C   UNL     1      -4.316  -1.583   7.990  1.00  0.00    -0.042 A 
ATOM      8  C   UNL     1      -2.937  -1.377   7.852  1.00  0.00     0.004 A 
ATOM      9  C   UNL     1      -4.797  -1.807   9.291  1.00  0.00     0.018 A 
ATOM     10  C   UNL     1      -2.082  -1.446   8.960  1.00  0.00     0.001 A 
ATOM     11  C   UNL     1      -2.577  -1.828  10.206  1.00  0.00     0.014 A 
BRANCH   7  12
ATOM     12  C   UNL     1      -5.259  -1.776   6.793  1.00  0.00     0.039 C 
ATOM     13  N   UNL     1      -5.027   0.349   5.527  1.00  0.00    -0.338 N 
ATOM     14  C   UNL     1      -6.349   0.822   5.927  1.00  0.00     0.120 C 
ATOM     15  C   UNL     1      -4.833  -1.102   5.468  1.00  0.00     0.128 C 
ATOM     16  C   UNL     1      -6.869   0.133   7.180  1.00  0.00     0.022 C 
ATOM     17  C   UNL     1      -6.732  -1.382   7.052  1.00  0.00     0.012 C 
BRANCH  13  18
ATOM     18  C   UNL     1      -4.025   1.279   5.296  1.00  0.00     0.257 C 
ATOM     19  O   UNL     1      -3.946   2.348   5.895  1.00  0.00    -0.269 OA
BRANCH  18  20
ATOM     20  C   UNL     1      -3.096   1.051   4.179  1.00  0.00     0.076 A 
ATOM     21  C   UNL     1      -1.508   0.977   1.969  1.00  0.00     0.222 A 
ATOM     22  N   UNL     1      -2.719   0.407   1.895  1.00  0.00    -0.221 NA
ATOM     23  N   UNL     1      -1.025   1.565   3.074  1.00  0.00    -0.221 NA
ATOM     24  C   UNL     1      -3.489   0.458   3.002  1.00  0.00     0.130 A 
ATOM     25  C   UNL     1      -1.844   1.615   4.152  1.00  0.00     0.130 A 
BRANCH  21  26
ATOM     26  N   UNL     1      -0.784   0.944   0.813  1.00  0.00    -0.352 N 
ATOM     27  H   UNL     1      -1.262   0.799  -0.035  1.00  0.00     0.163 HD
BRANCH  26  28
ATOM     28  C   UNL     1       0.648   1.111   0.776  1.00  0.00     0.076 C 
ATOM     29  C   UNL     1       1.236  -0.063  -0.006  1.00  0.00     0.030 C 
ATOM     30  C   UNL     1       1.000   2.435   0.106  1.00  0.00     0.030 C 
ENDBRANCH  26  28
ENDBRANCH  21  26
ENDBRANCH  18  20
ENDBRANCH  13  18
ENDBRANCH   7  12
ENDBRANCH   3   6
ENDBRANCH   1   2
BRANCH   1  31
ATOM     31  C   UNL     1      -6.485  -5.579  10.617  1.00  0.00     0.023 C 
BRANCH  31  32
ATOM     32  C   UNL     1      -7.160  -6.229  11.816  1.00  0.00     0.023 C 
BRANCH  32  33
ATOM     33  C   UNL     1      -8.501  -5.639  12.232  1.00  0.00     0.116 C 
BRANCH  33  34
ATOM     34  N   UNL     1      -9.487  -5.593  11.163  1.00  0.00    -0.352 N 
ATOM     35  C   UNL     1     -10.815  -5.959  11.180  1.00  0.00     0.251 C 
ATOM     36  H   UNL     1      -9.157  -5.249  10.302  1.00  0.00     0.163 HD
ATOM     37  O   UNL     1     -11.470  -5.910  10.148  1.00  0.00    -0.269 OA
BRANCH  35  38
ATOM     38  C   UNL     1     -11.432  -6.450  12.435  1.00  0.00     0.039 A 
ATOM     39  C   UNL     1     -12.240  -7.589  12.386  1.00  0.00     0.014 A 
ATOM     40  C   UNL     1     -11.202  -5.809  13.655  1.00  0.00     0.014 A 
ATOM     41  C   UNL     1     -12.757  -8.123  13.569  1.00  0.00     0.010 A 
ATOM     42  C   UNL     1     -11.641  -6.394  14.839  1.00  0.00     0.010 A 
ATOM     43  C   UNL     1     -12.432  -7.551  14.810  1.00  0.00    -0.014 A 
BRANCH  43  44
ATOM     44  C   UNL     1     -12.930  -8.138  16.082  1.00  0.00     0.031 A 
ATOM     45  C   UNL     1     -13.849  -7.342  16.971  1.00  0.00     0.074 A 
ATOM     46  C   UNL     1     -12.518  -9.364  16.462  1.00  0.00     0.049 A 
ATOM     47  N   UNL     1     -14.366  -7.667  18.129  1.00  0.00    -0.248 NA
ATOM     48  C   UNL     1     -14.212  -5.991  16.513  1.00  0.00     0.031 C 
ATOM     49  C   UNL     1     -11.579 -10.211  15.721  1.00  0.00     0.029 A 
ATOM     50  N   UNL     1     -12.833 -10.113  17.568  1.00  0.00    -0.354 N 
ATOM     51  C   UNL     1     -15.099  -6.560  18.541  1.00  0.00     0.074 A 
ATOM     52  C   UNL     1     -14.908  -5.532  17.542  1.00  0.00     0.031 C 
ATOM     53  C   UNL     1     -11.422 -11.373  16.376  1.00  0.00     0.029 A 
ATOM     54  C   UNL     1     -12.223 -11.345  17.596  1.00  0.00     0.049 A 
ATOM     55  H   UNL     1     -13.440  -9.797  18.277  1.00  0.00     0.167 HD
ATOM     56  C   UNL     1     -15.886  -6.420  19.634  1.00  0.00     0.037 A 
ATOM     57  C   UNL     1     -12.307 -12.343  18.497  1.00  0.00     0.037 A 
ATOM     58  C   UNL     1     -16.097  -7.457  20.610  1.00  0.00     0.049 A 
ATOM     59  C   UNL     1     -13.210 -12.177  19.690  1.00  0.00     0.074 A 
ATOM     60  C   UNL     1     -16.914  -7.436  21.727  1.00  0.00     0.029 A 
ATOM     61  N   UNL     1     -15.490  -8.704  20.583  1.00  0.00    -0.354 N 
ATOM     62  N   UNL     1     -13.946 -11.146  20.031  1.00  0.00    -0.248 NA
ATOM     63  C   UNL     1     -13.306 -13.316  20.613  1.00  0.00     0.031 C 
ATOM     64  C   UNL     1     -16.775  -8.659  22.393  1.00  0.00     0.029 A 
ATOM     65  C   UNL     1     -15.908  -9.459  21.666  1.00  0.00     0.049 A 
ATOM     66  H   UNL     1     -14.856  -9.008  19.894  1.00  0.00     0.167 HD
ATOM     67  C   UNL     1     -14.618 -11.524  21.188  1.00  0.00     0.074 A 
ATOM     68  C   UNL     1     -14.209 -12.883  21.482  1.00  0.00     0.031 C 
ATOM     69  C   UNL     1     -15.498 -10.814  21.937  1.00  0.00     0.037 A 
BRANCH  56  70
ATOM     70  C   UNL     1     -16.586  -5.101  19.821  1.00  0.00     0.058 A 
ATOM     71  C   UNL     1     -17.631  -4.697  18.973  1.00  0.00     0.135 A 
ATOM     72  C   UNL     1     -16.224  -4.238  20.867  1.00  0.00     0.135 A 
ATOM     73  F   UNL     1     -18.008  -5.475  17.946  1.00  0.00    -0.206 F 
ATOM     74  C   UNL     1     -18.265  -3.469  19.132  1.00  0.00     0.059 A 
ATOM     75  C   UNL     1     -16.865  -3.018  21.064  1.00  0.00     0.059 A 
ATOM     76  F   UNL     1     -15.233  -4.573  21.708  1.00  0.00    -0.206 F 
ATOM     77  C   UNL     1     -17.873  -2.635  20.179  1.00  0.00     0.060 A 
BRANCH  77  78
ATOM     78  S   UNL     1     -18.703  -1.044  20.370  1.00  0.00     0.124 S 
ATOM     79  O   UNL     1     -18.125  -0.281  19.267  1.00  0.00    -0.237 OA
ATOM     80  O   UNL     1     -20.109  -1.404  20.221  1.00  0.00    -0.237 OA
ATOM     81  O   UNL     1     -18.308  -0.612  21.707  1.00  0.00    -0.744 OA
ENDBRANCH  77  78
ENDBRANCH  56  70
BRANCH  57  82
ATOM     82  C   UNL     1     -11.553 -13.607  18.282  1.00  0.00     0.058 A 
ATOM     83  C   UNL     1     -12.219 -14.794  17.941  1.00  0.00     0.135 A 
ATOM     84  C   UNL     1     -10.156 -13.655  18.404  1.00  0.00     0.135 A 
ATOM     85  F   UNL     1     -13.555 -14.800  17.817  1.00  0.00    -0.206 F 
ATOM     86  C   UNL     1     -11.532 -15.988  17.748  1.00  0.00     0.059 A 
ATOM     87  C   UNL     1      -9.443 -14.832  18.192  1.00  0.00     0.059 A 
ATOM     88  F   UNL     1      -9.469 -12.544  18.711  1.00  0.00    -0.206 F 
ATOM     89  C   UNL     1     -10.142 -15.996  17.875  1.00  0.00     0.060 A 
BRANCH  89  90
ATOM     90  S   UNL     1      -9.255 -17.541  17.576  1.00  0.00     0.124 S 
ATOM     91  O   UNL     1      -9.569 -18.298  18.783  1.00  0.00    -0.237 OA
ATOM     92  O   UNL     1      -9.874 -18.018  16.343  1.00  0.00    -0.237 OA
ATOM     93  O   UNL     1      -7.867 -17.109  17.444  1.00  0.00    -0.744 OA
ENDBRANCH  89  90
ENDBRANCH  57  82
BRANCH  69  94
ATOM     94  C   UNL     1     -16.113 -11.510  23.120  1.00  0.00     0.058 A 
ATOM     95  C   UNL     1     -15.377 -11.791  24.281  1.00  0.00     0.135 A 
ATOM     96  C   UNL     1     -17.469 -11.876  23.098  1.00  0.00     0.135 A 
ATOM     97  F   UNL     1     -14.077 -11.464  24.352  1.00  0.00    -0.206 F 
ATOM     98  C   UNL     1     -15.953 -12.444  25.366  1.00  0.00     0.059 A 
ATOM     99  C   UNL     1     -18.073 -12.504  24.182  1.00  0.00     0.059 A 
ATOM    100  F   UNL     1     -18.223 -11.618  22.017  1.00  0.00    -0.206 F 
ATOM    101  C   UNL     1     -17.302 -12.800  25.305  1.00  0.00     0.060 A 
BRANCH 101 102
ATOM    102  S   UNL     1     -18.043 -13.640  26.721  1.00  0.00     0.124 S 
ATOM    103  O   UNL     1     -17.509 -14.990  26.572  1.00  0.00    -0.237 OA
ATOM    104  O   UNL     1     -17.523 -12.873  27.849  1.00  0.00    -0.237 OA
ATOM    105  O   UNL     1     -19.477 -13.502  26.485  1.00  0.00    -0.744 OA
ENDBRANCH 101 102
ENDBRANCH  69  94
ENDBRANCH  43  44
ENDBRANCH  35  38
ENDBRANCH  33  34
ENDBRANCH  32  33
ENDBRANCH  31  32
ENDBRANCH   1  31
TORSDOF 19
