REMARK SMILES NC(=O)c1ccsc1NS(=O)(=O)c1ccc(C(=O)NCCCCNC(=O)c2ccc(-c3c4nc(c(-c5c(F)cc(S(=O)(=O)[O-])cc5F)c5ccc([nH]5)c(-c5c(F)cc(S(=O)(=O)[O-])cc5F)c5nc(c(-c6c(F)cc(S(=O)(=O)[O-])cc6F)c6ccc3[nH]6)C=C5)C=C4)cc2)cc1
REMARK SMILES IDX 21 1 20 2 19 3 17 4 18 5 16 7 13 8 14 9 94 10 15 11 93 12
REMARK SMILES IDX 10 13 11 14 12 15 9 16 8 18 4 19 5 20 6 21 7 22 2 23 1 24
REMARK SMILES IDX 3 27 22 28 23 29 24 30 25 31 26 33 27 34 28 35 92 36 29 37
REMARK SMILES IDX 91 38 30 39 31 40 32 41 85 42 33 43 90 44 84 45 86 46 34 47
REMARK SMILES IDX 89 48 83 49 82 50 35 52 69 53 48 54 68 55 49 56 52 57 67 58
REMARK SMILES IDX 87 59 50 60 51 61 66 63 88 64 53 65 36 66 37 67 46 68 38 69
REMARK SMILES IDX 39 70 45 71 47 72 40 73 41 74 42 75 43 76 44 77 70 78 71 79
REMARK SMILES IDX 80 80 72 81 73 82 79 83 81 84 74 85 75 86 76 87 77 88 78 89
REMARK SMILES IDX 54 90 55 91 64 92 56 93 57 94 63 95 65 96 58 97 59 98 60 99
REMARK SMILES IDX 61 100 62 101
REMARK H PARENT 19 6 9 17 1 25 1 26 24 32 86 51 52 62
REMARK Flexibility Score: inf
ROOT
ATOM      1  C   UNL     1       3.552   8.240  -7.785  1.00  0.00     0.023 C 
ENDROOT
BRANCH   1   2
ATOM      2  C   UNL     1       2.597   7.335  -8.567  1.00  0.00     0.116 C 
BRANCH   2   3
ATOM      3  N   UNL     1       3.140   5.997  -8.715  1.00  0.00    -0.352 N 
ATOM      4  C   UNL     1       2.779   4.816  -8.119  1.00  0.00     0.251 C 
ATOM      5  O   UNL     1       3.306   3.770  -8.495  1.00  0.00    -0.269 OA
ATOM      6  H   UNL     1       3.892   5.926  -9.347  1.00  0.00     0.163 HD
BRANCH   4   7
ATOM      7  C   UNL     1       1.758   4.752  -7.041  1.00  0.00     0.039 A 
ATOM      8  C   UNL     1      -0.038   4.413  -4.926  1.00  0.00     0.087 A 
ATOM      9  C   UNL     1      -0.002   3.464  -5.951  1.00  0.00     0.023 A 
ATOM     10  C   UNL     1       0.771   5.554  -4.980  1.00  0.00     0.023 A 
ATOM     11  C   UNL     1       0.910   3.631  -7.000  1.00  0.00     0.015 A 
ATOM     12  C   UNL     1       1.687   5.703  -6.019  1.00  0.00     0.015 A 
BRANCH   8  13
ATOM     13  S   UNL     1      -1.049   4.165  -3.493  1.00  0.00     0.262 S 
ATOM     14  O   UNL     1      -2.358   3.785  -3.987  1.00  0.00    -0.201 OA
ATOM     15  O   UNL     1      -0.905   5.327  -2.640  1.00  0.00    -0.201 OA
BRANCH  13  16
ATOM     16  N   UNL     1      -0.486   2.851  -2.636  1.00  0.00    -0.270 N 
ATOM     17  H   UNL     1      -1.119   2.457  -1.992  1.00  0.00     0.181 HD
BRANCH  16  18
ATOM     18  C   UNL     1       0.792   2.221  -2.712  1.00  0.00     0.115 A 
ATOM     19  C   UNL     1       1.025   1.008  -2.072  1.00  0.00     0.074 A 
ATOM     20  C   UNL     1       2.280   0.438  -2.490  1.00  0.00     0.028 A 
ATOM     21  C   UNL     1       2.995   1.286  -3.301  1.00  0.00     0.068 A 
ATOM     22  S   UNL     1       2.216   2.792  -3.447  1.00  0.00    -0.125 S 
BRANCH  19  23
ATOM     23  C   UNL     1       0.083   0.403  -1.139  1.00  0.00     0.251 C 
ATOM     24  N   UNL     1       0.653  -0.333  -0.140  1.00  0.00    -0.366 N 
ATOM     25  H   UNL     1       0.085  -0.775   0.531  1.00  0.00     0.159 HD
ATOM     26  H   UNL     1       1.632  -0.422  -0.092  1.00  0.00     0.159 HD
ATOM     27  O   UNL     1      -1.129   0.584  -1.186  1.00  0.00    -0.269 OA
ENDBRANCH  19  23
ENDBRANCH  16  18
ENDBRANCH  13  16
ENDBRANCH   8  13
ENDBRANCH   4   7
ENDBRANCH   2   3
ENDBRANCH   1   2
BRANCH   1  28
ATOM     28  C   UNL     1       4.744   8.758  -8.593  1.00  0.00     0.023 C 
BRANCH  28  29
ATOM     29  C   UNL     1       4.384   9.629  -9.791  1.00  0.00     0.116 C 
BRANCH  29  30
ATOM     30  N   UNL     1       3.591  10.797  -9.436  1.00  0.00    -0.352 N 
ATOM     31  C   UNL     1       3.588  12.036 -10.032  1.00  0.00     0.251 C 
ATOM     32  H   UNL     1       2.980  10.686  -8.673  1.00  0.00     0.163 HD
ATOM     33  O   UNL     1       2.936  12.954  -9.545  1.00  0.00    -0.269 OA
BRANCH  31  34
ATOM     34  C   UNL     1       4.412  12.258 -11.238  1.00  0.00     0.039 A 
ATOM     35  C   UNL     1       5.277  13.355 -11.269  1.00  0.00     0.014 A 
ATOM     36  C   UNL     1       4.362  11.364 -12.310  1.00  0.00     0.014 A 
ATOM     37  C   UNL     1       6.145  13.515 -12.351  1.00  0.00     0.010 A 
ATOM     38  C   UNL     1       5.273  11.489 -13.354  1.00  0.00     0.010 A 
ATOM     39  C   UNL     1       6.175  12.563 -13.383  1.00  0.00    -0.014 A 
BRANCH  39  40
ATOM     40  C   UNL     1       7.149  12.668 -14.498  1.00  0.00     0.031 A 
ATOM     41  C   UNL     1       6.663  12.883 -15.905  1.00  0.00     0.074 A 
ATOM     42  C   UNL     1       8.463  12.499 -14.251  1.00  0.00     0.049 A 
ATOM     43  N   UNL     1       7.350  12.925 -17.017  1.00  0.00    -0.248 NA
ATOM     44  C   UNL     1       5.212  13.043 -16.088  1.00  0.00     0.031 C 
ATOM     45  C   UNL     1       9.050  12.231 -12.936  1.00  0.00     0.029 A 
ATOM     46  N   UNL     1       9.543  12.513 -15.098  1.00  0.00    -0.354 N 
ATOM     47  C   UNL     1       6.416  13.102 -18.032  1.00  0.00     0.074 A 
ATOM     48  C   UNL     1       5.111  13.107 -17.408  1.00  0.00     0.031 C 
ATOM     49  C   UNL     1      10.383  12.126 -13.061  1.00  0.00     0.029 A 
ATOM     50  C   UNL     1      10.743  12.284 -14.467  1.00  0.00     0.049 A 
ATOM     51  H   UNL     1       9.466  12.673 -16.066  1.00  0.00     0.167 HD
ATOM     52  C   UNL     1       6.630  13.268 -19.359  1.00  0.00     0.037 A 
ATOM     53  C   UNL     1      11.992  12.203 -14.966  1.00  0.00     0.037 A 
ATOM     54  C   UNL     1       7.934  13.290 -19.968  1.00  0.00     0.049 A 
ATOM     55  C   UNL     1      12.205  12.402 -16.442  1.00  0.00     0.074 A 
ATOM     56  C   UNL     1       8.260  13.511 -21.294  1.00  0.00     0.029 A 
ATOM     57  N   UNL     1       9.128  13.085 -19.291  1.00  0.00    -0.354 N 
ATOM     58  N   UNL     1      11.315  12.631 -17.378  1.00  0.00    -0.248 NA
ATOM     59  C   UNL     1      13.590  12.338 -16.929  1.00  0.00     0.031 C 
ATOM     60  C   UNL     1       9.649  13.403 -21.427  1.00  0.00     0.029 A 
ATOM     61  C   UNL     1      10.191  13.159 -20.175  1.00  0.00     0.049 A 
ATOM     62  H   UNL     1       9.207  12.912 -18.325  1.00  0.00     0.167 HD
ATOM     63  C   UNL     1      12.035  12.765 -18.561  1.00  0.00     0.074 A 
ATOM     64  C   UNL     1      13.433  12.602 -18.219  1.00  0.00     0.031 C 
ATOM     65  C   UNL     1      11.579  13.003 -19.815  1.00  0.00     0.037 A 
BRANCH  52  66
ATOM     66  C   UNL     1       5.425  13.448 -20.240  1.00  0.00     0.058 A 
ATOM     67  C   UNL     1       4.659  14.625 -20.206  1.00  0.00     0.135 A 
ATOM     68  C   UNL     1       5.048  12.449 -21.151  1.00  0.00     0.135 A 
ATOM     69  F   UNL     1       4.965  15.606 -19.342  1.00  0.00    -0.206 F 
ATOM     70  C   UNL     1       3.545  14.792 -21.022  1.00  0.00     0.059 A 
ATOM     71  C   UNL     1       3.954  12.606 -21.997  1.00  0.00     0.059 A 
ATOM     72  F   UNL     1       5.745  11.304 -21.225  1.00  0.00    -0.206 F 
ATOM     73  C   UNL     1       3.200  13.776 -21.914  1.00  0.00     0.060 A 
BRANCH  73  74
ATOM     74  S   UNL     1       1.754  14.010 -22.969  1.00  0.00     0.124 S 
ATOM     75  O   UNL     1       0.665  13.825 -22.014  1.00  0.00    -0.237 OA
ATOM     76  O   UNL     1       1.942  15.371 -23.459  1.00  0.00    -0.237 OA
ATOM     77  O   UNL     1       1.893  12.960 -23.973  1.00  0.00    -0.744 OA
ENDBRANCH  73  74
ENDBRANCH  52  66
BRANCH  53  78
ATOM     78  C   UNL     1      13.141  11.947 -14.057  1.00  0.00     0.058 A 
ATOM     79  C   UNL     1      14.068  12.959 -13.765  1.00  0.00     0.135 A 
ATOM     80  C   UNL     1      13.329  10.694 -13.453  1.00  0.00     0.135 A 
ATOM     81  F   UNL     1      13.933  14.171 -14.323  1.00  0.00    -0.206 F 
ATOM     82  C   UNL     1      15.151  12.734 -12.921  1.00  0.00     0.059 A 
ATOM     83  C   UNL     1      14.390  10.452 -12.586  1.00  0.00     0.059 A 
ATOM     84  F   UNL     1      12.459   9.698 -13.685  1.00  0.00    -0.206 F 
ATOM     85  C   UNL     1      15.303  11.477 -12.335  1.00  0.00     0.060 A 
BRANCH  85  86
ATOM     86  S   UNL     1      16.685  11.209 -11.204  1.00  0.00     0.124 S 
ATOM     87  O   UNL     1      17.808  11.121 -12.130  1.00  0.00    -0.237 OA
ATOM     88  O   UNL     1      16.636  12.406 -10.370  1.00  0.00    -0.237 OA
ATOM     89  O   UNL     1      16.326   9.967 -10.525  1.00  0.00    -0.744 OA
ENDBRANCH  85  86
ENDBRANCH  53  78
BRANCH  65  90
ATOM     90  C   UNL     1      12.601  13.135 -20.909  1.00  0.00     0.058 A 
ATOM     91  C   UNL     1      13.282  12.020 -21.420  1.00  0.00     0.135 A 
ATOM     92  C   UNL     1      12.861  14.387 -21.489  1.00  0.00     0.135 A 
ATOM     93  F   UNL     1      13.074  10.802 -20.895  1.00  0.00    -0.206 F 
ATOM     94  C   UNL     1      14.201  12.144 -22.456  1.00  0.00     0.059 A 
ATOM     95  C   UNL     1      13.757  14.531 -22.544  1.00  0.00     0.059 A 
ATOM     96  F   UNL     1      12.228  15.484 -21.043  1.00  0.00    -0.206 F 
ATOM     97  C   UNL     1      14.431  13.404 -23.013  1.00  0.00     0.060 A 
BRANCH  97  98
ATOM     98  S   UNL     1      15.597  13.546 -24.384  1.00  0.00     0.124 S 
ATOM     99  O   UNL     1      16.877  13.425 -23.693  1.00  0.00    -0.237 OA
ATOM    100  O   UNL     1      15.225  12.418 -25.232  1.00  0.00    -0.237 OA
ATOM    101  O   UNL     1      15.307  14.864 -24.941  1.00  0.00    -0.744 OA
ENDBRANCH  97  98
ENDBRANCH  65  90
ENDBRANCH  39  40
ENDBRANCH  31  34
ENDBRANCH  29  30
ENDBRANCH  28  29
ENDBRANCH   1  28
TORSDOF 18
