REMARK SMILES Cc1ccc(NC(=O)C[N@H+]2CCC[C@@H](C(=O)NCCCCNC(=O)c3ccc(-c4c5nc(c(-c6c(F)cc(S(=O)(=O)[O-])cc6F)c6ccc([nH]6)c(-c6c(F)cc(S(=O)(=O)[O-])cc6F)c6nc(c(-c7c(F)cc(S(=O)(=O)[O-])cc7F)c7ccc4[nH]7)C=C6)C=C5)cc3)C2)cc1F
REMARK SMILES IDX 19 1 18 2 17 3 15 4 16 5 14 7 10 8 11 9 91 10 12 12 13 13
REMARK SMILES IDX 9 14 7 15 6 16 8 18 5 19 1 20 2 21 3 22 93 23 4 24 92 25
REMARK SMILES IDX 94 26 20 27 21 28 22 29 23 30 24 32 25 33 26 34 90 35 27 36
REMARK SMILES IDX 89 37 28 38 29 39 30 40 83 41 31 42 88 43 82 44 84 45 32 46
REMARK SMILES IDX 87 47 81 48 80 49 33 51 67 52 46 53 66 54 47 55 50 56 65 57
REMARK SMILES IDX 85 58 48 59 49 60 64 62 86 63 51 64 34 65 35 66 44 67 36 68
REMARK SMILES IDX 37 69 43 70 45 71 38 72 39 73 40 74 41 75 42 76 68 77 69 78
REMARK SMILES IDX 78 79 70 80 71 81 77 82 79 83 72 84 73 85 74 86 75 87 76 88
REMARK SMILES IDX 52 89 53 90 62 91 54 92 55 93 61 94 63 95 56 96 57 97 58 98
REMARK SMILES IDX 59 99 60 100
REMARK H PARENT 17 6 10 11 6 17 22 31 84 50 50 61
REMARK Flexibility Score: inf
ROOT
ATOM      1  C   UNL     1       1.492   1.683  -2.433  1.00  0.00     0.023 C 
ENDROOT
BRANCH   1   2
ATOM      2  C   UNL     1       0.220   0.899  -2.088  1.00  0.00     0.116 C 
BRANCH   2   3
ATOM      3  N   UNL     1      -0.666   0.727  -3.231  1.00  0.00    -0.356 N 
ATOM      4  C   UNL     1      -1.109  -0.412  -3.842  1.00  0.00     0.228 C 
ATOM      5  O   UNL     1      -1.884  -0.298  -4.793  1.00  0.00    -0.275 OA
ATOM      6  H   UNL     1      -0.998   1.566  -3.626  1.00  0.00     0.163 HD
BRANCH   4   7
ATOM      7  C   UNL     1      -0.667  -1.775  -3.326  1.00  0.00     0.133 C 
ATOM      8  N   UNL     1      -1.134  -3.499  -1.590  1.00  0.00    -0.326 N 
ATOM      9  C   UNL     1      -1.103  -4.556  -2.621  1.00  0.00     0.262 C 
ATOM     10  C   UNL     1      -1.581  -2.218  -2.171  1.00  0.00     0.276 C 
ATOM     11  H   UNL     1      -0.200  -3.292  -1.236  1.00  0.00     0.348 HD
ATOM     12  C   UNL     1      -0.269  -4.178  -3.847  1.00  0.00     0.062 C 
ATOM     13  C   UNL     1      -0.707  -2.838  -4.426  1.00  0.00     0.025 C 
BRANCH   8  14
ATOM     14  C   UNL     1      -1.912  -3.990  -0.415  1.00  0.00     0.363 C 
BRANCH  14  15
ATOM     15  C   UNL     1      -2.927  -3.038   0.209  1.00  0.00     0.279 C 
ATOM     16  N   UNL     1      -2.601  -1.897   0.881  1.00  0.00    -0.321 N 
ATOM     17  H   UNL     1      -3.387  -1.410   1.220  1.00  0.00     0.170 HD
ATOM     18  O   UNL     1      -4.135  -3.293   0.100  1.00  0.00    -0.268 OA
BRANCH  16  19
ATOM     19  C   UNL     1      -1.384  -1.268   1.193  1.00  0.00     0.044 A 
ATOM     20  C   UNL     1       2.210   1.042   1.839  1.00  0.00     0.047 C 
ATOM     21  C   UNL     1       0.962   0.235   1.661  1.00  0.00    -0.015 A 
ATOM     22  C   UNL     1      -0.295   0.833   1.774  1.00  0.00     0.008 A 
ATOM     23  C   UNL     1       1.019  -1.124   1.369  1.00  0.00     0.128 A 
ATOM     24  C   UNL     1      -1.457   0.089   1.540  1.00  0.00     0.026 A 
ATOM     25  C   UNL     1      -0.134  -1.874   1.147  1.00  0.00     0.065 A 
ATOM     26  F   UNL     1       2.206  -1.743   1.282  1.00  0.00    -0.207 F 
ENDBRANCH  16  19
ENDBRANCH  14  15
ENDBRANCH   8  14
ENDBRANCH   4   7
ENDBRANCH   2   3
ENDBRANCH   1   2
BRANCH   1  27
ATOM     27  C   UNL     1       1.297   3.157  -2.817  1.00  0.00     0.023 C 
BRANCH  27  28
ATOM     28  C   UNL     1       0.723   4.045  -1.726  1.00  0.00     0.116 C 
BRANCH  28  29
ATOM     29  N   UNL     1       1.580   4.161  -0.555  1.00  0.00    -0.352 N 
ATOM     30  C   UNL     1       1.645   5.395   0.092  1.00  0.00     0.251 C 
ATOM     31  H   UNL     1       2.099   3.391  -0.230  1.00  0.00     0.163 HD
ATOM     32  O   UNL     1       2.428   6.264  -0.238  1.00  0.00    -0.269 OA
BRANCH  30  33
ATOM     33  C   UNL     1       0.523   5.652   1.050  1.00  0.00     0.039 A 
ATOM     34  C   UNL     1       0.382   6.902   1.668  1.00  0.00     0.014 A 
ATOM     35  C   UNL     1      -0.514   4.721   1.125  1.00  0.00     0.014 A 
ATOM     36  C   UNL     1      -0.846   7.260   2.235  1.00  0.00     0.010 A 
ATOM     37  C   UNL     1      -1.733   5.086   1.630  1.00  0.00     0.010 A 
ATOM     38  C   UNL     1      -1.917   6.367   2.150  1.00  0.00    -0.014 A 
BRANCH  38  39
ATOM     39  C   UNL     1      -3.316   6.700   2.394  1.00  0.00     0.031 A 
ATOM     40  C   UNL     1      -4.009   7.700   1.559  1.00  0.00     0.074 A 
ATOM     41  C   UNL     1      -4.003   5.909   3.243  1.00  0.00     0.049 A 
ATOM     42  N   UNL     1      -5.100   8.302   1.890  1.00  0.00    -0.248 NA
ATOM     43  C   UNL     1      -3.511   8.099   0.247  1.00  0.00     0.031 C 
ATOM     44  C   UNL     1      -5.439   5.779   3.431  1.00  0.00     0.029 A 
ATOM     45  N   UNL     1      -3.463   5.140   4.261  1.00  0.00    -0.354 N 
ATOM     46  C   UNL     1      -5.597   8.927   0.763  1.00  0.00     0.074 A 
ATOM     47  C   UNL     1      -4.529   8.839  -0.207  1.00  0.00     0.031 C 
ATOM     48  C   UNL     1      -5.663   5.214   4.634  1.00  0.00     0.029 A 
ATOM     49  C   UNL     1      -4.375   5.120   5.313  1.00  0.00     0.049 A 
ATOM     50  H   UNL     1      -2.589   4.688   4.244  1.00  0.00     0.167 HD
ATOM     51  C   UNL     1      -6.910   9.309   0.734  1.00  0.00     0.037 A 
ATOM     52  C   UNL     1      -4.046   5.791   6.462  1.00  0.00     0.037 A 
ATOM     53  C   UNL     1      -7.557   8.994   2.011  1.00  0.00     0.049 A 
ATOM     54  C   UNL     1      -4.953   6.973   6.715  1.00  0.00     0.074 A 
ATOM     55  C   UNL     1      -8.325   7.912   2.413  1.00  0.00     0.029 A 
ATOM     56  N   UNL     1      -7.166   9.652   3.175  1.00  0.00    -0.354 N 
ATOM     57  N   UNL     1      -5.618   7.605   5.785  1.00  0.00    -0.248 NA
ATOM     58  C   UNL     1      -5.221   7.495   8.050  1.00  0.00     0.031 C 
ATOM     59  C   UNL     1      -8.303   7.861   3.829  1.00  0.00     0.029 A 
ATOM     60  C   UNL     1      -7.550   8.928   4.290  1.00  0.00     0.049 A 
ATOM     61  H   UNL     1      -6.685  10.510   3.200  1.00  0.00     0.167 HD
ATOM     62  C   UNL     1      -6.397   8.573   6.360  1.00  0.00     0.074 A 
ATOM     63  C   UNL     1      -6.118   8.459   7.781  1.00  0.00     0.031 C 
ATOM     64  C   UNL     1      -7.227   9.382   5.636  1.00  0.00     0.037 A 
BRANCH  51  65
ATOM     65  C   UNL     1      -7.679   9.655  -0.534  1.00  0.00     0.058 A 
ATOM     66  C   UNL     1      -9.066   9.396  -0.637  1.00  0.00     0.135 A 
ATOM     67  C   UNL     1      -7.107  10.205  -1.700  1.00  0.00     0.135 A 
ATOM     68  F   UNL     1      -9.781   8.973   0.414  1.00  0.00    -0.206 F 
ATOM     69  C   UNL     1      -9.792   9.552  -1.822  1.00  0.00     0.059 A 
ATOM     70  C   UNL     1      -7.800  10.324  -2.914  1.00  0.00     0.059 A 
ATOM     71  F   UNL     1      -5.864  10.702  -1.695  1.00  0.00    -0.206 F 
ATOM     72  C   UNL     1      -9.143   9.983  -2.969  1.00  0.00     0.060 A 
BRANCH  72  73
ATOM     73  S   UNL     1     -10.082  10.110  -4.504  1.00  0.00     0.124 S 
ATOM     74  O   UNL     1     -10.618   8.759  -4.651  1.00  0.00    -0.237 OA
ATOM     75  O   UNL     1     -11.056  11.147  -4.182  1.00  0.00    -0.237 OA
ATOM     76  O   UNL     1      -9.073  10.485  -5.491  1.00  0.00    -0.744 OA
ENDBRANCH  72  73
ENDBRANCH  51  65
BRANCH  52  77
ATOM     77  C   UNL     1      -2.568   5.740   6.737  1.00  0.00     0.058 A 
ATOM     78  C   UNL     1      -2.019   4.466   6.999  1.00  0.00     0.135 A 
ATOM     79  C   UNL     1      -1.700   6.717   6.218  1.00  0.00     0.135 A 
ATOM     80  F   UNL     1      -2.795   3.498   7.514  1.00  0.00    -0.206 F 
ATOM     81  C   UNL     1      -0.747   4.112   6.559  1.00  0.00     0.059 A 
ATOM     82  C   UNL     1      -0.413   6.383   5.777  1.00  0.00     0.059 A 
ATOM     83  F   UNL     1      -2.146   7.959   5.978  1.00  0.00    -0.206 F 
ATOM     84  C   UNL     1       0.014   5.057   5.872  1.00  0.00     0.060 A 
BRANCH  84  85
ATOM     85  S   UNL     1       1.463   4.470   4.957  1.00  0.00     0.124 S 
ATOM     86  O   UNL     1       2.181   3.702   5.968  1.00  0.00    -0.237 OA
ATOM     87  O   UNL     1       0.843   3.674   3.897  1.00  0.00    -0.237 OA
ATOM     88  O   UNL     1       2.117   5.697   4.520  1.00  0.00    -0.744 OA
ENDBRANCH  84  85
ENDBRANCH  52  77
BRANCH  64  89
ATOM     89  C   UNL     1      -7.905  10.616   6.175  1.00  0.00     0.058 A 
ATOM     90  C   UNL     1      -7.354  11.421   7.187  1.00  0.00     0.135 A 
ATOM     91  C   UNL     1      -9.086  11.112   5.574  1.00  0.00     0.135 A 
ATOM     92  F   UNL     1      -6.173  11.124   7.750  1.00  0.00    -0.206 F 
ATOM     93  C   UNL     1      -7.971  12.588   7.633  1.00  0.00     0.059 A 
ATOM     94  C   UNL     1      -9.685  12.308   5.961  1.00  0.00     0.059 A 
ATOM     95  F   UNL     1      -9.692  10.456   4.572  1.00  0.00    -0.206 F 
ATOM     96  C   UNL     1      -9.137  13.025   7.014  1.00  0.00     0.060 A 
BRANCH  96  97
ATOM     97  S   UNL     1      -9.902  14.566   7.544  1.00  0.00     0.124 S 
ATOM     98  O   UNL     1     -10.814  14.095   8.581  1.00  0.00    -0.237 OA
ATOM     99  O   UNL     1      -8.762  15.348   8.016  1.00  0.00    -0.237 OA
ATOM    100  O   UNL     1     -10.529  15.063   6.324  1.00  0.00    -0.744 OA
ENDBRANCH  96  97
ENDBRANCH  64  89
ENDBRANCH  38  39
ENDBRANCH  30  33
ENDBRANCH  28  29
ENDBRANCH  27  28
ENDBRANCH   1  27
TORSDOF 17
