REMARK SMILES Cc1nc(S(=O)(=O)N[C@H]2C=C[C@H](C(=O)NCCCCNC(=O)c3ccc(-c4c5nc(c(-c6c(F)cc(S(=O)(=O)[O-])cc6F)c6ccc([nH]6)c(-c6c(F)cc(S(=O)(=O)[O-])cc6F)c6nc(c(-c7c(F)cc(S(=O)(=O)[O-])cc7F)c7ccc4[nH]7)C=C6)C=C5)cc3)C2)cn1C
REMARK SMILES IDX 17 1 16 2 15 3 13 4 14 5 12 7 9 8 10 9 89 10 11 11 8 12 5 14
REMARK SMILES IDX 6 15 7 16 4 17 1 18 2 19 3 20 91 21 90 22 92 23 18 24 19 25
REMARK SMILES IDX 20 26 21 27 22 29 23 30 24 31 88 32 25 33 87 34 26 35 27 36
REMARK SMILES IDX 28 37 81 38 29 39 86 40 80 41 82 42 30 43 85 44 79 45 78 46
REMARK SMILES IDX 31 48 65 49 44 50 64 51 45 52 48 53 63 54 83 55 46 56 47 57
REMARK SMILES IDX 62 59 84 60 49 61 32 62 33 63 42 64 34 65 35 66 41 67 43 68
REMARK SMILES IDX 36 69 37 70 38 71 39 72 40 73 66 74 67 75 76 76 68 77 69 78
REMARK SMILES IDX 75 79 77 80 70 81 71 82 72 83 73 84 74 85 50 86 51 87 60 88
REMARK SMILES IDX 52 89 53 90 59 91 61 92 54 93 55 94 56 95 57 96 58 97
REMARK H PARENT 15 6 8 13 20 28 82 47 48 58
REMARK Flexibility Score: inf
ROOT
ATOM      1  C   UNL     1       1.475   6.996   0.476  1.00  0.00     0.023 C 
ENDROOT
BRANCH   1   2
ATOM      2  C   UNL     1       2.760   7.075   1.300  1.00  0.00     0.116 C 
BRANCH   2   3
ATOM      3  N   UNL     1       2.642   6.382   2.572  1.00  0.00    -0.356 N 
ATOM      4  C   UNL     1       3.312   5.277   3.024  1.00  0.00     0.226 C 
ATOM      5  O   UNL     1       3.065   4.866   4.157  1.00  0.00    -0.274 OA
ATOM      6  H   UNL     1       1.986   6.763   3.199  1.00  0.00     0.163 HD
BRANCH   4   7
ATOM      7  C   UNL     1       4.327   4.607   2.093  1.00  0.00     0.103 C 
ATOM      8  C   UNL     1       3.701   2.350   1.348  1.00  0.00     0.093 C 
ATOM      9  C   UNL     1       4.822   2.314   2.325  1.00  0.00    -0.011 C 
ATOM     10  C   UNL     1       3.621   3.837   0.972  1.00  0.00     0.042 C 
ATOM     11  C   UNL     1       5.146   3.539   2.755  1.00  0.00    -0.016 C 
BRANCH   8  12
ATOM     12  N   UNL     1       4.034   1.594   0.144  1.00  0.00    -0.203 NA
ATOM     13  H   UNL     1       3.663   2.112  -0.653  1.00  0.00     0.142 HD
BRANCH  12  14
ATOM     14  S   UNL     1       3.457   0.011   0.031  1.00  0.00     0.260 S 
ATOM     15  O   UNL     1       3.796  -0.661   1.266  1.00  0.00    -0.205 OA
ATOM     16  O   UNL     1       3.895  -0.478  -1.259  1.00  0.00    -0.205 OA
BRANCH  14  17
ATOM     17  C   UNL     1       1.714   0.017  -0.046  1.00  0.00     0.188 A 
ATOM     18  C   UNL     1      -1.493  -1.631   0.026  1.00  0.00     0.088 C 
ATOM     19  C   UNL     1      -0.314  -0.730  -0.017  1.00  0.00     0.106 A 
ATOM     20  N   UNL     1       0.942  -1.129   0.031  1.00  0.00    -0.221 NA
ATOM     21  N   UNL     1      -0.379   0.641  -0.109  1.00  0.00    -0.337 N 
ATOM     22  C   UNL     1       0.899   1.125  -0.171  1.00  0.00     0.129 A 
ATOM     23  C   UNL     1      -1.577   1.448  -0.111  1.00  0.00     0.151 C 
ENDBRANCH  14  17
ENDBRANCH  12  14
ENDBRANCH   8  12
ENDBRANCH   4   7
ENDBRANCH   2   3
ENDBRANCH   1   2
BRANCH   1  24
ATOM     24  C   UNL     1       0.258   7.681   1.103  1.00  0.00     0.023 C 
BRANCH  24  25
ATOM     25  C   UNL     1       0.435   9.158   1.438  1.00  0.00     0.116 C 
BRANCH  25  26
ATOM     26  N   UNL     1       0.738   9.974   0.274  1.00  0.00    -0.352 N 
ATOM     27  C   UNL     1       0.233  11.204  -0.076  1.00  0.00     0.251 C 
ATOM     28  H   UNL     1       1.396   9.593  -0.351  1.00  0.00     0.163 HD
ATOM     29  O   UNL     1       0.514  11.689  -1.168  1.00  0.00    -0.269 OA
BRANCH  27  30
ATOM     30  C   UNL     1      -0.674  11.922   0.847  1.00  0.00     0.039 A 
ATOM     31  C   UNL     1      -1.847  12.487   0.338  1.00  0.00     0.014 A 
ATOM     32  C   UNL     1      -0.378  12.033   2.209  1.00  0.00     0.014 A 
ATOM     33  C   UNL     1      -2.756  13.101   1.204  1.00  0.00     0.010 A 
ATOM     34  C   UNL     1      -1.312  12.588   3.079  1.00  0.00     0.010 A 
ATOM     35  C   UNL     1      -2.512  13.125   2.587  1.00  0.00    -0.014 A 
BRANCH  35  36
ATOM     36  C   UNL     1      -3.494  13.705   3.539  1.00  0.00     0.031 A 
ATOM     37  C   UNL     1      -3.133  14.923   4.344  1.00  0.00     0.074 A 
ATOM     38  C   UNL     1      -4.677  13.091   3.738  1.00  0.00     0.049 A 
ATOM     39  N   UNL     1      -3.803  15.509   5.302  1.00  0.00    -0.248 NA
ATOM     40  C   UNL     1      -1.834  15.547   4.049  1.00  0.00     0.031 C 
ATOM     41  C   UNL     1      -5.130  11.881   3.049  1.00  0.00     0.029 A 
ATOM     42  N   UNL     1      -5.709  13.392   4.591  1.00  0.00    -0.354 N 
ATOM     43  C   UNL     1      -3.000  16.555   5.741  1.00  0.00     0.074 A 
ATOM     44  C   UNL     1      -1.775  16.497   4.971  1.00  0.00     0.031 C 
ATOM     45  C   UNL     1      -6.354  11.553   3.496  1.00  0.00     0.029 A 
ATOM     46  C   UNL     1      -6.757  12.505   4.527  1.00  0.00     0.049 A 
ATOM     47  H   UNL     1      -5.700  14.171   5.194  1.00  0.00     0.167 HD
ATOM     48  C   UNL     1      -3.265  17.490   6.685  1.00  0.00     0.037 A 
ATOM     49  C   UNL     1      -7.909  12.458   5.224  1.00  0.00     0.037 A 
ATOM     50  C   UNL     1      -4.497  17.564   7.426  1.00  0.00     0.049 A 
ATOM     51  C   UNL     1      -8.188  13.513   6.259  1.00  0.00     0.074 A 
ATOM     52  C   UNL     1      -4.881  18.503   8.368  1.00  0.00     0.029 A 
ATOM     53  N   UNL     1      -5.547  16.666   7.306  1.00  0.00    -0.354 N 
ATOM     54  N   UNL     1      -7.434  14.519   6.632  1.00  0.00    -0.248 NA
ATOM     55  C   UNL     1      -9.474  13.429   6.964  1.00  0.00     0.031 C 
ATOM     56  C   UNL     1      -6.153  18.157   8.838  1.00  0.00     0.029 A 
ATOM     57  C   UNL     1      -6.576  17.023   8.163  1.00  0.00     0.049 A 
ATOM     58  H   UNL     1      -5.560  15.889   6.702  1.00  0.00     0.167 HD
ATOM     59  C   UNL     1      -8.165  15.204   7.596  1.00  0.00     0.074 A 
ATOM     60  C   UNL     1      -9.423  14.500   7.745  1.00  0.00     0.031 C 
ATOM     61  C   UNL     1      -7.826  16.317   8.291  1.00  0.00     0.037 A 
BRANCH  48  62
ATOM     62  C   UNL     1      -2.197  18.509   6.963  1.00  0.00     0.058 A 
ATOM     63  C   UNL     1      -1.891  19.524   6.042  1.00  0.00     0.135 A 
ATOM     64  C   UNL     1      -1.473  18.476   8.166  1.00  0.00     0.135 A 
ATOM     65  F   UNL     1      -2.542  19.591   4.870  1.00  0.00    -0.206 F 
ATOM     66  C   UNL     1      -0.878  20.445   6.285  1.00  0.00     0.059 A 
ATOM     67  C   UNL     1      -0.472  19.404   8.441  1.00  0.00     0.059 A 
ATOM     68  F   UNL     1      -1.726  17.529   9.082  1.00  0.00    -0.206 F 
ATOM     69  C   UNL     1      -0.169  20.372   7.484  1.00  0.00     0.060 A 
BRANCH  69  70
ATOM     70  S   UNL     1       1.160  21.559   7.778  1.00  0.00     0.124 S 
ATOM     71  O   UNL     1       2.224  21.012   6.941  1.00  0.00    -0.237 OA
ATOM     72  O   UNL     1       0.572  22.812   7.315  1.00  0.00    -0.237 OA
ATOM     73  O   UNL     1       1.383  21.468   9.217  1.00  0.00    -0.744 OA
ENDBRANCH  69  70
ENDBRANCH  48  62
BRANCH  49  74
ATOM     74  C   UNL     1      -8.898  11.386   4.942  1.00  0.00     0.058 A 
ATOM     75  C   UNL     1     -10.085  11.671   4.251  1.00  0.00     0.135 A 
ATOM     76  C   UNL     1      -8.668  10.057   5.330  1.00  0.00     0.135 A 
ATOM     77  F   UNL     1     -10.351  12.928   3.866  1.00  0.00    -0.206 F 
ATOM     78  C   UNL     1     -11.013  10.678   3.958  1.00  0.00     0.059 A 
ATOM     79  C   UNL     1      -9.572   9.043   5.032  1.00  0.00     0.059 A 
ATOM     80  F   UNL     1      -7.539   9.732   5.980  1.00  0.00    -0.206 F 
ATOM     81  C   UNL     1     -10.745   9.364   4.350  1.00  0.00     0.060 A 
BRANCH  81  82
ATOM     82  S   UNL     1     -11.923   8.069   3.904  1.00  0.00     0.124 S 
ATOM     83  O   UNL     1     -12.992   8.301   4.867  1.00  0.00    -0.237 OA
ATOM     84  O   UNL     1     -12.230   8.397   2.515  1.00  0.00    -0.237 OA
ATOM     85  O   UNL     1     -11.155   6.842   4.093  1.00  0.00    -0.744 OA
ENDBRANCH  81  82
ENDBRANCH  49  74
BRANCH  61  86
ATOM     86  C   UNL     1      -8.842  16.868   9.251  1.00  0.00     0.058 A 
ATOM     87  C   UNL     1      -9.084  16.264  10.494  1.00  0.00     0.135 A 
ATOM     88  C   UNL     1      -9.538  18.049   8.946  1.00  0.00     0.135 A 
ATOM     89  F   UNL     1      -8.449  15.130  10.829  1.00  0.00    -0.206 F 
ATOM     90  C   UNL     1      -9.995  16.803  11.396  1.00  0.00     0.059 A 
ATOM     91  C   UNL     1     -10.438  18.616   9.842  1.00  0.00     0.059 A 
ATOM     92  F   UNL     1      -9.335  18.669   7.773  1.00  0.00    -0.206 F 
ATOM     93  C   UNL     1     -10.667  17.980  11.062  1.00  0.00     0.060 A 
BRANCH  93  94
ATOM     94  S   UNL     1     -11.816  18.695  12.257  1.00  0.00     0.124 S 
ATOM     95  O   UNL     1     -12.978  17.826  12.102  1.00  0.00    -0.237 OA
ATOM     96  O   UNL     1     -11.087  18.561  13.514  1.00  0.00    -0.237 OA
ATOM     97  O   UNL     1     -11.988  20.065  11.783  1.00  0.00    -0.744 OA
ENDBRANCH  93  94
ENDBRANCH  61  86
ENDBRANCH  35  36
ENDBRANCH  27  30
ENDBRANCH  25  26
ENDBRANCH  24  25
ENDBRANCH   1  24
TORSDOF 17
