REMARK SMILES O=C(NCCCCNC(=O)c1ccc(-c2c3nc(c(-c4c(F)cc(S(=O)(=O)[O-])cc4F)c4ccc([nH]4)c(-c4c(F)cc(S(=O)(=O)[O-])cc4F)c4nc(c(-c5c(F)cc(S(=O)(=O)[O-])cc5F)c5ccc2[nH]5)C=C4)C=C3)cc1)C1=Cc2cc(S(F)(F)(F)(F)F)ccc2O[C@H]1C(F)(F)F
REMARK SMILES IDX 6 1 5 2 4 3 3 4 1 5 2 6 77 8 78 9 92 10 79 11 91 12 80 13
REMARK SMILES IDX 90 14 81 15 89 16 88 17 93 18 94 19 95 20 96 21 82 22 83 23
REMARK SMILES IDX 84 24 85 25 86 26 87 27 7 28 8 29 9 30 10 32 11 33 12 34
REMARK SMILES IDX 76 35 13 36 75 37 14 38 15 39 16 40 69 41 17 42 74 43 68 44
REMARK SMILES IDX 70 45 18 46 73 47 67 48 66 49 19 51 53 52 32 53 52 54 33 55
REMARK SMILES IDX 36 56 51 57 71 58 34 59 35 60 50 62 72 63 37 64 20 65 21 66
REMARK SMILES IDX 30 67 22 68 23 69 29 70 31 71 24 72 25 73 26 74 27 75 28 76
REMARK SMILES IDX 54 77 55 78 64 79 56 80 57 81 63 82 65 83 58 84 59 85 60 86
REMARK SMILES IDX 61 87 62 88 38 89 39 90 48 91 40 92 41 93 47 94 49 95 42 96
REMARK SMILES IDX 43 97 44 98 45 99 46 100
REMARK H PARENT 3 7 8 31 70 50 36 61
REMARK Flexibility Score: inf
ROOT
ATOM      1  C   UNL     1       4.530  -3.676  -0.098  1.00  0.00     0.023 C 
ENDROOT
BRANCH   1   2
ATOM      2  C   UNL     1       5.037  -2.354   0.454  1.00  0.00     0.023 C 
BRANCH   2   3
ATOM      3  C   UNL     1       4.530  -1.214  -0.416  1.00  0.00     0.116 C 
BRANCH   3   4
ATOM      4  N   UNL     1       3.060  -1.214  -0.416  1.00  0.00    -0.352 N 
ATOM      5  O   UNL     1       1.054  -0.040   0.074  1.00  0.00    -0.270 OA
ATOM      6  C   UNL     1       2.325  -0.040   0.074  1.00  0.00     0.251 C 
ATOM      7  H   UNL     1       2.568  -2.001  -0.744  1.00  0.00     0.163 HD
BRANCH   6   8
ATOM      8  C   UNL     1       3.085   1.175   0.581  1.00  0.00     0.067 C 
ATOM      9  C   UNL     1       4.445   1.175   0.581  1.00  0.00     0.025 C 
ATOM     10  C   UNL     1       2.325   2.390   1.088  1.00  0.00     0.314 C 
ATOM     11  C   UNL     1       5.205  -0.040   0.074  1.00  0.00     0.019 A 
ATOM     12  O   UNL     1       3.703  -0.283  -1.751  1.00  0.00    -0.475 OA
ATOM     13  C   UNL     1       6.249  -0.486   0.868  1.00  0.00     0.036 A 
ATOM     14  C   UNL     1       4.874  -0.668  -1.047  1.00  0.00     0.128 A 
ATOM     15  C   UNL     1       7.077  -1.446   0.238  1.00  0.00     0.107 A 
ATOM     16  C   UNL     1       5.655  -1.689  -1.533  1.00  0.00     0.048 A 
ATOM     17  C   UNL     1       6.737  -2.143  -0.831  1.00  0.00     0.028 A 
BRANCH  10  18
ATOM     18  C   UNL     1       0.830   2.134   0.981  1.00  0.00     0.429 C 
ATOM     19  F   UNL     1       0.499   1.859  -0.277  1.00  0.00    -0.167 F 
ATOM     20  F   UNL     1       0.483   1.115   1.763  1.00  0.00    -0.167 F 
ATOM     21  F   UNL     1       0.195   3.233   1.377  1.00  0.00    -0.167 F 
ENDBRANCH  10  18
BRANCH  15  22
ATOM     22  S   UNL     1       8.716  -1.740   0.949  1.00  0.00     0.310 S 
ATOM     23  F   UNL     1       8.143  -1.696   2.427  1.00  0.00    -0.094 F 
ATOM     24  F   UNL     1       8.920  -0.181   1.056  1.00  0.00    -0.094 F 
ATOM     25  F   UNL     1      10.120  -1.994   1.565  1.00  0.00    -0.094 F 
ATOM     26  F   UNL     1       8.436  -3.294   0.963  1.00  0.00    -0.094 F 
ATOM     27  F   UNL     1       7.244  -1.494   0.427  1.00  0.00    -0.094 F 
ENDBRANCH  15  22
ENDBRANCH   6   8
ENDBRANCH   3   4
ENDBRANCH   2   3
ENDBRANCH   1   2
BRANCH   1  28
ATOM     28  C   UNL     1       5.037  -3.859  -1.520  1.00  0.00     0.116 C 
BRANCH  28  29
ATOM     29  N   UNL     1       6.506  -3.859  -1.520  1.00  0.00    -0.352 N 
ATOM     30  C   UNL     1       7.242  -5.034  -2.010  1.00  0.00     0.251 C 
ATOM     31  H   UNL     1       6.999  -3.073  -1.191  1.00  0.00     0.163 HD
ATOM     32  O   UNL     1       8.512  -5.034  -2.010  1.00  0.00    -0.269 OA
BRANCH  30  33
ATOM     33  C   UNL     1       6.481  -6.249  -2.517  1.00  0.00     0.039 A 
ATOM     34  C   UNL     1       6.804  -7.539  -2.128  1.00  0.00     0.014 A 
ATOM     35  C   UNL     1       5.458  -6.010  -3.328  1.00  0.00     0.014 A 
ATOM     36  C   UNL     1       6.157  -8.544  -2.886  1.00  0.00     0.010 A 
ATOM     37  C   UNL     1       4.784  -7.045  -3.928  1.00  0.00     0.010 A 
ATOM     38  C   UNL     1       5.089  -8.346  -3.636  1.00  0.00    -0.014 A 
BRANCH  38  39
ATOM     39  C   UNL     1       4.244  -9.501  -4.147  1.00  0.00     0.031 A 
ATOM     40  C   UNL     1       4.151  -9.600  -5.537  1.00  0.00     0.074 A 
ATOM     41  C   UNL     1       3.591 -10.346  -3.266  1.00  0.00     0.049 A 
ATOM     42  N   UNL     1       3.474 -10.506  -6.245  1.00  0.00    -0.248 NA
ATOM     43  C   UNL     1       4.816  -8.682  -6.474  1.00  0.00     0.031 C 
ATOM     44  C   UNL     1       3.686 -10.258  -1.863  1.00  0.00     0.029 A 
ATOM     45  N   UNL     1       2.752 -11.396  -3.567  1.00  0.00    -0.354 N 
ATOM     46  C   UNL     1       3.640 -10.287  -7.551  1.00  0.00     0.074 A 
ATOM     47  C   UNL     1       4.500  -9.108  -7.717  1.00  0.00     0.031 C 
ATOM     48  C   UNL     1       2.908 -11.234  -1.326  1.00  0.00     0.029 A 
ATOM     49  C   UNL     1       2.313 -11.948  -2.384  1.00  0.00     0.049 A 
ATOM     50  H   UNL     1       2.509 -11.700  -4.471  1.00  0.00     0.167 HD
ATOM     51  C   UNL     1       3.110 -11.027  -8.609  1.00  0.00     0.037 A 
ATOM     52  C   UNL     1       1.442 -13.013  -2.216  1.00  0.00     0.037 A 
ATOM     53  C   UNL     1       2.273 -12.119  -8.441  1.00  0.00     0.049 A 
ATOM     54  C   UNL     1       0.865 -13.717  -3.275  1.00  0.00     0.074 A 
ATOM     55  C   UNL     1       1.736 -12.880  -9.497  1.00  0.00     0.029 A 
ATOM     56  N   UNL     1       1.815 -12.655  -7.258  1.00  0.00    -0.354 N 
ATOM     57  N   UNL     1       1.062 -13.523  -4.580  1.00  0.00    -0.248 NA
ATOM     58  C   UNL     1      -0.085 -14.825  -3.110  1.00  0.00     0.031 C 
ATOM     59  C   UNL     1       0.957 -13.856  -8.959  1.00  0.00     0.029 A 
ATOM     60  C   UNL     1       0.994 -13.720  -7.558  1.00  0.00     0.049 A 
ATOM     61  H   UNL     1       2.035 -12.333  -6.354  1.00  0.00     0.167 HD
ATOM     62  C   UNL     1       0.352 -14.404  -5.288  1.00  0.00     0.074 A 
ATOM     63  C   UNL     1      -0.401 -15.250  -4.353  1.00  0.00     0.031 C 
ATOM     64  C   UNL     1       0.306 -14.539  -6.677  1.00  0.00     0.037 A 
BRANCH  51  65
ATOM     65  C   UNL     1       3.471 -10.611 -10.026  1.00  0.00     0.058 A 
ATOM     66  C   UNL     1       4.780 -10.691 -10.471  1.00  0.00     0.135 A 
ATOM     67  C   UNL     1       2.485 -10.264 -10.845  1.00  0.00     0.135 A 
ATOM     68  F   UNL     1       5.750 -11.271  -9.770  1.00  0.00    -0.206 F 
ATOM     69  C   UNL     1       4.992 -10.100 -11.739  1.00  0.00     0.059 A 
ATOM     70  C   UNL     1       2.756  -9.824 -12.118  1.00  0.00     0.059 A 
ATOM     71  F   UNL     1       1.224 -10.342 -10.429  1.00  0.00    -0.206 F 
ATOM     72  C   UNL     1       4.034  -9.820 -12.604  1.00  0.00     0.060 A 
BRANCH  72  73
ATOM     73  S   UNL     1       4.393  -9.450 -14.339  1.00  0.00     0.124 S 
ATOM     74  O   UNL     1       5.302  -8.221 -14.421  1.00  0.00    -0.237 OA
ATOM     75  O   UNL     1       5.097 -10.649 -14.981  1.00  0.00    -0.237 OA
ATOM     76  O   UNL     1       2.932  -9.135 -15.170  1.00  0.00    -0.744 OA
ENDBRANCH  72  73
ENDBRANCH  51  65
BRANCH  52  77
ATOM     77  C   UNL     1       1.095 -13.439  -0.798  1.00  0.00     0.058 A 
ATOM     78  C   UNL     1       1.293 -14.754  -0.410  1.00  0.00     0.135 A 
ATOM     79  C   UNL     1       0.513 -12.562   0.011  1.00  0.00     0.135 A 
ATOM     80  F   UNL     1       2.086 -15.593  -1.071  1.00  0.00    -0.206 F 
ATOM     81  C   UNL     1       0.577 -15.122   0.753  1.00  0.00     0.059 A 
ATOM     82  C   UNL     1      -0.048 -12.970   1.197  1.00  0.00     0.059 A 
ATOM     83  F   UNL     1       0.472 -11.277  -0.329  1.00  0.00    -0.206 F 
ATOM     84  C   UNL     1       0.059 -14.268   1.616  1.00  0.00     0.060 A 
BRANCH  84  85
ATOM     85  S   UNL     1      -0.482 -14.786   3.264  1.00  0.00     0.124 S 
ATOM     86  O   UNL     1      -1.576 -15.848   3.132  1.00  0.00    -0.237 OA
ATOM     87  O   UNL     1       0.707 -15.370   4.030  1.00  0.00    -0.237 OA
ATOM     88  O   UNL     1      -1.098 -13.435   4.112  1.00  0.00    -0.744 OA
ENDBRANCH  84  85
ENDBRANCH  52  77
BRANCH  64  89
ATOM     89  C   UNL     1      -0.552 -15.651  -7.258  1.00  0.00     0.058 A 
ATOM     90  C   UNL     1      -1.924 -15.703  -7.074  1.00  0.00     0.135 A 
ATOM     91  C   UNL     1       0.079 -16.556  -7.997  1.00  0.00     0.135 A 
ATOM     92  F   UNL     1      -2.626 -14.695  -6.563  1.00  0.00    -0.206 F 
ATOM     93  C   UNL     1      -2.511 -16.924  -7.480  1.00  0.00     0.059 A 
ATOM     94  C   UNL     1      -0.590 -17.657  -8.475  1.00  0.00     0.059 A 
ATOM     95  F   UNL     1       1.369 -16.396  -8.277  1.00  0.00    -0.206 F 
ATOM     96  C   UNL     1      -1.935 -17.803  -8.280  1.00  0.00     0.060 A 
BRANCH  96  97
ATOM     97  S   UNL     1      -2.877 -19.128  -9.077  1.00  0.00     0.124 S 
ATOM     98  O   UNL     1      -3.523 -20.009  -8.006  1.00  0.00    -0.237 OA
ATOM     99  O   UNL     1      -3.967 -18.518  -9.962  1.00  0.00    -0.237 OA
ATOM    100  O   UNL     1      -1.826 -20.075 -10.038  1.00  0.00    -0.744 OA
ENDBRANCH  96  97
ENDBRANCH  64  89
ENDBRANCH  38  39
ENDBRANCH  30  33
ENDBRANCH  28  29
ENDBRANCH   1  28
TORSDOF 16
