REMARK SMILES CC[C@@H]1CCCN(S(=O)(=O)c2cc(C(=O)NCCCCNC(=O)c3ccc(-c4c5nc(c(-c6c(F)cc(S(=O)(=O)[O-])cc6F)c6ccc([nH]6)c(-c6c(F)cc(S(=O)(=O)[O-])cc6F)c6nc(c(-c7c(F)cc(S(=O)(=O)[O-])cc7F)c7ccc4[nH]7)C=C6)C=C5)cc3)ccc2F)C1
REMARK SMILES IDX 18 1 17 2 16 3 14 4 15 5 13 7 11 8 12 9 92 10 91 11 93 12
REMARK SMILES IDX 90 13 8 14 9 15 10 16 7 17 3 18 4 19 94 20 5 21 6 22 2 23
REMARK SMILES IDX 1 24 19 25 20 26 21 27 22 28 23 30 24 31 25 32 89 33 26 34
REMARK SMILES IDX 88 35 27 36 28 37 29 38 82 39 30 40 87 41 81 42 83 43 31 44
REMARK SMILES IDX 86 45 80 46 79 47 32 49 66 50 45 51 65 52 46 53 49 54 64 55
REMARK SMILES IDX 84 56 47 57 48 58 63 60 85 61 50 62 33 63 34 64 43 65 35 66
REMARK SMILES IDX 36 67 42 68 44 69 37 70 38 71 39 72 40 73 41 74 67 75 68 76
REMARK SMILES IDX 77 77 69 78 70 79 76 80 78 81 71 82 72 83 73 84 74 85 75 86
REMARK SMILES IDX 51 87 52 88 61 89 53 90 54 91 60 92 62 93 55 94 56 95 57 96
REMARK SMILES IDX 58 97 59 98
REMARK H PARENT 16 6 21 29 83 48 49 59
REMARK Flexibility Score: inf
ROOT
ATOM      1  C   UNL     1       5.618  10.592   2.190  1.00  0.00     0.023 C 
ENDROOT
BRANCH   1   2
ATOM      2  C   UNL     1       4.812   9.432   2.779  1.00  0.00     0.116 C 
BRANCH   2   3
ATOM      3  N   UNL     1       3.438   9.469   2.323  1.00  0.00    -0.352 N 
ATOM      4  C   UNL     1       2.771   8.833   1.309  1.00  0.00     0.251 C 
ATOM      5  O   UNL     1       1.560   9.040   1.221  1.00  0.00    -0.269 OA
ATOM      6  H   UNL     1       2.866  10.074   2.848  1.00  0.00     0.163 HD
BRANCH   4   7
ATOM      7  C   UNL     1       3.406   7.907   0.320  1.00  0.00     0.041 A 
ATOM      8  C   UNL     1       3.036   6.218  -1.409  1.00  0.00     0.119 A 
ATOM      9  C   UNL     1       2.541   7.061  -0.403  1.00  0.00     0.038 A 
ATOM     10  C   UNL     1       4.390   6.226  -1.709  1.00  0.00     0.143 A 
ATOM     11  C   UNL     1       5.262   7.032  -0.990  1.00  0.00     0.041 A 
ATOM     12  F   UNL     1       4.904   5.456  -2.677  1.00  0.00    -0.206 F 
ATOM     13  C   UNL     1       4.769   7.886   0.002  1.00  0.00     0.017 A 
BRANCH   8  14
ATOM     14  S   UNL     1       1.928   5.285  -2.417  1.00  0.00     0.246 S 
ATOM     15  O   UNL     1       2.399   5.331  -3.785  1.00  0.00    -0.207 OA
ATOM     16  O   UNL     1       0.581   5.721  -2.104  1.00  0.00    -0.207 OA
BRANCH  14  17
ATOM     17  N   UNL     1       2.060   3.645  -1.867  1.00  0.00    -0.197 NA
ATOM     18  C   UNL     1       1.046   1.345  -2.022  1.00  0.00     0.004 C 
ATOM     19  C   UNL     1       2.451   0.768  -2.223  1.00  0.00     0.006 C 
ATOM     20  C   UNL     1       1.019   2.793  -2.542  1.00  0.00     0.106 C 
ATOM     21  C   UNL     1       3.488   1.625  -1.518  1.00  0.00     0.017 C 
ATOM     22  C   UNL     1       3.429   3.066  -2.008  1.00  0.00     0.102 C 
BRANCH  18  23
ATOM     23  C   UNL     1       0.523   1.278  -0.571  1.00  0.00     0.001 C 
ATOM     24  C   UNL     1       0.702  -0.077   0.097  1.00  0.00     0.004 C 
ENDBRANCH  18  23
ENDBRANCH  14  17
ENDBRANCH   8  14
ENDBRANCH   4   7
ENDBRANCH   2   3
ENDBRANCH   1   2
BRANCH   1  25
ATOM     25  C   UNL     1       5.438  11.929   2.918  1.00  0.00     0.023 C 
BRANCH  25  26
ATOM     26  C   UNL     1       5.825  11.925   4.395  1.00  0.00     0.116 C 
BRANCH  26  27
ATOM     27  N   UNL     1       7.168  11.423   4.636  1.00  0.00    -0.352 N 
ATOM     28  C   UNL     1       8.051  11.756   5.634  1.00  0.00     0.251 C 
ATOM     29  H   UNL     1       7.490  10.749   3.994  1.00  0.00     0.163 HD
ATOM     30  O   UNL     1       9.191  11.301   5.610  1.00  0.00    -0.269 OA
BRANCH  28  31
ATOM     31  C   UNL     1       7.640  12.689   6.704  1.00  0.00     0.039 A 
ATOM     32  C   UNL     1       8.519  13.711   7.069  1.00  0.00     0.014 A 
ATOM     33  C   UNL     1       6.401  12.567   7.341  1.00  0.00     0.014 A 
ATOM     34  C   UNL     1       8.131  14.642   8.033  1.00  0.00     0.010 A 
ATOM     35  C   UNL     1       5.987  13.540   8.248  1.00  0.00     0.010 A 
ATOM     36  C   UNL     1       6.848  14.585   8.606  1.00  0.00    -0.014 A 
BRANCH  36  37
ATOM     37  C   UNL     1       6.407  15.636   9.558  1.00  0.00     0.031 A 
ATOM     38  C   UNL     1       6.111  15.302  10.993  1.00  0.00     0.074 A 
ATOM     39  C   UNL     1       6.263  16.900   9.114  1.00  0.00     0.049 A 
ATOM     40  N   UNL     1       5.790  16.106  11.974  1.00  0.00    -0.248 NA
ATOM     41  C   UNL     1       6.157  13.882  11.374  1.00  0.00     0.031 C 
ATOM     42  C   UNL     1       6.453  17.332   7.727  1.00  0.00     0.029 A 
ATOM     43  N   UNL     1       5.943  18.056   9.780  1.00  0.00    -0.354 N 
ATOM     44  C   UNL     1       5.600  15.293  13.085  1.00  0.00     0.074 A 
ATOM     45  C   UNL     1       5.776  13.927  12.642  1.00  0.00     0.031 C 
ATOM     46  C   UNL     1       6.303  18.663   7.657  1.00  0.00     0.029 A 
ATOM     47  C   UNL     1       5.979  19.177   8.984  1.00  0.00     0.049 A 
ATOM     48  H   UNL     1       5.709  18.080  10.736  1.00  0.00     0.167 HD
ATOM     49  C   UNL     1       5.334  15.654  14.363  1.00  0.00     0.037 A 
ATOM     50  C   UNL     1       5.794  20.475   9.291  1.00  0.00     0.037 A 
ATOM     51  C   UNL     1       5.174  17.019  14.797  1.00  0.00     0.049 A 
ATOM     52  C   UNL     1       5.519  20.856  10.718  1.00  0.00     0.074 A 
ATOM     53  C   UNL     1       4.960  17.495  16.079  1.00  0.00     0.029 A 
ATOM     54  N   UNL     1       5.205  18.127  13.961  1.00  0.00    -0.354 N 
ATOM     55  N   UNL     1       5.415  20.081  11.772  1.00  0.00    -0.248 NA
ATOM     56  C   UNL     1       5.346  22.286  11.001  1.00  0.00     0.031 C 
ATOM     57  C   UNL     1       4.814  18.885  16.011  1.00  0.00     0.029 A 
ATOM     58  C   UNL     1       4.990  19.282  14.695  1.00  0.00     0.049 A 
ATOM     59  H   UNL     1       5.358  18.096  12.989  1.00  0.00     0.167 HD
ATOM     60  C   UNL     1       5.173  20.929  12.846  1.00  0.00     0.074 A 
ATOM     61  C   UNL     1       5.173  22.279  12.316  1.00  0.00     0.031 C 
ATOM     62  C   UNL     1       4.968  20.619  14.150  1.00  0.00     0.037 A 
BRANCH  49  63
ATOM     63  C   UNL     1       5.213  14.558  15.388  1.00  0.00     0.058 A 
ATOM     64  C   UNL     1       3.980  14.277  15.996  1.00  0.00     0.135 A 
ATOM     65  C   UNL     1       6.328  13.807  15.798  1.00  0.00     0.135 A 
ATOM     66  F   UNL     1       2.879  14.958  15.641  1.00  0.00    -0.206 F 
ATOM     67  C   UNL     1       3.857  13.298  16.977  1.00  0.00     0.059 A 
ATOM     68  C   UNL     1       6.223  12.803  16.756  1.00  0.00     0.059 A 
ATOM     69  F   UNL     1       7.529  14.019  15.235  1.00  0.00    -0.206 F 
ATOM     70  C   UNL     1       4.984  12.564  17.349  1.00  0.00     0.060 A 
BRANCH  70  71
ATOM     71  S   UNL     1       4.798  11.261  18.585  1.00  0.00     0.124 S 
ATOM     72  O   UNL     1       4.580  12.032  19.803  1.00  0.00    -0.237 OA
ATOM     73  O   UNL     1       3.644  10.523  18.082  1.00  0.00    -0.237 OA
ATOM     74  O   UNL     1       6.068  10.543  18.513  1.00  0.00    -0.744 OA
ENDBRANCH  70  71
ENDBRANCH  49  63
BRANCH  50  75
ATOM     75  C   UNL     1       5.934  21.503   8.226  1.00  0.00     0.058 A 
ATOM     76  C   UNL     1       4.992  21.615   7.193  1.00  0.00     0.135 A 
ATOM     77  C   UNL     1       7.057  22.342   8.181  1.00  0.00     0.135 A 
ATOM     78  F   UNL     1       3.906  20.826   7.184  1.00  0.00    -0.206 F 
ATOM     79  C   UNL     1       5.176  22.496   6.133  1.00  0.00     0.059 A 
ATOM     80  C   UNL     1       7.252  23.249   7.144  1.00  0.00     0.059 A 
ATOM     81  F   UNL     1       7.980  22.278   9.153  1.00  0.00    -0.206 F 
ATOM     82  C   UNL     1       6.316  23.301   6.112  1.00  0.00     0.060 A 
BRANCH  82  83
ATOM     83  S   UNL     1       6.563  24.397   4.698  1.00  0.00     0.124 S 
ATOM     84  O   UNL     1       6.812  23.437   3.627  1.00  0.00    -0.237 OA
ATOM     85  O   UNL     1       5.289  25.105   4.634  1.00  0.00    -0.237 OA
ATOM     86  O   UNL     1       7.710  25.207   5.095  1.00  0.00    -0.744 OA
ENDBRANCH  82  83
ENDBRANCH  50  75
BRANCH  62  87
ATOM     87  C   UNL     1       4.718  21.760  15.098  1.00  0.00     0.058 A 
ATOM     88  C   UNL     1       5.675  22.112  16.063  1.00  0.00     0.135 A 
ATOM     89  C   UNL     1       3.515  22.485  15.073  1.00  0.00     0.135 A 
ATOM     90  F   UNL     1       6.839  21.448  16.138  1.00  0.00    -0.206 F 
ATOM     91  C   UNL     1       5.448  23.142  16.970  1.00  0.00     0.059 A 
ATOM     92  C   UNL     1       3.280  23.538  15.952  1.00  0.00     0.059 A 
ATOM     93  F   UNL     1       2.571  22.194  14.164  1.00  0.00    -0.206 F 
ATOM     94  C   UNL     1       4.249  23.853  16.904  1.00  0.00     0.060 A 
BRANCH  94  95
ATOM     95  S   UNL     1       3.996  25.224  18.050  1.00  0.00     0.124 S 
ATOM     96  O   UNL     1       3.764  24.524  19.308  1.00  0.00    -0.237 OA
ATOM     97  O   UNL     1       5.260  25.948  17.949  1.00  0.00    -0.237 OA
ATOM     98  O   UNL     1       2.839  25.920  17.494  1.00  0.00    -0.744 OA
ENDBRANCH  94  95
ENDBRANCH  62  87
ENDBRANCH  36  37
ENDBRANCH  28  31
ENDBRANCH  26  27
ENDBRANCH  25  26
ENDBRANCH   1  25
TORSDOF 17
