REMARK SMILES [NH3+][C@@]1(C(=O)NCCCCNC(=O)c2ccc(-c3c4nc(c(-c5c(F)cc(S(=O)(=O)[O-])cc5F)c5ccc([nH]5)c(-c5c(F)cc(S(=O)(=O)[O-])cc5F)c5nc(c(-c6c(F)cc(S(=O)(=O)[O-])cc6F)c6ccc3[nH]6)C=C5)C=C4)cc2)CCC[C@H]1CCOc1ccccc1
REMARK SMILES IDX 7 1 6 2 5 3 3 4 4 5 2 7 79 8 82 9 80 10 81 11 1 12 83 16
REMARK SMILES IDX 84 17 85 18 86 19 87 20 91 21 88 22 90 23 89 24 8 25 9 26
REMARK SMILES IDX 10 27 11 28 12 30 13 31 14 32 78 33 15 34 77 35 16 36 17 37
REMARK SMILES IDX 18 38 71 39 19 40 76 41 70 42 72 43 20 44 75 45 69 46 68 47
REMARK SMILES IDX 21 49 55 50 34 51 54 52 35 53 38 54 53 55 73 56 36 57 37 58
REMARK SMILES IDX 52 60 74 61 39 62 22 63 23 64 32 65 24 66 25 67 31 68 33 69
REMARK SMILES IDX 26 70 27 71 28 72 29 73 30 74 56 75 57 76 66 77 58 78 59 79
REMARK SMILES IDX 65 80 67 81 60 82 61 83 62 84 63 85 64 86 40 87 41 88 50 89
REMARK SMILES IDX 42 90 43 91 49 92 51 93 44 94 45 95 46 96 47 97 48 98
REMARK H PARENT 5 6 1 13 1 14 1 15 10 29 72 48 38 59
REMARK Flexibility Score: inf
ROOT
ATOM      1  C   UNL     1      -1.040  -3.035   4.160  1.00  0.00     0.023 C 
ENDROOT
BRANCH   1   2
ATOM      2  C   UNL     1      -1.112  -3.023   2.639  1.00  0.00     0.116 C 
BRANCH   2   3
ATOM      3  N   UNL     1      -1.430  -1.734   2.072  1.00  0.00    -0.351 N 
ATOM      4  C   UNL     1      -0.763  -0.961   1.171  1.00  0.00     0.281 C 
ATOM      5  O   UNL     1      -1.326   0.092   0.836  1.00  0.00    -0.268 OA
ATOM      6  H   UNL     1      -2.277  -1.347   2.392  1.00  0.00     0.163 HD
BRANCH   4   7
ATOM      7  C   UNL     1       0.673  -1.307   0.593  1.00  0.00     0.176 C 
ATOM      8  C   UNL     1       0.732  -2.647  -0.162  1.00  0.00     0.079 C 
ATOM      9  C   UNL     1       1.728  -1.383   1.735  1.00  0.00     0.064 C 
ATOM     10  C   UNL     1       1.583  -3.618   0.637  1.00  0.00     0.008 C 
ATOM     11  C   UNL     1       2.333  -2.803   1.676  1.00  0.00     0.011 C 
BRANCH   7  12
ATOM     12  N   UNL     1       0.944  -0.299  -0.464  1.00  0.00    -0.345 N 
ATOM     13  H   UNL     1       0.199  -0.329  -1.160  1.00  0.00     0.345 HD
ATOM     14  H   UNL     1       1.837  -0.507  -0.911  1.00  0.00     0.345 HD
ATOM     15  H   UNL     1       0.981   0.630  -0.046  1.00  0.00     0.345 HD
ENDBRANCH   7  12
BRANCH   9  16
ATOM     16  C   UNL     1       2.882  -0.350   1.771  1.00  0.00     0.052 C 
BRANCH  16  17
ATOM     17  C   UNL     1       2.505   1.129   1.931  1.00  0.00     0.230 C 
BRANCH  17  18
ATOM     18  O   UNL     1       2.409   1.490   3.314  1.00  0.00    -0.494 OA
BRANCH  18  19
ATOM     19  C   UNL     1       1.117   1.497   3.755  1.00  0.00     0.119 A 
ATOM     20  C   UNL     1       0.209   2.480   3.367  1.00  0.00     0.046 A 
ATOM     21  C   UNL     1       0.747   0.513   4.665  1.00  0.00     0.046 A 
ATOM     22  C   UNL     1      -1.105   2.423   3.833  1.00  0.00     0.004 A 
ATOM     23  C   UNL     1      -0.565   0.458   5.128  1.00  0.00     0.004 A 
ATOM     24  C   UNL     1      -1.496   1.400   4.697  1.00  0.00     0.000 A 
ENDBRANCH  18  19
ENDBRANCH  17  18
ENDBRANCH  16  17
ENDBRANCH   9  16
ENDBRANCH   4   7
ENDBRANCH   2   3
ENDBRANCH   1   2
BRANCH   1  25
ATOM     25  C   UNL     1      -2.380  -2.849   4.862  1.00  0.00     0.023 C 
BRANCH  25  26
ATOM     26  C   UNL     1      -3.417  -3.906   4.506  1.00  0.00     0.116 C 
BRANCH  26  27
ATOM     27  N   UNL     1      -2.964  -5.256   4.814  1.00  0.00    -0.352 N 
ATOM     28  C   UNL     1      -3.595  -6.229   5.553  1.00  0.00     0.251 C 
ATOM     29  H   UNL     1      -2.087  -5.505   4.443  1.00  0.00     0.163 HD
ATOM     30  O   UNL     1      -2.994  -7.240   5.888  1.00  0.00    -0.269 OA
BRANCH  28  31
ATOM     31  C   UNL     1      -5.003  -6.021   5.948  1.00  0.00     0.039 A 
ATOM     32  C   UNL     1      -5.386  -6.267   7.267  1.00  0.00     0.014 A 
ATOM     33  C   UNL     1      -5.927  -5.544   5.016  1.00  0.00     0.014 A 
ATOM     34  C   UNL     1      -6.691  -5.971   7.665  1.00  0.00     0.010 A 
ATOM     35  C   UNL     1      -7.193  -5.162   5.437  1.00  0.00     0.010 A 
ATOM     36  C   UNL     1      -7.593  -5.383   6.763  1.00  0.00    -0.014 A 
BRANCH  36  37
ATOM     37  C   UNL     1      -8.965  -5.002   7.180  1.00  0.00     0.031 A 
ATOM     38  C   UNL     1     -10.152  -5.643   6.511  1.00  0.00     0.074 A 
ATOM     39  C   UNL     1      -9.137  -4.034   8.103  1.00  0.00     0.049 A 
ATOM     40  N   UNL     1     -11.425  -5.396   6.680  1.00  0.00    -0.248 NA
ATOM     41  C   UNL     1      -9.875  -6.673   5.493  1.00  0.00     0.031 C 
ATOM     42  C   UNL     1      -8.059  -3.296   8.769  1.00  0.00     0.029 A 
ATOM     43  N   UNL     1     -10.281  -3.491   8.632  1.00  0.00    -0.354 N 
ATOM     44  C   UNL     1     -12.093  -6.216   5.778  1.00  0.00     0.074 A 
ATOM     45  C   UNL     1     -11.089  -6.935   5.030  1.00  0.00     0.031 C 
ATOM     46  C   UNL     1      -8.593  -2.413   9.628  1.00  0.00     0.029 A 
ATOM     47  C   UNL     1     -10.047  -2.490   9.547  1.00  0.00     0.049 A 
ATOM     48  H   UNL     1     -11.184  -3.791   8.381  1.00  0.00     0.167 HD
ATOM     49  C   UNL     1     -13.426  -6.369   5.607  1.00  0.00     0.037 A 
ATOM     50  C   UNL     1     -10.910  -1.712  10.230  1.00  0.00     0.037 A 
ATOM     51  C   UNL     1     -14.417  -5.685   6.395  1.00  0.00     0.049 A 
ATOM     52  C   UNL     1     -12.389  -1.928  10.038  1.00  0.00     0.074 A 
ATOM     53  C   UNL     1     -15.791  -5.845   6.370  1.00  0.00     0.029 A 
ATOM     54  N   UNL     1     -14.142  -4.713   7.345  1.00  0.00    -0.354 N 
ATOM     55  N   UNL     1     -13.002  -2.782   9.253  1.00  0.00    -0.248 NA
ATOM     56  C   UNL     1     -13.295  -1.084  10.830  1.00  0.00     0.031 C 
ATOM     57  C   UNL     1     -16.351  -4.925   7.260  1.00  0.00     0.029 A 
ATOM     58  C   UNL     1     -15.324  -4.240   7.888  1.00  0.00     0.049 A 
ATOM     59  H   UNL     1     -13.241  -4.404   7.595  1.00  0.00     0.167 HD
ATOM     60  C   UNL     1     -14.362  -2.599   9.481  1.00  0.00     0.074 A 
ATOM     61  C   UNL     1     -14.481  -1.568  10.490  1.00  0.00     0.031 C 
ATOM     62  C   UNL     1     -15.419  -3.225   8.907  1.00  0.00     0.037 A 
BRANCH  49  63
ATOM     63  C   UNL     1     -13.908  -7.315   4.543  1.00  0.00     0.058 A 
ATOM     64  C   UNL     1     -13.790  -8.707   4.679  1.00  0.00     0.135 A 
ATOM     65  C   UNL     1     -14.588  -6.822   3.416  1.00  0.00     0.135 A 
ATOM     66  F   UNL     1     -13.131  -9.231   5.724  1.00  0.00    -0.206 F 
ATOM     67  C   UNL     1     -14.329  -9.577   3.737  1.00  0.00     0.059 A 
ATOM     68  C   UNL     1     -15.159  -7.674   2.477  1.00  0.00     0.059 A 
ATOM     69  F   UNL     1     -14.721  -5.499   3.233  1.00  0.00    -0.206 F 
ATOM     70  C   UNL     1     -15.024  -9.051   2.646  1.00  0.00     0.060 A 
BRANCH  70  71
ATOM     71  S   UNL     1     -15.779 -10.197   1.474  1.00  0.00     0.124 S 
ATOM     72  O   UNL     1     -14.604 -10.749   0.808  1.00  0.00    -0.237 OA
ATOM     73  O   UNL     1     -16.497 -11.112   2.355  1.00  0.00    -0.237 OA
ATOM     74  O   UNL     1     -16.621  -9.336   0.649  1.00  0.00    -0.744 OA
ENDBRANCH  70  71
ENDBRANCH  49  63
BRANCH  50  75
ATOM     75  C   UNL     1     -10.411  -0.654  11.152  1.00  0.00     0.058 A 
ATOM     76  C   UNL     1     -10.624  -0.733  12.537  1.00  0.00     0.135 A 
ATOM     77  C   UNL     1      -9.742   0.479  10.661  1.00  0.00     0.135 A 
ATOM     78  F   UNL     1     -11.258  -1.795  13.057  1.00  0.00    -0.206 F 
ATOM     79  C   UNL     1     -10.237   0.291  13.396  1.00  0.00     0.059 A 
ATOM     80  C   UNL     1      -9.315   1.500  11.504  1.00  0.00     0.059 A 
ATOM     81  F   UNL     1      -9.489   0.596   9.348  1.00  0.00    -0.206 F 
ATOM     82  C   UNL     1      -9.588   1.408  12.867  1.00  0.00     0.060 A 
BRANCH  82  83
ATOM     83  S   UNL     1      -9.096   2.736  13.988  1.00  0.00     0.124 S 
ATOM     84  O   UNL     1     -10.383   3.347  14.299  1.00  0.00    -0.237 OA
ATOM     85  O   UNL     1      -8.458   2.001  15.074  1.00  0.00    -0.237 OA
ATOM     86  O   UNL     1      -8.194   3.544  13.172  1.00  0.00    -0.744 OA
ENDBRANCH  82  83
ENDBRANCH  50  75
BRANCH  62  87
ATOM     87  C   UNL     1     -16.794  -2.851   9.387  1.00  0.00     0.058 A 
ATOM     88  C   UNL     1     -17.373  -1.610   9.081  1.00  0.00     0.135 A 
ATOM     89  C   UNL     1     -17.563  -3.773  10.117  1.00  0.00     0.135 A 
ATOM     90  F   UNL     1     -16.678  -0.692   8.390  1.00  0.00    -0.206 F 
ATOM     91  C   UNL     1     -18.656  -1.285   9.506  1.00  0.00     0.059 A 
ATOM     92  C   UNL     1     -18.860  -3.482  10.521  1.00  0.00     0.059 A 
ATOM     93  F   UNL     1     -17.061  -4.979  10.424  1.00  0.00    -0.206 F 
ATOM     94  C   UNL     1     -19.393  -2.229  10.223  1.00  0.00     0.060 A 
BRANCH  94  95
ATOM     95  S   UNL     1     -21.070  -1.806  10.739  1.00  0.00     0.124 S 
ATOM     96  O   UNL     1     -20.814  -0.849  11.811  1.00  0.00    -0.237 OA
ATOM     97  O   UNL     1     -21.642  -1.251   9.517  1.00  0.00    -0.237 OA
ATOM     98  O   UNL     1     -21.630  -3.086  11.162  1.00  0.00    -0.744 OA
ENDBRANCH  94  95
ENDBRANCH  62  87
ENDBRANCH  36  37
ENDBRANCH  28  31
ENDBRANCH  26  27
ENDBRANCH  25  26
ENDBRANCH   1  25
TORSDOF 19
