REMARK SMILES CC[C@](C)(NC(=O)[C@](C)([NH3+])c1ccccc1)C(=O)NCCCCNC(=O)c1ccc(-c2c3nc(c(-c4c(F)cc(S(=O)(=O)[O-])cc4F)c4ccc([nH]4)c(-c4c(F)cc(S(=O)(=O)[O-])cc4F)c4nc(c(-c5c(F)cc(S(=O)(=O)[O-])cc5F)c5ccc2[nH]5)C=C4)C=C3)cc1
REMARK SMILES IDX 21 1 20 2 19 3 17 4 18 5 3 7 4 8 2 9 1 10 5 11 6 12 7 14
REMARK SMILES IDX 8 15 9 16 10 17 11 21 12 22 16 23 13 24 15 25 14 26 22 27
REMARK SMILES IDX 23 28 24 29 25 30 26 32 27 33 28 34 92 35 29 36 91 37 30 38
REMARK SMILES IDX 31 39 32 40 85 41 33 42 90 43 84 44 86 45 34 46 89 47 83 48
REMARK SMILES IDX 82 49 35 51 69 52 48 53 68 54 49 55 52 56 67 57 87 58 50 59
REMARK SMILES IDX 51 60 66 62 88 63 53 64 36 65 37 66 46 67 38 68 39 69 45 70
REMARK SMILES IDX 47 71 40 72 41 73 42 74 43 75 44 76 70 77 71 78 80 79 72 80
REMARK SMILES IDX 73 81 79 82 81 83 74 84 75 85 76 86 77 87 78 88 54 89 55 90
REMARK SMILES IDX 64 91 56 92 57 93 63 94 65 95 58 96 59 97 60 98 61 99 62 100
REMARK H PARENT 19 6 5 13 10 18 10 19 10 20 24 31 86 50 52 61
REMARK Flexibility Score: inf
ROOT
ATOM      1  C   UNL     1       5.851  -3.263   1.737  1.00  0.00     0.023 C 
ENDROOT
BRANCH   1   2
ATOM      2  C   UNL     1       6.292  -4.436   0.858  1.00  0.00     0.116 C 
BRANCH   2   3
ATOM      3  N   UNL     1       5.648  -5.738   0.964  1.00  0.00    -0.354 N 
ATOM      4  C   UNL     1       4.872  -6.445   0.068  1.00  0.00     0.245 C 
ATOM      5  O   UNL     1       4.998  -7.675   0.056  1.00  0.00    -0.272 OA
ATOM      6  H   UNL     1       5.792  -6.194   1.825  1.00  0.00     0.163 HD
BRANCH   4   7
ATOM      7  C   UNL     1       3.994  -5.740  -1.002  1.00  0.00     0.116 C 
ATOM      8  C   UNL     1       2.723  -6.536  -1.405  1.00  0.00     0.045 C 
BRANCH   7   9
ATOM      9  C   UNL     1       4.830  -5.696  -2.336  1.00  0.00     0.035 C 
ATOM     10  C   UNL     1       6.232  -5.112  -2.354  1.00  0.00     0.007 C 
ENDBRANCH   7   9
BRANCH   7  11
ATOM     11  N   UNL     1       3.565  -4.415  -0.530  1.00  0.00    -0.336 N 
ATOM     12  C   UNL     1       2.742  -3.980   0.462  1.00  0.00     0.286 C 
ATOM     13  H   UNL     1       3.961  -3.679  -1.049  1.00  0.00     0.164 HD
ATOM     14  O   UNL     1       2.497  -2.759   0.357  1.00  0.00    -0.267 OA
BRANCH  12  15
ATOM     15  C   UNL     1       2.066  -4.758   1.692  1.00  0.00     0.196 C 
ATOM     16  C   UNL     1       0.564  -4.894   1.356  1.00  0.00     0.096 C 
BRANCH  15  17
ATOM     17  N   UNL     1       2.075  -3.765   2.822  1.00  0.00    -0.341 N 
ATOM     18  H   UNL     1       1.657  -4.189   3.650  1.00  0.00     0.345 HD
ATOM     19  H   UNL     1       1.539  -2.940   2.555  1.00  0.00     0.345 HD
ATOM     20  H   UNL     1       3.037  -3.494   3.028  1.00  0.00     0.345 HD
ENDBRANCH  15  17
BRANCH  15  21
ATOM     21  C   UNL     1       2.652  -6.091   2.198  1.00  0.00     0.022 A 
ATOM     22  C   UNL     1       2.157  -7.338   1.780  1.00  0.00     0.011 A 
ATOM     23  C   UNL     1       3.652  -6.146   3.192  1.00  0.00     0.011 A 
ATOM     24  C   UNL     1       2.718  -8.548   2.219  1.00  0.00     0.001 A 
ATOM     25  C   UNL     1       4.227  -7.346   3.631  1.00  0.00     0.001 A 
ATOM     26  C   UNL     1       3.774  -8.551   3.122  1.00  0.00     0.000 A 
ENDBRANCH  15  21
ENDBRANCH  12  15
ENDBRANCH   7  11
ENDBRANCH   4   7
ENDBRANCH   2   3
ENDBRANCH   1   2
BRANCH   1  27
ATOM     27  C   UNL     1       5.968  -3.307   3.256  1.00  0.00     0.023 C 
BRANCH  27  28
ATOM     28  C   UNL     1       6.986  -4.257   3.852  1.00  0.00     0.116 C 
BRANCH  28  29
ATOM     29  N   UNL     1       8.322  -3.695   3.789  1.00  0.00    -0.352 N 
ATOM     30  C   UNL     1       9.136  -3.326   4.831  1.00  0.00     0.251 C 
ATOM     31  H   UNL     1       8.691  -3.562   2.886  1.00  0.00     0.163 HD
ATOM     32  O   UNL     1      10.110  -2.601   4.610  1.00  0.00    -0.269 OA
BRANCH  30  33
ATOM     33  C   UNL     1       8.845  -3.780   6.210  1.00  0.00     0.039 A 
ATOM     34  C   UNL     1       9.000  -2.883   7.269  1.00  0.00     0.014 A 
ATOM     35  C   UNL     1       8.449  -5.098   6.467  1.00  0.00     0.014 A 
ATOM     36  C   UNL     1       8.728  -3.296   8.577  1.00  0.00     0.010 A 
ATOM     37  C   UNL     1       8.104  -5.486   7.761  1.00  0.00     0.010 A 
ATOM     38  C   UNL     1       8.261  -4.596   8.834  1.00  0.00    -0.014 A 
BRANCH  38  39
ATOM     39  C   UNL     1       7.967  -5.043  10.222  1.00  0.00     0.031 A 
ATOM     40  C   UNL     1       8.778  -6.147  10.850  1.00  0.00     0.074 A 
ATOM     41  C   UNL     1       6.954  -4.478  10.910  1.00  0.00     0.049 A 
ATOM     42  N   UNL     1       8.662  -6.686  12.037  1.00  0.00    -0.248 NA
ATOM     43  C   UNL     1       9.846  -6.739  10.027  1.00  0.00     0.031 C 
ATOM     44  C   UNL     1       6.066  -3.432  10.398  1.00  0.00     0.029 A 
ATOM     45  N   UNL     1       6.497  -4.705  12.184  1.00  0.00    -0.354 N 
ATOM     46  C   UNL     1       9.635  -7.678  12.101  1.00  0.00     0.074 A 
ATOM     47  C   UNL     1      10.290  -7.709  10.812  1.00  0.00     0.031 C 
ATOM     48  C   UNL     1       5.188  -3.093  11.355  1.00  0.00     0.029 A 
ATOM     49  C   UNL     1       5.423  -3.920  12.535  1.00  0.00     0.049 A 
ATOM     50  H   UNL     1       6.899  -5.369  12.790  1.00  0.00     0.167 HD
ATOM     51  C   UNL     1       9.971  -8.472  13.147  1.00  0.00     0.037 A 
ATOM     52  C   UNL     1       4.705  -3.875  13.675  1.00  0.00     0.037 A 
ATOM     53  C   UNL     1       9.324  -8.427  14.433  1.00  0.00     0.049 A 
ATOM     54  C   UNL     1       5.088  -4.775  14.819  1.00  0.00     0.074 A 
ATOM     55  C   UNL     1       9.620  -9.157  15.570  1.00  0.00     0.029 A 
ATOM     56  N   UNL     1       8.248  -7.611  14.751  1.00  0.00    -0.354 N 
ATOM     57  N   UNL     1       6.053  -5.662  14.884  1.00  0.00    -0.248 NA
ATOM     58  C   UNL     1       4.290  -4.665  16.048  1.00  0.00     0.031 C 
ATOM     59  C   UNL     1       8.691  -8.820  16.560  1.00  0.00     0.029 A 
ATOM     60  C   UNL     1       7.853  -7.837  16.060  1.00  0.00     0.049 A 
ATOM     61  H   UNL     1       7.827  -6.966  14.138  1.00  0.00     0.167 HD
ATOM     62  C   UNL     1       5.996  -6.194  16.167  1.00  0.00     0.074 A 
ATOM     63  C   UNL     1       4.911  -5.521  16.850  1.00  0.00     0.031 C 
ATOM     64  C   UNL     1       6.772  -7.154  16.730  1.00  0.00     0.037 A 
BRANCH  51  65
ATOM     65  C   UNL     1      11.093  -9.455  12.944  1.00  0.00     0.058 A 
ATOM     66  C   UNL     1      12.424  -9.034  12.787  1.00  0.00     0.135 A 
ATOM     67  C   UNL     1      10.843 -10.837  12.938  1.00  0.00     0.135 A 
ATOM     68  F   UNL     1      12.722  -7.725  12.770  1.00  0.00    -0.206 F 
ATOM     69  C   UNL     1      13.460  -9.944  12.598  1.00  0.00     0.059 A 
ATOM     70  C   UNL     1      11.868 -11.767  12.782  1.00  0.00     0.059 A 
ATOM     71  F   UNL     1       9.591 -11.298  13.085  1.00  0.00    -0.206 F 
ATOM     72  C   UNL     1      13.171 -11.309  12.596  1.00  0.00     0.060 A 
BRANCH  72  73
ATOM     73  S   UNL     1      14.527 -12.475  12.349  1.00  0.00     0.124 S 
ATOM     74  O   UNL     1      14.829 -12.274  10.935  1.00  0.00    -0.237 OA
ATOM     75  O   UNL     1      15.533 -11.986  13.287  1.00  0.00    -0.237 OA
ATOM     76  O   UNL     1      13.934 -13.765  12.686  1.00  0.00    -0.744 OA
ENDBRANCH  72  73
ENDBRANCH  51  65
BRANCH  52  77
ATOM     77  C   UNL     1       3.561  -2.930  13.793  1.00  0.00     0.058 A 
ATOM     78  C   UNL     1       3.622  -1.819  14.648  1.00  0.00     0.135 A 
ATOM     79  C   UNL     1       2.389  -3.111  13.043  1.00  0.00     0.135 A 
ATOM     80  F   UNL     1       4.717  -1.605  15.393  1.00  0.00    -0.206 F 
ATOM     81  C   UNL     1       2.558  -0.930  14.766  1.00  0.00     0.059 A 
ATOM     82  C   UNL     1       1.322  -2.221  13.122  1.00  0.00     0.059 A 
ATOM     83  F   UNL     1       2.285  -4.150  12.199  1.00  0.00    -0.206 F 
ATOM     84  C   UNL     1       1.413  -1.138  13.995  1.00  0.00     0.060 A 
BRANCH  84  85
ATOM     85  S   UNL     1       0.058   0.050  14.119  1.00  0.00     0.124 S 
ATOM     86  O   UNL     1      -0.481  -0.256  15.440  1.00  0.00    -0.237 OA
ATOM     87  O   UNL     1       0.756   1.325  13.994  1.00  0.00    -0.237 OA
ATOM     88  O   UNL     1      -0.800  -0.300  12.991  1.00  0.00    -0.744 OA
ENDBRANCH  84  85
ENDBRANCH  52  77
BRANCH  64  89
ATOM     89  C   UNL     1       6.503  -7.513  18.166  1.00  0.00     0.058 A 
ATOM     90  C   UNL     1       5.360  -8.233  18.548  1.00  0.00     0.135 A 
ATOM     91  C   UNL     1       7.431  -7.179  19.167  1.00  0.00     0.135 A 
ATOM     92  F   UNL     1       4.439  -8.573  17.634  1.00  0.00    -0.206 F 
ATOM     93  C   UNL     1       5.135  -8.588  19.875  1.00  0.00     0.059 A 
ATOM     94  C   UNL     1       7.241  -7.551  20.494  1.00  0.00     0.059 A 
ATOM     95  F   UNL     1       8.547  -6.501  18.856  1.00  0.00    -0.206 F 
ATOM     96  C   UNL     1       6.083  -8.245  20.840  1.00  0.00     0.060 A 
BRANCH  96  97
ATOM     97  S   UNL     1       5.794  -8.744  22.551  1.00  0.00     0.124 S 
ATOM     98  O   UNL     1       4.724  -7.834  22.946  1.00  0.00    -0.237 OA
ATOM     99  O   UNL     1       5.414 -10.146  22.408  1.00  0.00    -0.237 OA
ATOM    100  O   UNL     1       7.084  -8.513  23.196  1.00  0.00    -0.744 OA
ENDBRANCH  96  97
ENDBRANCH  64  89
ENDBRANCH  38  39
ENDBRANCH  30  33
ENDBRANCH  28  29
ENDBRANCH  27  28
ENDBRANCH   1  27
TORSDOF 19
