REMARK SMILES CCOc1cc(/C=C(/F)C(=O)NCCCCNC(=O)c2ccc(-c3c4nc(c(-c5c(F)cc(S(=O)(=O)[O-])cc5F)c5ccc([nH]5)c(-c5c(F)cc(S(=O)(=O)[O-])cc5F)c5nc(c(-c6c(F)cc(S(=O)(=O)[O-])cc6F)c6ccc3[nH]6)C=C5)C=C4)cc2)ccc1O
REMARK SMILES IDX 14 1 13 2 12 3 10 4 11 5 8 7 7 8 9 9 6 10 4 11 5 12 88 13
REMARK SMILES IDX 87 14 86 15 3 16 2 17 1 18 89 19 15 21 16 22 17 23 18 24
REMARK SMILES IDX 19 26 20 27 21 28 85 29 22 30 84 31 23 32 24 33 25 34 78 35
REMARK SMILES IDX 26 36 83 37 77 38 79 39 27 40 82 41 76 42 75 43 28 45 62 46
REMARK SMILES IDX 41 47 61 48 42 49 45 50 60 51 80 52 43 53 44 54 59 56 81 57
REMARK SMILES IDX 46 58 29 59 30 60 39 61 31 62 32 63 38 64 40 65 33 66 34 67
REMARK SMILES IDX 35 68 36 69 37 70 63 71 64 72 73 73 65 74 66 75 72 76 74 77
REMARK SMILES IDX 67 78 68 79 69 80 70 81 71 82 47 83 48 84 57 85 49 86 50 87
REMARK SMILES IDX 56 88 58 89 51 90 52 91 53 92 54 93 55 94
REMARK H PARENT 12 6 89 20 17 25 79 44 45 55
REMARK Flexibility Score: inf
ROOT
ATOM      1  C   UNL     1       0.958  -5.906   7.712  1.00  0.00     0.023 C 
ENDROOT
BRANCH   1   2
ATOM      2  C   UNL     1       2.361  -5.460   7.309  1.00  0.00     0.116 C 
BRANCH   2   3
ATOM      3  N   UNL     1       2.456  -5.010   5.932  1.00  0.00    -0.350 N 
ATOM      4  C   UNL     1       2.604  -3.777   5.369  1.00  0.00     0.280 C 
ATOM      5  O   UNL     1       2.849  -3.751   4.164  1.00  0.00    -0.267 OA
ATOM      6  H   UNL     1       2.404  -5.740   5.274  1.00  0.00     0.163 HD
BRANCH   4   7
ATOM      7  C   UNL     1       2.485  -2.536   6.188  1.00  0.00     0.188 C 
ATOM      8  C   UNL     1       2.299  -1.264   5.799  1.00  0.00     0.053 C 
ATOM      9  F   UNL     1       2.631  -2.715   7.521  1.00  0.00    -0.201 F 
BRANCH   8  10
ATOM     10  C   UNL     1       2.126  -0.579   4.503  1.00  0.00    -0.019 A 
ATOM     11  C   UNL     1       1.630  -0.430   2.119  1.00  0.00     0.161 A 
ATOM     12  C   UNL     1       1.710  -1.175   3.304  1.00  0.00     0.058 A 
ATOM     13  C   UNL     1       1.882   0.942   2.150  1.00  0.00     0.157 A 
ATOM     14  C   UNL     1       2.266   1.559   3.329  1.00  0.00     0.051 A 
ATOM     15  C   UNL     1       2.397   0.803   4.492  1.00  0.00     0.012 A 
BRANCH  11  16
ATOM     16  O   UNL     1       1.618  -1.122   0.938  1.00  0.00    -0.490 OA
BRANCH  16  17
ATOM     17  C   UNL     1       0.374  -1.193   0.244  1.00  0.00     0.226 C 
ATOM     18  C   UNL     1       0.492  -0.405  -1.054  1.00  0.00     0.049 C 
ENDBRANCH  16  17
ENDBRANCH  11  16
BRANCH  13  19
ATOM     19  O   UNL     1       1.791   1.751   1.057  1.00  0.00    -0.504 OA
ATOM     20  H   UNL     1       1.536   1.393   0.230  1.00  0.00     0.293 HD
ENDBRANCH  13  19
ENDBRANCH   8  10
ENDBRANCH   4   7
ENDBRANCH   2   3
ENDBRANCH   1   2
BRANCH   1  21
ATOM     21  C   UNL     1       0.338  -7.008   6.849  1.00  0.00     0.023 C 
BRANCH  21  22
ATOM     22  C   UNL     1       1.231  -8.205   6.537  1.00  0.00     0.116 C 
BRANCH  22  23
ATOM     23  N   UNL     1       1.701  -8.907   7.721  1.00  0.00    -0.352 N 
ATOM     24  C   UNL     1       1.754 -10.263   7.948  1.00  0.00     0.251 C 
ATOM     25  H   UNL     1       2.024  -8.337   8.456  1.00  0.00     0.163 HD
ATOM     26  O   UNL     1       2.106 -10.694   9.044  1.00  0.00    -0.269 OA
BRANCH  24  27
ATOM     27  C   UNL     1       1.341 -11.194   6.877  1.00  0.00     0.039 A 
ATOM     28  C   UNL     1       0.379 -12.168   7.160  1.00  0.00     0.014 A 
ATOM     29  C   UNL     1       1.861 -11.068   5.587  1.00  0.00     0.014 A 
ATOM     30  C   UNL     1      -0.127 -12.961   6.126  1.00  0.00     0.010 A 
ATOM     31  C   UNL     1       1.310 -11.813   4.549  1.00  0.00     0.010 A 
ATOM     32  C   UNL     1       0.303 -12.758   4.805  1.00  0.00    -0.014 A 
BRANCH  32  33
ATOM     33  C   UNL     1      -0.279 -13.510   3.663  1.00  0.00     0.031 A 
ATOM     34  C   UNL     1       0.599 -14.416   2.845  1.00  0.00     0.074 A 
ATOM     35  C   UNL     1      -1.559 -13.296   3.296  1.00  0.00     0.049 A 
ATOM     36  N   UNL     1       0.345 -15.011   1.710  1.00  0.00    -0.248 NA
ATOM     37  C   UNL     1       1.956 -14.658   3.362  1.00  0.00     0.031 C 
ATOM     38  C   UNL     1      -2.506 -12.422   3.992  1.00  0.00     0.029 A 
ATOM     39  N   UNL     1      -2.277 -13.778   2.229  1.00  0.00    -0.354 N 
ATOM     40  C   UNL     1       1.516 -15.672   1.360  1.00  0.00     0.074 A 
ATOM     41  C   UNL     1       2.492 -15.376   2.386  1.00  0.00     0.031 C 
ATOM     42  C   UNL     1      -3.678 -12.431   3.336  1.00  0.00     0.029 A 
ATOM     43  C   UNL     1      -3.555 -13.272   2.149  1.00  0.00     0.049 A 
ATOM     44  H   UNL     1      -1.913 -14.424   1.583  1.00  0.00     0.167 HD
ATOM     45  C   UNL     1       1.751 -16.466   0.288  1.00  0.00     0.037 A 
ATOM     46  C   UNL     1      -4.509 -13.446   1.213  1.00  0.00     0.037 A 
ATOM     47  C   UNL     1       0.764 -16.783  -0.710  1.00  0.00     0.049 A 
ATOM     48  C   UNL     1      -4.224 -14.327   0.026  1.00  0.00     0.074 A 
ATOM     49  C   UNL     1       0.888 -17.619  -1.806  1.00  0.00     0.029 A 
ATOM     50  N   UNL     1      -0.529 -16.282  -0.732  1.00  0.00    -0.354 N 
ATOM     51  N   UNL     1      -3.123 -14.976  -0.270  1.00  0.00    -0.248 NA
ATOM     52  C   UNL     1      -5.305 -14.499  -0.955  1.00  0.00     0.031 C 
ATOM     53  C   UNL     1      -0.319 -17.596  -2.510  1.00  0.00     0.029 A 
ATOM     54  C   UNL     1      -1.210 -16.781  -1.829  1.00  0.00     0.049 A 
ATOM     55  H   UNL     1      -0.907 -15.664  -0.066  1.00  0.00     0.167 HD
ATOM     56  C   UNL     1      -3.391 -15.661  -1.451  1.00  0.00     0.074 A 
ATOM     57  C   UNL     1      -4.756 -15.345  -1.817  1.00  0.00     0.031 C 
ATOM     58  C   UNL     1      -2.579 -16.479  -2.164  1.00  0.00     0.037 A 
BRANCH  45  59
ATOM     59  C   UNL     1       3.129 -17.046   0.140  1.00  0.00     0.058 A 
ATOM     60  C   UNL     1       3.599 -18.057   0.994  1.00  0.00     0.135 A 
ATOM     61  C   UNL     1       3.981 -16.609  -0.887  1.00  0.00     0.135 A 
ATOM     62  F   UNL     1       2.831 -18.501   2.002  1.00  0.00    -0.206 F 
ATOM     63  C   UNL     1       4.876 -18.590   0.856  1.00  0.00     0.059 A 
ATOM     64  C   UNL     1       5.252 -17.148  -1.062  1.00  0.00     0.059 A 
ATOM     65  F   UNL     1       3.582 -15.646  -1.733  1.00  0.00    -0.206 F 
ATOM     66  C   UNL     1       5.696 -18.127  -0.174  1.00  0.00     0.060 A 
BRANCH  66  67
ATOM     67  S   UNL     1       7.351 -18.828  -0.339  1.00  0.00     0.124 S 
ATOM     68  O   UNL     1       8.048 -18.191   0.775  1.00  0.00    -0.237 OA
ATOM     69  O   UNL     1       7.102 -20.259  -0.194  1.00  0.00    -0.237 OA
ATOM     70  O   UNL     1       7.771 -18.400  -1.669  1.00  0.00    -0.744 OA
ENDBRANCH  66  67
ENDBRANCH  45  59
BRANCH  46  71
ATOM     71  C   UNL     1      -5.829 -12.776   1.363  1.00  0.00     0.058 A 
ATOM     72  C   UNL     1      -6.979 -13.517   1.675  1.00  0.00     0.135 A 
ATOM     73  C   UNL     1      -5.967 -11.387   1.214  1.00  0.00     0.135 A 
ATOM     74  F   UNL     1      -6.899 -14.848   1.820  1.00  0.00    -0.206 F 
ATOM     75  C   UNL     1      -8.222 -12.908   1.819  1.00  0.00     0.059 A 
ATOM     76  C   UNL     1      -7.195 -10.753   1.377  1.00  0.00     0.059 A 
ATOM     77  F   UNL     1      -4.895 -10.631   0.931  1.00  0.00    -0.206 F 
ATOM     78  C   UNL     1      -8.319 -11.524   1.670  1.00  0.00     0.060 A 
BRANCH  78  79
ATOM     79  S   UNL     1      -9.928 -10.738   1.908  1.00  0.00     0.124 S 
ATOM     80  O   UNL     1     -10.623 -11.116   0.684  1.00  0.00    -0.237 OA
ATOM     81  O   UNL     1     -10.401 -11.372   3.134  1.00  0.00    -0.237 OA
ATOM     82  O   UNL     1      -9.593  -9.322   2.033  1.00  0.00    -0.744 OA
ENDBRANCH  78  79
ENDBRANCH  46  71
BRANCH  58  83
ATOM     83  C   UNL     1      -3.148 -17.143  -3.386  1.00  0.00     0.058 A 
ATOM     84  C   UNL     1      -3.322 -16.446  -4.590  1.00  0.00     0.135 A 
ATOM     85  C   UNL     1      -3.418 -18.521  -3.376  1.00  0.00     0.135 A 
ATOM     86  F   UNL     1      -3.086 -15.126  -4.648  1.00  0.00    -0.206 F 
ATOM     87  C   UNL     1      -3.743 -17.095  -5.747  1.00  0.00     0.059 A 
ATOM     88  C   UNL     1      -3.818 -19.194  -4.526  1.00  0.00     0.059 A 
ATOM     89  F   UNL     1      -3.260 -19.233  -2.249  1.00  0.00    -0.206 F 
ATOM     90  C   UNL     1      -3.978 -18.471  -5.707  1.00  0.00     0.060 A 
BRANCH  90  91
ATOM     91  S   UNL     1      -4.442 -19.315  -7.235  1.00  0.00     0.124 S 
ATOM     92  O   UNL     1      -5.828 -18.890  -7.397  1.00  0.00    -0.237 OA
ATOM     93  O   UNL     1      -3.493 -18.762  -8.197  1.00  0.00    -0.237 OA
ATOM     94  O   UNL     1      -4.250 -20.726  -6.915  1.00  0.00    -0.744 OA
ENDBRANCH  90  91
ENDBRANCH  58  83
ENDBRANCH  32  33
ENDBRANCH  24  27
ENDBRANCH  22  23
ENDBRANCH  21  22
ENDBRANCH   1  21
TORSDOF 18
