REMARK SMILES COc1ccc(-c2noc(CC(=O)NCCCCNC(=O)c3ccc(-c4c5nc(c(-c6c(F)cc(S(=O)(=O)[O-])cc6F)c6ccc([nH]6)c(-c6c(F)cc(S(=O)(=O)[O-])cc6F)c6nc(c(-c7c(F)cc(S(=O)(=O)[O-])cc7F)c7ccc4[nH]7)C=C6)C=C5)cc3)c2-c2ccc(OC)cc2)cc1
REMARK SMILES IDX 16 1 15 2 14 3 12 4 13 5 11 7 10 8 7 9 8 10 88 11 9 12 6 13
REMARK SMILES IDX 3 14 4 15 98 16 5 17 97 18 2 19 1 20 89 21 90 22 96 23 91 24
REMARK SMILES IDX 95 25 92 26 93 27 94 28 17 29 18 30 19 31 20 32 21 34 22 35
REMARK SMILES IDX 23 36 87 37 24 38 86 39 25 40 26 41 27 42 80 43 28 44 85 45
REMARK SMILES IDX 79 46 81 47 29 48 84 49 78 50 77 51 30 53 64 54 43 55 63 56
REMARK SMILES IDX 44 57 47 58 62 59 82 60 45 61 46 62 61 64 83 65 48 66 31 67
REMARK SMILES IDX 32 68 41 69 33 70 34 71 40 72 42 73 35 74 36 75 37 76 38 77
REMARK SMILES IDX 39 78 65 79 66 80 75 81 67 82 68 83 74 84 76 85 69 86 70 87
REMARK SMILES IDX 71 88 72 89 73 90 49 91 50 92 59 93 51 94 52 95 58 96 60 97
REMARK SMILES IDX 53 98 54 99 55 100 56 101 57 102
REMARK H PARENT 14 6 19 33 81 52 47 63
REMARK Flexibility Score: inf
ROOT
ATOM      1  C   UNL     1       1.343   4.612  -8.393  1.00  0.00     0.023 C 
ENDROOT
BRANCH   1   2
ATOM      2  C   UNL     1       2.744   4.863  -8.951  1.00  0.00     0.116 C 
BRANCH   2   3
ATOM      3  N   UNL     1       3.115   6.259  -8.843  1.00  0.00    -0.356 N 
ATOM      4  C   UNL     1       3.886   6.867  -7.893  1.00  0.00     0.227 C 
ATOM      5  O   UNL     1       4.040   8.089  -7.956  1.00  0.00    -0.275 OA
ATOM      6  H   UNL     1       2.764   6.849  -9.548  1.00  0.00     0.163 HD
BRANCH   4   7
ATOM      7  C   UNL     1       4.616   6.040  -6.855  1.00  0.00     0.179 C 
BRANCH   7   8
ATOM      8  C   UNL     1       3.700   5.442  -5.854  1.00  0.00     0.154 A 
ATOM      9  C   UNL     1       2.453   4.319  -4.406  1.00  0.00     0.122 A 
ATOM     10  N   UNL     1       2.097   5.605  -4.289  1.00  0.00    -0.079 NA
ATOM     11  C   UNL     1       3.461   4.162  -5.401  1.00  0.00     0.053 A 
ATOM     12  O   UNL     1       2.889   6.305  -5.181  1.00  0.00    -0.360 OA
BRANCH   9  13
ATOM     13  C   UNL     1       1.877   3.276  -3.572  1.00  0.00     0.005 A 
ATOM     14  C   UNL     1       0.836   1.168  -2.047  1.00  0.00     0.118 A 
ATOM     15  C   UNL     1       0.001   1.911  -2.885  1.00  0.00     0.047 A 
ATOM     16  C   UNL     1       2.197   1.464  -1.986  1.00  0.00     0.047 A 
ATOM     17  C   UNL     1       0.514   2.974  -3.636  1.00  0.00     0.014 A 
ATOM     18  C   UNL     1       2.714   2.516  -2.744  1.00  0.00     0.014 A 
BRANCH  14  19
ATOM     19  O   UNL     1       0.237   0.145  -1.364  1.00  0.00    -0.497 OA
ATOM     20  C   UNL     1       0.779  -0.102  -0.070  1.00  0.00     0.278 C 
ENDBRANCH  14  19
ENDBRANCH   9  13
BRANCH  11  21
ATOM     21  C   UNL     1       4.078   2.955  -5.913  1.00  0.00    -0.012 A 
ATOM     22  C   UNL     1       3.273   1.939  -6.442  1.00  0.00     0.013 A 
ATOM     23  C   UNL     1       5.463   2.777  -5.874  1.00  0.00     0.013 A 
ATOM     24  C   UNL     1       3.851   0.772  -6.942  1.00  0.00     0.047 A 
ATOM     25  C   UNL     1       6.039   1.601  -6.370  1.00  0.00     0.047 A 
ATOM     26  C   UNL     1       5.235   0.596  -6.911  1.00  0.00     0.118 A 
BRANCH  26  27
ATOM     27  O   UNL     1       5.667  -0.592  -7.429  1.00  0.00    -0.497 OA
ATOM     28  C   UNL     1       7.069  -0.821  -7.438  1.00  0.00     0.278 C 
ENDBRANCH  26  27
ENDBRANCH  11  21
ENDBRANCH   7   8
ENDBRANCH   4   7
ENDBRANCH   2   3
ENDBRANCH   1   2
BRANCH   1  29
ATOM     29  C   UNL     1       0.208   5.120  -9.285  1.00  0.00     0.023 C 
BRANCH  29  30
ATOM     30  C   UNL     1       0.136   4.482 -10.669  1.00  0.00     0.116 C 
BRANCH  30  31
ATOM     31  N   UNL     1      -0.025   3.035 -10.629  1.00  0.00    -0.352 N 
ATOM     32  C   UNL     1      -0.772   2.237 -11.464  1.00  0.00     0.251 C 
ATOM     33  H   UNL     1       0.464   2.568  -9.913  1.00  0.00     0.163 HD
ATOM     34  O   UNL     1      -0.887   1.036 -11.238  1.00  0.00    -0.269 OA
BRANCH  32  35
ATOM     35  C   UNL     1      -1.470   2.854 -12.610  1.00  0.00     0.039 A 
ATOM     36  C   UNL     1      -2.847   2.663 -12.743  1.00  0.00     0.014 A 
ATOM     37  C   UNL     1      -0.777   3.678 -13.501  1.00  0.00     0.014 A 
ATOM     38  C   UNL     1      -3.549   3.377 -13.716  1.00  0.00     0.010 A 
ATOM     39  C   UNL     1      -1.486   4.428 -14.435  1.00  0.00     0.010 A 
ATOM     40  C   UNL     1      -2.880   4.304 -14.533  1.00  0.00    -0.014 A 
BRANCH  40  41
ATOM     41  C   UNL     1      -3.623   5.203 -15.452  1.00  0.00     0.031 A 
ATOM     42  C   UNL     1      -3.432   5.094 -16.937  1.00  0.00     0.074 A 
ATOM     43  C   UNL     1      -4.400   6.177 -14.936  1.00  0.00     0.049 A 
ATOM     44  N   UNL     1      -3.887   5.871 -17.885  1.00  0.00    -0.248 NA
ATOM     45  C   UNL     1      -2.604   3.977 -17.419  1.00  0.00     0.031 C 
ATOM     46  C   UNL     1      -4.634   6.408 -13.507  1.00  0.00     0.029 A 
ATOM     47  N   UNL     1      -5.121   7.170 -15.551  1.00  0.00    -0.354 N 
ATOM     48  C   UNL     1      -3.400   5.343 -19.074  1.00  0.00     0.074 A 
ATOM     49  C   UNL     1      -2.579   4.203 -18.726  1.00  0.00     0.031 C 
ATOM     50  C   UNL     1      -5.447   7.467 -13.358  1.00  0.00     0.029 A 
ATOM     51  C   UNL     1      -5.758   8.016 -14.674  1.00  0.00     0.049 A 
ATOM     52  H   UNL     1      -5.177   7.267 -16.529  1.00  0.00     0.167 HD
ATOM     53  C   UNL     1      -3.635   5.760 -20.341  1.00  0.00     0.037 A 
ATOM     54  C   UNL     1      -6.491   9.123 -14.901  1.00  0.00     0.037 A 
ATOM     55  C   UNL     1      -4.468   6.882 -20.683  1.00  0.00     0.049 A 
ATOM     56  C   UNL     1      -6.702   9.586 -16.317  1.00  0.00     0.074 A 
ATOM     57  C   UNL     1      -4.806   7.350 -21.942  1.00  0.00     0.029 A 
ATOM     58  N   UNL     1      -5.097   7.712 -19.767  1.00  0.00    -0.354 N 
ATOM     59  N   UNL     1      -6.271   9.047 -17.432  1.00  0.00    -0.248 NA
ATOM     60  C   UNL     1      -7.491  10.812 -16.506  1.00  0.00     0.031 C 
ATOM     61  C   UNL     1      -5.612   8.483 -21.786  1.00  0.00     0.029 A 
ATOM     62  C   UNL     1      -5.803   8.700 -20.431  1.00  0.00     0.049 A 
ATOM     63  H   UNL     1      -5.048   7.612 -18.789  1.00  0.00     0.167 HD
ATOM     64  C   UNL     1      -6.748   9.859 -18.454  1.00  0.00     0.074 A 
ATOM     65  C   UNL     1      -7.514  10.917 -17.828  1.00  0.00     0.031 C 
ATOM     66  C   UNL     1      -6.564   9.743 -19.791  1.00  0.00     0.037 A 
BRANCH  53  67
ATOM     67  C   UNL     1      -2.998   4.988 -21.460  1.00  0.00     0.058 A 
ATOM     68  C   UNL     1      -3.479   3.725 -21.837  1.00  0.00     0.135 A 
ATOM     69  C   UNL     1      -1.942   5.539 -22.204  1.00  0.00     0.135 A 
ATOM     70  F   UNL     1      -4.476   3.148 -21.148  1.00  0.00    -0.206 F 
ATOM     71  C   UNL     1      -2.929   3.028 -22.907  1.00  0.00     0.059 A 
ATOM     72  C   UNL     1      -1.390   4.869 -23.292  1.00  0.00     0.059 A 
ATOM     73  F   UNL     1      -1.444   6.742 -21.881  1.00  0.00    -0.206 F 
ATOM     74  C   UNL     1      -1.886   3.610 -23.631  1.00  0.00     0.060 A 
BRANCH  74  75
ATOM     75  S   UNL     1      -1.202   2.704 -25.035  1.00  0.00     0.124 S 
ATOM     76  O   UNL     1      -0.431   1.664 -24.362  1.00  0.00    -0.237 OA
ATOM     77  O   UNL     1      -2.403   2.252 -25.730  1.00  0.00    -0.237 OA
ATOM     78  O   UNL     1      -0.416   3.712 -25.739  1.00  0.00    -0.744 OA
ENDBRANCH  74  75
ENDBRANCH  53  67
BRANCH  54  79
ATOM     79  C   UNL     1      -7.072   9.886 -13.766  1.00  0.00     0.058 A 
ATOM     80  C   UNL     1      -8.455   9.889 -13.535  1.00  0.00     0.135 A 
ATOM     81  C   UNL     1      -6.263  10.645 -12.906  1.00  0.00     0.135 A 
ATOM     82  F   UNL     1      -9.270   9.184 -14.336  1.00  0.00    -0.206 F 
ATOM     83  C   UNL     1      -9.021  10.639 -12.510  1.00  0.00     0.059 A 
ATOM     84  C   UNL     1      -6.803  11.385 -11.859  1.00  0.00     0.059 A 
ATOM     85  F   UNL     1      -4.931  10.661 -13.076  1.00  0.00    -0.206 F 
ATOM     86  C   UNL     1      -8.186  11.389 -11.680  1.00  0.00     0.060 A 
BRANCH  86  87
ATOM     87  S   UNL     1      -8.924  12.349 -10.340  1.00  0.00     0.124 S 
ATOM     88  O   UNL     1      -9.446  13.503 -11.063  1.00  0.00    -0.237 OA
ATOM     89  O   UNL     1      -9.921  11.425  -9.809  1.00  0.00    -0.237 OA
ATOM     90  O   UNL     1      -7.792  12.613  -9.457  1.00  0.00    -0.744 OA
ENDBRANCH  86  87
ENDBRANCH  54  79
BRANCH  66  91
ATOM     91  C   UNL     1      -7.209  10.775 -20.670  1.00  0.00     0.058 A 
ATOM     92  C   UNL     1      -6.672  12.065 -20.794  1.00  0.00     0.135 A 
ATOM     93  C   UNL     1      -8.336  10.453 -21.442  1.00  0.00     0.135 A 
ATOM     94  F   UNL     1      -5.601  12.424 -20.068  1.00  0.00    -0.206 F 
ATOM     95  C   UNL     1      -7.236  13.006 -21.648  1.00  0.00     0.059 A 
ATOM     96  C   UNL     1      -8.904  11.371 -22.319  1.00  0.00     0.059 A 
ATOM     97  F   UNL     1      -8.883   9.229 -21.363  1.00  0.00    -0.206 F 
ATOM     98  C   UNL     1      -8.350  12.648 -22.411  1.00  0.00     0.060 A 
BRANCH  98  99
ATOM     99  S   UNL     1      -9.039  13.859 -23.558  1.00  0.00     0.124 S 
ATOM    100  O   UNL     1      -9.748  14.755 -22.650  1.00  0.00    -0.237 OA
ATOM    101  O   UNL     1      -7.843  14.412 -24.188  1.00  0.00    -0.237 OA
ATOM    102  O   UNL     1      -9.885  13.054 -24.434  1.00  0.00    -0.744 OA
ENDBRANCH  98  99
ENDBRANCH  66  91
ENDBRANCH  40  41
ENDBRANCH  32  35
ENDBRANCH  30  31
ENDBRANCH  29  30
ENDBRANCH   1  29
TORSDOF 19
