REMARK SMILES N#Cc1cccc(C(=O)N2CCC(CC(=O)NCCCCNC(=O)c3ccc(-c4c5nc(c(-c6c(F)cc(S(=O)(=O)[O-])cc6F)c6ccc([nH]6)c(-c6c(F)cc(S(=O)(=O)[O-])cc6F)c6nc(c(-c7c(F)cc(S(=O)(=O)[O-])cc7F)c7ccc4[nH]7)C=C6)C=C5)cc3)CC2)c1
REMARK SMILES IDX 19 1 18 2 17 3 15 4 16 5 14 7 13 8 8 9 9 10 10 11 11 12
REMARK SMILES IDX 92 13 12 14 91 15 7 16 3 17 4 18 93 19 5 20 6 21 2 22 1 23
REMARK SMILES IDX 20 24 21 25 22 26 23 27 24 29 25 30 26 31 90 32 27 33 89 34
REMARK SMILES IDX 28 35 29 36 30 37 83 38 31 39 88 40 82 41 84 42 32 43 87 44
REMARK SMILES IDX 81 45 80 46 33 48 67 49 46 50 66 51 47 52 50 53 65 54 85 55
REMARK SMILES IDX 48 56 49 57 64 59 86 60 51 61 34 62 35 63 44 64 36 65 37 66
REMARK SMILES IDX 43 67 45 68 38 69 39 70 40 71 41 72 42 73 68 74 69 75 78 76
REMARK SMILES IDX 70 77 71 78 77 79 79 80 72 81 73 82 74 83 75 84 76 85 52 86
REMARK SMILES IDX 53 87 62 88 54 89 55 90 61 91 63 92 56 93 57 94 58 95 59 96
REMARK SMILES IDX 60 97
REMARK H PARENT 17 6 22 28 84 47 50 58
REMARK Flexibility Score: inf
ROOT
ATOM      1  C   UNL     1       2.942  -6.444   3.404  1.00  0.00     0.023 C 
ENDROOT
BRANCH   1   2
ATOM      2  C   UNL     1       3.361  -7.549   2.417  1.00  0.00     0.116 C 
BRANCH   2   3
ATOM      3  N   UNL     1       2.285  -8.493   2.155  1.00  0.00    -0.356 N 
ATOM      4  C   UNL     1       1.488  -8.682   1.060  1.00  0.00     0.220 C 
ATOM      5  O   UNL     1       0.631  -9.567   1.121  1.00  0.00    -0.275 OA
ATOM      6  H   UNL     1       2.096  -9.107   2.901  1.00  0.00     0.163 HD
BRANCH   4   7
ATOM      7  C   UNL     1       1.634  -7.840  -0.210  1.00  0.00     0.103 C 
BRANCH   7   8
ATOM      8  C   UNL     1       0.843  -6.508  -0.214  1.00  0.00     0.002 C 
ATOM      9  C   UNL     1       1.971  -2.562  -0.313  1.00  0.00     0.253 C 
ATOM     10  O   UNL     1       3.184  -2.724  -0.332  1.00  0.00    -0.269 OA
ATOM     11  N   UNL     1       1.065  -3.600  -0.242  1.00  0.00    -0.339 N 
ATOM     12  C   UNL     1       0.834  -4.233   1.026  1.00  0.00     0.120 C 
ATOM     13  C   UNL     1       0.535  -4.273  -1.416  1.00  0.00     0.120 C 
ATOM     14  C   UNL     1       1.286  -5.665   0.965  1.00  0.00     0.026 C 
ATOM     15  C   UNL     1       1.025  -5.723  -1.524  1.00  0.00     0.026 C 
BRANCH   9  16
ATOM     16  C   UNL     1       1.361  -1.201  -0.231  1.00  0.00     0.041 A 
ATOM     17  C   UNL     1      -0.603   0.222  -0.085  1.00  0.00     0.053 A 
ATOM     18  C   UNL     1       0.221   1.347  -0.022  1.00  0.00     0.019 A 
ATOM     19  C   UNL     1      -0.032  -1.047  -0.187  1.00  0.00     0.033 A 
ATOM     20  C   UNL     1       1.611   1.201  -0.057  1.00  0.00     0.002 A 
ATOM     21  C   UNL     1       2.182  -0.071  -0.161  1.00  0.00     0.014 A 
BRANCH  17  22
ATOM     22  C   UNL     1      -2.028   0.343  -0.047  1.00  0.00     0.099 C 
ATOM     23  N   UNL     1      -3.189   0.409  -0.030  1.00  0.00    -0.192 NA
ENDBRANCH  17  22
ENDBRANCH   9  16
ENDBRANCH   7   8
ENDBRANCH   4   7
ENDBRANCH   2   3
ENDBRANCH   1   2
BRANCH   1  24
ATOM     24  C   UNL     1       3.062  -6.785   4.872  1.00  0.00     0.023 C 
BRANCH  24  25
ATOM     25  C   UNL     1       4.489  -6.949   5.322  1.00  0.00     0.116 C 
BRANCH  25  26
ATOM     26  N   UNL     1       5.290  -5.746   5.118  1.00  0.00    -0.352 N 
ATOM     27  C   UNL     1       6.130  -5.133   6.016  1.00  0.00     0.251 C 
ATOM     28  H   UNL     1       5.219  -5.323   4.232  1.00  0.00     0.163 HD
ATOM     29  O   UNL     1       6.622  -4.037   5.777  1.00  0.00    -0.269 OA
BRANCH  27  30
ATOM     30  C   UNL     1       6.384  -5.822   7.294  1.00  0.00     0.039 A 
ATOM     31  C   UNL     1       6.233  -5.122   8.489  1.00  0.00     0.014 A 
ATOM     32  C   UNL     1       6.630  -7.197   7.292  1.00  0.00     0.014 A 
ATOM     33  C   UNL     1       6.264  -5.828   9.690  1.00  0.00     0.010 A 
ATOM     34  C   UNL     1       6.507  -7.910   8.471  1.00  0.00     0.010 A 
ATOM     35  C   UNL     1       6.354  -7.231   9.687  1.00  0.00    -0.014 A 
BRANCH  35  36
ATOM     36  C   UNL     1       6.335  -8.010  10.947  1.00  0.00     0.031 A 
ATOM     37  C   UNL     1       7.510  -8.886  11.292  1.00  0.00     0.074 A 
ATOM     38  C   UNL     1       5.253  -7.962  11.749  1.00  0.00     0.049 A 
ATOM     39  N   UNL     1       7.679  -9.667  12.326  1.00  0.00    -0.248 NA
ATOM     40  C   UNL     1       8.629  -8.918  10.333  1.00  0.00     0.031 C 
ATOM     41  C   UNL     1       4.034  -7.194  11.485  1.00  0.00     0.029 A 
ATOM     42  N   UNL     1       5.005  -8.570  12.953  1.00  0.00    -0.354 N 
ATOM     43  C   UNL     1       8.911 -10.281  12.136  1.00  0.00     0.074 A 
ATOM     44  C   UNL     1       9.409  -9.852  10.851  1.00  0.00     0.031 C 
ATOM     45  C   UNL     1       3.188  -7.340  12.517  1.00  0.00     0.029 A 
ATOM     46  C   UNL     1       3.780  -8.251  13.491  1.00  0.00     0.049 A 
ATOM     47  H   UNL     1       5.644  -9.178  13.391  1.00  0.00     0.167 HD
ATOM     48  C   UNL     1       9.585 -11.101  12.975  1.00  0.00     0.037 A 
ATOM     49  C   UNL     1       3.201  -8.653  14.639  1.00  0.00     0.037 A 
ATOM     50  C   UNL     1       9.085 -11.507  14.261  1.00  0.00     0.049 A 
ATOM     51  C   UNL     1       3.961  -9.584  15.546  1.00  0.00     0.074 A 
ATOM     52  C   UNL     1       9.704 -12.297  15.211  1.00  0.00     0.029 A 
ATOM     53  N   UNL     1       7.842 -11.161  14.773  1.00  0.00    -0.354 N 
ATOM     54  N   UNL     1       5.156 -10.102  15.383  1.00  0.00    -0.248 NA
ATOM     55  C   UNL     1       3.300  -9.978  16.796  1.00  0.00     0.031 C 
ATOM     56  C   UNL     1       8.809 -12.486  16.268  1.00  0.00     0.029 A 
ATOM     57  C   UNL     1       7.664 -11.746  16.014  1.00  0.00     0.049 A 
ATOM     58  H   UNL     1       7.184 -10.585  14.320  1.00  0.00     0.167 HD
ATOM     59  C   UNL     1       5.406 -10.850  16.529  1.00  0.00     0.074 A 
ATOM     60  C   UNL     1       4.242 -10.707  17.379  1.00  0.00     0.031 C 
ATOM     61  C   UNL     1       6.501 -11.583  16.852  1.00  0.00     0.037 A 
BRANCH  48  62
ATOM     62  C   UNL     1      10.929 -11.609  12.528  1.00  0.00     0.058 A 
ATOM     63  C   UNL     1      12.033 -10.752  12.372  1.00  0.00     0.135 A 
ATOM     64  C   UNL     1      11.126 -12.977  12.282  1.00  0.00     0.135 A 
ATOM     65  F   UNL     1      11.899  -9.431  12.572  1.00  0.00    -0.206 F 
ATOM     66  C   UNL     1      13.273 -11.230  11.963  1.00  0.00     0.059 A 
ATOM     67  C   UNL     1      12.368 -13.482  11.909  1.00  0.00     0.059 A 
ATOM     68  F   UNL     1      10.107 -13.841  12.407  1.00  0.00    -0.206 F 
ATOM     69  C   UNL     1      13.432 -12.598  11.739  1.00  0.00     0.060 A 
BRANCH  69  70
ATOM     70  S   UNL     1      15.055 -13.201  11.230  1.00  0.00     0.124 S 
ATOM     71  O   UNL     1      15.157 -12.657   9.879  1.00  0.00    -0.237 OA
ATOM     72  O   UNL     1      15.935 -12.598  12.225  1.00  0.00    -0.237 OA
ATOM     73  O   UNL     1      14.920 -14.652  11.312  1.00  0.00    -0.744 OA
ENDBRANCH  69  70
ENDBRANCH  48  62
BRANCH  49  74
ATOM     74  C   UNL     1       1.843  -8.163  15.004  1.00  0.00     0.058 A 
ATOM     75  C   UNL     1       1.647  -7.316  16.105  1.00  0.00     0.135 A 
ATOM     76  C   UNL     1       0.712  -8.531  14.257  1.00  0.00     0.135 A 
ATOM     77  F   UNL     1       2.694  -6.937  16.854  1.00  0.00    -0.206 F 
ATOM     78  C   UNL     1       0.380  -6.871  16.468  1.00  0.00     0.059 A 
ATOM     79  C   UNL     1      -0.561  -8.072  14.580  1.00  0.00     0.059 A 
ATOM     80  F   UNL     1       0.844  -9.325  13.183  1.00  0.00    -0.206 F 
ATOM     81  C   UNL     1      -0.718  -7.253  15.696  1.00  0.00     0.060 A 
BRANCH  81  82
ATOM     82  S   UNL     1      -2.353  -6.638  16.155  1.00  0.00     0.124 S 
ATOM     83  O   UNL     1      -2.602  -7.361  17.396  1.00  0.00    -0.237 OA
ATOM     84  O   UNL     1      -2.112  -5.204  16.286  1.00  0.00    -0.237 OA
ATOM     85  O   UNL     1      -3.188  -7.025  15.021  1.00  0.00    -0.744 OA
ENDBRANCH  81  82
ENDBRANCH  49  74
BRANCH  61  86
ATOM     86  C   UNL     1       6.523 -12.241  18.206  1.00  0.00     0.058 A 
ATOM     87  C   UNL     1       5.684 -13.318  18.529  1.00  0.00     0.135 A 
ATOM     88  C   UNL     1       7.443 -11.813  19.179  1.00  0.00     0.135 A 
ATOM     89  F   UNL     1       4.784 -13.765  17.638  1.00  0.00    -0.206 F 
ATOM     90  C   UNL     1       5.731 -13.925  19.779  1.00  0.00     0.059 A 
ATOM     91  C   UNL     1       7.535 -12.431  20.421  1.00  0.00     0.059 A 
ATOM     92  F   UNL     1       8.280 -10.796  18.919  1.00  0.00    -0.206 F 
ATOM     93  C   UNL     1       6.663 -13.477  20.717  1.00  0.00     0.060 A 
BRANCH  93  94
ATOM     94  S   UNL     1       6.731 -14.293  22.325  1.00  0.00     0.124 S 
ATOM     95  O   UNL     1       5.484 -13.844  22.936  1.00  0.00    -0.237 OA
ATOM     96  O   UNL     1       6.785 -15.704  21.954  1.00  0.00    -0.237 OA
ATOM     97  O   UNL     1       7.951 -13.762  22.926  1.00  0.00    -0.744 OA
ENDBRANCH  93  94
ENDBRANCH  61  86
ENDBRANCH  35  36
ENDBRANCH  27  30
ENDBRANCH  25  26
ENDBRANCH  24  25
ENDBRANCH   1  24
TORSDOF 17
