REMARK SMILES NS(=O)(=O)c1ccc(-n2nc(C(=O)NCCCCNC(=O)c3ccc(-c4c5nc(c(-c6c(F)cc(S(=O)(=O)[O-])cc6F)c6ccc([nH]6)c(-c6c(F)cc(S(=O)(=O)[O-])cc6F)c6nc(c(-c7c(F)cc(S(=O)(=O)[O-])cc7F)c7ccc4[nH]7)C=C6)C=C5)cc3)cc2-c2cc3ccccc3s2)cc1
REMARK SMILES IDX 16 1 15 2 14 3 12 4 13 5 11 7 9 8 10 9 89 10 88 11 8 12 5 13
REMARK SMILES IDX 6 14 100 15 7 16 99 17 2 18 3 19 4 20 1 21 90 24 91 25 98 26
REMARK SMILES IDX 92 27 97 28 93 29 96 30 94 31 95 32 17 33 18 34 19 35 20 36
REMARK SMILES IDX 21 38 22 39 23 40 87 41 24 42 86 43 25 44 26 45 27 46 80 47
REMARK SMILES IDX 28 48 85 49 79 50 81 51 29 52 84 53 78 54 77 55 30 57 64 58
REMARK SMILES IDX 43 59 63 60 44 61 47 62 62 63 82 64 45 65 46 66 61 68 83 69
REMARK SMILES IDX 48 70 31 71 32 72 41 73 33 74 34 75 40 76 42 77 35 78 36 79
REMARK SMILES IDX 37 80 38 81 39 82 65 83 66 84 75 85 67 86 68 87 74 88 76 89
REMARK SMILES IDX 69 90 70 91 71 92 72 93 73 94 49 95 50 96 59 97 51 98 52 99
REMARK SMILES IDX 58 100 60 101 53 102 54 103 55 104 56 105 57 106
REMARK H PARENT 14 6 1 22 1 23 19 37 81 56 47 67
REMARK Flexibility Score: inf
ROOT
ATOM      1  C   UNL     1       3.015  -8.924  -7.691  1.00  0.00     0.023 C 
ENDROOT
BRANCH   1   2
ATOM      2  C   UNL     1       3.165  -9.434  -6.248  1.00  0.00     0.116 C 
BRANCH   2   3
ATOM      3  N   UNL     1       4.330  -8.864  -5.582  1.00  0.00    -0.351 N 
ATOM      4  C   UNL     1       4.486  -7.821  -4.682  1.00  0.00     0.271 C 
ATOM      5  O   UNL     1       5.625  -7.639  -4.247  1.00  0.00    -0.267 OA
ATOM      6  H   UNL     1       5.176  -9.308  -5.820  1.00  0.00     0.163 HD
BRANCH   4   7
ATOM      7  C   UNL     1       3.333  -7.008  -4.238  1.00  0.00     0.151 A 
ATOM      8  N   UNL     1       2.057  -5.950  -2.860  1.00  0.00    -0.231 N 
ATOM      9  N   UNL     1       3.360  -6.247  -3.122  1.00  0.00    -0.162 NA
ATOM     10  C   UNL     1       1.230  -6.477  -3.824  1.00  0.00     0.085 A 
ATOM     11  C   UNL     1       2.077  -6.861  -4.846  1.00  0.00     0.066 A 
BRANCH   8  12
ATOM     12  C   UNL     1       1.714  -4.945  -1.928  1.00  0.00     0.065 A 
ATOM     13  C   UNL     1       0.964  -2.813  -0.311  1.00  0.00     0.082 A 
ATOM     14  C   UNL     1       0.277  -4.031  -0.220  1.00  0.00     0.024 A 
ATOM     15  C   UNL     1       2.028  -2.658  -1.203  1.00  0.00     0.024 A 
ATOM     16  C   UNL     1       0.639  -5.099  -1.047  1.00  0.00     0.030 A 
ATOM     17  C   UNL     1       2.422  -3.736  -1.992  1.00  0.00     0.030 A 
BRANCH  13  18
ATOM     18  S   UNL     1       0.441  -1.470   0.710  1.00  0.00     0.238 S 
ATOM     19  O   UNL     1       1.084  -1.593   2.001  1.00  0.00    -0.207 OA
ATOM     20  O   UNL     1      -0.981  -1.297   0.558  1.00  0.00    -0.207 OA
BRANCH  18  21
ATOM     21  N   UNL     1       1.123  -0.105  -0.002  1.00  0.00    -0.225 NA
ATOM     22  H   UNL     1       0.865   0.724   0.534  1.00  0.00     0.137 HD
ATOM     23  H   UNL     1       0.778  -0.012  -0.958  1.00  0.00     0.137 HD
ENDBRANCH  18  21
ENDBRANCH  13  18
ENDBRANCH   8  12
BRANCH  10  24
ATOM     24  C   UNL     1      -0.189  -6.701  -3.826  1.00  0.00     0.054 A 
ATOM     25  C   UNL     1      -1.053  -6.314  -4.843  1.00  0.00     0.031 A 
ATOM     26  S   UNL     1      -0.719  -8.294  -3.361  1.00  0.00    -0.134 S 
ATOM     27  C   UNL     1      -1.150  -7.457  -5.738  1.00  0.00    -0.007 A 
ATOM     28  C   UNL     1      -0.865  -8.650  -5.056  1.00  0.00     0.035 A 
ATOM     29  C   UNL     1      -1.325  -7.517  -7.138  1.00  0.00     0.009 A 
ATOM     30  C   UNL     1      -0.695  -9.875  -5.718  1.00  0.00     0.019 A 
ATOM     31  C   UNL     1      -1.093  -8.721  -7.813  1.00  0.00     0.001 A 
ATOM     32  C   UNL     1      -0.764  -9.878  -7.113  1.00  0.00     0.001 A 
ENDBRANCH  10  24
ENDBRANCH   4   7
ENDBRANCH   2   3
ENDBRANCH   1   2
BRANCH   1  33
ATOM     33  C   UNL     1       3.886  -9.640  -8.736  1.00  0.00     0.023 C 
BRANCH  33  34
ATOM     34  C   UNL     1       3.516 -11.099  -8.989  1.00  0.00     0.116 C 
BRANCH  34  35
ATOM     35  N   UNL     1       2.218 -11.278  -9.645  1.00  0.00    -0.352 N 
ATOM     36  C   UNL     1       1.610 -12.476  -9.991  1.00  0.00     0.251 C 
ATOM     37  H   UNL     1       1.722 -10.456  -9.866  1.00  0.00     0.163 HD
ATOM     38  O   UNL     1       0.755 -12.517 -10.868  1.00  0.00    -0.269 OA
BRANCH  36  39
ATOM     39  C   UNL     1       1.995 -13.698  -9.257  1.00  0.00     0.039 A 
ATOM     40  C   UNL     1       2.181 -14.932  -9.889  1.00  0.00     0.014 A 
ATOM     41  C   UNL     1       2.209 -13.562  -7.888  1.00  0.00     0.014 A 
ATOM     42  C   UNL     1       2.674 -16.002  -9.141  1.00  0.00     0.010 A 
ATOM     43  C   UNL     1       2.851 -14.555  -7.200  1.00  0.00     0.010 A 
ATOM     44  C   UNL     1       3.029 -15.797  -7.798  1.00  0.00    -0.014 A 
BRANCH  44  45
ATOM     45  C   UNL     1       3.752 -16.804  -7.025  1.00  0.00     0.031 A 
ATOM     46  C   UNL     1       5.061 -17.168  -7.637  1.00  0.00     0.074 A 
ATOM     47  C   UNL     1       3.403 -17.130  -5.757  1.00  0.00     0.049 A 
ATOM     48  N   UNL     1       5.374 -18.263  -8.247  1.00  0.00    -0.248 NA
ATOM     49  C   UNL     1       6.081 -16.110  -7.781  1.00  0.00     0.031 C 
ATOM     50  C   UNL     1       2.313 -16.548  -4.957  1.00  0.00     0.029 A 
ATOM     51  N   UNL     1       4.006 -17.963  -4.860  1.00  0.00    -0.354 N 
ATOM     52  C   UNL     1       6.726 -18.135  -8.565  1.00  0.00     0.074 A 
ATOM     53  C   UNL     1       7.009 -16.729  -8.517  1.00  0.00     0.031 C 
ATOM     54  C   UNL     1       2.481 -16.859  -3.653  1.00  0.00     0.029 A 
ATOM     55  C   UNL     1       3.575 -17.805  -3.540  1.00  0.00     0.049 A 
ATOM     56  H   UNL     1       4.690 -18.622  -5.122  1.00  0.00     0.167 HD
ATOM     57  C   UNL     1       7.560 -19.211  -8.477  1.00  0.00     0.037 A 
ATOM     58  C   UNL     1       4.077 -18.413  -2.433  1.00  0.00     0.037 A 
ATOM     59  C   UNL     1       6.786 -20.416  -8.314  1.00  0.00     0.049 A 
ATOM     60  C   UNL     1       4.798 -19.619  -2.903  1.00  0.00     0.074 A 
ATOM     61  C   UNL     1       5.954 -21.186  -9.097  1.00  0.00     0.029 A 
ATOM     62  N   UNL     1       6.510 -20.712  -7.003  1.00  0.00    -0.354 N 
ATOM     63  N   UNL     1       4.202 -20.627  -3.480  1.00  0.00    -0.248 NA
ATOM     64  C   UNL     1       6.239 -19.548  -3.105  1.00  0.00     0.031 C 
ATOM     65  C   UNL     1       5.028 -21.796  -8.200  1.00  0.00     0.029 A 
ATOM     66  C   UNL     1       5.360 -21.442  -6.893  1.00  0.00     0.049 A 
ATOM     67  H   UNL     1       7.068 -20.434  -6.241  1.00  0.00     0.167 HD
ATOM     68  C   UNL     1       5.093 -21.046  -4.450  1.00  0.00     0.074 A 
ATOM     69  C   UNL     1       6.377 -20.468  -4.064  1.00  0.00     0.031 C 
ATOM     70  C   UNL     1       4.641 -21.537  -5.639  1.00  0.00     0.037 A 
BRANCH  57  71
ATOM     71  C   UNL     1       9.014 -19.172  -8.024  1.00  0.00     0.058 A 
ATOM     72  C   UNL     1       9.763 -20.371  -8.039  1.00  0.00     0.135 A 
ATOM     73  C   UNL     1       9.609 -18.107  -7.311  1.00  0.00     0.135 A 
ATOM     74  F   UNL     1       9.303 -21.457  -8.681  1.00  0.00    -0.206 F 
ATOM     75  C   UNL     1      10.967 -20.519  -7.344  1.00  0.00     0.059 A 
ATOM     76  C   UNL     1      10.831 -18.219  -6.653  1.00  0.00     0.059 A 
ATOM     77  F   UNL     1       9.004 -16.930  -7.132  1.00  0.00    -0.206 F 
ATOM     78  C   UNL     1      11.487 -19.437  -6.644  1.00  0.00     0.060 A 
BRANCH  78  79
ATOM     79  S   UNL     1      13.005 -19.633  -5.694  1.00  0.00     0.124 S 
ATOM     80  O   UNL     1      12.571 -20.532  -4.630  1.00  0.00    -0.237 OA
ATOM     81  O   UNL     1      13.909 -20.203  -6.687  1.00  0.00    -0.237 OA
ATOM     82  O   UNL     1      13.319 -18.269  -5.279  1.00  0.00    -0.744 OA
ENDBRANCH  78  79
ENDBRANCH  57  71
BRANCH  58  83
ATOM     83  C   UNL     1       4.202 -17.909  -1.038  1.00  0.00     0.058 A 
ATOM     84  C   UNL     1       4.434 -18.774   0.049  1.00  0.00     0.135 A 
ATOM     85  C   UNL     1       4.398 -16.537  -0.787  1.00  0.00     0.135 A 
ATOM     86  F   UNL     1       4.289 -20.099  -0.102  1.00  0.00    -0.206 F 
ATOM     87  C   UNL     1       4.885 -18.312   1.294  1.00  0.00     0.059 A 
ATOM     88  C   UNL     1       4.846 -16.053   0.444  1.00  0.00     0.059 A 
ATOM     89  F   UNL     1       4.248 -15.634  -1.769  1.00  0.00    -0.206 F 
ATOM     90  C   UNL     1       5.111 -16.948   1.475  1.00  0.00     0.060 A 
BRANCH  90  91
ATOM     91  S   UNL     1       5.857 -16.363   3.019  1.00  0.00     0.124 S 
ATOM     92  O   UNL     1       4.783 -16.591   3.979  1.00  0.00    -0.237 OA
ATOM     93  O   UNL     1       7.022 -17.232   3.149  1.00  0.00    -0.237 OA
ATOM     94  O   UNL     1       6.157 -14.962   2.740  1.00  0.00    -0.744 OA
ENDBRANCH  90  91
ENDBRANCH  58  83
BRANCH  70  95
ATOM     95  C   UNL     1       3.251 -22.105  -5.675  1.00  0.00     0.058 A 
ATOM     96  C   UNL     1       2.063 -21.365  -5.552  1.00  0.00     0.135 A 
ATOM     97  C   UNL     1       3.131 -23.475  -5.947  1.00  0.00     0.135 A 
ATOM     98  F   UNL     1       2.092 -20.037  -5.372  1.00  0.00    -0.206 F 
ATOM     99  C   UNL     1       0.810 -21.972  -5.661  1.00  0.00     0.059 A 
ATOM    100  C   UNL     1       1.896 -24.094  -6.092  1.00  0.00     0.059 A 
ATOM    101  F   UNL     1       4.232 -24.224  -6.124  1.00  0.00    -0.206 F 
ATOM    102  C   UNL     1       0.738 -23.339  -5.932  1.00  0.00     0.060 A 
BRANCH 102 103
ATOM    103  S   UNL     1      -0.877 -24.121  -6.130  1.00  0.00     0.124 S 
ATOM    104  O   UNL     1      -1.399 -24.096  -4.767  1.00  0.00    -0.237 OA
ATOM    105  O   UNL     1      -1.543 -23.235  -7.081  1.00  0.00    -0.237 OA
ATOM    106  O   UNL     1      -0.553 -25.447  -6.649  1.00  0.00    -0.744 OA
ENDBRANCH 102 103
ENDBRANCH  70  95
ENDBRANCH  44  45
ENDBRANCH  36  39
ENDBRANCH  34  35
ENDBRANCH  33  34
ENDBRANCH   1  33
TORSDOF 18
