REMARK SMILES COc1cccc(-c2nn(-c3cc4c(cc3C(N)=O)OCO4)cc2C(=O)NCCCCNC(=O)c2ccc(-c3c4nc(c(-c5c(F)cc(S(=O)(=O)[O-])cc5F)c5ccc([nH]5)c(-c5c(F)cc(S(=O)(=O)[O-])cc5F)c5nc(c(-c6c(F)cc(S(=O)(=O)[O-])cc6F)c6ccc3[nH]6)C=C5)C=C4)cc2)c1
REMARK SMILES IDX 30 1 29 2 28 3 27 4 25 5 26 6 24 8 8 9 9 10 10 11 23 12 7 13
REMARK SMILES IDX 3 14 4 15 101 16 5 17 6 18 2 19 1 20 11 21 12 22 16 23 13 24
REMARK SMILES IDX 15 25 14 26 22 27 20 28 21 29 17 30 18 31 19 32 31 35 32 36
REMARK SMILES IDX 33 37 34 39 35 40 36 41 100 42 37 43 99 44 38 45 39 46 40 47
REMARK SMILES IDX 93 48 41 49 98 50 92 51 94 52 42 53 97 54 91 55 90 56 43 58
REMARK SMILES IDX 77 59 56 60 76 61 57 62 60 63 75 64 95 65 58 66 59 67 74 69
REMARK SMILES IDX 96 70 61 71 44 72 45 73 54 74 46 75 47 76 53 77 55 78 48 79
REMARK SMILES IDX 49 80 50 81 51 82 52 83 78 84 79 85 88 86 80 87 81 88 87 89
REMARK SMILES IDX 89 90 82 91 83 92 84 93 85 94 86 95 62 96 63 97 72 98 64 99
REMARK SMILES IDX 65 100 71 101 73 102 66 103 67 104 68 105 69 106 70 107
REMARK H PARENT 27 7 18 33 18 34 32 38 94 57 60 68
REMARK Flexibility Score: inf
ROOT
ATOM      1  C   UNL     1       5.316  -0.183  -9.819  1.00  0.00     0.023 C 
ENDROOT
BRANCH   1   2
ATOM      2  C   UNL     1       5.948  -0.651  -8.498  1.00  0.00     0.023 C 
BRANCH   2   3
ATOM      3  C   UNL     1       5.617   0.231  -7.291  1.00  0.00     0.116 C 
BRANCH   3   4
ATOM      4  N   UNL     1       4.243   0.051  -6.870  1.00  0.00    -0.352 N 
ATOM      5  C   UNL     1       3.647  -0.716  -5.900  1.00  0.00     0.255 C 
ATOM      6  O   UNL     1       2.421  -0.620  -5.835  1.00  0.00    -0.269 OA
ATOM      7  H   UNL     1       3.603   0.591  -7.388  1.00  0.00     0.163 HD
BRANCH   5   8
ATOM      8  C   UNL     1       4.405  -1.567  -4.989  1.00  0.00     0.086 A 
ATOM      9  C   UNL     1       3.946  -2.209  -3.781  1.00  0.00     0.106 A 
ATOM     10  N   UNL     1       4.959  -2.828  -3.132  1.00  0.00    -0.167 NA
ATOM     11  N   UNL     1       6.055  -2.419  -3.805  1.00  0.00    -0.239 N 
ATOM     12  C   UNL     1       5.720  -1.972  -5.061  1.00  0.00     0.129 A 
BRANCH   9  13
ATOM     13  C   UNL     1       2.578  -2.250  -3.260  1.00  0.00     0.007 A 
ATOM     14  C   UNL     1       0.946  -1.703  -1.553  1.00  0.00     0.119 A 
ATOM     15  C   UNL     1      -0.073  -2.222  -2.353  1.00  0.00     0.046 A 
ATOM     16  C   UNL     1       2.273  -1.732  -1.993  1.00  0.00     0.056 A 
ATOM     17  C   UNL     1       0.224  -2.753  -3.605  1.00  0.00     0.005 A 
ATOM     18  C   UNL     1       1.545  -2.776  -4.051  1.00  0.00     0.011 A 
BRANCH  14  19
ATOM     19  O   UNL     1       0.565  -1.245  -0.319  1.00  0.00    -0.497 OA
ATOM     20  C   UNL     1       1.070   0.055  -0.019  1.00  0.00     0.278 C 
ENDBRANCH  14  19
ENDBRANCH   9  13
BRANCH  11  21
ATOM     21  C   UNL     1       7.380  -2.627  -3.348  1.00  0.00     0.081 A 
ATOM     22  C   UNL     1       7.705  -3.892  -2.822  1.00  0.00     0.079 A 
ATOM     23  C   UNL     1       8.380  -1.619  -3.501  1.00  0.00     0.069 A 
ATOM     24  C   UNL     1       9.036  -4.143  -2.555  1.00  0.00     0.167 A 
ATOM     25  C   UNL     1       9.728  -1.958  -3.296  1.00  0.00     0.066 A 
ATOM     26  C   UNL     1      10.016  -3.214  -2.814  1.00  0.00     0.166 A 
ATOM     27  O   UNL     1       9.554  -5.293  -2.042  1.00  0.00    -0.454 OA
ATOM     28  O   UNL     1      11.261  -3.661  -2.499  1.00  0.00    -0.454 OA
ATOM     29  C   UNL     1      10.930  -4.900  -1.843  1.00  0.00     0.468 C 
BRANCH  23  30
ATOM     30  C   UNL     1       8.038  -0.168  -3.685  1.00  0.00     0.251 C 
ATOM     31  N   UNL     1       8.969   0.769  -3.339  1.00  0.00    -0.366 N 
ATOM     32  O   UNL     1       6.941   0.229  -4.065  1.00  0.00    -0.269 OA
ATOM     33  H   UNL     1       9.860   0.487  -3.029  1.00  0.00     0.159 HD
ATOM     34  H   UNL     1       8.749   1.727  -3.398  1.00  0.00     0.159 HD
ENDBRANCH  23  30
ENDBRANCH  11  21
ENDBRANCH   5   8
ENDBRANCH   3   4
ENDBRANCH   2   3
ENDBRANCH   1   2
BRANCH   1  35
ATOM     35  C   UNL     1       5.806   1.177 -10.306  1.00  0.00     0.116 C 
BRANCH  35  36
ATOM     36  N   UNL     1       7.242   1.192 -10.570  1.00  0.00    -0.352 N 
ATOM     37  C   UNL     1       8.039   2.276 -10.883  1.00  0.00     0.251 C 
ATOM     38  H   UNL     1       7.700   0.322 -10.518  1.00  0.00     0.163 HD
ATOM     39  O   UNL     1       9.118   2.116 -11.440  1.00  0.00    -0.269 OA
BRANCH  37  40
ATOM     40  C   UNL     1       7.571   3.627 -10.528  1.00  0.00     0.039 A 
ATOM     41  C   UNL     1       7.685   4.688 -11.431  1.00  0.00     0.014 A 
ATOM     42  C   UNL     1       6.992   3.814  -9.274  1.00  0.00     0.014 A 
ATOM     43  C   UNL     1       7.132   5.921 -11.094  1.00  0.00     0.010 A 
ATOM     44  C   UNL     1       6.348   4.994  -8.990  1.00  0.00     0.010 A 
ATOM     45  C   UNL     1       6.445   6.063  -9.879  1.00  0.00    -0.014 A 
BRANCH  45  46
ATOM     46  C   UNL     1       5.699   7.285  -9.585  1.00  0.00     0.031 A 
ATOM     47  C   UNL     1       4.640   7.619 -10.584  1.00  0.00     0.074 A 
ATOM     48  C   UNL     1       5.773   7.911  -8.390  1.00  0.00     0.049 A 
ATOM     49  N   UNL     1       4.570   8.646 -11.366  1.00  0.00    -0.248 NA
ATOM     50  C   UNL     1       3.596   6.611 -10.844  1.00  0.00     0.031 C 
ATOM     51  C   UNL     1       6.520   7.488  -7.198  1.00  0.00     0.029 A 
ATOM     52  N   UNL     1       5.094   9.000  -7.939  1.00  0.00    -0.354 N 
ATOM     53  C   UNL     1       3.356   8.532 -12.045  1.00  0.00     0.074 A 
ATOM     54  C   UNL     1       2.912   7.179 -11.839  1.00  0.00     0.031 C 
ATOM     55  C   UNL     1       6.064   8.158  -6.116  1.00  0.00     0.029 A 
ATOM     56  C   UNL     1       5.124   9.170  -6.558  1.00  0.00     0.049 A 
ATOM     57  H   UNL     1       4.619   9.618  -8.541  1.00  0.00     0.167 HD
ATOM     58  C   UNL     1       2.694   9.631 -12.508  1.00  0.00     0.037 A 
ATOM     59  C   UNL     1       4.403  10.057  -5.825  1.00  0.00     0.037 A 
ATOM     60  C   UNL     1       3.567  10.778 -12.538  1.00  0.00     0.049 A 
ATOM     61  C   UNL     1       3.945  11.117  -6.759  1.00  0.00     0.074 A 
ATOM     62  C   UNL     1       4.754  11.086 -13.174  1.00  0.00     0.029 A 
ATOM     63  N   UNL     1       3.439  11.693 -11.521  1.00  0.00    -0.354 N 
ATOM     64  N   UNL     1       4.748  11.944  -7.371  1.00  0.00    -0.248 NA
ATOM     65  C   UNL     1       2.632  10.965  -7.363  1.00  0.00     0.031 C 
ATOM     66  C   UNL     1       5.497  11.843 -12.221  1.00  0.00     0.029 A 
ATOM     67  C   UNL     1       4.698  12.018 -11.090  1.00  0.00     0.049 A 
ATOM     68  H   UNL     1       2.593  12.052 -11.166  1.00  0.00     0.167 HD
ATOM     69  C   UNL     1       4.219  12.075  -8.646  1.00  0.00     0.074 A 
ATOM     70  C   UNL     1       2.866  11.531  -8.549  1.00  0.00     0.031 C 
ATOM     71  C   UNL     1       5.022  12.348  -9.717  1.00  0.00     0.037 A 
BRANCH  58  72
ATOM     72  C   UNL     1       1.184   9.779 -12.564  1.00  0.00     0.058 A 
ATOM     73  C   UNL     1       0.630  10.945 -13.140  1.00  0.00     0.135 A 
ATOM     74  C   UNL     1       0.277   8.984 -11.829  1.00  0.00     0.135 A 
ATOM     75  F   UNL     1       1.391  11.778 -13.868  1.00  0.00    -0.206 F 
ATOM     76  C   UNL     1      -0.692  11.337 -12.921  1.00  0.00     0.059 A 
ATOM     77  C   UNL     1      -1.059   9.329 -11.644  1.00  0.00     0.059 A 
ATOM     78  F   UNL     1       0.653   7.883 -11.171  1.00  0.00    -0.206 F 
ATOM     79  C   UNL     1      -1.523  10.529 -12.153  1.00  0.00     0.060 A 
BRANCH  79  80
ATOM     80  S   UNL     1      -3.194  11.082 -11.773  1.00  0.00     0.124 S 
ATOM     81  O   UNL     1      -2.932  12.201 -10.876  1.00  0.00    -0.237 OA
ATOM     82  O   UNL     1      -3.706  11.428 -13.095  1.00  0.00    -0.237 OA
ATOM     83  O   UNL     1      -3.804   9.907 -11.158  1.00  0.00    -0.744 OA
ENDBRANCH  79  80
ENDBRANCH  58  72
BRANCH  59  84
ATOM     84  C   UNL     1       3.824   9.880  -4.466  1.00  0.00     0.058 A 
ATOM     85  C   UNL     1       3.336  10.975  -3.729  1.00  0.00     0.135 A 
ATOM     86  C   UNL     1       3.477   8.604  -3.978  1.00  0.00     0.135 A 
ATOM     87  F   UNL     1       3.599  12.228  -4.131  1.00  0.00    -0.206 F 
ATOM     88  C   UNL     1       2.515  10.815  -2.606  1.00  0.00     0.059 A 
ATOM     89  C   UNL     1       2.667   8.419  -2.857  1.00  0.00     0.059 A 
ATOM     90  F   UNL     1       3.842   7.492  -4.635  1.00  0.00    -0.206 F 
ATOM     91  C   UNL     1       2.168   9.530  -2.190  1.00  0.00     0.060 A 
BRANCH  91  92
ATOM     92  S   UNL     1       0.972   9.321  -0.848  1.00  0.00     0.124 S 
ATOM     93  O   UNL     1       1.732   9.780   0.309  1.00  0.00    -0.237 OA
ATOM     94  O   UNL     1      -0.125  10.184  -1.274  1.00  0.00    -0.237 OA
ATOM     95  O   UNL     1       0.681   7.889  -0.874  1.00  0.00    -0.744 OA
ENDBRANCH  91  92
ENDBRANCH  59  84
BRANCH  71  96
ATOM     96  C   UNL     1       6.427  12.827  -9.454  1.00  0.00     0.058 A 
ATOM     97  C   UNL     1       7.433  12.068  -8.829  1.00  0.00     0.135 A 
ATOM     98  C   UNL     1       6.809  14.061 -10.002  1.00  0.00     0.135 A 
ATOM     99  F   UNL     1       7.183  10.836  -8.367  1.00  0.00    -0.206 F 
ATOM    100  C   UNL     1       8.746  12.532  -8.721  1.00  0.00     0.059 A 
ATOM    101  C   UNL     1       8.118  14.529  -9.935  1.00  0.00     0.059 A 
ATOM    102  F   UNL     1       5.911  14.809 -10.665  1.00  0.00    -0.206 F 
ATOM    103  C   UNL     1       9.080  13.765  -9.281  1.00  0.00     0.060 A 
BRANCH 103 104
ATOM    104  S   UNL     1      10.793  14.332  -9.208  1.00  0.00     0.124 S 
ATOM    105  O   UNL     1      10.949  14.659  -7.794  1.00  0.00    -0.237 OA
ATOM    106  O   UNL     1      11.536  13.165  -9.674  1.00  0.00    -0.237 OA
ATOM    107  O   UNL     1      10.813  15.476 -10.117  1.00  0.00    -0.744 OA
ENDBRANCH 103 104
ENDBRANCH  71  96
ENDBRANCH  45  46
ENDBRANCH  37  40
ENDBRANCH  35  36
ENDBRANCH   1  35
TORSDOF 18
