REMARK SMILES CCC(CC)(C(=O)NCCCCNC(=O)c1ccc(-c2c3nc(c(-c4c(F)cc(S(=O)(=O)[O-])cc4F)c4ccc([nH]4)c(-c4c(F)cc(S(=O)(=O)[O-])cc4F)c4nc(c(-c5c(F)cc(S(=O)(=O)[O-])cc5F)c5ccc2[nH]5)C=C4)C=C3)cc1)n1nnnc1C[C@@H](C)C(C)(C)C
REMARK SMILES IDX 10 1 9 2 8 3 6 4 7 5 3 7 2 8 1 9 4 10 5 11 82 12 83 13 86 14
REMARK SMILES IDX 84 15 85 16 87 17 88 18 89 19 90 20 91 21 92 22 93 23 11 24
REMARK SMILES IDX 12 25 13 26 14 27 15 29 16 30 17 31 81 32 18 33 80 34 19 35
REMARK SMILES IDX 20 36 21 37 74 38 22 39 79 40 73 41 75 42 23 43 78 44 72 45
REMARK SMILES IDX 71 46 24 48 58 49 37 50 57 51 38 52 41 53 56 54 76 55 39 56
REMARK SMILES IDX 40 57 55 59 77 60 42 61 25 62 26 63 35 64 27 65 28 66 34 67
REMARK SMILES IDX 36 68 29 69 30 70 31 71 32 72 33 73 59 74 60 75 69 76 61 77
REMARK SMILES IDX 62 78 68 79 70 80 63 81 64 82 65 83 66 84 67 85 43 86 44 87
REMARK SMILES IDX 53 88 45 89 46 90 52 91 54 92 47 93 48 94 49 95 50 96 51 97
REMARK H PARENT 8 6 13 28 75 47 41 58
REMARK Flexibility Score: inf
ROOT
ATOM      1  C   UNL     1      -2.799   2.522   1.709  1.00  0.00     0.023 C 
ENDROOT
BRANCH   1   2
ATOM      2  C   UNL     1      -2.049   2.886   0.434  1.00  0.00     0.116 C 
BRANCH   2   3
ATOM      3  N   UNL     1      -0.940   3.798   0.630  1.00  0.00    -0.354 N 
ATOM      4  C   UNL     1       0.411   3.680   0.400  1.00  0.00     0.248 C 
ATOM      5  O   UNL     1       1.040   4.713   0.640  1.00  0.00    -0.272 OA
ATOM      6  H   UNL     1      -1.205   4.671   1.001  1.00  0.00     0.163 HD
BRANCH   4   7
ATOM      7  C   UNL     1       1.061   2.328  -0.081  1.00  0.00     0.144 C 
BRANCH   7   8
ATOM      8  C   UNL     1       0.646   1.268   1.007  1.00  0.00     0.037 C 
ATOM      9  C   UNL     1      -0.127   0.023   0.588  1.00  0.00     0.007 C 
ENDBRANCH   7   8
BRANCH   7  10
ATOM     10  C   UNL     1       0.792   2.108  -1.609  1.00  0.00     0.037 C 
ATOM     11  C   UNL     1      -0.594   2.149  -2.226  1.00  0.00     0.007 C 
ENDBRANCH   7  10
BRANCH   7  12
ATOM     12  N   UNL     1       2.582   2.371  -0.056  1.00  0.00    -0.214 N 
ATOM     13  N   UNL     1       3.259   3.534  -0.135  1.00  0.00    -0.044 NA
ATOM     14  C   UNL     1       3.499   1.334  -0.261  1.00  0.00     0.152 A 
ATOM     15  N   UNL     1       4.537   3.221  -0.242  1.00  0.00    -0.024 NA
ATOM     16  N   UNL     1       4.702   1.871  -0.311  1.00  0.00    -0.114 NA
BRANCH  14  17
ATOM     17  C   UNL     1       3.206  -0.134  -0.304  1.00  0.00     0.083 C 
BRANCH  17  18
ATOM     18  C   UNL     1       3.773  -0.936  -1.506  1.00  0.00    -0.001 C 
ATOM     19  C   UNL     1       5.311  -0.910  -1.504  1.00  0.00     0.008 C 
BRANCH  18  20
ATOM     20  C   UNL     1       3.196  -2.418  -1.556  1.00  0.00    -0.035 C 
ATOM     21  C   UNL     1       1.652  -2.414  -1.654  1.00  0.00     0.011 C 
ATOM     22  C   UNL     1       3.707  -3.171  -2.805  1.00  0.00     0.011 C 
ATOM     23  C   UNL     1       3.588  -3.235  -0.308  1.00  0.00     0.011 C 
ENDBRANCH  18  20
ENDBRANCH  17  18
ENDBRANCH  14  17
ENDBRANCH   7  12
ENDBRANCH   4   7
ENDBRANCH   2   3
ENDBRANCH   1   2
BRANCH   1  24
ATOM     24  C   UNL     1      -3.630   3.645   2.320  1.00  0.00     0.023 C 
BRANCH  24  25
ATOM     25  C   UNL     1      -4.566   4.373   1.361  1.00  0.00     0.116 C 
BRANCH  25  26
ATOM     26  N   UNL     1      -5.449   3.487   0.618  1.00  0.00    -0.352 N 
ATOM     27  C   UNL     1      -6.792   3.623   0.343  1.00  0.00     0.251 C 
ATOM     28  H   UNL     1      -5.027   2.673   0.261  1.00  0.00     0.163 HD
ATOM     29  O   UNL     1      -7.386   2.725  -0.236  1.00  0.00    -0.269 OA
BRANCH  27  30
ATOM     30  C   UNL     1      -7.514   4.834   0.793  1.00  0.00     0.039 A 
ATOM     31  C   UNL     1      -8.738   4.676   1.447  1.00  0.00     0.014 A 
ATOM     32  C   UNL     1      -6.973   6.110   0.612  1.00  0.00     0.014 A 
ATOM     33  C   UNL     1      -9.376   5.792   1.992  1.00  0.00     0.010 A 
ATOM     34  C   UNL     1      -7.569   7.208   1.226  1.00  0.00     0.010 A 
ATOM     35  C   UNL     1      -8.774   7.060   1.928  1.00  0.00    -0.014 A 
BRANCH  35  36
ATOM     36  C   UNL     1      -9.385   8.226   2.618  1.00  0.00     0.031 A 
ATOM     37  C   UNL     1      -9.866   9.415   1.831  1.00  0.00     0.074 A 
ATOM     38  C   UNL     1      -9.467   8.226   3.965  1.00  0.00     0.049 A 
ATOM     39  N   UNL     1     -10.414  10.521   2.264  1.00  0.00    -0.248 NA
ATOM     40  C   UNL     1      -9.684   9.368   0.371  1.00  0.00     0.031 C 
ATOM     41  C   UNL     1      -8.966   7.166   4.844  1.00  0.00     0.029 A 
ATOM     42  N   UNL     1      -9.996   9.149   4.832  1.00  0.00    -0.354 N 
ATOM     43  C   UNL     1     -10.645  11.298   1.135  1.00  0.00     0.074 A 
ATOM     44  C   UNL     1     -10.118  10.566   0.004  1.00  0.00     0.031 C 
ATOM     45  C   UNL     1      -9.238   7.485   6.120  1.00  0.00     0.029 A 
ATOM     46  C   UNL     1      -9.905   8.782   6.154  1.00  0.00     0.049 A 
ATOM     47  H   UNL     1     -10.404   9.995   4.535  1.00  0.00     0.167 HD
ATOM     48  C   UNL     1     -11.268  12.497   1.044  1.00  0.00     0.037 A 
ATOM     49  C   UNL     1     -10.313   9.418   7.269  1.00  0.00     0.037 A 
ATOM     50  C   UNL     1     -11.808  13.215   2.170  1.00  0.00     0.049 A 
ATOM     51  C   UNL     1     -11.021  10.739   7.138  1.00  0.00     0.074 A 
ATOM     52  C   UNL     1     -12.495  14.416   2.177  1.00  0.00     0.029 A 
ATOM     53  N   UNL     1     -11.725  12.796   3.490  1.00  0.00    -0.354 N 
ATOM     54  N   UNL     1     -11.291  11.425   6.052  1.00  0.00    -0.248 NA
ATOM     55  C   UNL     1     -11.493  11.366   8.380  1.00  0.00     0.031 C 
ATOM     56  C   UNL     1     -12.799  14.740   3.504  1.00  0.00     0.029 A 
ATOM     57  C   UNL     1     -12.339  13.720   4.320  1.00  0.00     0.049 A 
ATOM     58  H   UNL     1     -11.293  11.965   3.793  1.00  0.00     0.167 HD
ATOM     59  C   UNL     1     -11.979  12.555   6.480  1.00  0.00     0.074 A 
ATOM     60  C   UNL     1     -12.109  12.445   7.918  1.00  0.00     0.031 C 
ATOM     61  C   UNL     1     -12.456  13.595   5.751  1.00  0.00     0.037 A 
BRANCH  48  62
ATOM     62  C   UNL     1     -11.429  13.099  -0.325  1.00  0.00     0.058 A 
ATOM     63  C   UNL     1     -12.323  12.553  -1.261  1.00  0.00     0.135 A 
ATOM     64  C   UNL     1     -10.730  14.261  -0.689  1.00  0.00     0.135 A 
ATOM     65  F   UNL     1     -13.003  11.432  -0.973  1.00  0.00    -0.206 F 
ATOM     66  C   UNL     1     -12.507  13.128  -2.514  1.00  0.00     0.059 A 
ATOM     67  C   UNL     1     -10.918  14.868  -1.928  1.00  0.00     0.059 A 
ATOM     68  F   UNL     1      -9.860  14.822   0.166  1.00  0.00    -0.206 F 
ATOM     69  C   UNL     1     -11.802  14.289  -2.837  1.00  0.00     0.060 A 
BRANCH  69  70
ATOM     70  S   UNL     1     -12.078  15.039  -4.455  1.00  0.00     0.124 S 
ATOM     71  O   UNL     1     -11.397  14.092  -5.334  1.00  0.00    -0.237 OA
ATOM     72  O   UNL     1     -13.535  15.053  -4.548  1.00  0.00    -0.237 OA
ATOM     73  O   UNL     1     -11.447  16.349  -4.336  1.00  0.00    -0.744 OA
ENDBRANCH  69  70
ENDBRANCH  48  62
BRANCH  49  74
ATOM     74  C   UNL     1     -10.080   8.810   8.607  1.00  0.00     0.058 A 
ATOM     75  C   UNL     1     -11.146   8.323   9.378  1.00  0.00     0.135 A 
ATOM     76  C   UNL     1      -8.788   8.716   9.147  1.00  0.00     0.135 A 
ATOM     77  F   UNL     1     -12.401   8.393   8.907  1.00  0.00    -0.206 F 
ATOM     78  C   UNL     1     -10.946   7.794  10.649  1.00  0.00     0.059 A 
ATOM     79  C   UNL     1      -8.559   8.166  10.404  1.00  0.00     0.059 A 
ATOM     80  F   UNL     1      -7.731   9.147   8.441  1.00  0.00    -0.206 F 
ATOM     81  C   UNL     1      -9.647   7.723  11.155  1.00  0.00     0.060 A 
BRANCH  81  82
ATOM     82  S   UNL     1      -9.390   7.012  12.795  1.00  0.00     0.124 S 
ATOM     83  O   UNL     1      -9.847   8.095  13.658  1.00  0.00    -0.237 OA
ATOM     84  O   UNL     1     -10.240   5.826  12.754  1.00  0.00    -0.237 OA
ATOM     85  O   UNL     1      -7.955   6.744  12.822  1.00  0.00    -0.744 OA
ENDBRANCH  81  82
ENDBRANCH  49  74
BRANCH  61  86
ATOM     86  C   UNL     1     -13.177  14.680   6.500  1.00  0.00     0.058 A 
ATOM     87  C   UNL     1     -12.493  15.576   7.337  1.00  0.00     0.135 A 
ATOM     88  C   UNL     1     -14.567  14.833   6.373  1.00  0.00     0.135 A 
ATOM     89  F   UNL     1     -11.164  15.471   7.496  1.00  0.00    -0.206 F 
ATOM     90  C   UNL     1     -13.167  16.558   8.056  1.00  0.00     0.059 A 
ATOM     91  C   UNL     1     -15.258  15.826   7.059  1.00  0.00     0.059 A 
ATOM     92  F   UNL     1     -15.268  14.012   5.574  1.00  0.00    -0.206 F 
ATOM     93  C   UNL     1     -14.551  16.671   7.914  1.00  0.00     0.060 A 
BRANCH  93  94
ATOM     94  S   UNL     1     -15.417  17.945   8.856  1.00  0.00     0.124 S 
ATOM     95  O   UNL     1     -15.433  17.360  10.192  1.00  0.00    -0.237 OA
ATOM     96  O   UNL     1     -14.551  19.107   8.682  1.00  0.00    -0.237 OA
ATOM     97  O   UNL     1     -16.714  18.033   8.192  1.00  0.00    -0.744 OA
ENDBRANCH  93  94
ENDBRANCH  61  86
ENDBRANCH  35  36
ENDBRANCH  27  30
ENDBRANCH  25  26
ENDBRANCH  24  25
ENDBRANCH   1  24
TORSDOF 20
