REMARK SMILES O=C(CCN1C(=O)/C(=C2/C(=O)N(Cc3ccccc3)c3ccccc32)SC1=S)NCCCCNC(=O)c1ccc(-c2c3nc(c(-c4c(F)cc(S(=O)(=O)[O-])cc4F)c4ccc([nH]4)c(-c4c(F)cc(S(=O)(=O)[O-])cc4F)c4nc(c(-c5c(F)cc(S(=O)(=O)[O-])cc5F)c5ccc2[nH]5)C=C4)C=C3)cc1
REMARK SMILES IDX 31 1 30 2 29 3 1 4 2 5 3 7 4 8 5 9 6 10 27 11 7 12 8 13
REMARK SMILES IDX 26 14 28 15 9 16 10 17 25 18 11 19 12 20 20 21 24 22 21 23
REMARK SMILES IDX 23 24 22 25 13 26 14 27 15 28 19 29 16 30 18 31 17 32 32 33
REMARK SMILES IDX 33 34 34 35 35 36 36 38 37 39 38 40 102 41 39 42 101 43
REMARK SMILES IDX 40 44 41 45 42 46 95 47 43 48 100 49 94 50 96 51 44 52 99 53
REMARK SMILES IDX 93 54 92 55 45 57 79 58 58 59 78 60 59 61 62 62 77 63 97 64
REMARK SMILES IDX 60 65 61 66 76 68 98 69 63 70 46 71 47 72 56 73 48 74 49 75
REMARK SMILES IDX 55 76 57 77 50 78 51 79 52 80 53 81 54 82 80 83 81 84 90 85
REMARK SMILES IDX 82 86 83 87 89 88 91 89 84 90 85 91 86 92 87 93 88 94 64 95
REMARK SMILES IDX 65 96 74 97 66 98 67 99 73 100 75 101 68 102 69 103 70 104
REMARK SMILES IDX 71 105 72 106
REMARK H PARENT 29 6 34 37 96 56 62 67
REMARK Flexibility Score: inf
ROOT
ATOM      1  C   UNL     1       2.325  -1.615   3.323  1.00  0.00     0.023 C 
ENDROOT
BRANCH   1   2
ATOM      2  C   UNL     1       1.953  -0.298   2.643  1.00  0.00     0.116 C 
BRANCH   2   3
ATOM      3  N   UNL     1       2.655  -0.130   1.386  1.00  0.00    -0.356 N 
ATOM      4  O   UNL     1       0.787   0.190   0.099  1.00  0.00    -0.275 OA
ATOM      5  C   UNL     1       2.006   0.077   0.198  1.00  0.00     0.221 C 
ATOM      6  H   UNL     1       3.639  -0.165   1.387  1.00  0.00     0.163 HD
BRANCH   5   7
ATOM      7  C   UNL     1       2.888   0.035  -1.026  1.00  0.00     0.122 C 
BRANCH   7   8
ATOM      8  C   UNL     1       4.069   0.999  -1.034  1.00  0.00     0.137 C 
BRANCH   8   9
ATOM      9  N   UNL     1       5.244   0.733  -0.186  1.00  0.00    -0.292 N 
ATOM     10  C   UNL     1       5.749   1.799   0.549  1.00  0.00     0.267 C 
ATOM     11  C   UNL     1       6.050  -0.387  -0.203  1.00  0.00     0.148 C 
ATOM     12  O   UNL     1       5.075   2.718   0.990  1.00  0.00    -0.268 OA
ATOM     13  C   UNL     1       7.205   1.611   0.795  1.00  0.00     0.093 C 
ATOM     14  S   UNL     1       7.467  -0.097   0.797  1.00  0.00    -0.053 SA
ATOM     15  S   UNL     1       5.828  -1.823  -1.012  1.00  0.00    -0.052 S 
ATOM     16  C   UNL     1       8.137   2.580   0.840  1.00  0.00     0.069 C 
ATOM     17  C   UNL     1       9.619   2.312   1.042  1.00  0.00     0.260 C 
ATOM     18  C   UNL     1       8.007   4.043   0.681  1.00  0.00     0.012 A 
ATOM     19  O   UNL     1      10.158   1.226   1.145  1.00  0.00    -0.269 OA
ATOM     20  N   UNL     1      10.227   3.563   1.068  1.00  0.00    -0.303 N 
ATOM     21  C   UNL     1       9.277   4.586   0.916  1.00  0.00     0.052 A 
ATOM     22  C   UNL     1       6.973   4.886   0.300  1.00  0.00     0.011 A 
ATOM     23  C   UNL     1       9.493   5.955   0.935  1.00  0.00     0.027 A 
ATOM     24  C   UNL     1       7.198   6.266   0.239  1.00  0.00     0.001 A 
ATOM     25  C   UNL     1       8.444   6.799   0.579  1.00  0.00     0.002 A 
BRANCH  20  26
ATOM     26  C   UNL     1      11.668   3.755   1.126  1.00  0.00     0.161 C 
BRANCH  26  27
ATOM     27  C   UNL     1      12.313   3.988  -0.234  1.00  0.00    -0.028 A 
ATOM     28  C   UNL     1      12.294   5.249  -0.851  1.00  0.00     0.005 A 
ATOM     29  C   UNL     1      12.973   2.944  -0.901  1.00  0.00     0.005 A 
ATOM     30  C   UNL     1      12.886   5.461  -2.098  1.00  0.00     0.000 A 
ATOM     31  C   UNL     1      13.589   3.162  -2.139  1.00  0.00     0.000 A 
ATOM     32  C   UNL     1      13.539   4.417  -2.742  1.00  0.00     0.000 A 
ENDBRANCH  26  27
ENDBRANCH  20  26
ENDBRANCH   8   9
ENDBRANCH   7   8
ENDBRANCH   5   7
ENDBRANCH   2   3
ENDBRANCH   1   2
BRANCH   1  33
ATOM     33  C   UNL     1       3.816  -1.792   3.620  1.00  0.00     0.023 C 
BRANCH  33  34
ATOM     34  C   UNL     1       4.458  -0.673   4.431  1.00  0.00     0.116 C 
BRANCH  34  35
ATOM     35  N   UNL     1       3.923  -0.562   5.779  1.00  0.00    -0.352 N 
ATOM     36  C   UNL     1       4.591  -0.533   6.984  1.00  0.00     0.251 C 
ATOM     37  H   UNL     1       2.942  -0.497   5.840  1.00  0.00     0.163 HD
ATOM     38  O   UNL     1       3.959  -0.557   8.036  1.00  0.00    -0.269 OA
BRANCH  36  39
ATOM     39  C   UNL     1       6.072  -0.521   7.005  1.00  0.00     0.039 A 
ATOM     40  C   UNL     1       6.794   0.313   6.149  1.00  0.00     0.014 A 
ATOM     41  C   UNL     1       6.747  -1.392   7.864  1.00  0.00     0.014 A 
ATOM     42  C   UNL     1       8.167   0.137   6.012  1.00  0.00     0.010 A 
ATOM     43  C   UNL     1       8.140  -1.499   7.793  1.00  0.00     0.010 A 
ATOM     44  C   UNL     1       8.857  -0.779   6.824  1.00  0.00    -0.014 A 
BRANCH  44  45
ATOM     45  C   UNL     1      10.317  -0.987   6.621  1.00  0.00     0.031 A 
ATOM     46  C   UNL     1      10.848  -2.321   6.160  1.00  0.00     0.074 A 
ATOM     47  C   UNL     1      11.163   0.048   6.790  1.00  0.00     0.049 A 
ATOM     48  N   UNL     1      12.084  -2.679   5.915  1.00  0.00    -0.248 NA
ATOM     49  C   UNL     1       9.865  -3.397   5.953  1.00  0.00     0.031 C 
ATOM     50  C   UNL     1      10.772   1.394   7.211  1.00  0.00     0.029 A 
ATOM     51  N   UNL     1      12.519   0.141   6.599  1.00  0.00    -0.354 N 
ATOM     52  C   UNL     1      12.028  -4.014   5.529  1.00  0.00     0.074 A 
ATOM     53  C   UNL     1      10.642  -4.419   5.623  1.00  0.00     0.031 C 
ATOM     54  C   UNL     1      11.850   2.192   7.188  1.00  0.00     0.029 A 
ATOM     55  C   UNL     1      13.019   1.403   6.815  1.00  0.00     0.049 A 
ATOM     56  H   UNL     1      13.080  -0.624   6.334  1.00  0.00     0.167 HD
ATOM     57  C   UNL     1      13.034  -4.822   5.112  1.00  0.00     0.037 A 
ATOM     58  C   UNL     1      14.278   1.874   6.730  1.00  0.00     0.037 A 
ATOM     59  C   UNL     1      14.411  -4.412   5.007  1.00  0.00     0.049 A 
ATOM     60  C   UNL     1      15.388   0.940   6.340  1.00  0.00     0.074 A 
ATOM     61  C   UNL     1      15.503  -5.158   4.599  1.00  0.00     0.029 A 
ATOM     62  N   UNL     1      14.887  -3.143   5.309  1.00  0.00    -0.354 N 
ATOM     63  N   UNL     1      15.318  -0.322   5.992  1.00  0.00    -0.248 NA
ATOM     64  C   UNL     1      16.750   1.491   6.343  1.00  0.00     0.031 C 
ATOM     65  C   UNL     1      16.645  -4.356   4.698  1.00  0.00     0.029 A 
ATOM     66  C   UNL     1      16.259  -3.093   5.119  1.00  0.00     0.049 A 
ATOM     67  H   UNL     1      14.331  -2.390   5.613  1.00  0.00     0.167 HD
ATOM     68  C   UNL     1      16.623  -0.714   5.719  1.00  0.00     0.074 A 
ATOM     69  C   UNL     1      17.460   0.451   5.927  1.00  0.00     0.031 C 
ATOM     70  C   UNL     1      17.085  -1.929   5.334  1.00  0.00     0.037 A 
BRANCH  57  71
ATOM     71  C   UNL     1      12.682  -6.240   4.743  1.00  0.00     0.058 A 
ATOM     72  C   UNL     1      11.946  -6.540   3.584  1.00  0.00     0.135 A 
ATOM     73  C   UNL     1      13.111  -7.316   5.537  1.00  0.00     0.135 A 
ATOM     74  F   UNL     1      11.498  -5.551   2.794  1.00  0.00    -0.206 F 
ATOM     75  C   UNL     1      11.620  -7.849   3.246  1.00  0.00     0.059 A 
ATOM     76  C   UNL     1      12.820  -8.637   5.203  1.00  0.00     0.059 A 
ATOM     77  F   UNL     1      13.821  -7.091   6.654  1.00  0.00    -0.206 F 
ATOM     78  C   UNL     1      12.059  -8.892   4.063  1.00  0.00     0.060 A 
BRANCH  78  79
ATOM     79  S   UNL     1      11.614 -10.583   3.615  1.00  0.00     0.124 S 
ATOM     80  O   UNL     1      10.178 -10.587   3.884  1.00  0.00    -0.237 OA
ATOM     81  O   UNL     1      11.994 -10.644   2.208  1.00  0.00    -0.237 OA
ATOM     82  O   UNL     1      12.421 -11.400   4.517  1.00  0.00    -0.744 OA
ENDBRANCH  78  79
ENDBRANCH  57  71
BRANCH  58  83
ATOM     83  C   UNL     1      14.541   3.311   7.006  1.00  0.00     0.058 A 
ATOM     84  C   UNL     1      14.887   4.188   5.968  1.00  0.00     0.135 A 
ATOM     85  C   UNL     1      14.396   3.846   8.296  1.00  0.00     0.135 A 
ATOM     86  F   UNL     1      15.042   3.722   4.719  1.00  0.00    -0.206 F 
ATOM     87  C   UNL     1      15.075   5.546   6.197  1.00  0.00     0.059 A 
ATOM     88  C   UNL     1      14.551   5.206   8.544  1.00  0.00     0.059 A 
ATOM     89  F   UNL     1      14.053   3.050   9.320  1.00  0.00    -0.206 F 
ATOM     90  C   UNL     1      14.892   6.048   7.487  1.00  0.00     0.060 A 
BRANCH  90  91
ATOM     91  S   UNL     1      15.048   7.828   7.747  1.00  0.00     0.124 S 
ATOM     92  O   UNL     1      16.481   8.028   7.566  1.00  0.00    -0.237 OA
ATOM     93  O   UNL     1      14.189   8.363   6.694  1.00  0.00    -0.237 OA
ATOM     94  O   UNL     1      14.550   8.015   9.107  1.00  0.00    -0.744 OA
ENDBRANCH  90  91
ENDBRANCH  58  83
BRANCH  70  95
ATOM     95  C   UNL     1      18.564  -2.069   5.099  1.00  0.00     0.058 A 
ATOM     96  C   UNL     1      19.477  -2.096   6.164  1.00  0.00     0.135 A 
ATOM     97  C   UNL     1      19.067  -2.244   3.799  1.00  0.00     0.135 A 
ATOM     98  F   UNL     1      19.050  -1.924   7.425  1.00  0.00    -0.206 F 
ATOM     99  C   UNL     1      20.839  -2.278   5.949  1.00  0.00     0.059 A 
ATOM    100  C   UNL     1      20.423  -2.455   3.563  1.00  0.00     0.059 A 
ATOM    101  F   UNL     1      18.236  -2.234   2.745  1.00  0.00    -0.206 F 
ATOM    102  C   UNL     1      21.302  -2.463   4.644  1.00  0.00     0.060 A 
BRANCH 102 103
ATOM    103  S   UNL     1      23.067  -2.741   4.388  1.00  0.00     0.124 S 
ATOM    104  O   UNL     1      23.621  -1.426   4.696  1.00  0.00    -0.237 OA
ATOM    105  O   UNL     1      23.359  -3.794   5.355  1.00  0.00    -0.237 OA
ATOM    106  O   UNL     1      23.150  -3.143   2.987  1.00  0.00    -0.744 OA
ENDBRANCH 102 103
ENDBRANCH  70  95
ENDBRANCH  44  45
ENDBRANCH  36  39
ENDBRANCH  34  35
ENDBRANCH  33  34
ENDBRANCH   1  33
TORSDOF 18
