REMARK SMILES O=C(NC1(C(=O)NCCCCNC(=O)c2ccc(-c3c4nc(c(-c5c(F)cc(S(=O)(=O)[O-])cc5F)c5ccc([nH]5)c(-c5c(F)cc(S(=O)(=O)[O-])cc5F)c5nc(c(-c6c(F)cc(S(=O)(=O)[O-])cc6F)c6ccc3[nH]6)C=C5)C=C4)cc2)Cc2ccccc2C1)OCC1c2ccccc2-c2ccccc21
REMARK SMILES IDX 9 1 8 2 7 3 5 4 6 5 4 7 81 8 88 9 82 10 87 11 83 12 86 13
REMARK SMILES IDX 84 14 85 15 3 16 1 17 2 18 89 20 90 21 91 22 92 23 103 24
REMARK SMILES IDX 93 25 97 26 98 27 102 28 94 29 96 30 99 31 101 32 95 33
REMARK SMILES IDX 100 34 10 35 11 36 12 37 13 38 14 40 15 41 16 42 80 43 17 44
REMARK SMILES IDX 79 45 18 46 19 47 20 48 73 49 21 50 78 51 72 52 74 53 22 54
REMARK SMILES IDX 77 55 71 56 70 57 23 59 57 60 36 61 56 62 37 63 40 64 55 65
REMARK SMILES IDX 75 66 38 67 39 68 54 70 76 71 41 72 24 73 25 74 34 75 26 76
REMARK SMILES IDX 27 77 33 78 35 79 28 80 29 81 30 82 31 83 32 84 58 85 59 86
REMARK SMILES IDX 68 87 60 88 61 89 67 90 69 91 62 92 63 93 64 94 65 95 66 96
REMARK SMILES IDX 42 97 43 98 52 99 44 100 45 101 51 102 53 103 46 104 47 105
REMARK SMILES IDX 48 106 49 107 50 108
REMARK H PARENT 7 6 3 19 12 39 74 58 40 69
REMARK Flexibility Score: inf
ROOT
ATOM      1  C   UNL     1       7.919  -2.683  -0.460  1.00  0.00     0.023 C 
ENDROOT
BRANCH   1   2
ATOM      2  C   UNL     1       7.301  -2.812  -1.853  1.00  0.00     0.116 C 
BRANCH   2   3
ATOM      3  N   UNL     1       5.896  -3.155  -1.797  1.00  0.00    -0.354 N 
ATOM      4  C   UNL     1       4.767  -2.414  -1.682  1.00  0.00     0.246 C 
ATOM      5  O   UNL     1       3.716  -3.066  -1.797  1.00  0.00    -0.272 OA
ATOM      6  H   UNL     1       5.726  -4.123  -1.854  1.00  0.00     0.163 HD
BRANCH   4   7
ATOM      7  C   UNL     1       4.710  -0.855  -1.548  1.00  0.00     0.130 C 
ATOM      8  C   UNL     1       4.986  -0.178  -2.930  1.00  0.00     0.075 C 
ATOM      9  C   UNL     1       5.704  -0.198  -0.571  1.00  0.00     0.075 C 
ATOM     10  C   UNL     1       6.324   0.480  -2.757  1.00  0.00    -0.042 A 
ATOM     11  C   UNL     1       6.750   0.411  -1.437  1.00  0.00    -0.042 A 
ATOM     12  C   UNL     1       7.116   1.103  -3.706  1.00  0.00     0.004 A 
ATOM     13  C   UNL     1       7.973   0.922  -1.035  1.00  0.00     0.004 A 
ATOM     14  C   UNL     1       8.355   1.624  -3.311  1.00  0.00     0.000 A 
ATOM     15  C   UNL     1       8.788   1.523  -1.984  1.00  0.00     0.000 A 
BRANCH   7  16
ATOM     16  N   UNL     1       3.293  -0.611  -1.159  1.00  0.00    -0.306 N 
ATOM     17  O   UNL     1       1.531  -0.373   0.228  1.00  0.00    -0.225 OA
ATOM     18  C   UNL     1       2.732  -0.507   0.081  1.00  0.00     0.408 C 
ATOM     19  H   UNL     1       2.666  -0.509  -1.911  1.00  0.00     0.168 HD
BRANCH  18  20
ATOM     20  O   UNL     1       3.639  -0.410   1.092  1.00  0.00    -0.449 OA
BRANCH  20  21
ATOM     21  C   UNL     1       3.358   0.733   1.904  1.00  0.00     0.248 C 
BRANCH  21  22
ATOM     22  C   UNL     1       4.515   1.185   2.829  1.00  0.00     0.088 C 
ATOM     23  C   UNL     1       5.838   0.421   2.833  1.00  0.00    -0.029 A 
ATOM     24  C   UNL     1       4.986   2.592   2.430  1.00  0.00    -0.029 A 
ATOM     25  C   UNL     1       6.082  -0.915   3.111  1.00  0.00     0.005 A 
ATOM     26  C   UNL     1       6.911   1.302   2.556  1.00  0.00    -0.014 A 
ATOM     27  C   UNL     1       6.377   2.601   2.214  1.00  0.00    -0.014 A 
ATOM     28  C   UNL     1       4.212   3.721   2.194  1.00  0.00     0.005 A 
ATOM     29  C   UNL     1       7.411  -1.360   3.130  1.00  0.00     0.000 A 
ATOM     30  C   UNL     1       8.228   0.872   2.625  1.00  0.00     0.009 A 
ATOM     31  C   UNL     1       6.990   3.708   1.652  1.00  0.00     0.009 A 
ATOM     32  C   UNL     1       4.831   4.837   1.632  1.00  0.00     0.000 A 
ATOM     33  C   UNL     1       8.475  -0.472   2.905  1.00  0.00     0.001 A 
ATOM     34  C   UNL     1       6.204   4.822   1.341  1.00  0.00     0.001 A 
ENDBRANCH  21  22
ENDBRANCH  20  21
ENDBRANCH  18  20
ENDBRANCH   7  16
ENDBRANCH   4   7
ENDBRANCH   2   3
ENDBRANCH   1   2
BRANCH   1  35
ATOM     35  C   UNL     1       8.935  -3.757  -0.106  1.00  0.00     0.023 C 
BRANCH  35  36
ATOM     36  C   UNL     1      10.138  -3.821  -1.030  1.00  0.00     0.116 C 
BRANCH  36  37
ATOM     37  N   UNL     1      10.972  -2.626  -1.042  1.00  0.00    -0.352 N 
ATOM     38  C   UNL     1      12.333  -2.578  -1.278  1.00  0.00     0.251 C 
ATOM     39  H   UNL     1      10.521  -1.768  -0.866  1.00  0.00     0.163 HD
ATOM     40  O   UNL     1      12.956  -1.525  -1.208  1.00  0.00    -0.269 OA
BRANCH  38  41
ATOM     41  C   UNL     1      13.024  -3.856  -1.560  1.00  0.00     0.039 A 
ATOM     42  C   UNL     1      14.060  -4.273  -0.723  1.00  0.00     0.014 A 
ATOM     43  C   UNL     1      12.511  -4.713  -2.536  1.00  0.00     0.014 A 
ATOM     44  C   UNL     1      14.510  -5.594  -0.799  1.00  0.00     0.010 A 
ATOM     45  C   UNL     1      12.877  -6.051  -2.527  1.00  0.00     0.010 A 
ATOM     46  C   UNL     1      13.880  -6.511  -1.659  1.00  0.00    -0.014 A 
BRANCH  46  47
ATOM     47  C   UNL     1      14.249  -7.952  -1.678  1.00  0.00     0.031 A 
ATOM     48  C   UNL     1      14.719  -8.582  -2.964  1.00  0.00     0.074 A 
ATOM     49  C   UNL     1      14.078  -8.713  -0.577  1.00  0.00     0.049 A 
ATOM     50  N   UNL     1      14.978  -9.836  -3.225  1.00  0.00    -0.248 NA
ATOM     51  C   UNL     1      14.872  -7.687  -4.125  1.00  0.00     0.031 C 
ATOM     52  C   UNL     1      13.557  -8.245   0.711  1.00  0.00     0.029 A 
ATOM     53  N   UNL     1      14.314 -10.050  -0.365  1.00  0.00    -0.354 N 
ATOM     54  C   UNL     1      15.291  -9.883  -4.579  1.00  0.00     0.074 A 
ATOM     55  C   UNL     1      15.123  -8.546  -5.100  1.00  0.00     0.031 C 
ATOM     56  C   UNL     1      13.547  -9.267   1.583  1.00  0.00     0.029 A 
ATOM     57  C   UNL     1      14.022 -10.472   0.912  1.00  0.00     0.049 A 
ATOM     58  H   UNL     1      14.660 -10.652  -1.063  1.00  0.00     0.167 HD
ATOM     59  C   UNL     1      15.717 -10.935  -5.316  1.00  0.00     0.037 A 
ATOM     60  C   UNL     1      14.127 -11.691   1.478  1.00  0.00     0.037 A 
ATOM     61  C   UNL     1      15.944 -12.249  -4.779  1.00  0.00     0.049 A 
ATOM     62  C   UNL     1      14.650 -12.836   0.651  1.00  0.00     0.074 A 
ATOM     63  C   UNL     1      16.450 -13.366  -5.421  1.00  0.00     0.029 A 
ATOM     64  N   UNL     1      15.693 -12.620  -3.466  1.00  0.00    -0.354 N 
ATOM     65  N   UNL     1      15.006 -12.845  -0.612  1.00  0.00    -0.248 NA
ATOM     66  C   UNL     1      14.794 -14.134   1.325  1.00  0.00     0.031 C 
ATOM     67  C   UNL     1      16.475 -14.421  -4.503  1.00  0.00     0.029 A 
ATOM     68  C   UNL     1      16.025 -13.950  -3.280  1.00  0.00     0.049 A 
ATOM     69  H   UNL     1      15.331 -12.025  -2.770  1.00  0.00     0.167 HD
ATOM     70  C   UNL     1      15.444 -14.139  -0.874  1.00  0.00     0.074 A 
ATOM     71  C   UNL     1      15.317 -14.882   0.363  1.00  0.00     0.031 C 
ATOM     72  C   UNL     1      15.909 -14.665  -2.034  1.00  0.00     0.037 A 
BRANCH  59  73
ATOM     73  C   UNL     1      15.991 -10.698  -6.776  1.00  0.00     0.058 A 
ATOM     74  C   UNL     1      17.077  -9.916  -7.202  1.00  0.00     0.135 A 
ATOM     75  C   UNL     1      15.174 -11.275  -7.760  1.00  0.00     0.135 A 
ATOM     76  F   UNL     1      17.880  -9.324  -6.303  1.00  0.00    -0.206 F 
ATOM     77  C   UNL     1      17.324  -9.687  -8.551  1.00  0.00     0.059 A 
ATOM     78  C   UNL     1      15.421 -11.085  -9.117  1.00  0.00     0.059 A 
ATOM     79  F   UNL     1      14.121 -12.030  -7.409  1.00  0.00    -0.206 F 
ATOM     80  C   UNL     1      16.489 -10.276  -9.502  1.00  0.00     0.060 A 
BRANCH  80  81
ATOM     81  S   UNL     1      16.828  -9.975 -11.249  1.00  0.00     0.124 S 
ATOM     82  O   UNL     1      16.373  -8.597 -11.399  1.00  0.00    -0.237 OA
ATOM     83  O   UNL     1      18.271 -10.177 -11.326  1.00  0.00    -0.237 OA
ATOM     84  O   UNL     1      16.020 -10.981 -11.930  1.00  0.00    -0.744 OA
ENDBRANCH  80  81
ENDBRANCH  59  73
BRANCH  60  85
ATOM     85  C   UNL     1      13.767 -11.889   2.909  1.00  0.00     0.058 A 
ATOM     86  C   UNL     1      14.757 -12.129   3.873  1.00  0.00     0.135 A 
ATOM     87  C   UNL     1      12.433 -11.841   3.342  1.00  0.00     0.135 A 
ATOM     88  F   UNL     1      16.047 -12.190   3.509  1.00  0.00    -0.206 F 
ATOM     89  C   UNL     1      14.439 -12.336   5.212  1.00  0.00     0.059 A 
ATOM     90  C   UNL     1      12.091 -12.021   4.680  1.00  0.00     0.059 A 
ATOM     91  F   UNL     1      11.449 -11.597   2.463  1.00  0.00    -0.206 F 
ATOM     92  C   UNL     1      13.102 -12.280   5.606  1.00  0.00     0.060 A 
BRANCH  92  93
ATOM     93  S   UNL     1      12.702 -12.508   7.353  1.00  0.00     0.124 S 
ATOM     94  O   UNL     1      12.890 -13.945   7.511  1.00  0.00    -0.237 OA
ATOM     95  O   UNL     1      13.691 -11.658   8.008  1.00  0.00    -0.237 OA
ATOM     96  O   UNL     1      11.323 -12.036   7.445  1.00  0.00    -0.744 OA
ENDBRANCH  92  93
ENDBRANCH  60  85
BRANCH  72  97
ATOM     97  C   UNL     1      16.357 -16.099  -2.015  1.00  0.00     0.058 A 
ATOM     98  C   UNL     1      15.439 -17.158  -1.967  1.00  0.00     0.135 A 
ATOM     99  C   UNL     1      17.722 -16.414  -2.114  1.00  0.00     0.135 A 
ATOM    100  F   UNL     1      14.124 -16.908  -1.868  1.00  0.00    -0.206 F 
ATOM    101  C   UNL     1      15.859 -18.483  -2.000  1.00  0.00     0.059 A 
ATOM    102  C   UNL     1      18.163 -17.732  -2.174  1.00  0.00     0.059 A 
ATOM    103  F   UNL     1      18.640 -15.436  -2.174  1.00  0.00    -0.206 F 
ATOM    104  C   UNL     1      17.224 -18.760  -2.106  1.00  0.00     0.060 A 
BRANCH 104 105
ATOM    105  S   UNL     1      17.754 -20.483  -2.190  1.00  0.00     0.124 S 
ATOM    106  O   UNL     1      17.593 -20.908  -0.803  1.00  0.00    -0.237 OA
ATOM    107  O   UNL     1      16.809 -21.056  -3.143  1.00  0.00    -0.237 OA
ATOM    108  O   UNL     1      19.133 -20.392  -2.662  1.00  0.00    -0.744 OA
ENDBRANCH 104 105
ENDBRANCH  72  97
ENDBRANCH  46  47
ENDBRANCH  38  41
ENDBRANCH  36  37
ENDBRANCH  35  36
ENDBRANCH   1  35
TORSDOF 18
