REMARK SMILES Cc1cccc(C(=O)NCCCCNC(=O)c2ccc(-c3c4nc(c(-c5c(F)cc(S(=O)(=O)[O-])cc5F)c5ccc([nH]5)c(-c5c(F)cc(S(=O)(=O)[O-])cc5F)c5nc(c(-c6c(F)cc(S(=O)(=O)[O-])cc6F)c6ccc3[nH]6)C=C5)C=C4)cc2)c1NC(=O)Cc1ccccc1
REMARK SMILES IDX 11 1 10 2 9 3 7 4 8 5 6 7 1 8 2 9 3 10 83 11 4 12 5 13 84 14
REMARK SMILES IDX 85 15 86 17 87 18 88 19 89 20 93 21 90 22 92 23 91 24 12 25
REMARK SMILES IDX 13 26 14 27 15 28 16 30 17 31 18 32 82 33 19 34 81 35 20 36
REMARK SMILES IDX 21 37 22 38 75 39 23 40 80 41 74 42 76 43 24 44 79 45 73 46
REMARK SMILES IDX 72 47 25 49 59 50 38 51 58 52 39 53 42 54 57 55 77 56 40 57
REMARK SMILES IDX 41 58 56 60 78 61 43 62 26 63 27 64 36 65 28 66 29 67 35 68
REMARK SMILES IDX 37 69 30 70 31 71 32 72 33 73 34 74 60 75 61 76 70 77 62 78
REMARK SMILES IDX 63 79 69 80 71 81 64 82 65 83 66 84 67 85 68 86 44 87 45 88
REMARK SMILES IDX 54 89 46 90 47 91 53 92 55 93 48 94 49 95 50 96 51 97 52 98
REMARK H PARENT 9 6 84 16 14 29 76 48 42 59
REMARK Flexibility Score: inf
ROOT
ATOM      1  C   UNL     1       2.149   4.053  -0.269  1.00  0.00     0.023 C 
ENDROOT
BRANCH   1   2
ATOM      2  C   UNL     1       1.433   3.780   1.069  1.00  0.00     0.116 C 
BRANCH   2   3
ATOM      3  N   UNL     1      -0.023   3.868   1.178  1.00  0.00    -0.352 N 
ATOM      4  C   UNL     1      -0.970   2.866   1.311  1.00  0.00     0.253 C 
ATOM      5  O   UNL     1      -1.994   3.072   1.959  1.00  0.00    -0.269 OA
ATOM      6  H   UNL     1      -0.386   4.783   1.152  1.00  0.00     0.163 HD
BRANCH   4   7
ATOM      7  C   UNL     1      -0.800   1.539   0.675  1.00  0.00     0.063 A 
ATOM      8  C   UNL     1       1.928   0.122  -1.379  1.00  0.00     0.046 C 
ATOM      9  C   UNL     1       0.590   0.191  -0.696  1.00  0.00    -0.027 A 
ATOM     10  C   UNL     1       0.120  -0.964  -0.052  1.00  0.00     0.005 A 
ATOM     11  C   UNL     1      -0.114   1.392  -0.519  1.00  0.00     0.056 A 
ATOM     12  C   UNL     1      -0.901  -0.870   0.888  1.00  0.00     0.001 A 
ATOM     13  C   UNL     1      -1.289   0.395   1.323  1.00  0.00     0.016 A 
BRANCH  11  14
ATOM     14  N   UNL     1      -0.189   2.304  -1.596  1.00  0.00    -0.325 N 
ATOM     15  C   UNL     1      -1.145   3.211  -1.991  1.00  0.00     0.228 C 
ATOM     16  H   UNL     1       0.603   2.287  -2.182  1.00  0.00     0.169 HD
ATOM     17  O   UNL     1      -0.887   3.846  -3.024  1.00  0.00    -0.274 OA
BRANCH  15  18
ATOM     18  C   UNL     1      -2.522   3.357  -1.342  1.00  0.00     0.135 C 
BRANCH  18  19
ATOM     19  C   UNL     1      -2.945   4.761  -0.932  1.00  0.00    -0.039 A 
ATOM     20  C   UNL     1      -4.309   5.090  -0.880  1.00  0.00     0.004 A 
ATOM     21  C   UNL     1      -2.034   5.734  -0.511  1.00  0.00     0.004 A 
ATOM     22  C   UNL     1      -4.734   6.353  -0.448  1.00  0.00     0.000 A 
ATOM     23  C   UNL     1      -2.454   6.990  -0.066  1.00  0.00     0.000 A 
ATOM     24  C   UNL     1      -3.805   7.304  -0.039  1.00  0.00     0.000 A 
ENDBRANCH  18  19
ENDBRANCH  15  18
ENDBRANCH  11  14
ENDBRANCH   4   7
ENDBRANCH   2   3
ENDBRANCH   1   2
BRANCH   1  25
ATOM     25  C   UNL     1       1.811   5.255  -1.157  1.00  0.00     0.023 C 
BRANCH  25  26
ATOM     26  C   UNL     1       1.937   6.622  -0.500  1.00  0.00     0.116 C 
BRANCH  26  27
ATOM     27  N   UNL     1       2.586   7.624  -1.362  1.00  0.00    -0.352 N 
ATOM     28  C   UNL     1       2.702   8.979  -1.141  1.00  0.00     0.251 C 
ATOM     29  H   UNL     1       2.984   7.286  -2.196  1.00  0.00     0.163 HD
ATOM     30  O   UNL     1       3.198   9.759  -1.945  1.00  0.00    -0.269 OA
BRANCH  28  31
ATOM     31  C   UNL     1       2.258   9.459   0.181  1.00  0.00     0.039 A 
ATOM     32  C   UNL     1       3.244   9.648   1.155  1.00  0.00     0.014 A 
ATOM     33  C   UNL     1       0.914   9.303   0.512  1.00  0.00     0.014 A 
ATOM     34  C   UNL     1       2.911   9.460   2.490  1.00  0.00     0.010 A 
ATOM     35  C   UNL     1       0.604   9.046   1.832  1.00  0.00     0.010 A 
ATOM     36  C   UNL     1       1.616   9.052   2.804  1.00  0.00    -0.014 A 
BRANCH  36  37
ATOM     37  C   UNL     1       1.246   8.508   4.104  1.00  0.00     0.031 A 
ATOM     38  C   UNL     1       0.459   9.336   5.041  1.00  0.00     0.074 A 
ATOM     39  C   UNL     1       1.605   7.248   4.439  1.00  0.00     0.049 A 
ATOM     40  N   UNL     1       0.331   9.081   6.297  1.00  0.00    -0.248 NA
ATOM     41  C   UNL     1      -0.170  10.595   4.646  1.00  0.00     0.031 C 
ATOM     42  C   UNL     1       1.091   6.440   5.541  1.00  0.00     0.029 A 
ATOM     43  N   UNL     1       2.684   6.514   3.958  1.00  0.00    -0.354 N 
ATOM     44  C   UNL     1      -0.587   9.963   6.816  1.00  0.00     0.074 A 
ATOM     45  C   UNL     1      -0.766  10.955   5.788  1.00  0.00     0.031 C 
ATOM     46  C   UNL     1       1.963   5.454   5.806  1.00  0.00     0.029 A 
ATOM     47  C   UNL     1       3.141   5.679   4.987  1.00  0.00     0.049 A 
ATOM     48  H   UNL     1       3.062   6.571   3.051  1.00  0.00     0.167 HD
ATOM     49  C   UNL     1      -1.172   9.671   8.010  1.00  0.00     0.037 A 
ATOM     50  C   UNL     1       4.407   5.806   5.485  1.00  0.00     0.037 A 
ATOM     51  C   UNL     1      -0.411   8.629   8.703  1.00  0.00     0.049 A 
ATOM     52  C   UNL     1       4.455   6.242   6.933  1.00  0.00     0.074 A 
ATOM     53  C   UNL     1      -0.607   7.273   8.896  1.00  0.00     0.029 A 
ATOM     54  N   UNL     1       0.906   8.894   9.077  1.00  0.00    -0.354 N 
ATOM     55  N   UNL     1       3.442   6.753   7.580  1.00  0.00    -0.248 NA
ATOM     56  C   UNL     1       5.652   6.146   7.764  1.00  0.00     0.031 C 
ATOM     57  C   UNL     1       0.644   6.705   9.269  1.00  0.00     0.029 A 
ATOM     58  C   UNL     1       1.582   7.722   9.358  1.00  0.00     0.049 A 
ATOM     59  H   UNL     1       1.300   9.795   9.133  1.00  0.00     0.167 HD
ATOM     60  C   UNL     1       3.833   7.103   8.847  1.00  0.00     0.074 A 
ATOM     61  C   UNL     1       5.215   6.664   8.925  1.00  0.00     0.031 C 
ATOM     62  C   UNL     1       2.996   7.743   9.720  1.00  0.00     0.037 A 
BRANCH  49  63
ATOM     63  C   UNL     1      -2.531  10.176   8.472  1.00  0.00     0.058 A 
ATOM     64  C   UNL     1      -3.061   9.756   9.714  1.00  0.00     0.135 A 
ATOM     65  C   UNL     1      -3.427  10.944   7.694  1.00  0.00     0.135 A 
ATOM     66  F   UNL     1      -2.336   9.009  10.560  1.00  0.00    -0.206 F 
ATOM     67  C   UNL     1      -4.369  10.048  10.129  1.00  0.00     0.059 A 
ATOM     68  C   UNL     1      -4.717  11.285   8.105  1.00  0.00     0.059 A 
ATOM     69  F   UNL     1      -3.138  11.357   6.457  1.00  0.00    -0.206 F 
ATOM     70  C   UNL     1      -5.194  10.810   9.312  1.00  0.00     0.060 A 
BRANCH  70  71
ATOM     71  S   UNL     1      -6.895  11.143   9.807  1.00  0.00     0.124 S 
ATOM     72  O   UNL     1      -7.506   9.823   9.693  1.00  0.00    -0.237 OA
ATOM     73  O   UNL     1      -6.732  11.656  11.163  1.00  0.00    -0.237 OA
ATOM     74  O   UNL     1      -7.349  12.125   8.825  1.00  0.00    -0.744 OA
ENDBRANCH  70  71
ENDBRANCH  49  63
BRANCH  50  75
ATOM     75  C   UNL     1       5.418   6.139   4.444  1.00  0.00     0.058 A 
ATOM     76  C   UNL     1       5.723   5.144   3.495  1.00  0.00     0.135 A 
ATOM     77  C   UNL     1       5.721   7.467   4.111  1.00  0.00     0.135 A 
ATOM     78  F   UNL     1       5.463   3.855   3.768  1.00  0.00    -0.206 F 
ATOM     79  C   UNL     1       6.154   5.463   2.213  1.00  0.00     0.059 A 
ATOM     80  C   UNL     1       6.159   7.810   2.828  1.00  0.00     0.059 A 
ATOM     81  F   UNL     1       5.455   8.458   4.974  1.00  0.00    -0.206 F 
ATOM     82  C   UNL     1       6.308   6.804   1.871  1.00  0.00     0.060 A 
BRANCH  82  83
ATOM     83  S   UNL     1       6.500   7.202   0.116  1.00  0.00     0.124 S 
ATOM     84  O   UNL     1       7.812   6.638  -0.177  1.00  0.00    -0.237 OA
ATOM     85  O   UNL     1       5.363   6.493  -0.471  1.00  0.00    -0.237 OA
ATOM     86  O   UNL     1       6.414   8.656   0.094  1.00  0.00    -0.744 OA
ENDBRANCH  82  83
ENDBRANCH  50  75
BRANCH  62  87
ATOM     87  C   UNL     1       3.419   8.375  11.030  1.00  0.00     0.058 A 
ATOM     88  C   UNL     1       4.704   8.892  11.281  1.00  0.00     0.135 A 
ATOM     89  C   UNL     1       2.469   8.599  12.056  1.00  0.00     0.135 A 
ATOM     90  F   UNL     1       5.662   8.869  10.344  1.00  0.00    -0.206 F 
ATOM     91  C   UNL     1       5.048   9.498  12.492  1.00  0.00     0.059 A 
ATOM     92  C   UNL     1       2.775   9.255  13.247  1.00  0.00     0.059 A 
ATOM     93  F   UNL     1       1.196   8.193  11.930  1.00  0.00    -0.206 F 
ATOM     94  C   UNL     1       4.078   9.671  13.473  1.00  0.00     0.060 A 
BRANCH  94  95
ATOM     95  S   UNL     1       4.502  10.490  15.022  1.00  0.00     0.124 S 
ATOM     96  O   UNL     1       4.880   9.354  15.857  1.00  0.00    -0.237 OA
ATOM     97  O   UNL     1       5.596  11.376  14.634  1.00  0.00    -0.237 OA
ATOM     98  O   UNL     1       3.262  11.164  15.391  1.00  0.00    -0.744 OA
ENDBRANCH  94  95
ENDBRANCH  62  87
ENDBRANCH  36  37
ENDBRANCH  28  31
ENDBRANCH  26  27
ENDBRANCH  25  26
ENDBRANCH   1  25
TORSDOF 17
