REMARK SMILES CC(C)(Cn1ccc2ccc([N+](=O)[O-])cc21)C(=O)NCCCCNC(=O)c1ccc(-c2c3nc(c(-c4c(F)cc(S(=O)(=O)[O-])cc4F)c4ccc([nH]4)c(-c4c(F)cc(S(=O)(=O)[O-])cc4F)c4nc(c(-c5c(F)cc(S(=O)(=O)[O-])cc5F)c5ccc2[nH]5)C=C4)C=C3)cc1
REMARK SMILES IDX 21 1 20 2 19 3 17 4 18 5 2 7 1 8 3 9 4 10 5 11 6 12 16 13
REMARK SMILES IDX 7 14 8 15 15 16 9 17 11 18 10 19 12 20 13 21 14 22 22 23
REMARK SMILES IDX 23 24 24 25 25 26 26 28 27 29 28 30 92 31 29 32 91 33 30 34
REMARK SMILES IDX 31 35 32 36 85 37 33 38 90 39 84 40 86 41 34 42 89 43 83 44
REMARK SMILES IDX 82 45 35 47 69 48 48 49 68 50 49 51 52 52 67 53 87 54 50 55
REMARK SMILES IDX 51 56 66 58 88 59 53 60 36 61 37 62 46 63 38 64 39 65 45 66
REMARK SMILES IDX 47 67 40 68 41 69 42 70 43 71 44 72 70 73 71 74 80 75 72 76
REMARK SMILES IDX 73 77 79 78 81 79 74 80 75 81 76 82 77 83 78 84 54 85 55 86
REMARK SMILES IDX 64 87 56 88 57 89 63 90 65 91 58 92 59 93 60 94 61 95 62 96
REMARK H PARENT 19 6 24 27 86 46 52 57
REMARK Flexibility Score: inf
ROOT
ATOM      1  C   UNL     1      -1.400   4.729  -2.428  1.00  0.00     0.023 C 
ENDROOT
BRANCH   1   2
ATOM      2  C   UNL     1      -0.208   3.799  -2.643  1.00  0.00     0.116 C 
BRANCH   2   3
ATOM      3  N   UNL     1       0.656   3.661  -1.477  1.00  0.00    -0.356 N 
ATOM      4  C   UNL     1       1.010   2.605  -0.691  1.00  0.00     0.227 C 
ATOM      5  O   UNL     1       1.863   2.830   0.172  1.00  0.00    -0.274 OA
ATOM      6  H   UNL     1       1.071   4.509  -1.199  1.00  0.00     0.163 HD
BRANCH   4   7
ATOM      7  C   UNL     1       0.397   1.207  -0.853  1.00  0.00     0.061 C 
ATOM      8  C   UNL     1       1.044   0.231   0.163  1.00  0.00     0.023 C 
ATOM      9  C   UNL     1       0.773   0.631  -2.237  1.00  0.00     0.023 C 
BRANCH   7  10
ATOM     10  C   UNL     1      -1.137   1.267  -0.638  1.00  0.00     0.138 C 
BRANCH  10  11
ATOM     11  N   UNL     1      -1.608   1.343   0.747  1.00  0.00    -0.346 N 
ATOM     12  C   UNL     1      -2.052   0.234   1.432  1.00  0.00     0.087 A 
ATOM     13  C   UNL     1      -1.793   2.475   1.526  1.00  0.00     0.055 A 
ATOM     14  C   UNL     1      -2.525   0.641   2.655  1.00  0.00     0.028 A 
ATOM     15  C   UNL     1      -2.383   2.050   2.726  1.00  0.00     0.000 A 
ATOM     16  C   UNL     1      -1.505   3.838   1.314  1.00  0.00     0.112 A 
ATOM     17  C   UNL     1      -2.717   2.997   3.717  1.00  0.00     0.017 A 
ATOM     18  C   UNL     1      -1.828   4.758   2.332  1.00  0.00     0.271 A 
ATOM     19  C   UNL     1      -2.442   4.352   3.514  1.00  0.00     0.086 A 
BRANCH  18  20
ATOM     20  N   UNL     1      -1.473   6.175   2.167  1.00  0.00     0.062 N 
ATOM     21  O   UNL     1      -0.639   6.460   1.295  1.00  0.00    -0.258 OA
ATOM     22  O   UNL     1      -1.991   6.998   2.932  1.00  0.00    -0.258 OA
ENDBRANCH  18  20
ENDBRANCH  10  11
ENDBRANCH   7  10
ENDBRANCH   4   7
ENDBRANCH   2   3
ENDBRANCH   1   2
BRANCH   1  23
ATOM     23  C   UNL     1      -1.049   6.160  -2.021  1.00  0.00     0.023 C 
BRANCH  23  24
ATOM     24  C   UNL     1      -0.144   6.910  -2.992  1.00  0.00     0.116 C 
BRANCH  24  25
ATOM     25  N   UNL     1      -0.658   6.937  -4.342  1.00  0.00    -0.352 N 
ATOM     26  C   UNL     1      -1.533   7.739  -5.019  1.00  0.00     0.251 C 
ATOM     27  H   UNL     1      -0.295   6.212  -4.902  1.00  0.00     0.163 HD
ATOM     28  O   UNL     1      -1.667   7.476  -6.218  1.00  0.00    -0.269 OA
BRANCH  26  29
ATOM     29  C   UNL     1      -2.332   8.850  -4.428  1.00  0.00     0.039 A 
ATOM     30  C   UNL     1      -2.318   9.258  -3.092  1.00  0.00     0.014 A 
ATOM     31  C   UNL     1      -3.201   9.512  -5.317  1.00  0.00     0.014 A 
ATOM     32  C   UNL     1      -3.188  10.252  -2.645  1.00  0.00     0.010 A 
ATOM     33  C   UNL     1      -4.059  10.516  -4.879  1.00  0.00     0.010 A 
ATOM     34  C   UNL     1      -4.076  10.863  -3.532  1.00  0.00    -0.014 A 
BRANCH  34  35
ATOM     35  C   UNL     1      -4.950  11.916  -3.018  1.00  0.00     0.031 A 
ATOM     36  C   UNL     1      -4.267  13.136  -2.494  1.00  0.00     0.074 A 
ATOM     37  C   UNL     1      -6.294  11.877  -3.122  1.00  0.00     0.049 A 
ATOM     38  N   UNL     1      -4.333  13.655  -1.310  1.00  0.00    -0.248 NA
ATOM     39  C   UNL     1      -3.329  13.825  -3.393  1.00  0.00     0.031 C 
ATOM     40  C   UNL     1      -7.115  10.910  -3.854  1.00  0.00     0.029 A 
ATOM     41  N   UNL     1      -7.210  12.777  -2.663  1.00  0.00    -0.354 N 
ATOM     42  C   UNL     1      -3.583  14.831  -1.354  1.00  0.00     0.074 A 
ATOM     43  C   UNL     1      -2.895  14.821  -2.619  1.00  0.00     0.031 C 
ATOM     44  C   UNL     1      -8.373  11.392  -3.968  1.00  0.00     0.029 A 
ATOM     45  C   UNL     1      -8.476  12.628  -3.210  1.00  0.00     0.049 A 
ATOM     46  H   UNL     1      -6.991  13.472  -2.001  1.00  0.00     0.167 HD
ATOM     47  C   UNL     1      -3.708  15.814  -0.418  1.00  0.00     0.037 A 
ATOM     48  C   UNL     1      -9.515  13.492  -3.104  1.00  0.00     0.037 A 
ATOM     49  C   UNL     1      -4.330  15.326   0.783  1.00  0.00     0.049 A 
ATOM     50  C   UNL     1      -9.274  14.328  -1.899  1.00  0.00     0.074 A 
ATOM     51  C   UNL     1      -4.004  14.367   1.722  1.00  0.00     0.029 A 
ATOM     52  N   UNL     1      -5.652  15.624   1.002  1.00  0.00    -0.354 N 
ATOM     53  N   UNL     1      -9.272  13.868  -0.676  1.00  0.00    -0.248 NA
ATOM     54  C   UNL     1      -8.617  15.614  -2.079  1.00  0.00     0.031 C 
ATOM     55  C   UNL     1      -5.249  13.795   2.114  1.00  0.00     0.029 A 
ATOM     56  C   UNL     1      -6.258  14.466   1.418  1.00  0.00     0.049 A 
ATOM     57  H   UNL     1      -6.083  16.502   0.884  1.00  0.00     0.167 HD
ATOM     58  C   UNL     1      -8.278  14.584  -0.025  1.00  0.00     0.074 A 
ATOM     59  C   UNL     1      -7.984  15.710  -0.908  1.00  0.00     0.031 C 
ATOM     60  C   UNL     1      -7.595  14.060   1.035  1.00  0.00     0.037 A 
BRANCH  47  61
ATOM     61  C   UNL     1      -3.532  17.291  -0.689  1.00  0.00     0.058 A 
ATOM     62  C   UNL     1      -3.516  18.206   0.387  1.00  0.00     0.135 A 
ATOM     63  C   UNL     1      -3.662  17.868  -1.972  1.00  0.00     0.135 A 
ATOM     64  F   UNL     1      -3.399  17.774   1.653  1.00  0.00    -0.206 F 
ATOM     65  C   UNL     1      -3.700  19.578   0.207  1.00  0.00     0.059 A 
ATOM     66  C   UNL     1      -3.793  19.238  -2.177  1.00  0.00     0.059 A 
ATOM     67  F   UNL     1      -3.770  17.123  -3.079  1.00  0.00    -0.206 F 
ATOM     68  C   UNL     1      -3.860  20.081  -1.081  1.00  0.00     0.060 A 
BRANCH  68  69
ATOM     69  S   UNL     1      -4.242  21.827  -1.308  1.00  0.00     0.124 S 
ATOM     70  O   UNL     1      -5.588  21.905  -0.752  1.00  0.00    -0.237 OA
ATOM     71  O   UNL     1      -3.190  22.473  -0.531  1.00  0.00    -0.237 OA
ATOM     72  O   UNL     1      -4.145  22.007  -2.754  1.00  0.00    -0.744 OA
ENDBRANCH  68  69
ENDBRANCH  47  61
BRANCH  48  73
ATOM     73  C   UNL     1     -10.505  13.836  -4.162  1.00  0.00     0.058 A 
ATOM     74  C   UNL     1     -11.678  14.555  -3.874  1.00  0.00     0.135 A 
ATOM     75  C   UNL     1     -10.198  13.679  -5.531  1.00  0.00     0.135 A 
ATOM     76  F   UNL     1     -12.031  14.788  -2.600  1.00  0.00    -0.206 F 
ATOM     77  C   UNL     1     -12.483  15.105  -4.880  1.00  0.00     0.059 A 
ATOM     78  C   UNL     1     -10.992  14.203  -6.549  1.00  0.00     0.059 A 
ATOM     79  F   UNL     1      -9.063  13.084  -5.925  1.00  0.00    -0.206 F 
ATOM     80  C   UNL     1     -12.124  14.934  -6.217  1.00  0.00     0.060 A 
BRANCH  80  81
ATOM     81  S   UNL     1     -13.081  15.751  -7.515  1.00  0.00     0.124 S 
ATOM     82  O   UNL     1     -14.370  15.076  -7.411  1.00  0.00    -0.237 OA
ATOM     83  O   UNL     1     -13.054  17.144  -7.084  1.00  0.00    -0.237 OA
ATOM     84  O   UNL     1     -12.324  15.462  -8.730  1.00  0.00    -0.744 OA
ENDBRANCH  80  81
ENDBRANCH  48  73
BRANCH  60  85
ATOM     85  C   UNL     1      -8.108  12.797   1.681  1.00  0.00     0.058 A 
ATOM     86  C   UNL     1      -8.131  11.547   1.036  1.00  0.00     0.135 A 
ATOM     87  C   UNL     1      -8.370  12.809   3.060  1.00  0.00     0.135 A 
ATOM     88  F   UNL     1      -7.800  11.433  -0.257  1.00  0.00    -0.206 F 
ATOM     89  C   UNL     1      -8.410  10.367   1.728  1.00  0.00     0.059 A 
ATOM     90  C   UNL     1      -8.621  11.639   3.776  1.00  0.00     0.059 A 
ATOM     91  F   UNL     1      -8.306  13.962   3.746  1.00  0.00    -0.206 F 
ATOM     92  C   UNL     1      -8.639  10.420   3.101  1.00  0.00     0.060 A 
BRANCH  92  93
ATOM     93  S   UNL     1      -8.857   8.876   4.015  1.00  0.00     0.124 S 
ATOM     94  O   UNL     1     -10.177   8.436   3.563  1.00  0.00    -0.237 OA
ATOM     95  O   UNL     1      -7.732   8.067   3.545  1.00  0.00    -0.237 OA
ATOM     96  O   UNL     1      -8.780   9.285   5.409  1.00  0.00    -0.744 OA
ENDBRANCH  92  93
ENDBRANCH  60  85
ENDBRANCH  34  35
ENDBRANCH  26  29
ENDBRANCH  24  25
ENDBRANCH  23  24
ENDBRANCH   1  23
TORSDOF 17
