REMARK SMILES CC1(C(=O)N[C@H](C(=O)NCCCCNC(=O)c2ccc(-c3c4nc(c(-c5c(F)cc(S(=O)(=O)[O-])cc5F)c5ccc([nH]5)c(-c5c(F)cc(S(=O)(=O)[O-])cc5F)c5nc(c(-c6c(F)cc(S(=O)(=O)[O-])cc6F)c6ccc3[nH]6)C=C5)C=C4)cc2)C2CC2)CCCC1
REMARK SMILES IDX 12 1 11 2 10 3 9 4 7 5 8 6 6 8 5 9 3 10 4 11 2 13 1 14 86 15
REMARK SMILES IDX 89 16 87 17 88 18 83 19 84 20 85 21 13 22 14 23 15 24 16 26
REMARK SMILES IDX 17 27 18 28 82 29 19 30 81 31 20 32 21 33 22 34 75 35 23 36
REMARK SMILES IDX 80 37 74 38 76 39 24 40 79 41 73 42 72 43 25 45 59 46 38 47
REMARK SMILES IDX 58 48 39 49 42 50 57 51 77 52 40 53 41 54 56 56 78 57 43 58
REMARK SMILES IDX 26 59 27 60 36 61 28 62 29 63 35 64 37 65 30 66 31 67 32 68
REMARK SMILES IDX 33 69 34 70 60 71 61 72 70 73 62 74 63 75 69 76 71 77 64 78
REMARK SMILES IDX 65 79 66 80 67 81 68 82 44 83 45 84 54 85 46 86 47 87 53 88
REMARK SMILES IDX 55 89 48 90 49 91 50 92 51 93 52 94
REMARK H PARENT 9 7 5 12 14 25 76 44 42 55
REMARK Flexibility Score: inf
ROOT
ATOM      1  C   UNL     1       6.907   0.200   2.845  1.00  0.00     0.023 C 
ENDROOT
BRANCH   1   2
ATOM      2  C   UNL     1       6.495  -0.965   1.938  1.00  0.00     0.023 C 
BRANCH   2   3
ATOM      3  C   UNL     1       5.419  -1.876   2.523  1.00  0.00     0.116 C 
BRANCH   3   4
ATOM      4  N   UNL     1       4.165  -1.179   2.719  1.00  0.00    -0.354 N 
ATOM      5  C   UNL     1       2.992  -1.271   2.030  1.00  0.00     0.242 C 
ATOM      6  O   UNL     1       2.007  -0.707   2.519  1.00  0.00    -0.273 OA
ATOM      7  H   UNL     1       4.159  -0.538   3.466  1.00  0.00     0.163 HD
BRANCH   5   8
ATOM      8  C   UNL     1       2.834  -2.200   0.795  1.00  0.00     0.174 C 
BRANCH   8   9
ATOM      9  N   UNL     1       3.924  -2.089  -0.168  1.00  0.00    -0.344 N 
ATOM     10  C   UNL     1       4.157  -1.228  -1.190  1.00  0.00     0.226 C 
ATOM     11  O   UNL     1       5.210  -1.407  -1.810  1.00  0.00    -0.274 OA
ATOM     12  H   UNL     1       4.627  -2.769  -0.054  1.00  0.00     0.164 HD
BRANCH  10  13
ATOM     13  C   UNL     1       3.154  -0.146  -1.617  1.00  0.00     0.046 C 
ATOM     14  C   UNL     1       1.955  -0.796  -2.324  1.00  0.00     0.022 C 
ATOM     15  C   UNL     1       3.849   0.850  -2.575  1.00  0.00     0.016 C 
ATOM     16  C   UNL     1       2.733   0.797  -0.483  1.00  0.00     0.016 C 
ATOM     17  C   UNL     1       2.996   2.109  -2.533  1.00  0.00     0.001 C 
ATOM     18  C   UNL     1       2.406   2.145  -1.130  1.00  0.00     0.001 C 
ENDBRANCH  10  13
ENDBRANCH   8   9
BRANCH   8  19
ATOM     19  C   UNL     1       2.652  -3.641   1.251  1.00  0.00     0.021 C 
ATOM     20  C   UNL     1       1.814  -4.585   0.418  1.00  0.00     0.006 C 
ATOM     21  C   UNL     1       3.280  -4.849   0.580  1.00  0.00     0.006 C 
ENDBRANCH   8  19
ENDBRANCH   5   8
ENDBRANCH   3   4
ENDBRANCH   2   3
ENDBRANCH   1   2
BRANCH   1  22
ATOM     22  C   UNL     1       7.300  -0.180   4.269  1.00  0.00     0.116 C 
BRANCH  22  23
ATOM     23  N   UNL     1       8.375  -1.157   4.327  1.00  0.00    -0.352 N 
ATOM     24  C   UNL     1       9.412  -1.238   5.226  1.00  0.00     0.251 C 
ATOM     25  H   UNL     1       8.359  -1.852   3.631  1.00  0.00     0.163 HD
ATOM     26  O   UNL     1      10.297  -2.075   5.070  1.00  0.00    -0.269 OA
BRANCH  24  27
ATOM     27  C   UNL     1       9.474  -0.288   6.357  1.00  0.00     0.039 A 
ATOM     28  C   UNL     1      10.667   0.399   6.592  1.00  0.00     0.014 A 
ATOM     29  C   UNL     1       8.354  -0.054   7.160  1.00  0.00     0.014 A 
ATOM     30  C   UNL     1      10.718   1.373   7.592  1.00  0.00     0.010 A 
ATOM     31  C   UNL     1       8.389   0.961   8.114  1.00  0.00     0.010 A 
ATOM     32  C   UNL     1       9.569   1.687   8.336  1.00  0.00    -0.014 A 
BRANCH  32  33
ATOM     33  C   UNL     1       9.579   2.780   9.342  1.00  0.00     0.031 A 
ATOM     34  C   UNL     1       9.366   2.470  10.798  1.00  0.00     0.074 A 
ATOM     35  C   UNL     1       9.712   4.058   8.935  1.00  0.00     0.049 A 
ATOM     36  N   UNL     1       9.266   3.291  11.811  1.00  0.00    -0.248 NA
ATOM     37  C   UNL     1       9.219   1.050  11.159  1.00  0.00     0.031 C 
ATOM     38  C   UNL     1       9.874   4.491   7.545  1.00  0.00     0.029 A 
ATOM     39  N   UNL     1       9.718   5.231   9.648  1.00  0.00    -0.354 N 
ATOM     40  C   UNL     1       9.030   2.493  12.924  1.00  0.00     0.074 A 
ATOM     41  C   UNL     1       8.954   1.126  12.455  1.00  0.00     0.031 C 
ATOM     42  C   UNL     1       9.981   5.830   7.510  1.00  0.00     0.029 A 
ATOM     43  C   UNL     1       9.861   6.353   8.867  1.00  0.00     0.049 A 
ATOM     44  H   UNL     1       9.629   5.265  10.628  1.00  0.00     0.167 HD
ATOM     45  C   UNL     1       8.910   2.864  14.222  1.00  0.00     0.037 A 
ATOM     46  C   UNL     1       9.884   7.657   9.204  1.00  0.00     0.037 A 
ATOM     47  C   UNL     1       9.016   4.222  14.686  1.00  0.00     0.049 A 
ATOM     48  C   UNL     1       9.759   8.043  10.653  1.00  0.00     0.074 A 
ATOM     49  C   UNL     1       8.969   4.693  15.987  1.00  0.00     0.029 A 
ATOM     50  N   UNL     1       9.191   5.328  13.867  1.00  0.00    -0.354 N 
ATOM     51  N   UNL     1       9.599   7.269  11.700  1.00  0.00    -0.248 NA
ATOM     52  C   UNL     1       9.825   9.477  10.968  1.00  0.00     0.031 C 
ATOM     53  C   UNL     1       9.079   6.087  15.952  1.00  0.00     0.029 A 
ATOM     54  C   UNL     1       9.239   6.482  14.633  1.00  0.00     0.049 A 
ATOM     55  H   UNL     1       9.270   5.298  12.886  1.00  0.00     0.167 HD
ATOM     56  C   UNL     1       9.571   8.120  12.800  1.00  0.00     0.074 A 
ATOM     57  C   UNL     1       9.742   9.466  12.292  1.00  0.00     0.031 C 
ATOM     58  C   UNL     1       9.419   7.814  14.112  1.00  0.00     0.037 A 
BRANCH  45  59
ATOM     59  C   UNL     1       8.658   1.781  15.234  1.00  0.00     0.058 A 
ATOM     60  C   UNL     1       9.655   0.858  15.587  1.00  0.00     0.135 A 
ATOM     61  C   UNL     1       7.418   1.686  15.886  1.00  0.00     0.135 A 
ATOM     62  F   UNL     1      10.854   0.894  14.984  1.00  0.00    -0.206 F 
ATOM     63  C   UNL     1       9.423  -0.140  16.528  1.00  0.00     0.059 A 
ATOM     64  C   UNL     1       7.172   0.712  16.850  1.00  0.00     0.059 A 
ATOM     65  F   UNL     1       6.429   2.543  15.587  1.00  0.00    -0.206 F 
ATOM     66  C   UNL     1       8.177  -0.206  17.153  1.00  0.00     0.060 A 
BRANCH  66  67
ATOM     67  S   UNL     1       7.893  -1.504  18.375  1.00  0.00     0.124 S 
ATOM     68  O   UNL     1       7.754  -2.680  17.521  1.00  0.00    -0.237 OA
ATOM     69  O   UNL     1       9.108  -1.447  19.181  1.00  0.00    -0.237 OA
ATOM     70  O   UNL     1       6.674  -1.073  19.052  1.00  0.00    -0.744 OA
ENDBRANCH  66  67
ENDBRANCH  45  59
BRANCH  46  71
ATOM     71  C   UNL     1      10.054   8.694   8.152  1.00  0.00     0.058 A 
ATOM     72  C   UNL     1      11.251   9.417   8.040  1.00  0.00     0.135 A 
ATOM     73  C   UNL     1       9.031   8.978   7.234  1.00  0.00     0.135 A 
ATOM     74  F   UNL     1      12.256   9.186   8.898  1.00  0.00    -0.206 F 
ATOM     75  C   UNL     1      11.424  10.396   7.067  1.00  0.00     0.059 A 
ATOM     76  C   UNL     1       9.188   9.936   6.237  1.00  0.00     0.059 A 
ATOM     77  F   UNL     1       7.873   8.302   7.288  1.00  0.00    -0.206 F 
ATOM     78  C   UNL     1      10.385  10.648   6.169  1.00  0.00     0.060 A 
BRANCH  78  79
ATOM     79  S   UNL     1      10.634  11.890   4.882  1.00  0.00     0.124 S 
ATOM     80  O   UNL     1      10.520  13.128   5.643  1.00  0.00    -0.237 OA
ATOM     81  O   UNL     1      11.969  11.562   4.392  1.00  0.00    -0.237 OA
ATOM     82  O   UNL     1       9.548  11.621   3.944  1.00  0.00    -0.744 OA
ENDBRANCH  78  79
ENDBRANCH  46  71
BRANCH  58  83
ATOM     83  C   UNL     1       9.464   8.948  15.097  1.00  0.00     0.058 A 
ATOM     84  C   UNL     1       8.396   9.848  15.233  1.00  0.00     0.135 A 
ATOM     85  C   UNL     1      10.568   9.104  15.950  1.00  0.00     0.135 A 
ATOM     86  F   UNL     1       7.320   9.747  14.437  1.00  0.00    -0.206 F 
ATOM     87  C   UNL     1       8.430  10.877  16.169  1.00  0.00     0.059 A 
ATOM     88  C   UNL     1      10.612  10.110  16.910  1.00  0.00     0.059 A 
ATOM     89  F   UNL     1      11.611   8.263  15.866  1.00  0.00    -0.206 F 
ATOM     90  C   UNL     1       9.542  10.999  17.005  1.00  0.00     0.060 A 
BRANCH  90  91
ATOM     91  S   UNL     1       9.559  12.315  18.240  1.00  0.00     0.124 S 
ATOM     92  O   UNL     1       9.835  13.487  17.417  1.00  0.00    -0.237 OA
ATOM     93  O   UNL     1       8.213  12.236  18.800  1.00  0.00    -0.237 OA
ATOM     94  O   UNL     1      10.631  11.916  19.147  1.00  0.00    -0.744 OA
ENDBRANCH  90  91
ENDBRANCH  58  83
ENDBRANCH  32  33
ENDBRANCH  24  27
ENDBRANCH  22  23
ENDBRANCH   1  22
TORSDOF 17
