REMARK SMILES CC(C)C[C@@H](CNC(=O)N(C)CCC#N)C(=O)NCCCCNC(=O)c1ccc(-c2c3nc(c(-c4c(F)cc(S(=O)(=O)[O-])cc4F)c4ccc([nH]4)c(-c4c(F)cc(S(=O)(=O)[O-])cc4F)c4nc(c(-c5c(F)cc(S(=O)(=O)[O-])cc5F)c5ccc2[nH]5)C=C4)C=C3)cc1
REMARK SMILES IDX 19 1 18 2 16 3 17 4 5 6 4 7 2 8 1 9 3 10 6 11 7 12 8 13 9 15
REMARK SMILES IDX 10 16 11 17 12 18 13 19 14 20 15 21 20 22 21 23 22 24 23 25
REMARK SMILES IDX 24 26 25 28 26 29 27 30 91 31 28 32 90 33 29 34 30 35 31 36
REMARK SMILES IDX 84 37 32 38 89 39 83 40 85 41 33 42 88 43 82 44 81 45 34 47
REMARK SMILES IDX 68 48 47 49 67 50 48 51 51 52 66 53 86 54 49 55 50 56 65 58
REMARK SMILES IDX 87 59 52 60 35 61 36 62 45 63 37 64 38 65 44 66 46 67 39 68
REMARK SMILES IDX 40 69 41 70 42 71 43 72 69 73 70 74 79 75 71 76 72 77 78 78
REMARK SMILES IDX 80 79 73 80 74 81 75 82 76 83 77 84 53 85 54 86 63 87 55 88
REMARK SMILES IDX 56 89 62 90 64 91 57 92 58 93 59 94 60 95 61 96
REMARK H PARENT 18 5 7 14 23 27 85 46 51 57
REMARK Flexibility Score: inf
ROOT
ATOM      1  C   UNL     1      -3.288  -0.895   3.015  1.00  0.00     0.116 C 
ENDROOT
BRANCH   1   2
ATOM      2  N   UNL     1      -3.674  -0.819   1.616  1.00  0.00    -0.356 N 
ATOM      3  C   UNL     1      -2.959  -1.000   0.475  1.00  0.00     0.224 C 
ATOM      4  O   UNL     1      -3.600  -1.170  -0.569  1.00  0.00    -0.275 OA
ATOM      5  H   UNL     1      -4.621  -0.597   1.469  1.00  0.00     0.163 HD
BRANCH   3   6
ATOM      6  C   UNL     1      -1.430  -1.030   0.415  1.00  0.00     0.098 C 
BRANCH   6   7
ATOM      7  C   UNL     1      -0.744   0.108   1.199  1.00  0.00     0.018 C 
BRANCH   7   8
ATOM      8  C   UNL     1       0.794   0.188   1.161  1.00  0.00    -0.017 C 
ATOM      9  C   UNL     1       1.365   0.253  -0.253  1.00  0.00     0.007 C 
ATOM     10  C   UNL     1       1.247   1.429   1.947  1.00  0.00     0.007 C 
ENDBRANCH   7   8
ENDBRANCH   6   7
BRANCH   6  11
ATOM     11  C   UNL     1      -0.897  -2.475   0.505  1.00  0.00     0.131 C 
BRANCH  11  12
ATOM     12  N   UNL     1      -0.998  -3.110   1.801  1.00  0.00    -0.337 N 
ATOM     13  C   UNL     1      -1.946  -3.869   2.367  1.00  0.00     0.317 C 
ATOM     14  H   UNL     1      -0.217  -2.954   2.380  1.00  0.00     0.165 HD
ATOM     15  O   UNL     1      -2.227  -3.510   3.508  1.00  0.00    -0.249 OA
BRANCH  13  16
ATOM     16  N   UNL     1      -2.496  -4.988   1.816  1.00  0.00    -0.327 N 
ATOM     17  C   UNL     1      -2.204  -5.556   0.511  1.00  0.00     0.148 C 
BRANCH  16  18
ATOM     18  C   UNL     1      -3.466  -5.770   2.639  1.00  0.00     0.136 C 
BRANCH  18  19
ATOM     19  C   UNL     1      -2.880  -6.549   3.853  1.00  0.00     0.141 C 
BRANCH  19  20
ATOM     20  C   UNL     1      -2.664  -5.564   4.991  1.00  0.00     0.064 C 
ATOM     21  N   UNL     1      -2.486  -4.748   5.935  1.00  0.00    -0.198 NA
ENDBRANCH  19  20
ENDBRANCH  18  19
ENDBRANCH  16  18
ENDBRANCH  13  16
ENDBRANCH  11  12
ENDBRANCH   6  11
ENDBRANCH   3   6
ENDBRANCH   1   2
BRANCH   1  22
ATOM     22  C   UNL     1      -3.625   0.361   3.811  1.00  0.00     0.023 C 
BRANCH  22  23
ATOM     23  C   UNL     1      -5.092   0.465   4.231  1.00  0.00     0.023 C 
BRANCH  23  24
ATOM     24  C   UNL     1      -5.645  -0.718   5.028  1.00  0.00     0.116 C 
BRANCH  24  25
ATOM     25  N   UNL     1      -4.899  -1.016   6.242  1.00  0.00    -0.352 N 
ATOM     26  C   UNL     1      -5.387  -1.331   7.491  1.00  0.00     0.251 C 
ATOM     27  H   UNL     1      -3.919  -0.990   6.160  1.00  0.00     0.163 HD
ATOM     28  O   UNL     1      -4.633  -1.425   8.456  1.00  0.00    -0.269 OA
BRANCH  26  29
ATOM     29  C   UNL     1      -6.843  -1.513   7.672  1.00  0.00     0.039 A 
ATOM     30  C   UNL     1      -7.488  -0.823   8.701  1.00  0.00     0.014 A 
ATOM     31  C   UNL     1      -7.574  -2.321   6.797  1.00  0.00     0.014 A 
ATOM     32  C   UNL     1      -8.880  -0.870   8.794  1.00  0.00     0.010 A 
ATOM     33  C   UNL     1      -8.965  -2.313   6.850  1.00  0.00     0.010 A 
ATOM     34  C   UNL     1      -9.633  -1.575   7.840  1.00  0.00    -0.014 A 
BRANCH  34  35
ATOM     35  C   UNL     1     -11.117  -1.524   7.840  1.00  0.00     0.031 A 
ATOM     36  C   UNL     1     -11.920  -2.773   8.075  1.00  0.00     0.074 A 
ATOM     37  C   UNL     1     -11.741  -0.365   7.546  1.00  0.00     0.049 A 
ATOM     38  N   UNL     1     -13.216  -2.942   8.029  1.00  0.00    -0.248 NA
ATOM     39  C   UNL     1     -11.164  -4.000   8.373  1.00  0.00     0.031 C 
ATOM     40  C   UNL     1     -11.073   0.902   7.239  1.00  0.00     0.029 A 
ATOM     41  N   UNL     1     -13.077  -0.067   7.444  1.00  0.00    -0.354 N 
ATOM     42  C   UNL     1     -13.431  -4.293   8.275  1.00  0.00     0.074 A 
ATOM     43  C   UNL     1     -12.129  -4.907   8.424  1.00  0.00     0.031 C 
ATOM     44  C   UNL     1     -12.001   1.843   7.001  1.00  0.00     0.029 A 
ATOM     45  C   UNL     1     -13.327   1.243   7.106  1.00  0.00     0.049 A 
ATOM     46  H   UNL     1     -13.790  -0.729   7.597  1.00  0.00     0.167 HD
ATOM     47  C   UNL     1     -14.607  -4.956   8.389  1.00  0.00     0.037 A 
ATOM     48  C   UNL     1     -14.492   1.886   6.900  1.00  0.00     0.037 A 
ATOM     49  C   UNL     1     -15.900  -4.335   8.271  1.00  0.00     0.049 A 
ATOM     50  C   UNL     1     -15.785   1.135   7.057  1.00  0.00     0.074 A 
ATOM     51  C   UNL     1     -17.149  -4.911   8.429  1.00  0.00     0.029 A 
ATOM     52  N   UNL     1     -16.112  -2.998   7.971  1.00  0.00    -0.354 N 
ATOM     53  N   UNL     1     -15.970  -0.131   7.349  1.00  0.00    -0.248 NA
ATOM     54  C   UNL     1     -17.026   1.897   6.866  1.00  0.00     0.031 C 
ATOM     55  C   UNL     1     -18.117  -3.927   8.195  1.00  0.00     0.029 A 
ATOM     56  C   UNL     1     -17.471  -2.731   7.928  1.00  0.00     0.049 A 
ATOM     57  H   UNL     1     -15.401  -2.335   7.812  1.00  0.00     0.167 HD
ATOM     58  C   UNL     1     -17.348  -0.310   7.398  1.00  0.00     0.074 A 
ATOM     59  C   UNL     1     -17.948   0.978   7.116  1.00  0.00     0.031 C 
ATOM     60  C   UNL     1     -18.052  -1.441   7.653  1.00  0.00     0.037 A 
BRANCH  47  61
ATOM     61  C   UNL     1     -14.543  -6.432   8.665  1.00  0.00     0.058 A 
ATOM     62  C   UNL     1     -14.141  -6.928   9.916  1.00  0.00     0.135 A 
ATOM     63  C   UNL     1     -14.906  -7.362   7.678  1.00  0.00     0.135 A 
ATOM     64  F   UNL     1     -13.770  -6.083  10.890  1.00  0.00    -0.206 F 
ATOM     65  C   UNL     1     -14.069  -8.294  10.167  1.00  0.00     0.059 A 
ATOM     66  C   UNL     1     -14.866  -8.733   7.916  1.00  0.00     0.059 A 
ATOM     67  F   UNL     1     -15.299  -6.942   6.465  1.00  0.00    -0.206 F 
ATOM     68  C   UNL     1     -14.428  -9.189   9.159  1.00  0.00     0.060 A 
BRANCH  68  69
ATOM     69  S   UNL     1     -14.322 -10.960   9.495  1.00  0.00     0.124 S 
ATOM     70  O   UNL     1     -12.882 -11.185   9.409  1.00  0.00    -0.237 OA
ATOM     71  O   UNL     1     -14.899 -11.062  10.832  1.00  0.00    -0.237 OA
ATOM     72  O   UNL     1     -15.115 -11.556   8.426  1.00  0.00    -0.744 OA
ENDBRANCH  68  69
ENDBRANCH  47  61
BRANCH  48  73
ATOM     73  C   UNL     1     -14.488   3.330   6.548  1.00  0.00     0.058 A 
ATOM     74  C   UNL     1     -14.883   4.299   7.481  1.00  0.00     0.135 A 
ATOM     75  C   UNL     1     -14.073   3.772   5.282  1.00  0.00     0.135 A 
ATOM     76  F   UNL     1     -15.294   3.925   8.703  1.00  0.00    -0.206 F 
ATOM     77  C   UNL     1     -14.880   5.655   7.170  1.00  0.00     0.059 A 
ATOM     78  C   UNL     1     -14.041   5.123   4.954  1.00  0.00     0.059 A 
ATOM     79  F   UNL     1     -13.669   2.884   4.359  1.00  0.00    -0.206 F 
ATOM     80  C   UNL     1     -14.456   6.058   5.903  1.00  0.00     0.060 A 
BRANCH  80  81
ATOM     81  S   UNL     1     -14.406   7.823   5.524  1.00  0.00     0.124 S 
ATOM     82  O   UNL     1     -15.819   8.118   5.315  1.00  0.00    -0.237 OA
ATOM     83  O   UNL     1     -13.810   8.382   6.734  1.00  0.00    -0.237 OA
ATOM     84  O   UNL     1     -13.563   7.885   4.334  1.00  0.00    -0.744 OA
ENDBRANCH  80  81
ENDBRANCH  48  73
BRANCH  60  85
ATOM     85  C   UNL     1     -19.550  -1.332   7.669  1.00  0.00     0.058 A 
ATOM     86  C   UNL     1     -20.291  -1.218   6.483  1.00  0.00     0.135 A 
ATOM     87  C   UNL     1     -20.254  -1.394   8.882  1.00  0.00     0.135 A 
ATOM     88  F   UNL     1     -19.664  -1.147   5.298  1.00  0.00    -0.206 F 
ATOM     89  C   UNL     1     -21.680  -1.151   6.500  1.00  0.00     0.059 A 
ATOM     90  C   UNL     1     -21.644  -1.352   8.920  1.00  0.00     0.059 A 
ATOM     91  F   UNL     1     -19.592  -1.512  10.043  1.00  0.00    -0.206 F 
ATOM     92  C   UNL     1     -22.348  -1.220   7.724  1.00  0.00     0.060 A 
BRANCH  92  93
ATOM     93  S   UNL     1     -24.153  -1.172   7.732  1.00  0.00     0.124 S 
ATOM     94  O   UNL     1     -24.410   0.247   7.509  1.00  0.00    -0.237 OA
ATOM     95  O   UNL     1     -24.497  -2.060   6.625  1.00  0.00    -0.237 OA
ATOM     96  O   UNL     1     -24.500  -1.673   9.059  1.00  0.00    -0.744 OA
ENDBRANCH  92  93
ENDBRANCH  60  85
ENDBRANCH  34  35
ENDBRANCH  26  29
ENDBRANCH  24  25
ENDBRANCH  23  24
ENDBRANCH  22  23
ENDBRANCH   1  22
TORSDOF 22
