REMARK SMILES COc1ccc2[nH]cc([C@H](C(=O)NCCCCNC(=O)c3ccc(-c4c5nc(c(-c6c(F)cc(S(=O)(=O)[O-])cc6F)c6ccc([nH]6)c(-c6c(F)cc(S(=O)(=O)[O-])cc6F)c6nc(c(-c7c(F)cc(S(=O)(=O)[O-])cc7F)c7ccc4[nH]7)C=C6)C=C5)cc3)[NH+]3CC[NH+](Cc4cccc5ccccc45)CC3)c2c1
REMARK SMILES IDX 15 1 14 2 13 3 11 4 12 5 10 7 9 8 3 9 4 10 105 11 5 12
REMARK SMILES IDX 104 13 6 14 7 15 8 16 2 18 1 19 87 20 88 21 103 22 89 24
REMARK SMILES IDX 102 25 90 26 91 28 92 29 93 30 101 31 94 32 96 33 100 34
REMARK SMILES IDX 95 35 97 36 99 37 98 38 16 39 17 40 18 41 19 42 20 44 21 45
REMARK SMILES IDX 22 46 86 47 23 48 85 49 24 50 25 51 26 52 79 53 27 54 84 55
REMARK SMILES IDX 78 56 80 57 28 58 83 59 77 60 76 61 29 63 63 64 42 65 62 66
REMARK SMILES IDX 43 67 46 68 61 69 81 70 44 71 45 72 60 74 82 75 47 76 30 77
REMARK SMILES IDX 31 78 40 79 32 80 33 81 39 82 41 83 34 84 35 85 36 86 37 87
REMARK SMILES IDX 38 88 64 89 65 90 74 91 66 92 67 93 73 94 75 95 68 96 69 97
REMARK SMILES IDX 70 98 71 99 72 100 48 101 49 102 58 103 50 104 51 105 57 106
REMARK SMILES IDX 59 107 52 108 53 109 54 110 55 111 56 112
REMARK H PARENT 13 6 7 17 87 23 90 27 18 43 80 62 46 73
REMARK Flexibility Score: inf
ROOT
ATOM      1  C   UNL     1      -0.368   6.970   5.375  1.00  0.00     0.023 C 
ENDROOT
BRANCH   1   2
ATOM      2  C   UNL     1      -1.041   5.530   4.830  1.00  0.00     0.116 C 
BRANCH   2   3
ATOM      3  N   UNL     1      -0.621   4.172   4.752  1.00  0.00    -0.351 N 
ATOM      4  C   UNL     1      -1.365   3.226   4.091  1.00  0.00     0.283 C 
ATOM      5  O   UNL     1      -0.839   2.167   3.737  1.00  0.00    -0.268 OA
ATOM      6  H   UNL     1       0.224   3.904   5.183  1.00  0.00     0.163 HD
BRANCH   4   7
ATOM      7  C   UNL     1      -2.874   3.492   3.940  1.00  0.00     0.308 C 
BRANCH   7   8
ATOM      8  C   UNL     1      -3.540   3.406   5.344  1.00  0.00     0.045 A 
ATOM      9  C   UNL     1      -1.419   1.655   8.161  1.00  0.00     0.119 A 
ATOM     10  C   UNL     1      -2.466   1.443   9.037  1.00  0.00     0.048 A 
ATOM     11  C   UNL     1      -1.655   2.294   6.940  1.00  0.00     0.057 A 
ATOM     12  C   UNL     1      -3.753   1.906   8.715  1.00  0.00     0.030 A 
ATOM     13  C   UNL     1      -2.941   2.778   6.554  1.00  0.00     0.013 A 
ATOM     14  C   UNL     1      -3.955   2.589   7.493  1.00  0.00     0.046 A 
ATOM     15  N   UNL     1      -5.086   3.167   6.965  1.00  0.00    -0.361 N 
ATOM     16  C   UNL     1      -4.854   3.664   5.701  1.00  0.00     0.094 A 
ATOM     17  H   UNL     1      -5.952   3.219   7.431  1.00  0.00     0.166 HD
BRANCH   9  18
ATOM     18  O   UNL     1      -0.108   1.393   8.464  1.00  0.00    -0.497 OA
ATOM     19  C   UNL     1       0.166   0.033   8.784  1.00  0.00     0.278 C 
ENDBRANCH   9  18
ENDBRANCH   7   8
BRANCH   7  20
ATOM     20  N   UNL     1      -3.208   4.507   2.862  1.00  0.00    -0.312 N 
ATOM     21  C   UNL     1      -2.490   4.189   1.592  1.00  0.00     0.325 C 
ATOM     22  C   UNL     1      -3.374   5.961   3.048  1.00  0.00     0.325 C 
ATOM     23  H   UNL     1      -4.212   4.329   2.886  1.00  0.00     0.349 HD
ATOM     24  C   UNL     1      -1.411   5.161   0.997  1.00  0.00     0.324 C 
ATOM     25  C   UNL     1      -2.401   6.958   2.253  1.00  0.00     0.324 C 
ATOM     26  N   UNL     1      -1.161   6.353   1.779  1.00  0.00    -0.322 N 
ATOM     27  H   UNL     1      -0.610   7.208   1.847  1.00  0.00     0.348 HD
BRANCH  26  28
ATOM     28  C   UNL     1       0.226   6.763   2.081  1.00  0.00     0.300 C 
BRANCH  28  29
ATOM     29  C   UNL     1       0.553   7.105   3.556  1.00  0.00     0.014 A 
ATOM     30  C   UNL     1      -0.190   8.663   4.095  1.00  0.00     0.010 A 
ATOM     31  C   UNL     1       1.395   5.990   4.786  1.00  0.00    -0.010 A 
ATOM     32  C   UNL     1      -0.233   9.090   5.815  1.00  0.00     0.001 A 
ATOM     33  C   UNL     1       1.231   6.415   6.545  1.00  0.00    -0.018 A 
ATOM     34  C   UNL     1       2.169   4.811   4.644  1.00  0.00     0.009 A 
ATOM     35  C   UNL     1       0.509   8.005   7.014  1.00  0.00     0.009 A 
ATOM     36  C   UNL     1       1.484   5.447   7.497  1.00  0.00     0.009 A 
ATOM     37  C   UNL     1       2.424   3.963   5.768  1.00  0.00     0.001 A 
ATOM     38  C   UNL     1       2.001   4.222   7.097  1.00  0.00     0.001 A 
ENDBRANCH  28  29
ENDBRANCH  26  28
ENDBRANCH   7  20
ENDBRANCH   4   7
ENDBRANCH   2   3
ENDBRANCH   1   2
BRANCH   1  39
ATOM     39  C   UNL     1       1.529   8.020   5.144  1.00  0.00     0.023 C 
BRANCH  39  40
ATOM     40  C   UNL     1       2.575   8.422   3.809  1.00  0.00     0.116 C 
BRANCH  40  41
ATOM     41  N   UNL     1       2.121   9.461   2.873  1.00  0.00    -0.352 N 
ATOM     42  C   UNL     1       2.813  10.375   2.140  1.00  0.00     0.251 C 
ATOM     43  H   UNL     1       1.145   9.503   2.756  1.00  0.00     0.163 HD
ATOM     44  O   UNL     1       2.232  11.267   1.531  1.00  0.00    -0.269 OA
BRANCH  42  45
ATOM     45  C   UNL     1       4.259  10.231   2.056  1.00  0.00     0.039 A 
ATOM     46  C   UNL     1       5.074  11.313   2.376  1.00  0.00     0.014 A 
ATOM     47  C   UNL     1       4.777   8.996   1.658  1.00  0.00     0.014 A 
ATOM     48  C   UNL     1       6.446  11.137   2.327  1.00  0.00     0.010 A 
ATOM     49  C   UNL     1       6.140   8.799   1.696  1.00  0.00     0.010 A 
ATOM     50  C   UNL     1       6.979   9.875   2.010  1.00  0.00    -0.014 A 
BRANCH  50  51
ATOM     51  C   UNL     1       8.436   9.679   1.981  1.00  0.00     0.031 A 
ATOM     52  C   UNL     1       9.107   9.366   0.680  1.00  0.00     0.074 A 
ATOM     53  C   UNL     1       9.114   9.778   3.137  1.00  0.00     0.049 A 
ATOM     54  N   UNL     1      10.376   9.188   0.438  1.00  0.00    -0.248 NA
ATOM     55  C   UNL     1       8.240   9.201  -0.501  1.00  0.00     0.031 C 
ATOM     56  C   UNL     1       8.511  10.024   4.452  1.00  0.00     0.029 A 
ATOM     57  N   UNL     1      10.454   9.701   3.395  1.00  0.00    -0.354 N 
ATOM     58  C   UNL     1      10.459   8.892  -0.916  1.00  0.00     0.074 A 
ATOM     59  C   UNL     1       9.111   8.835  -1.429  1.00  0.00     0.031 C 
ATOM     60  C   UNL     1       9.485  10.131   5.368  1.00  0.00     0.029 A 
ATOM     61  C   UNL     1      10.770   9.912   4.715  1.00  0.00     0.049 A 
ATOM     62  H   UNL     1      11.127   9.512   2.702  1.00  0.00     0.167 HD
ATOM     63  C   UNL     1      11.571   8.717  -1.663  1.00  0.00     0.037 A 
ATOM     64  C   UNL     1      11.970   9.925   5.319  1.00  0.00     0.037 A 
ATOM     65  C   UNL     1      12.899   8.792  -1.118  1.00  0.00     0.049 A 
ATOM     66  C   UNL     1      13.190   9.718   4.463  1.00  0.00     0.074 A 
ATOM     67  C   UNL     1      14.108   8.669  -1.775  1.00  0.00     0.029 A 
ATOM     68  N   UNL     1      13.190   9.004   0.225  1.00  0.00    -0.354 N 
ATOM     69  N   UNL     1      13.263   9.499   3.170  1.00  0.00    -0.248 NA
ATOM     70  C   UNL     1      14.488   9.776   5.141  1.00  0.00     0.031 C 
ATOM     71  C   UNL     1      15.127   8.737  -0.821  1.00  0.00     0.029 A 
ATOM     72  C   UNL     1      14.559   8.990   0.419  1.00  0.00     0.049 A 
ATOM     73  H   UNL     1      12.520   9.143   0.932  1.00  0.00     0.167 HD
ATOM     74  C   UNL     1      14.618   9.433   2.871  1.00  0.00     0.074 A 
ATOM     75  C   UNL     1      15.323   9.650   4.120  1.00  0.00     0.031 C 
ATOM     76  C   UNL     1      15.228   9.217   1.678  1.00  0.00     0.037 A 
BRANCH  63  77
ATOM     77  C   UNL     1      11.393   8.423  -3.127  1.00  0.00     0.058 A 
ATOM     78  C   UNL     1      10.868   9.373  -4.019  1.00  0.00     0.135 A 
ATOM     79  C   UNL     1      11.781   7.181  -3.652  1.00  0.00     0.135 A 
ATOM     80  F   UNL     1      10.454  10.569  -3.571  1.00  0.00    -0.206 F 
ATOM     81  C   UNL     1      10.716   9.095  -5.374  1.00  0.00     0.059 A 
ATOM     82  C   UNL     1      11.672   6.893  -5.008  1.00  0.00     0.059 A 
ATOM     83  F   UNL     1      12.275   6.229  -2.844  1.00  0.00    -0.206 F 
ATOM     84  C   UNL     1      11.130   7.854  -5.860  1.00  0.00     0.060 A 
BRANCH  84  85
ATOM     85  S   UNL     1      10.962   7.524  -7.626  1.00  0.00     0.124 S 
ATOM     86  O   UNL     1       9.512   7.444  -7.773  1.00  0.00    -0.237 OA
ATOM     87  O   UNL     1      11.596   8.697  -8.220  1.00  0.00    -0.237 OA
ATOM     88  O   UNL     1      11.680   6.267  -7.808  1.00  0.00    -0.744 OA
ENDBRANCH  84  85
ENDBRANCH  63  77
BRANCH  64  89
ATOM     89  C   UNL     1      12.069  10.161   6.783  1.00  0.00     0.058 A 
ATOM     90  C   UNL     1      12.675  11.316   7.298  1.00  0.00     0.135 A 
ATOM     91  C   UNL     1      11.551   9.233   7.701  1.00  0.00     0.135 A 
ATOM     92  F   UNL     1      13.180  12.239   6.464  1.00  0.00    -0.206 F 
ATOM     93  C   UNL     1      12.796  11.528   8.668  1.00  0.00     0.059 A 
ATOM     94  C   UNL     1      11.628   9.438   9.074  1.00  0.00     0.059 A 
ATOM     95  F   UNL     1      10.938   8.122   7.263  1.00  0.00    -0.206 F 
ATOM     96  C   UNL     1      12.268  10.581   9.548  1.00  0.00     0.060 A 
BRANCH  96  97
ATOM     97  S   UNL     1      12.415  10.874  11.323  1.00  0.00     0.124 S 
ATOM     98  O   UNL     1      13.849  10.710  11.530  1.00  0.00    -0.237 OA
ATOM     99  O   UNL     1      11.902  12.234  11.451  1.00  0.00    -0.237 OA
ATOM    100  O   UNL     1      11.571   9.835  11.906  1.00  0.00    -0.744 OA
ENDBRANCH  96  97
ENDBRANCH  64  89
BRANCH  76 101
ATOM    101  C   UNL     1      16.730   9.274   1.660  1.00  0.00     0.058 A 
ATOM    102  C   UNL     1      17.523   8.304   2.293  1.00  0.00     0.135 A 
ATOM    103  C   UNL     1      17.383  10.308   0.970  1.00  0.00     0.135 A 
ATOM    104  F   UNL     1      16.950   7.294   2.967  1.00  0.00    -0.206 F 
ATOM    105  C   UNL     1      18.911   8.388   2.286  1.00  0.00     0.059 A 
ATOM    106  C   UNL     1      18.769  10.386   0.911  1.00  0.00     0.059 A 
ATOM    107  F   UNL     1      16.672  11.252   0.332  1.00  0.00    -0.206 F 
ATOM    108  C   UNL     1      19.523   9.433   1.591  1.00  0.00     0.060 A 
BRANCH 108 109
ATOM    109  S   UNL     1      21.324   9.527   1.588  1.00  0.00     0.124 S 
ATOM    110  O   UNL     1      21.599   9.920   2.966  1.00  0.00    -0.237 OA
ATOM    111  O   UNL     1      21.705   8.165   1.228  1.00  0.00    -0.237 OA
ATOM    112  O   UNL     1      21.611  10.541   0.578  1.00  0.00    -0.744 OA
ENDBRANCH 108 109
ENDBRANCH  76 101
ENDBRANCH  50  51
ENDBRANCH  42  45
ENDBRANCH  40  41
ENDBRANCH  39  40
ENDBRANCH   1  39
TORSDOF 19
