REMARK SMILES Cc1cc(C(=O)NCCCCNC(=O)c2ccc(-c3c4nc(c(-c5c(F)cc(S(=O)(=O)[O-])cc5F)c5ccc([nH]5)c(-c5c(F)cc(S(=O)(=O)[O-])cc5F)c5nc(c(-c6c(F)cc(S(=O)(=O)[O-])cc6F)c6ccc3[nH]6)C=C5)C=C4)cc2)ccc1-c1ccc(C(=O)N2CCCCC2)cc1
REMARK SMILES IDX 10 1 9 2 8 3 7 4 5 5 6 6 4 8 1 9 2 10 3 11 83 12 82 13 81 14
REMARK SMILES IDX 84 15 85 16 97 17 86 18 96 19 87 20 88 21 89 22 90 23 91 24
REMARK SMILES IDX 95 25 92 26 94 27 93 28 11 29 12 30 13 31 14 33 15 34 16 35
REMARK SMILES IDX 80 36 17 37 79 38 18 39 19 40 20 41 73 42 21 43 78 44 72 45
REMARK SMILES IDX 74 46 22 47 77 48 71 49 70 50 23 52 57 53 36 54 56 55 37 56
REMARK SMILES IDX 40 57 55 58 75 59 38 60 39 61 54 63 76 64 41 65 24 66 25 67
REMARK SMILES IDX 34 68 26 69 27 70 33 71 35 72 28 73 29 74 30 75 31 76 32 77
REMARK SMILES IDX 58 78 59 79 68 80 60 81 61 82 67 83 69 84 62 85 63 86 64 87
REMARK SMILES IDX 65 88 66 89 42 90 43 91 52 92 44 93 45 94 51 95 53 96 46 97
REMARK SMILES IDX 47 98 48 99 49 100 50 101
REMARK H PARENT 7 7 12 32 74 51 40 62
REMARK Flexibility Score: inf
ROOT
ATOM      1  C   UNL     1      -5.717  -1.917  -2.024  1.00  0.00     0.023 C 
ENDROOT
BRANCH   1   2
ATOM      2  C   UNL     1      -4.955  -0.881  -1.192  1.00  0.00     0.023 C 
BRANCH   2   3
ATOM      3  C   UNL     1      -4.348  -1.424   0.113  1.00  0.00     0.116 C 
BRANCH   3   4
ATOM      4  N   UNL     1      -3.284  -2.384  -0.131  1.00  0.00    -0.352 N 
ATOM      5  C   UNL     1      -1.921  -2.277  -0.227  1.00  0.00     0.251 C 
ATOM      6  O   UNL     1      -1.288  -3.325  -0.377  1.00  0.00    -0.269 OA
ATOM      7  H   UNL     1      -3.611  -3.305  -0.252  1.00  0.00     0.163 HD
BRANCH   5   8
ATOM      8  C   UNL     1      -1.164  -0.991  -0.160  1.00  0.00     0.040 A 
ATOM      9  C   UNL     1       2.522  -0.143   0.323  1.00  0.00     0.045 C 
ATOM     10  C   UNL     1       1.046   0.067   0.110  1.00  0.00    -0.042 A 
ATOM     11  C   UNL     1       0.220  -1.076   0.072  1.00  0.00     0.018 A 
ATOM     12  C   UNL     1       0.473   1.337  -0.105  1.00  0.00    -0.015 A 
ATOM     13  C   UNL     1      -0.907   1.416  -0.335  1.00  0.00     0.010 A 
ATOM     14  C   UNL     1      -1.707   0.272  -0.373  1.00  0.00     0.014 A 
BRANCH  12  15
ATOM     15  C   UNL     1       1.250   2.582  -0.120  1.00  0.00    -0.018 A 
ATOM     16  C   UNL     1       2.184   2.826  -1.136  1.00  0.00     0.009 A 
ATOM     17  C   UNL     1       1.075   3.552   0.879  1.00  0.00     0.009 A 
ATOM     18  C   UNL     1       2.963   3.984  -1.124  1.00  0.00     0.014 A 
ATOM     19  C   UNL     1       1.837   4.724   0.880  1.00  0.00     0.014 A 
ATOM     20  C   UNL     1       2.790   4.945  -0.120  1.00  0.00     0.040 A 
BRANCH  20  21
ATOM     21  C   UNL     1       3.735   6.088   0.031  1.00  0.00     0.253 C 
ATOM     22  O   UNL     1       3.976   6.495   1.166  1.00  0.00    -0.269 OA
ATOM     23  N   UNL     1       4.414   6.567  -1.084  1.00  0.00    -0.339 N 
ATOM     24  C   UNL     1       5.797   6.990  -0.914  1.00  0.00     0.120 C 
ATOM     25  C   UNL     1       3.840   6.707  -2.422  1.00  0.00     0.120 C 
ATOM     26  C   UNL     1       6.032   8.397  -1.439  1.00  0.00     0.022 C 
ATOM     27  C   UNL     1       4.066   8.116  -2.974  1.00  0.00     0.022 C 
ATOM     28  C   UNL     1       5.535   8.527  -2.876  1.00  0.00     0.004 C 
ENDBRANCH  20  21
ENDBRANCH  12  15
ENDBRANCH   5   8
ENDBRANCH   3   4
ENDBRANCH   2   3
ENDBRANCH   1   2
BRANCH   1  29
ATOM     29  C   UNL     1      -6.986  -2.403  -1.337  1.00  0.00     0.116 C 
BRANCH  29  30
ATOM     30  N   UNL     1      -8.224  -2.019  -1.994  1.00  0.00    -0.352 N 
ATOM     31  C   UNL     1      -9.516  -2.337  -1.601  1.00  0.00     0.251 C 
ATOM     32  H   UNL     1      -8.136  -1.472  -2.808  1.00  0.00     0.163 HD
ATOM     33  O   UNL     1     -10.473  -2.189  -2.341  1.00  0.00    -0.269 OA
BRANCH  31  34
ATOM     34  C   UNL     1      -9.705  -2.752  -0.191  1.00  0.00     0.039 A 
ATOM     35  C   UNL     1     -10.400  -1.870   0.644  1.00  0.00     0.014 A 
ATOM     36  C   UNL     1      -8.959  -3.801   0.338  1.00  0.00     0.014 A 
ATOM     37  C   UNL     1     -10.186  -1.917   2.020  1.00  0.00     0.010 A 
ATOM     38  C   UNL     1      -8.673  -3.785   1.689  1.00  0.00     0.010 A 
ATOM     39  C   UNL     1      -9.245  -2.811   2.525  1.00  0.00    -0.014 A 
BRANCH  39  40
ATOM     40  C   UNL     1      -8.705  -2.748   3.881  1.00  0.00     0.031 A 
ATOM     41  C   UNL     1      -8.990  -3.830   4.852  1.00  0.00     0.074 A 
ATOM     42  C   UNL     1      -7.827  -1.774   4.207  1.00  0.00     0.049 A 
ATOM     43  N   UNL     1      -8.771  -3.764   6.123  1.00  0.00    -0.248 NA
ATOM     44  C   UNL     1      -9.619  -5.082   4.452  1.00  0.00     0.031 C 
ATOM     45  C   UNL     1      -6.881  -1.780   5.318  1.00  0.00     0.029 A 
ATOM     46  N   UNL     1      -7.737  -0.485   3.694  1.00  0.00    -0.354 N 
ATOM     47  C   UNL     1      -8.930  -5.029   6.650  1.00  0.00     0.074 A 
ATOM     48  C   UNL     1      -9.546  -5.783   5.586  1.00  0.00     0.031 C 
ATOM     49  C   UNL     1      -6.468  -0.525   5.551  1.00  0.00     0.029 A 
ATOM     50  C   UNL     1      -7.260   0.356   4.711  1.00  0.00     0.049 A 
ATOM     51  H   UNL     1      -7.967  -0.210   2.777  1.00  0.00     0.167 HD
ATOM     52  C   UNL     1      -8.386  -5.312   7.873  1.00  0.00     0.037 A 
ATOM     53  C   UNL     1      -8.022   1.386   5.191  1.00  0.00     0.037 A 
ATOM     54  C   UNL     1      -7.890  -4.089   8.515  1.00  0.00     0.049 A 
ATOM     55  C   UNL     1      -8.416   1.244   6.646  1.00  0.00     0.074 A 
ATOM     56  C   UNL     1      -6.625  -3.540   8.649  1.00  0.00     0.029 A 
ATOM     57  N   UNL     1      -8.789  -3.091   8.885  1.00  0.00    -0.354 N 
ATOM     58  N   UNL     1      -8.295   0.141   7.330  1.00  0.00    -0.248 NA
ATOM     59  C   UNL     1      -8.994   2.325   7.441  1.00  0.00     0.031 C 
ATOM     60  C   UNL     1      -6.771  -2.179   9.021  1.00  0.00     0.029 A 
ATOM     61  C   UNL     1      -8.123  -1.906   9.139  1.00  0.00     0.049 A 
ATOM     62  H   UNL     1      -9.763  -3.213   8.955  1.00  0.00     0.167 HD
ATOM     63  C   UNL     1      -8.796   0.320   8.593  1.00  0.00     0.074 A 
ATOM     64  C   UNL     1      -9.191   1.716   8.624  1.00  0.00     0.031 C 
ATOM     65  C   UNL     1      -8.857  -0.700   9.500  1.00  0.00     0.037 A 
BRANCH  52  66
ATOM     66  C   UNL     1      -8.014  -6.717   8.346  1.00  0.00     0.058 A 
ATOM     67  C   UNL     1      -6.987  -6.908   9.301  1.00  0.00     0.135 A 
ATOM     68  C   UNL     1      -8.547  -7.920   7.841  1.00  0.00     0.135 A 
ATOM     69  F   UNL     1      -6.456  -5.879   9.975  1.00  0.00    -0.206 F 
ATOM     70  C   UNL     1      -6.448  -8.162   9.613  1.00  0.00     0.059 A 
ATOM     71  C   UNL     1      -7.997  -9.181   8.098  1.00  0.00     0.059 A 
ATOM     72  F   UNL     1      -9.672  -7.947   7.122  1.00  0.00    -0.206 F 
ATOM     73  C   UNL     1      -6.931  -9.293   8.973  1.00  0.00     0.060 A 
BRANCH  73  74
ATOM     74  S   UNL     1      -6.174 -10.893   9.310  1.00  0.00     0.124 S 
ATOM     75  O   UNL     1      -4.780 -10.656   8.949  1.00  0.00    -0.237 OA
ATOM     76  O   UNL     1      -6.444 -11.065  10.733  1.00  0.00    -0.237 OA
ATOM     77  O   UNL     1      -6.896 -11.804   8.425  1.00  0.00    -0.744 OA
ENDBRANCH  73  74
ENDBRANCH  52  66
BRANCH  53  78
ATOM     78  C   UNL     1      -8.827   2.055   4.133  1.00  0.00     0.058 A 
ATOM     79  C   UNL     1      -8.122   2.798   3.168  1.00  0.00     0.135 A 
ATOM     80  C   UNL     1     -10.108   1.595   3.794  1.00  0.00     0.135 A 
ATOM     81  F   UNL     1      -6.900   3.278   3.452  1.00  0.00    -0.206 F 
ATOM     82  C   UNL     1      -8.580   2.915   1.862  1.00  0.00     0.059 A 
ATOM     83  C   UNL     1     -10.592   1.709   2.489  1.00  0.00     0.059 A 
ATOM     84  F   UNL     1     -10.829   0.889   4.678  1.00  0.00    -0.206 F 
ATOM     85  C   UNL     1      -9.780   2.298   1.518  1.00  0.00     0.060 A 
BRANCH  85  86
ATOM     86  S   UNL     1     -10.138   2.092  -0.243  1.00  0.00     0.124 S 
ATOM     87  O   UNL     1     -10.114   3.469  -0.723  1.00  0.00    -0.237 OA
ATOM     88  O   UNL     1      -9.015   1.255  -0.665  1.00  0.00    -0.237 OA
ATOM     89  O   UNL     1     -11.444   1.444  -0.245  1.00  0.00    -0.744 OA
ENDBRANCH  85  86
ENDBRANCH  53  78
BRANCH  65  90
ATOM     90  C   UNL     1      -9.541  -0.638  10.844  1.00  0.00     0.058 A 
ATOM     91  C   UNL     1     -10.706   0.106  11.098  1.00  0.00     0.135 A 
ATOM     92  C   UNL     1      -9.100  -1.465  11.904  1.00  0.00     0.135 A 
ATOM     93  F   UNL     1     -11.279   0.848  10.139  1.00  0.00    -0.206 F 
ATOM     94  C   UNL     1     -11.354   0.082  12.335  1.00  0.00     0.059 A 
ATOM     95  C   UNL     1      -9.761  -1.545  13.128  1.00  0.00     0.059 A 
ATOM     96  F   UNL     1      -8.008  -2.235  11.779  1.00  0.00    -0.206 F 
ATOM     97  C   UNL     1     -10.875  -0.748  13.344  1.00  0.00     0.060 A 
BRANCH  97  98
ATOM     98  S   UNL     1     -11.739  -0.841  14.924  1.00  0.00     0.124 S 
ATOM     99  O   UNL     1     -11.008   0.145  15.714  1.00  0.00    -0.237 OA
ATOM    100  O   UNL     1     -13.108  -0.475  14.571  1.00  0.00    -0.237 OA
ATOM    101  O   UNL     1     -11.554  -2.233  15.319  1.00  0.00    -0.744 OA
ENDBRANCH  97  98
ENDBRANCH  65  90
ENDBRANCH  39  40
ENDBRANCH  31  34
ENDBRANCH  29  30
ENDBRANCH   1  29
TORSDOF 16
