REMARK SMILES C[N@@H+](CC(=O)NCCCCNC(=O)c1ccc(-c2c3nc(c(-c4c(F)cc(S(=O)(=O)[O-])cc4F)c4ccc([nH]4)c(-c4c(F)cc(S(=O)(=O)[O-])cc4F)c4nc(c(-c5c(F)cc(S(=O)(=O)[O-])cc5F)c5ccc2[nH]5)C=C4)C=C3)cc1)Cc1csc(-c2ccco2)n1
REMARK SMILES IDX 8 1 7 2 6 3 4 4 5 5 3 7 2 8 1 9 80 11 81 12 82 13 90 14
REMARK SMILES IDX 83 15 84 16 85 17 86 18 89 19 87 20 88 21 9 22 10 23 11 24
REMARK SMILES IDX 12 25 13 27 14 28 15 29 79 30 16 31 78 32 17 33 18 34 19 35
REMARK SMILES IDX 72 36 20 37 77 38 71 39 73 40 21 41 76 42 70 43 69 44 22 46
REMARK SMILES IDX 56 47 35 48 55 49 36 50 39 51 54 52 74 53 37 54 38 55 53 57
REMARK SMILES IDX 75 58 40 59 23 60 24 61 33 62 25 63 26 64 32 65 34 66 27 67
REMARK SMILES IDX 28 68 29 69 30 70 31 71 57 72 58 73 67 74 59 75 60 76 66 77
REMARK SMILES IDX 68 78 61 79 62 80 63 81 64 82 65 83 41 84 42 85 51 86 43 87
REMARK SMILES IDX 44 88 50 89 52 90 45 91 46 92 47 93 48 94 49 95
REMARK H PARENT 6 6 2 10 11 26 73 45 39 56
REMARK Flexibility Score: inf
ROOT
ATOM      1  C   UNL     1       0.686  -0.456   2.224  1.00  0.00     0.023 C 
ENDROOT
BRANCH   1   2
ATOM      2  C   UNL     1      -0.606  -0.727   1.450  1.00  0.00     0.116 C 
BRANCH   2   3
ATOM      3  N   UNL     1      -1.368   0.466   1.129  1.00  0.00    -0.351 N 
ATOM      4  C   UNL     1      -1.591   1.098  -0.060  1.00  0.00     0.275 C 
ATOM      5  O   UNL     1      -2.386   2.043  -0.065  1.00  0.00    -0.269 OA
ATOM      6  H   UNL     1      -1.800   0.893   1.904  1.00  0.00     0.163 HD
BRANCH   4   7
ATOM      7  C   UNL     1      -0.912   0.642  -1.348  1.00  0.00     0.363 C 
BRANCH   7   8
ATOM      8  N   UNL     1       0.441   1.152  -1.553  1.00  0.00    -0.325 N 
ATOM      9  C   UNL     1       1.560   0.286  -1.280  1.00  0.00     0.333 C 
ATOM     10  H   UNL     1       0.388   1.014  -2.562  1.00  0.00     0.348 HD
BRANCH   8  11
ATOM     11  C   UNL     1       0.678   2.592  -1.694  1.00  0.00     0.320 C 
BRANCH  11  12
ATOM     12  C   UNL     1       0.663   3.393  -0.413  1.00  0.00     0.106 A 
ATOM     13  C   UNL     1       0.864   2.906   0.858  1.00  0.00     0.097 A 
ATOM     14  N   UNL     1       0.493   4.788  -0.443  1.00  0.00    -0.232 NA
ATOM     15  S   UNL     1       0.765   4.113   2.037  1.00  0.00    -0.119 S 
ATOM     16  C   UNL     1       0.558   5.271   0.788  1.00  0.00     0.159 A 
BRANCH  16  17
ATOM     17  C   UNL     1       0.477   6.653   1.167  1.00  0.00     0.162 A 
ATOM     18  C   UNL     1      -0.214   7.705   0.592  1.00  0.00     0.053 A 
ATOM     19  O   UNL     1       1.100   7.120   2.304  1.00  0.00    -0.462 OA
ATOM     20  C   UNL     1      -0.044   8.832   1.441  1.00  0.00     0.043 A 
ATOM     21  C   UNL     1       0.774   8.422   2.463  1.00  0.00     0.196 A 
ENDBRANCH  16  17
ENDBRANCH  11  12
ENDBRANCH   8  11
ENDBRANCH   7   8
ENDBRANCH   4   7
ENDBRANCH   2   3
ENDBRANCH   1   2
BRANCH   1  22
ATOM     22  C   UNL     1       0.533   0.411   3.477  1.00  0.00     0.023 C 
BRANCH  22  23
ATOM     23  C   UNL     1      -0.212  -0.264   4.612  1.00  0.00     0.116 C 
BRANCH  23  24
ATOM     24  N   UNL     1       0.427  -1.508   5.009  1.00  0.00    -0.352 N 
ATOM     25  C   UNL     1       0.810  -1.940   6.251  1.00  0.00     0.251 C 
ATOM     26  H   UNL     1       0.611  -2.135   4.273  1.00  0.00     0.163 HD
ATOM     27  O   UNL     1       1.546  -2.916   6.346  1.00  0.00    -0.269 OA
BRANCH  25  28
ATOM     28  C   UNL     1       0.343  -1.229   7.458  1.00  0.00     0.039 A 
ATOM     29  C   UNL     1       1.204  -1.123   8.551  1.00  0.00     0.014 A 
ATOM     30  C   UNL     1      -0.948  -0.696   7.526  1.00  0.00     0.014 A 
ATOM     31  C   UNL     1       0.776  -0.461   9.699  1.00  0.00     0.010 A 
ATOM     32  C   UNL     1      -1.332   0.058   8.625  1.00  0.00     0.010 A 
ATOM     33  C   UNL     1      -0.488   0.153   9.737  1.00  0.00    -0.014 A 
BRANCH  33  34
ATOM     34  C   UNL     1      -0.947   0.864  10.953  1.00  0.00     0.031 A 
ATOM     35  C   UNL     1      -2.152   0.369  11.706  1.00  0.00     0.074 A 
ATOM     36  C   UNL     1      -0.283   1.963  11.359  1.00  0.00     0.049 A 
ATOM     37  N   UNL     1      -2.682   0.832  12.809  1.00  0.00    -0.248 NA
ATOM     38  C   UNL     1      -2.880  -0.777  11.133  1.00  0.00     0.031 C 
ATOM     39  C   UNL     1       0.852   2.572  10.659  1.00  0.00     0.029 A 
ATOM     40  N   UNL     1      -0.457   2.757  12.461  1.00  0.00    -0.354 N 
ATOM     41  C   UNL     1      -3.800   0.043  13.053  1.00  0.00     0.074 A 
ATOM     42  C   UNL     1      -3.918  -0.880  11.948  1.00  0.00     0.031 C 
ATOM     43  C   UNL     1       1.303   3.613  11.376  1.00  0.00     0.029 A 
ATOM     44  C   UNL     1       0.472   3.765  12.565  1.00  0.00     0.049 A 
ATOM     45  H   UNL     1      -1.179   2.620  13.117  1.00  0.00     0.167 HD
ATOM     46  C   UNL     1      -4.633   0.063  14.120  1.00  0.00     0.037 A 
ATOM     47  C   UNL     1       0.641   4.697  13.521  1.00  0.00     0.037 A 
ATOM     48  C   UNL     1      -4.486   0.973  15.226  1.00  0.00     0.049 A 
ATOM     49  C   UNL     1      -0.277   4.679  14.713  1.00  0.00     0.074 A 
ATOM     50  C   UNL     1      -5.235   1.048  16.386  1.00  0.00     0.029 A 
ATOM     51  N   UNL     1      -3.520   1.967  15.307  1.00  0.00    -0.354 N 
ATOM     52  N   UNL     1      -1.284   3.876  14.967  1.00  0.00    -0.248 NA
ATOM     53  C   UNL     1      -0.025   5.680  15.756  1.00  0.00     0.031 C 
ATOM     54  C   UNL     1      -4.752   2.118  17.147  1.00  0.00     0.029 A 
ATOM     55  C   UNL     1      -3.665   2.673  16.489  1.00  0.00     0.049 A 
ATOM     56  H   UNL     1      -2.833   2.144  14.624  1.00  0.00     0.167 HD
ATOM     57  C   UNL     1      -1.772   4.260  16.211  1.00  0.00     0.074 A 
ATOM     58  C   UNL     1      -0.932   5.351  16.665  1.00  0.00     0.031 C 
ATOM     59  C   UNL     1      -2.818   3.760  16.915  1.00  0.00     0.037 A 
BRANCH  46  60
ATOM     60  C   UNL     1      -5.763  -0.932  14.144  1.00  0.00     0.058 A 
ATOM     61  C   UNL     1      -5.532  -2.310  14.290  1.00  0.00     0.135 A 
ATOM     62  C   UNL     1      -7.096  -0.502  14.046  1.00  0.00     0.135 A 
ATOM     63  F   UNL     1      -4.277  -2.782  14.369  1.00  0.00    -0.206 F 
ATOM     64  C   UNL     1      -6.577  -3.228  14.306  1.00  0.00     0.059 A 
ATOM     65  C   UNL     1      -8.160  -1.400  14.091  1.00  0.00     0.059 A 
ATOM     66  F   UNL     1      -7.378   0.802  13.900  1.00  0.00    -0.206 F 
ATOM     67  C   UNL     1      -7.889  -2.763  14.207  1.00  0.00     0.060 A 
BRANCH  67  68
ATOM     68  S   UNL     1      -9.234  -3.966  14.242  1.00  0.00     0.124 S 
ATOM     69  O   UNL     1      -9.095  -4.597  12.933  1.00  0.00    -0.237 OA
ATOM     70  O   UNL     1      -8.879  -4.798  15.387  1.00  0.00    -0.237 OA
ATOM     71  O   UNL     1     -10.425  -3.141  14.416  1.00  0.00    -0.744 OA
ENDBRANCH  67  68
ENDBRANCH  46  60
BRANCH  47  72
ATOM     72  C   UNL     1       1.746   5.686  13.410  1.00  0.00     0.058 A 
ATOM     73  C   UNL     1       2.851   5.638  14.272  1.00  0.00     0.135 A 
ATOM     74  C   UNL     1       1.730   6.686  12.425  1.00  0.00     0.135 A 
ATOM     75  F   UNL     1       2.915   4.701  15.230  1.00  0.00    -0.206 F 
ATOM     76  C   UNL     1       3.890   6.559  14.179  1.00  0.00     0.059 A 
ATOM     77  C   UNL     1       2.770   7.601  12.293  1.00  0.00     0.059 A 
ATOM     78  F   UNL     1       0.706   6.761  11.560  1.00  0.00    -0.206 F 
ATOM     79  C   UNL     1       3.840   7.537  13.184  1.00  0.00     0.060 A 
BRANCH  79  80
ATOM     80  S   UNL     1       5.213   8.702  13.045  1.00  0.00     0.124 S 
ATOM     81  O   UNL     1       4.997   9.550  14.211  1.00  0.00    -0.237 OA
ATOM     82  O   UNL     1       6.373   7.817  13.104  1.00  0.00    -0.237 OA
ATOM     83  O   UNL     1       4.984   9.337  11.750  1.00  0.00    -0.744 OA
ENDBRANCH  79  80
ENDBRANCH  47  72
BRANCH  59  84
ATOM     84  C   UNL     1      -3.086   4.371  18.263  1.00  0.00     0.058 A 
ATOM     85  C   UNL     1      -3.588   5.676  18.396  1.00  0.00     0.135 A 
ATOM     86  C   UNL     1      -2.847   3.636  19.435  1.00  0.00     0.135 A 
ATOM     87  F   UNL     1      -3.832   6.421  17.307  1.00  0.00    -0.206 F 
ATOM     88  C   UNL     1      -3.796   6.248  19.646  1.00  0.00     0.059 A 
ATOM     89  C   UNL     1      -3.081   4.176  20.695  1.00  0.00     0.059 A 
ATOM     90  F   UNL     1      -2.384   2.378  19.363  1.00  0.00    -0.206 F 
ATOM     91  C   UNL     1      -3.534   5.491  20.790  1.00  0.00     0.060 A 
BRANCH  91  92
ATOM     92  S   UNL     1      -3.797   6.248  22.407  1.00  0.00     0.124 S 
ATOM     93  O   UNL     1      -2.652   7.147  22.499  1.00  0.00    -0.237 OA
ATOM     94  O   UNL     1      -5.097   6.891  22.244  1.00  0.00    -0.237 OA
ATOM     95  O   UNL     1      -3.778   5.110  23.321  1.00  0.00    -0.744 OA
ENDBRANCH  91  92
ENDBRANCH  59  84
ENDBRANCH  33  34
ENDBRANCH  25  28
ENDBRANCH  23  24
ENDBRANCH  22  23
ENDBRANCH   1  22
TORSDOF 18
