REMARK SMILES O=C(CCC(=O)N1CCC(c2nnc3ccccn23)CC1)NCCCCNC(=O)c1ccc(-c2c3nc(c(-c4c(F)cc(S(=O)(=O)[O-])cc4F)c4ccc([nH]4)c(-c4c(F)cc(S(=O)(=O)[O-])cc4F)c4nc(c(-c5c(F)cc(S(=O)(=O)[O-])cc5F)c5ccc2[nH]5)C=C4)C=C3)cc1
REMARK SMILES IDX 24 1 23 2 22 3 1 4 2 5 3 7 4 8 5 9 6 10 7 11 8 12 21 13 9 14
REMARK SMILES IDX 20 15 10 16 11 17 12 18 19 19 13 20 14 21 18 22 15 23 17 24
REMARK SMILES IDX 16 25 25 26 26 27 27 28 28 29 29 31 30 32 31 33 95 34 32 35
REMARK SMILES IDX 94 36 33 37 34 38 35 39 88 40 36 41 93 42 87 43 89 44 37 45
REMARK SMILES IDX 92 46 86 47 85 48 38 50 72 51 51 52 71 53 52 54 55 55 70 56
REMARK SMILES IDX 90 57 53 58 54 59 69 61 91 62 56 63 39 64 40 65 49 66 41 67
REMARK SMILES IDX 42 68 48 69 50 70 43 71 44 72 45 73 46 74 47 75 73 76 74 77
REMARK SMILES IDX 83 78 75 79 76 80 82 81 84 82 77 83 78 84 79 85 80 86 81 87
REMARK SMILES IDX 57 88 58 89 67 90 59 91 60 92 66 93 68 94 61 95 62 96 63 97
REMARK SMILES IDX 64 98 65 99
REMARK H PARENT 22 6 27 30 89 49 55 60
REMARK Flexibility Score: inf
ROOT
ATOM      1  C   UNL     1       1.438  -3.785   0.840  1.00  0.00     0.023 C 
ENDROOT
BRANCH   1   2
ATOM      2  C   UNL     1       1.177  -2.263   0.902  1.00  0.00     0.116 C 
BRANCH   2   3
ATOM      3  N   UNL     1       1.807  -1.429  -0.138  1.00  0.00    -0.356 N 
ATOM      4  O   UNL     1       0.779   0.536   0.504  1.00  0.00    -0.275 OA
ATOM      5  C   UNL     1       1.670  -0.027  -0.126  1.00  0.00     0.220 C 
ATOM      6  H   UNL     1       2.332  -1.859  -0.851  1.00  0.00     0.163 HD
BRANCH   5   7
ATOM      7  C   UNL     1       2.835   0.779  -0.799  1.00  0.00     0.110 C 
BRANCH   7   8
ATOM      8  C   UNL     1       3.624   1.746   0.160  1.00  0.00     0.110 C 
BRANCH   8   9
ATOM      9  C   UNL     1       4.933   1.378   0.973  1.00  0.00     0.223 C 
ATOM     10  O   UNL     1       5.950   2.063   0.855  1.00  0.00    -0.275 OA
ATOM     11  N   UNL     1       4.862   0.367   1.922  1.00  0.00    -0.343 N 
ATOM     12  C   UNL     1       5.809   0.111   3.025  1.00  0.00     0.120 C 
ATOM     13  C   UNL     1       4.051  -0.743   1.624  1.00  0.00     0.120 C 
ATOM     14  C   UNL     1       6.508  -1.300   2.947  1.00  0.00     0.033 C 
ATOM     15  C   UNL     1       4.928  -1.866   1.178  1.00  0.00     0.033 C 
ATOM     16  C   UNL     1       5.485  -2.351   2.493  1.00  0.00     0.062 C 
BRANCH  16  17
ATOM     17  C   UNL     1       5.724  -3.810   2.397  1.00  0.00     0.140 A 
ATOM     18  N   UNL     1       6.168  -4.477   1.337  1.00  0.00    -0.134 NA
ATOM     19  N   UNL     1       5.259  -4.691   3.387  1.00  0.00    -0.286 N 
ATOM     20  N   UNL     1       6.124  -5.883   1.443  1.00  0.00    -0.130 NA
ATOM     21  C   UNL     1       5.571  -6.245   2.585  1.00  0.00     0.160 A 
ATOM     22  C   UNL     1       4.990  -4.595   5.219  1.00  0.00     0.095 A 
ATOM     23  C   UNL     1       5.652  -7.748   3.619  1.00  0.00     0.050 A 
ATOM     24  C   UNL     1       5.207  -5.951   6.118  1.00  0.00     0.019 A 
ATOM     25  C   UNL     1       5.554  -7.635   5.285  1.00  0.00     0.005 A 
ENDBRANCH  16  17
ENDBRANCH   8   9
ENDBRANCH   7   8
ENDBRANCH   5   7
ENDBRANCH   2   3
ENDBRANCH   1   2
BRANCH   1  26
ATOM     26  C   UNL     1       2.583  -4.449   1.637  1.00  0.00     0.023 C 
BRANCH  26  27
ATOM     27  C   UNL     1       2.633  -4.266   3.162  1.00  0.00     0.116 C 
BRANCH  27  28
ATOM     28  N   UNL     1       3.173  -5.481   3.837  1.00  0.00    -0.352 N 
ATOM     29  C   UNL     1       4.385  -6.267   4.275  1.00  0.00     0.251 C 
ATOM     30  H   UNL     1       2.390  -6.004   4.125  1.00  0.00     0.163 HD
ATOM     31  O   UNL     1       3.600  -7.253   4.553  1.00  0.00    -0.269 OA
BRANCH  29  32
ATOM     32  C   UNL     1       6.498  -5.889   4.459  1.00  0.00     0.039 A 
ATOM     33  C   UNL     1       7.633  -6.860   4.561  1.00  0.00     0.014 A 
ATOM     34  C   UNL     1       7.274  -4.532   4.549  1.00  0.00     0.014 A 
ATOM     35  C   UNL     1       8.964  -6.628   4.673  1.00  0.00     0.010 A 
ATOM     36  C   UNL     1       8.618  -4.267   4.402  1.00  0.00     0.010 A 
ATOM     37  C   UNL     1       9.417  -5.362   4.437  1.00  0.00    -0.014 A 
BRANCH  37  38
ATOM     38  C   UNL     1      10.832  -5.310   4.377  1.00  0.00     0.031 A 
ATOM     39  C   UNL     1      11.480  -4.888   5.620  1.00  0.00     0.074 A 
ATOM     40  C   UNL     1      11.345  -5.941   3.315  1.00  0.00     0.049 A 
ATOM     41  N   UNL     1      12.743  -4.827   5.858  1.00  0.00    -0.248 NA
ATOM     42  C   UNL     1      10.605  -4.475   6.742  1.00  0.00     0.031 C 
ATOM     43  C   UNL     1      10.571  -6.500   2.184  1.00  0.00     0.029 A 
ATOM     44  N   UNL     1      12.619  -6.291   3.058  1.00  0.00    -0.354 N 
ATOM     45  C   UNL     1      12.826  -4.309   7.130  1.00  0.00     0.074 A 
ATOM     46  C   UNL     1      11.496  -4.046   7.616  1.00  0.00     0.031 C 
ATOM     47  C   UNL     1      11.414  -7.110   1.344  1.00  0.00     0.029 A 
ATOM     48  C   UNL     1      12.760  -6.891   1.839  1.00  0.00     0.049 A 
ATOM     49  H   UNL     1      13.366  -6.133   3.679  1.00  0.00     0.167 HD
ATOM     50  C   UNL     1      13.969  -4.081   7.790  1.00  0.00     0.037 A 
ATOM     51  C   UNL     1      13.900  -7.133   1.189  1.00  0.00     0.037 A 
ATOM     52  C   UNL     1      15.236  -4.372   7.189  1.00  0.00     0.049 A 
ATOM     53  C   UNL     1      15.152  -6.756   1.916  1.00  0.00     0.074 A 
ATOM     54  C   UNL     1      16.493  -4.170   7.707  1.00  0.00     0.029 A 
ATOM     55  N   UNL     1      15.396  -4.921   5.916  1.00  0.00    -0.354 N 
ATOM     56  N   UNL     1      15.277  -6.218   3.111  1.00  0.00    -0.248 NA
ATOM     57  C   UNL     1      16.408  -7.015   1.225  1.00  0.00     0.031 C 
ATOM     58  C   UNL     1      17.413  -4.525   6.719  1.00  0.00     0.029 A 
ATOM     59  C   UNL     1      16.736  -5.039   5.618  1.00  0.00     0.049 A 
ATOM     60  H   UNL     1      14.659  -5.186   5.319  1.00  0.00     0.167 HD
ATOM     61  C   UNL     1      16.636  -6.099   3.334  1.00  0.00     0.074 A 
ATOM     62  C   UNL     1      17.282  -6.644   2.149  1.00  0.00     0.031 C 
ATOM     63  C   UNL     1      17.299  -5.596   4.407  1.00  0.00     0.037 A 
BRANCH  50  64
ATOM     64  C   UNL     1      13.858  -3.434   9.125  1.00  0.00     0.058 A 
ATOM     65  C   UNL     1      13.253  -4.073  10.219  1.00  0.00     0.135 A 
ATOM     66  C   UNL     1      14.338  -2.129   9.299  1.00  0.00     0.135 A 
ATOM     67  F   UNL     1      12.714  -5.296  10.082  1.00  0.00    -0.206 F 
ATOM     68  C   UNL     1      13.133  -3.438  11.446  1.00  0.00     0.059 A 
ATOM     69  C   UNL     1      14.266  -1.491  10.528  1.00  0.00     0.059 A 
ATOM     70  F   UNL     1      14.869  -1.458   8.265  1.00  0.00    -0.206 F 
ATOM     71  C   UNL     1      13.661  -2.154  11.594  1.00  0.00     0.060 A 
BRANCH  71  72
ATOM     72  S   UNL     1      13.559  -1.376  13.213  1.00  0.00     0.124 S 
ATOM     73  O   UNL     1      12.119  -1.174  13.350  1.00  0.00    -0.237 OA
ATOM     74  O   UNL     1      14.141  -2.397  14.077  1.00  0.00    -0.237 OA
ATOM     75  O   UNL     1      14.351  -0.160  13.057  1.00  0.00    -0.744 OA
ENDBRANCH  71  72
ENDBRANCH  50  64
BRANCH  51  76
ATOM     76  C   UNL     1      13.858  -7.683  -0.176  1.00  0.00     0.058 A 
ATOM     77  C   UNL     1      14.352  -8.963  -0.439  1.00  0.00     0.135 A 
ATOM     78  C   UNL     1      13.265  -6.969  -1.232  1.00  0.00     0.135 A 
ATOM     79  F   UNL     1      14.898  -9.688   0.550  1.00  0.00    -0.206 F 
ATOM     80  C   UNL     1      14.296  -9.507  -1.713  1.00  0.00     0.059 A 
ATOM     81  C   UNL     1      13.162  -7.507  -2.506  1.00  0.00     0.059 A 
ATOM     82  F   UNL     1      12.739  -5.752  -1.017  1.00  0.00    -0.206 F 
ATOM     83  C   UNL     1      13.698  -8.771  -2.739  1.00  0.00     0.060 A 
BRANCH  83  84
ATOM     84  S   UNL     1      13.622  -9.506  -4.382  1.00  0.00     0.124 S 
ATOM     85  O   UNL     1      15.033  -9.542  -4.749  1.00  0.00    -0.237 OA
ATOM     86  O   UNL     1      13.001 -10.797  -4.105  1.00  0.00    -0.237 OA
ATOM     87  O   UNL     1      12.798  -8.567  -5.136  1.00  0.00    -0.744 OA
ENDBRANCH  83  84
ENDBRANCH  51  76
BRANCH  63  88
ATOM     88  C   UNL     1      18.793  -5.674   4.347  1.00  0.00     0.058 A 
ATOM     89  C   UNL     1      19.539  -4.894   3.453  1.00  0.00     0.135 A 
ATOM     90  C   UNL     1      19.480  -6.511   5.241  1.00  0.00     0.135 A 
ATOM     91  F   UNL     1      18.921  -4.088   2.575  1.00  0.00    -0.206 F 
ATOM     92  C   UNL     1      20.923  -4.971   3.421  1.00  0.00     0.059 A 
ATOM     93  C   UNL     1      20.864  -6.561   5.262  1.00  0.00     0.059 A 
ATOM     94  F   UNL     1      18.804  -7.263   6.124  1.00  0.00    -0.206 F 
ATOM     95  C   UNL     1      21.575  -5.799   4.337  1.00  0.00     0.060 A 
BRANCH  95  96
ATOM     96  S   UNL     1      23.375  -5.847   4.314  1.00  0.00     0.124 S 
ATOM     97  O   UNL     1      23.634  -6.512   3.041  1.00  0.00    -0.237 OA
ATOM     98  O   UNL     1      23.719  -4.430   4.373  1.00  0.00    -0.237 OA
ATOM     99  O   UNL     1      23.710  -6.620   5.506  1.00  0.00    -0.744 OA
ENDBRANCH  95  96
ENDBRANCH  63  88
ENDBRANCH  37  38
ENDBRANCH  29  32
ENDBRANCH  27  28
ENDBRANCH  26  27
ENDBRANCH   1  26
TORSDOF 17
