REMARK SMILES CCn1ncc(-c2cc(C(F)(F)F)nc(-n3ccc(C(=O)NCCCCNC(=O)c4ccc(-c5c6nc(c(-c7c(F)cc(S(=O)(=O)[O-])cc7F)c7ccc([nH]7)c(-c7c(F)cc(S(=O)(=O)[O-])cc7F)c7nc(c(-c8c(F)cc(S(=O)(=O)[O-])cc8F)c8ccc5[nH]8)C=C7)C=C6)cc4)n3)n2)c1C
REMARK SMILES IDX 24 1 23 2 22 3 20 4 21 5 19 7 16 8 17 9 96 10 18 11 15 12
REMARK SMILES IDX 7 13 8 14 97 15 9 16 14 17 6 18 3 19 4 20 98 21 5 22 99 23
REMARK SMILES IDX 2 24 1 25 10 26 11 27 12 28 13 29 25 30 26 31 27 32 28 33
REMARK SMILES IDX 29 35 30 36 31 37 95 38 32 39 94 40 33 41 34 42 35 43 88 44
REMARK SMILES IDX 36 45 93 46 87 47 89 48 37 49 92 50 86 51 85 52 38 54 72 55
REMARK SMILES IDX 51 56 71 57 52 58 55 59 70 60 90 61 53 62 54 63 69 65 91 66
REMARK SMILES IDX 56 67 39 68 40 69 49 70 41 71 42 72 48 73 50 74 43 75 44 76
REMARK SMILES IDX 45 77 46 78 47 79 73 80 74 81 83 82 75 83 76 84 82 85 84 86
REMARK SMILES IDX 77 87 78 88 79 89 80 90 81 91 57 92 58 93 67 94 59 95 60 96
REMARK SMILES IDX 66 97 68 98 61 99 62 100 63 101 64 102 65 103
REMARK H PARENT 22 6 27 34 89 53 55 64
REMARK Flexibility Score: inf
ROOT
ATOM      1  C   UNL     1      -3.477  -6.559  -7.292  1.00  0.00     0.023 C 
ENDROOT
BRANCH   1   2
ATOM      2  C   UNL     1      -3.932  -5.871  -5.999  1.00  0.00     0.116 C 
BRANCH   2   3
ATOM      3  N   UNL     1      -4.962  -6.617  -5.293  1.00  0.00    -0.351 N 
ATOM      4  C   UNL     1      -4.933  -7.303  -4.095  1.00  0.00     0.271 C 
ATOM      5  O   UNL     1      -5.939  -7.947  -3.788  1.00  0.00    -0.267 OA
ATOM      6  H   UNL     1      -5.834  -6.637  -5.750  1.00  0.00     0.163 HD
BRANCH   4   7
ATOM      7  C   UNL     1      -3.724  -7.343  -3.253  1.00  0.00     0.150 A 
ATOM      8  N   UNL     1      -1.734  -6.960  -2.553  1.00  0.00    -0.205 N 
ATOM      9  C   UNL     1      -2.130  -8.104  -1.897  1.00  0.00     0.119 A 
ATOM     10  N   UNL     1      -2.748  -6.420  -3.273  1.00  0.00    -0.160 NA
ATOM     11  C   UNL     1      -3.427  -8.341  -2.283  1.00  0.00     0.056 A 
BRANCH   8  12
ATOM     12  C   UNL     1      -0.412  -6.414  -2.603  1.00  0.00     0.251 A 
ATOM     13  C   UNL     1       0.962  -4.601  -2.878  1.00  0.00     0.080 A 
ATOM     14  C   UNL     1       2.084  -5.398  -2.884  1.00  0.00     0.062 A 
ATOM     15  N   UNL     1      -0.283  -5.094  -2.811  1.00  0.00    -0.211 NA
ATOM     16  C   UNL     1       1.875  -6.754  -2.699  1.00  0.00     0.150 A 
ATOM     17  N   UNL     1       0.631  -7.267  -2.493  1.00  0.00    -0.207 NA
BRANCH  13  18
ATOM     18  C   UNL     1       1.079  -3.160  -2.812  1.00  0.00     0.041 A 
ATOM     19  N   UNL     1       0.919  -1.096  -2.070  1.00  0.00    -0.269 N 
ATOM     20  N   UNL     1       1.752  -1.006  -3.129  1.00  0.00    -0.181 NA
ATOM     21  C   UNL     1       0.504  -2.382  -1.817  1.00  0.00     0.045 A 
ATOM     22  C   UNL     1       1.817  -2.254  -3.596  1.00  0.00     0.145 A 
ATOM     23  C   UNL     1      -0.362  -2.772  -0.669  1.00  0.00     0.067 C 
BRANCH  19  24
ATOM     24  C   UNL     1       0.574   0.113  -1.343  1.00  0.00     0.141 C 
ATOM     25  C   UNL     1       1.271   0.215   0.004  1.00  0.00     0.029 C 
ENDBRANCH  19  24
ENDBRANCH  13  18
BRANCH  16  26
ATOM     26  C   UNL     1       3.056  -7.709  -2.764  1.00  0.00     0.433 C 
ATOM     27  F   UNL     1       3.107  -8.578  -1.716  1.00  0.00    -0.165 F 
ATOM     28  F   UNL     1       3.048  -8.475  -3.892  1.00  0.00    -0.165 F 
ATOM     29  F   UNL     1       4.265  -7.071  -2.768  1.00  0.00    -0.165 F 
ENDBRANCH  16  26
ENDBRANCH   8  12
ENDBRANCH   4   7
ENDBRANCH   2   3
ENDBRANCH   1   2
BRANCH   1  30
ATOM     30  C   UNL     1      -4.517  -6.651  -8.418  1.00  0.00     0.023 C 
BRANCH  30  31
ATOM     31  C   UNL     1      -5.078  -5.316  -8.893  1.00  0.00     0.116 C 
BRANCH  31  32
ATOM     32  N   UNL     1      -4.065  -4.436  -9.472  1.00  0.00    -0.352 N 
ATOM     33  C   UNL     1      -4.231  -3.142  -9.939  1.00  0.00     0.251 C 
ATOM     34  H   UNL     1      -3.156  -4.808  -9.539  1.00  0.00     0.163 HD
ATOM     35  O   UNL     1      -3.450  -2.670 -10.749  1.00  0.00    -0.269 OA
BRANCH  33  36
ATOM     36  C   UNL     1      -5.368  -2.345  -9.435  1.00  0.00     0.039 A 
ATOM     37  C   UNL     1      -6.112  -1.523 -10.287  1.00  0.00     0.014 A 
ATOM     38  C   UNL     1      -5.696  -2.449  -8.085  1.00  0.00     0.014 A 
ATOM     39  C   UNL     1      -7.244  -0.882  -9.784  1.00  0.00     0.010 A 
ATOM     40  C   UNL     1      -6.881  -1.927  -7.625  1.00  0.00     0.010 A 
ATOM     41  C   UNL     1      -7.640  -1.111  -8.456  1.00  0.00    -0.014 A 
BRANCH  41  42
ATOM     42  C   UNL     1      -8.941  -0.644  -7.975  1.00  0.00     0.031 A 
ATOM     43  C   UNL     1     -10.082  -1.137  -8.797  1.00  0.00     0.074 A 
ATOM     44  C   UNL     1      -9.119  -0.043  -6.775  1.00  0.00     0.049 A 
ATOM     45  N   UNL     1     -10.835  -0.456  -9.595  1.00  0.00    -0.248 NA
ATOM     46  C   UNL     1     -10.295  -2.594  -8.893  1.00  0.00     0.031 C 
ATOM     47  C   UNL     1      -8.103   0.181  -5.738  1.00  0.00     0.029 A 
ATOM     48  N   UNL     1     -10.261   0.396  -6.167  1.00  0.00    -0.354 N 
ATOM     49  C   UNL     1     -11.795  -1.354 -10.063  1.00  0.00     0.074 A 
ATOM     50  C   UNL     1     -11.268  -2.664  -9.806  1.00  0.00     0.031 C 
ATOM     51  C   UNL     1      -8.703   0.481  -4.566  1.00  0.00     0.029 A 
ATOM     52  C   UNL     1     -10.124   0.651  -4.802  1.00  0.00     0.049 A 
ATOM     53  H   UNL     1     -11.109   0.522  -6.651  1.00  0.00     0.167 HD
ATOM     54  C   UNL     1     -13.066  -0.933 -10.319  1.00  0.00     0.037 A 
ATOM     55  C   UNL     1     -11.100   0.984  -3.919  1.00  0.00     0.037 A 
ATOM     56  C   UNL     1     -13.116   0.508 -10.321  1.00  0.00     0.049 A 
ATOM     57  C   UNL     1     -12.230   1.529  -4.706  1.00  0.00     0.074 A 
ATOM     58  C   UNL     1     -12.685   1.523 -11.146  1.00  0.00     0.029 A 
ATOM     59  N   UNL     1     -13.347   1.051  -9.083  1.00  0.00    -0.354 N 
ATOM     60  N   UNL     1     -12.159   2.641  -5.386  1.00  0.00    -0.248 NA
ATOM     61  C   UNL     1     -13.341   0.653  -5.058  1.00  0.00     0.031 C 
ATOM     62  C   UNL     1     -12.473   2.652 -10.302  1.00  0.00     0.029 A 
ATOM     63  C   UNL     1     -12.835   2.316  -8.997  1.00  0.00     0.049 A 
ATOM     64  H   UNL     1     -13.819   0.590  -8.353  1.00  0.00     0.167 HD
ATOM     65  C   UNL     1     -12.921   2.401  -6.514  1.00  0.00     0.074 A 
ATOM     66  C   UNL     1     -13.755   1.255  -6.176  1.00  0.00     0.031 C 
ATOM     67  C   UNL     1     -12.569   2.939  -7.717  1.00  0.00     0.037 A 
BRANCH  54  68
ATOM     68  C   UNL     1     -14.336  -1.737 -10.076  1.00  0.00     0.058 A 
ATOM     69  C   UNL     1     -15.582  -1.161 -10.417  1.00  0.00     0.135 A 
ATOM     70  C   UNL     1     -14.415  -2.891  -9.265  1.00  0.00     0.135 A 
ATOM     71  F   UNL     1     -15.642  -0.063 -11.188  1.00  0.00    -0.206 F 
ATOM     72  C   UNL     1     -16.798  -1.643  -9.924  1.00  0.00     0.059 A 
ATOM     73  C   UNL     1     -15.619  -3.415  -8.803  1.00  0.00     0.059 A 
ATOM     74  F   UNL     1     -13.332  -3.521  -8.800  1.00  0.00    -0.206 F 
ATOM     75  C   UNL     1     -16.803  -2.765  -9.103  1.00  0.00     0.060 A 
BRANCH  75  76
ATOM     76  S   UNL     1     -18.355  -3.350  -8.402  1.00  0.00     0.124 S 
ATOM     77  O   UNL     1     -18.680  -2.276  -7.470  1.00  0.00    -0.237 OA
ATOM     78  O   UNL     1     -19.202  -3.450  -9.586  1.00  0.00    -0.237 OA
ATOM     79  O   UNL     1     -17.988  -4.625  -7.793  1.00  0.00    -0.744 OA
ENDBRANCH  75  76
ENDBRANCH  54  68
BRANCH  55  80
ATOM     80  C   UNL     1     -11.212   0.678  -2.468  1.00  0.00     0.058 A 
ATOM     81  C   UNL     1     -12.082   1.390  -1.623  1.00  0.00     0.135 A 
ATOM     82  C   UNL     1     -10.672  -0.512  -1.941  1.00  0.00     0.135 A 
ATOM     83  F   UNL     1     -12.658   2.524  -2.049  1.00  0.00    -0.206 F 
ATOM     84  C   UNL     1     -12.433   0.927  -0.348  1.00  0.00     0.059 A 
ATOM     85  C   UNL     1     -11.004  -0.992  -0.672  1.00  0.00     0.059 A 
ATOM     86  F   UNL     1      -9.872  -1.290  -2.686  1.00  0.00    -0.206 F 
ATOM     87  C   UNL     1     -11.904  -0.278   0.111  1.00  0.00     0.060 A 
BRANCH  87  88
ATOM     88  S   UNL     1     -12.479  -0.961   1.687  1.00  0.00     0.124 S 
ATOM     89  O   UNL     1     -11.915  -0.020   2.649  1.00  0.00    -0.237 OA
ATOM     90  O   UNL     1     -13.929  -0.921   1.532  1.00  0.00    -0.237 OA
ATOM     91  O   UNL     1     -11.895  -2.300   1.710  1.00  0.00    -0.744 OA
ENDBRANCH  87  88
ENDBRANCH  55  80
BRANCH  67  92
ATOM     92  C   UNL     1     -11.739   4.190  -7.709  1.00  0.00     0.058 A 
ATOM     93  C   UNL     1     -10.404   4.279  -7.282  1.00  0.00     0.135 A 
ATOM     94  C   UNL     1     -12.318   5.341  -8.264  1.00  0.00     0.135 A 
ATOM     95  F   UNL     1      -9.754   3.205  -6.814  1.00  0.00    -0.206 F 
ATOM     96  C   UNL     1      -9.687   5.475  -7.376  1.00  0.00     0.059 A 
ATOM     97  C   UNL     1     -11.614   6.531  -8.398  1.00  0.00     0.059 A 
ATOM     98  F   UNL     1     -13.577   5.303  -8.730  1.00  0.00    -0.206 F 
ATOM     99  C   UNL     1     -10.302   6.595  -7.939  1.00  0.00     0.060 A 
BRANCH  99 100
ATOM    100  S   UNL     1      -9.360   8.124  -8.123  1.00  0.00     0.124 S 
ATOM    101  O   UNL     1      -9.238   8.578  -6.742  1.00  0.00    -0.237 OA
ATOM    102  O   UNL     1      -8.126   7.662  -8.752  1.00  0.00    -0.237 OA
ATOM    103  O   UNL     1     -10.212   8.948  -8.977  1.00  0.00    -0.744 OA
ENDBRANCH  99 100
ENDBRANCH  67  92
ENDBRANCH  41  42
ENDBRANCH  33  36
ENDBRANCH  31  32
ENDBRANCH  30  31
ENDBRANCH   1  30
TORSDOF 18
