REMARK SMILES COc1ccc2c(c1)[C@H]([NH2+][C@@H](C(=O)NCCCCNC(=O)c1ccc(-c3c4nc(c(-c5c(F)cc(S(=O)(=O)[O-])cc5F)c5ccc([nH]5)c(-c5c(F)cc(S(=O)(=O)[O-])cc5F)c5nc(c(-c6c(F)cc(S(=O)(=O)[O-])cc6F)c6ccc3[nH]6)C=C5)C=C4)cc1)C1CC1)CC2
REMARK SMILES IDX 16 1 15 2 14 3 12 4 13 5 11 7 10 8 9 11 3 12 4 13 8 14 5 15
REMARK SMILES IDX 7 16 6 17 92 18 91 19 2 20 1 21 88 22 89 23 90 24 17 25
REMARK SMILES IDX 18 26 19 27 20 28 21 30 22 31 23 32 87 33 24 34 86 35 25 36
REMARK SMILES IDX 26 37 27 38 80 39 28 40 85 41 79 42 81 43 29 44 84 45 78 46
REMARK SMILES IDX 77 47 30 49 64 50 43 51 63 52 44 53 47 54 62 55 82 56 45 57
REMARK SMILES IDX 46 58 61 60 83 61 48 62 31 63 32 64 41 65 33 66 34 67 40 68
REMARK SMILES IDX 42 69 35 70 36 71 37 72 38 73 39 74 65 75 66 76 75 77 67 78
REMARK SMILES IDX 68 79 74 80 76 81 69 82 70 83 71 84 72 85 73 86 49 87 50 88
REMARK SMILES IDX 59 89 51 90 52 91 58 92 60 93 53 94 54 95 55 96 56 97 57 98
REMARK H PARENT 14 6 10 9 10 10 19 29 81 48 47 59
REMARK Flexibility Score: inf
ROOT
ATOM      1  C   UNL     1      -0.731  -3.557   6.496  1.00  0.00     0.023 C 
ENDROOT
BRANCH   1   2
ATOM      2  C   UNL     1      -0.982  -5.064   6.511  1.00  0.00     0.116 C 
BRANCH   2   3
ATOM      3  N   UNL     1      -2.378  -5.387   6.304  1.00  0.00    -0.351 N 
ATOM      4  C   UNL     1      -3.005  -5.878   5.193  1.00  0.00     0.278 C 
ATOM      5  O   UNL     1      -4.220  -6.073   5.289  1.00  0.00    -0.268 OA
ATOM      6  H   UNL     1      -2.964  -5.230   7.080  1.00  0.00     0.163 HD
BRANCH   4   7
ATOM      7  C   UNL     1      -2.187  -6.250   3.910  1.00  0.00     0.276 C 
BRANCH   7   8
ATOM      8  N   UNL     1      -1.424  -5.083   3.434  1.00  0.00    -0.330 N 
ATOM      9  H   UNL     1      -2.072  -4.452   2.963  1.00  0.00     0.347 HD
ATOM     10  H   UNL     1      -0.988  -4.670   4.258  1.00  0.00     0.347 HD
BRANCH   8  11
ATOM     11  C   UNL     1      -0.342  -5.398   2.509  1.00  0.00     0.214 C 
ATOM     12  C   UNL     1       1.015  -1.970   1.402  1.00  0.00     0.119 A 
ATOM     13  C   UNL     1       2.357  -2.346   1.226  1.00  0.00     0.047 A 
ATOM     14  C   UNL     1       0.074  -2.897   1.860  1.00  0.00     0.056 A 
ATOM     15  C   UNL     1       2.767  -3.658   1.481  1.00  0.00     0.008 A 
ATOM     16  C   UNL     1       0.483  -4.198   2.113  1.00  0.00     0.016 A 
ATOM     17  C   UNL     1       1.823  -4.568   1.924  1.00  0.00    -0.038 A 
ATOM     18  C   UNL     1       2.021  -6.020   2.228  1.00  0.00     0.042 C 
ATOM     19  C   UNL     1       0.773  -6.308   3.074  1.00  0.00     0.075 C 
BRANCH  12  20
ATOM     20  O   UNL     1       0.537  -0.704   1.192  1.00  0.00    -0.497 OA
ATOM     21  C   UNL     1       1.109  -0.030   0.076  1.00  0.00     0.278 C 
ENDBRANCH  12  20
ENDBRANCH   8  11
ENDBRANCH   7   8
BRANCH   7  22
ATOM     22  C   UNL     1      -3.065  -6.884   2.840  1.00  0.00     0.057 C 
ATOM     23  C   UNL     1      -4.368  -6.243   2.398  1.00  0.00     0.011 C 
ATOM     24  C   UNL     1      -3.255  -6.385   1.413  1.00  0.00     0.011 C 
ENDBRANCH   7  22
ENDBRANCH   4   7
ENDBRANCH   2   3
ENDBRANCH   1   2
BRANCH   1  25
ATOM     25  C   UNL     1      -1.434  -2.779   7.614  1.00  0.00     0.023 C 
BRANCH  25  26
ATOM     26  C   UNL     1      -1.132  -3.248   9.034  1.00  0.00     0.116 C 
BRANCH  26  27
ATOM     27  N   UNL     1       0.275  -3.139   9.386  1.00  0.00    -0.352 N 
ATOM     28  C   UNL     1       0.831  -2.737  10.579  1.00  0.00     0.251 C 
ATOM     29  H   UNL     1       0.914  -3.384   8.678  1.00  0.00     0.163 HD
ATOM     30  O   UNL     1       2.046  -2.588  10.675  1.00  0.00    -0.269 OA
BRANCH  28  31
ATOM     31  C   UNL     1      -0.048  -2.452  11.734  1.00  0.00     0.039 A 
ATOM     32  C   UNL     1       0.118  -1.254  12.435  1.00  0.00     0.014 A 
ATOM     33  C   UNL     1      -1.046  -3.355  12.109  1.00  0.00     0.014 A 
ATOM     34  C   UNL     1      -0.762  -0.929  13.472  1.00  0.00     0.010 A 
ATOM     35  C   UNL     1      -1.957  -3.003  13.101  1.00  0.00     0.010 A 
ATOM     36  C   UNL     1      -1.826  -1.787  13.791  1.00  0.00    -0.014 A 
BRANCH  36  37
ATOM     37  C   UNL     1      -2.810  -1.457  14.853  1.00  0.00     0.031 A 
ATOM     38  C   UNL     1      -2.896  -2.325  16.078  1.00  0.00     0.074 A 
ATOM     39  C   UNL     1      -3.681  -0.444  14.680  1.00  0.00     0.049 A 
ATOM     40  N   UNL     1      -3.783  -2.317  17.039  1.00  0.00    -0.248 NA
ATOM     41  C   UNL     1      -1.859  -3.359  16.224  1.00  0.00     0.031 C 
ATOM     42  C   UNL     1      -3.711   0.462  13.530  1.00  0.00     0.029 A 
ATOM     43  N   UNL     1      -4.723  -0.017  15.465  1.00  0.00    -0.354 N 
ATOM     44  C   UNL     1      -3.429  -3.359  17.888  1.00  0.00     0.074 A 
ATOM     45  C   UNL     1      -2.271  -4.003  17.305  1.00  0.00     0.031 C 
ATOM     46  C   UNL     1      -4.710   1.345  13.692  1.00  0.00     0.029 A 
ATOM     47  C   UNL     1      -5.420   1.042  14.931  1.00  0.00     0.049 A 
ATOM     48  H   UNL     1      -4.950  -0.430  16.329  1.00  0.00     0.167 HD
ATOM     49  C   UNL     1      -4.006  -3.736  19.054  1.00  0.00     0.037 A 
ATOM     50  C   UNL     1      -6.515   1.685  15.383  1.00  0.00     0.037 A 
ATOM     51  C   UNL     1      -5.141  -3.075  19.641  1.00  0.00     0.049 A 
ATOM     52  C   UNL     1      -7.149   1.242  16.674  1.00  0.00     0.074 A 
ATOM     53  C   UNL     1      -5.785  -3.362  20.832  1.00  0.00     0.029 A 
ATOM     54  N   UNL     1      -5.799  -1.989  19.082  1.00  0.00    -0.354 N 
ATOM     55  N   UNL     1      -6.793   0.266  17.474  1.00  0.00    -0.248 NA
ATOM     56  C   UNL     1      -8.334   1.986  17.124  1.00  0.00     0.031 C 
ATOM     57  C   UNL     1      -6.849  -2.465  20.980  1.00  0.00     0.029 A 
ATOM     58  C   UNL     1      -6.843  -1.595  19.901  1.00  0.00     0.049 A 
ATOM     59  H   UNL     1      -5.559  -1.561  18.228  1.00  0.00     0.167 HD
ATOM     60  C   UNL     1      -7.683   0.304  18.541  1.00  0.00     0.074 A 
ATOM     61  C   UNL     1      -8.601   1.394  18.281  1.00  0.00     0.031 C 
ATOM     62  C   UNL     1      -7.729  -0.487  19.640  1.00  0.00     0.037 A 
BRANCH  49  63
ATOM     63  C   UNL     1      -3.413  -4.923  19.762  1.00  0.00     0.058 A 
ATOM     64  C   UNL     1      -2.154  -4.857  20.380  1.00  0.00     0.135 A 
ATOM     65  C   UNL     1      -4.105  -6.143  19.813  1.00  0.00     0.135 A 
ATOM     66  F   UNL     1      -1.443  -3.718  20.347  1.00  0.00    -0.206 F 
ATOM     67  C   UNL     1      -1.579  -5.972  20.980  1.00  0.00     0.059 A 
ATOM     68  C   UNL     1      -3.561  -7.264  20.434  1.00  0.00     0.059 A 
ATOM     69  F   UNL     1      -5.314  -6.261  19.243  1.00  0.00    -0.206 F 
ATOM     70  C   UNL     1      -2.287  -7.175  20.993  1.00  0.00     0.060 A 
BRANCH  70  71
ATOM     71  S   UNL     1      -1.515  -8.625  21.741  1.00  0.00     0.124 S 
ATOM     72  O   UNL     1      -0.570  -9.018  20.700  1.00  0.00    -0.237 OA
ATOM     73  O   UNL     1      -0.925  -8.077  22.958  1.00  0.00    -0.237 OA
ATOM     74  O   UNL     1      -2.636  -9.537  21.947  1.00  0.00    -0.744 OA
ENDBRANCH  70  71
ENDBRANCH  49  63
BRANCH  50  75
ATOM     75  C   UNL     1      -7.060   2.840  14.622  1.00  0.00     0.058 A 
ATOM     76  C   UNL     1      -6.901   4.148  15.103  1.00  0.00     0.135 A 
ATOM     77  C   UNL     1      -7.720   2.669  13.396  1.00  0.00     0.135 A 
ATOM     78  F   UNL     1      -6.283   4.361  16.275  1.00  0.00    -0.206 F 
ATOM     79  C   UNL     1      -7.383   5.247  14.400  1.00  0.00     0.059 A 
ATOM     80  C   UNL     1      -8.192   3.755  12.663  1.00  0.00     0.059 A 
ATOM     81  F   UNL     1      -7.884   1.439  12.886  1.00  0.00    -0.206 F 
ATOM     82  C   UNL     1      -8.024   5.040  13.178  1.00  0.00     0.060 A 
BRANCH  82  83
ATOM     83  S   UNL     1      -8.591   6.479  12.245  1.00  0.00     0.124 S 
ATOM     84  O   UNL     1      -9.760   6.887  13.014  1.00  0.00    -0.237 OA
ATOM     85  O   UNL     1      -7.435   7.368  12.319  1.00  0.00    -0.237 OA
ATOM     86  O   UNL     1      -8.865   5.932  10.919  1.00  0.00    -0.744 OA
ENDBRANCH  82  83
ENDBRANCH  50  75
BRANCH  62  87
ATOM     87  C   UNL     1      -8.762  -0.175  20.685  1.00  0.00     0.058 A 
ATOM     88  C   UNL     1     -10.111  -0.523  20.519  1.00  0.00     0.135 A 
ATOM     89  C   UNL     1      -8.374   0.395  21.909  1.00  0.00     0.135 A 
ATOM     90  F   UNL     1     -10.533  -1.063  19.365  1.00  0.00    -0.206 F 
ATOM     91  C   UNL     1     -11.042  -0.316  21.533  1.00  0.00     0.059 A 
ATOM     92  C   UNL     1      -9.284   0.592  22.942  1.00  0.00     0.059 A 
ATOM     93  F   UNL     1      -7.094   0.739  22.117  1.00  0.00    -0.206 F 
ATOM     94  C   UNL     1     -10.617   0.235  22.744  1.00  0.00     0.060 A 
BRANCH  94  95
ATOM     95  S   UNL     1     -11.818   0.428  24.079  1.00  0.00     0.124 S 
ATOM     96  O   UNL     1     -12.575   1.591  23.628  1.00  0.00    -0.237 OA
ATOM     97  O   UNL     1     -12.531  -0.845  24.045  1.00  0.00    -0.237 OA
ATOM     98  O   UNL     1     -10.983   0.640  25.258  1.00  0.00    -0.744 OA
ENDBRANCH  94  95
ENDBRANCH  62  87
ENDBRANCH  36  37
ENDBRANCH  28  31
ENDBRANCH  26  27
ENDBRANCH  25  26
ENDBRANCH   1  25
TORSDOF 18
