REMARK SMILES O=C(NCCCCNC(=O)[C@@]1([NH2+]C2CC2)CC[C@@H]([N@@H+]2CC[N@@H+]3CCC[C@@H]3C2)C1)c1ccc(-c2c3nc(c(-c4c(F)cc(S(=O)(=O)[O-])cc4F)c4ccc([nH]4)c(-c4c(F)cc(S(=O)(=O)[O-])cc4F)c4nc(c(-c5c(F)cc(S(=O)(=O)[O-])cc5F)c5ccc2[nH]5)C=C4)C=C3)cc1
REMARK SMILES IDX 5 1 4 2 3 3 1 4 2 5 29 7 30 8 94 9 31 10 93 11 32 12 33 13
REMARK SMILES IDX 34 14 87 15 35 16 92 17 86 18 88 19 36 20 91 21 85 22 84 23
REMARK SMILES IDX 37 25 71 26 50 27 70 28 51 29 54 30 69 31 89 32 52 33 53 34
REMARK SMILES IDX 68 36 90 37 55 38 38 39 39 40 48 41 40 42 41 43 47 44 49 45
REMARK SMILES IDX 42 46 43 47 44 48 45 49 46 50 72 51 73 52 82 53 74 54 75 55
REMARK SMILES IDX 81 56 83 57 76 58 77 59 78 60 79 61 80 62 56 63 57 64 66 65
REMARK SMILES IDX 58 66 59 67 65 68 67 69 60 70 61 71 62 72 63 73 64 74 6 75
REMARK SMILES IDX 7 76 8 77 9 78 10 80 11 81 16 82 28 83 17 84 18 85 12 86
REMARK SMILES IDX 13 89 14 90 15 91 19 92 20 93 27 94 21 96 26 97 22 98 25 99
REMARK SMILES IDX 23 100 24 102
REMARK H PARENT 3 6 88 24 54 35 8 79 12 87 12 88 19 95 22 101
REMARK Flexibility Score: inf
ROOT
ATOM      1  C   UNL     1       4.980  -2.414  -0.430  1.00  0.00     0.023 C 
ENDROOT
BRANCH   1   2
ATOM      2  C   UNL     1       4.619  -1.030  -0.963  1.00  0.00     0.116 C 
BRANCH   2   3
ATOM      3  N   UNL     1       3.191  -0.750  -0.935  1.00  0.00    -0.352 N 
ATOM      4  O   UNL     1       1.219   0.018  -0.169  1.00  0.00    -0.269 OA
ATOM      5  C   UNL     1       2.440   0.018  -0.071  1.00  0.00     0.251 C 
ATOM      6  H   UNL     1       2.674  -1.182  -1.654  1.00  0.00     0.163 HD
BRANCH   5   7
ATOM      7  C   UNL     1       3.095   0.806   1.001  1.00  0.00     0.039 A 
ATOM      8  C   UNL     1       4.236   1.565   0.749  1.00  0.00     0.014 A 
ATOM      9  C   UNL     1       2.552   0.785   2.290  1.00  0.00     0.014 A 
ATOM     10  C   UNL     1       4.949   2.117   1.808  1.00  0.00     0.010 A 
ATOM     11  C   UNL     1       3.214   1.433   3.341  1.00  0.00     0.010 A 
ATOM     12  C   UNL     1       4.453   2.053   3.121  1.00  0.00    -0.014 A 
BRANCH  12  13
ATOM     13  C   UNL     1       5.252   2.644   4.231  1.00  0.00     0.031 A 
ATOM     14  C   UNL     1       5.792   1.784   5.346  1.00  0.00     0.074 A 
ATOM     15  C   UNL     1       5.546   3.960   4.199  1.00  0.00     0.049 A 
ATOM     16  N   UNL     1       6.563   2.124   6.350  1.00  0.00    -0.248 NA
ATOM     17  C   UNL     1       5.412   0.362   5.345  1.00  0.00     0.031 C 
ATOM     18  C   UNL     1       5.072   4.904   3.184  1.00  0.00     0.029 A 
ATOM     19  N   UNL     1       6.337   4.726   5.018  1.00  0.00    -0.354 N 
ATOM     20  C   UNL     1       6.737   0.972   7.110  1.00  0.00     0.074 A 
ATOM     21  C   UNL     1       5.972  -0.073   6.466  1.00  0.00     0.031 C 
ATOM     22  C   UNL     1       5.632   6.103   3.401  1.00  0.00     0.029 A 
ATOM     23  C   UNL     1       6.458   6.031   4.602  1.00  0.00     0.049 A 
ATOM     24  H   UNL     1       6.776   4.375   5.826  1.00  0.00     0.167 HD
ATOM     25  C   UNL     1       7.472   0.798   8.236  1.00  0.00     0.037 A 
ATOM     26  C   UNL     1       7.152   7.059   5.125  1.00  0.00     0.037 A 
ATOM     27  C   UNL     1       8.262   1.832   8.857  1.00  0.00     0.049 A 
ATOM     28  C   UNL     1       7.970   6.837   6.365  1.00  0.00     0.074 A 
ATOM     29  C   UNL     1       9.079   1.739   9.971  1.00  0.00     0.029 A 
ATOM     30  N   UNL     1       8.337   3.146   8.418  1.00  0.00    -0.354 N 
ATOM     31  N   UNL     1       8.145   5.731   7.048  1.00  0.00    -0.248 NA
ATOM     32  C   UNL     1       8.682   8.002   6.906  1.00  0.00     0.031 C 
ATOM     33  C   UNL     1       9.617   3.006  10.229  1.00  0.00     0.029 A 
ATOM     34  C   UNL     1       9.170   3.878   9.250  1.00  0.00     0.049 A 
ATOM     35  H   UNL     1       7.867   3.506   7.632  1.00  0.00     0.167 HD
ATOM     36  C   UNL     1       9.003   6.063   8.090  1.00  0.00     0.074 A 
ATOM     37  C   UNL     1       9.322   7.468   7.937  1.00  0.00     0.031 C 
ATOM     38  C   UNL     1       9.481   5.275   9.085  1.00  0.00     0.037 A 
BRANCH  25  39
ATOM     39  C   UNL     1       7.446  -0.559   8.887  1.00  0.00     0.058 A 
ATOM     40  C   UNL     1       8.107  -1.664   8.329  1.00  0.00     0.135 A 
ATOM     41  C   UNL     1       6.782  -0.745  10.111  1.00  0.00     0.135 A 
ATOM     42  F   UNL     1       8.747  -1.546   7.154  1.00  0.00    -0.206 F 
ATOM     43  C   UNL     1       8.086  -2.912   8.944  1.00  0.00     0.059 A 
ATOM     44  C   UNL     1       6.769  -1.979  10.757  1.00  0.00     0.059 A 
ATOM     45  F   UNL     1       6.137   0.278  10.693  1.00  0.00    -0.206 F 
ATOM     46  C   UNL     1       7.411  -3.061  10.157  1.00  0.00     0.060 A 
BRANCH  46  47
ATOM     47  S   UNL     1       7.387  -4.687  10.942  1.00  0.00     0.124 S 
ATOM     48  O   UNL     1       6.427  -5.399  10.103  1.00  0.00    -0.237 OA
ATOM     49  O   UNL     1       8.776  -5.116  10.818  1.00  0.00    -0.237 OA
ATOM     50  O   UNL     1       6.941  -4.402  12.302  1.00  0.00    -0.744 OA
ENDBRANCH  46  47
ENDBRANCH  25  39
BRANCH  26  51
ATOM     51  C   UNL     1       7.113   8.388   4.462  1.00  0.00     0.058 A 
ATOM     52  C   UNL     1       8.234   8.893   3.788  1.00  0.00     0.135 A 
ATOM     53  C   UNL     1       5.944   9.166   4.463  1.00  0.00     0.135 A 
ATOM     54  F   UNL     1       9.375   8.187   3.763  1.00  0.00    -0.206 F 
ATOM     55  C   UNL     1       8.204  10.127   3.147  1.00  0.00     0.059 A 
ATOM     56  C   UNL     1       5.881  10.390   3.807  1.00  0.00     0.059 A 
ATOM     57  F   UNL     1       4.840   8.718   5.080  1.00  0.00    -0.206 F 
ATOM     58  C   UNL     1       7.020  10.867   3.159  1.00  0.00     0.060 A 
BRANCH  58  59
ATOM     59  S   UNL     1       6.968  12.440   2.274  1.00  0.00     0.124 S 
ATOM     60  O   UNL     1       7.699  13.312   3.185  1.00  0.00    -0.237 OA
ATOM     61  O   UNL     1       7.644  12.112   1.022  1.00  0.00    -0.237 OA
ATOM     62  O   UNL     1       5.538  12.707   2.152  1.00  0.00    -0.744 OA
ENDBRANCH  58  59
ENDBRANCH  26  51
BRANCH  38  63
ATOM     63  C   UNL     1      10.427   5.910  10.065  1.00  0.00     0.058 A 
ATOM     64  C   UNL     1       9.979   6.811  11.043  1.00  0.00     0.135 A 
ATOM     65  C   UNL     1      11.795   5.596  10.038  1.00  0.00     0.135 A 
ATOM     66  F   UNL     1       8.681   7.150  11.107  1.00  0.00    -0.206 F 
ATOM     67  C   UNL     1      10.860   7.405  11.941  1.00  0.00     0.059 A 
ATOM     68  C   UNL     1      12.690   6.158  10.942  1.00  0.00     0.059 A 
ATOM     69  F   UNL     1      12.272   4.731   9.129  1.00  0.00    -0.206 F 
ATOM     70  C   UNL     1      12.216   7.074  11.880  1.00  0.00     0.060 A 
BRANCH  70  71
ATOM     71  S   UNL     1      13.351   7.840  13.056  1.00  0.00     0.124 S 
ATOM     72  O   UNL     1      13.510   9.173  12.485  1.00  0.00    -0.237 OA
ATOM     73  O   UNL     1      12.603   7.772  14.307  1.00  0.00    -0.237 OA
ATOM     74  O   UNL     1      14.532   6.984  12.992  1.00  0.00    -0.744 OA
ENDBRANCH  70  71
ENDBRANCH  38  63
ENDBRANCH  12  13
ENDBRANCH   5   7
ENDBRANCH   2   3
ENDBRANCH   1   2
BRANCH   1  75
ATOM     75  C   UNL     1       4.564  -3.601  -1.302  1.00  0.00     0.023 C 
BRANCH  75  76
ATOM     76  C   UNL     1       4.853  -3.467  -2.795  1.00  0.00     0.116 C 
BRANCH  76  77
ATOM     77  N   UNL     1       6.228  -3.127  -3.107  1.00  0.00    -0.351 N 
ATOM     78  C   UNL     1       6.825  -3.042  -4.336  1.00  0.00     0.281 C 
ATOM     79  H   UNL     1       6.806  -2.932  -2.334  1.00  0.00     0.163 HD
ATOM     80  O   UNL     1       7.942  -2.515  -4.371  1.00  0.00    -0.268 OA
BRANCH  78  81
ATOM     81  C   UNL     1       6.192  -3.680  -5.602  1.00  0.00     0.181 C 
ATOM     82  C   UNL     1       6.982  -3.372  -6.890  1.00  0.00     0.085 C 
ATOM     83  C   UNL     1       6.417  -5.216  -5.492  1.00  0.00     0.144 C 
ATOM     84  C   UNL     1       6.634  -4.520  -7.829  1.00  0.00     0.072 C 
ATOM     85  C   UNL     1       6.622  -5.763  -6.925  1.00  0.00     0.191 C 
BRANCH  81  86
ATOM     86  N   UNL     1       4.748  -3.390  -5.779  1.00  0.00    -0.331 N 
ATOM     87  H   UNL     1       4.259  -3.927  -5.063  1.00  0.00     0.347 HD
ATOM     88  H   UNL     1       4.598  -3.626  -6.760  1.00  0.00     0.347 HD
BRANCH  86  89
ATOM     89  C   UNL     1       4.220  -2.023  -5.703  1.00  0.00     0.183 C 
ATOM     90  C   UNL     1       5.040  -0.777  -5.550  1.00  0.00     0.071 C 
ATOM     91  C   UNL     1       4.343  -1.061  -6.849  1.00  0.00     0.071 C 
ENDBRANCH  86  89
ENDBRANCH  81  86
BRANCH  85  92
ATOM     92  N   UNL     1       7.794  -6.624  -7.125  1.00  0.00    -0.323 N 
ATOM     93  C   UNL     1       7.730  -7.922  -6.425  1.00  0.00     0.324 C 
ATOM     94  C   UNL     1       9.116  -6.002  -6.998  1.00  0.00     0.328 C 
ATOM     95  H   UNL     1       7.709  -6.812  -8.124  1.00  0.00     0.348 HD
ATOM     96  C   UNL     1       9.097  -8.507  -5.958  1.00  0.00     0.324 C 
ATOM     97  C   UNL     1      10.206  -6.970  -7.507  1.00  0.00     0.240 C 
ATOM     98  N   UNL     1      10.200  -8.323  -6.910  1.00  0.00    -0.323 N 
ATOM     99  C   UNL     1      11.617  -6.421  -7.309  1.00  0.00     0.077 C 
ATOM    100  C   UNL     1      11.516  -8.560  -6.309  1.00  0.00     0.263 C 
ATOM    101  H   UNL     1      10.032  -9.020  -7.635  1.00  0.00     0.348 HD
ATOM    102  C   UNL     1      12.452  -7.670  -7.108  1.00  0.00     0.068 C 
ENDBRANCH  85  92
ENDBRANCH  78  81
ENDBRANCH  76  77
ENDBRANCH  75  76
ENDBRANCH   1  75
TORSDOF 17
