REMARK SMILES CCC(=O)Nc1cc(NC(=O)/C=C/C(=O)NCCCCNC(=O)c2ccc(-c3c4nc(c(-c5c(F)cc(S(=O)(=O)[O-])cc5F)c5ccc([nH]5)c(-c5c(F)cc(S(=O)(=O)[O-])cc5F)c5nc(c(-c6c(F)cc(S(=O)(=O)[O-])cc6F)c6ccc3[nH]6)C=C5)C=C4)cc2)ccc1C
REMARK SMILES IDX 18 1 17 2 16 3 14 4 15 5 13 7 12 8 10 9 9 10 11 12 8 13 6 14
REMARK SMILES IDX 7 15 92 16 91 17 93 18 90 19 5 20 3 21 4 22 2 24 1 25 19 26
REMARK SMILES IDX 20 27 21 28 22 29 23 31 24 32 25 33 89 34 26 35 88 36 27 37
REMARK SMILES IDX 28 38 29 39 82 40 30 41 87 42 81 43 83 44 31 45 86 46 80 47
REMARK SMILES IDX 79 48 32 50 66 51 45 52 65 53 46 54 49 55 64 56 84 57 47 58
REMARK SMILES IDX 48 59 63 61 85 62 50 63 33 64 34 65 43 66 35 67 36 68 42 69
REMARK SMILES IDX 44 70 37 71 38 72 39 73 40 74 41 75 67 76 68 77 77 78 69 79
REMARK SMILES IDX 70 80 76 81 78 82 71 83 72 84 73 85 74 86 75 87 51 88 52 89
REMARK SMILES IDX 61 90 53 91 54 92 60 93 62 94 55 95 56 96 57 97 58 98 59 99
REMARK H PARENT 16 6 9 11 5 23 21 30 83 49 49 60
REMARK Flexibility Score: inf
ROOT
ATOM      1  C   UNL     1       6.314  -7.632   2.387  1.00  0.00     0.023 C 
ENDROOT
BRANCH   1   2
ATOM      2  C   UNL     1       5.456  -7.514   1.123  1.00  0.00     0.116 C 
BRANCH   2   3
ATOM      3  N   UNL     1       4.365  -6.563   1.288  1.00  0.00    -0.353 N 
ATOM      4  C   UNL     1       4.393  -5.211   1.188  1.00  0.00     0.244 C 
ATOM      5  O   UNL     1       3.435  -4.521   1.535  1.00  0.00    -0.270 OA
ATOM      6  H   UNL     1       3.487  -6.956   1.500  1.00  0.00     0.163 HD
BRANCH   4   7
ATOM      7  C   UNL     1       5.580  -4.549   0.618  1.00  0.00     0.077 C 
ATOM      8  C   UNL     1       5.801  -4.715  -0.695  1.00  0.00     0.077 C 
BRANCH   8   9
ATOM      9  C   UNL     1       6.713  -3.823  -1.427  1.00  0.00     0.248 C 
ATOM     10  N   UNL     1       6.355  -2.531  -1.704  1.00  0.00    -0.322 N 
ATOM     11  H   UNL     1       7.009  -2.050  -2.261  1.00  0.00     0.170 HD
ATOM     12  O   UNL     1       7.806  -4.247  -1.796  1.00  0.00    -0.270 OA
BRANCH  10  13
ATOM     13  C   UNL     1       5.234  -1.755  -1.346  1.00  0.00     0.043 A 
ATOM     14  C   UNL     1       3.106  -1.452  -0.196  1.00  0.00     0.046 A 
ATOM     15  C   UNL     1       4.041  -2.268  -0.845  1.00  0.00     0.052 A 
ATOM     16  C   UNL     1       3.355  -0.078  -0.086  1.00  0.00    -0.027 A 
ATOM     17  C   UNL     1       4.450   0.462  -0.782  1.00  0.00     0.008 A 
ATOM     18  C   UNL     1       2.700   0.810   0.936  1.00  0.00     0.046 C 
ATOM     19  C   UNL     1       5.381  -0.369  -1.408  1.00  0.00     0.026 A 
BRANCH  14  20
ATOM     20  N   UNL     1       2.084  -2.119   0.497  1.00  0.00    -0.326 N 
ATOM     21  C   UNL     1       0.741  -1.861   0.523  1.00  0.00     0.224 C 
ATOM     22  O   UNL     1       0.045  -2.284   1.448  1.00  0.00    -0.275 OA
ATOM     23  H   UNL     1       2.376  -2.883   1.045  1.00  0.00     0.169 HD
BRANCH  21  24
ATOM     24  C   UNL     1       0.104  -1.169  -0.669  1.00  0.00     0.097 C 
ATOM     25  C   UNL     1      -0.238   0.287  -0.439  1.00  0.00     0.014 C 
ENDBRANCH  21  24
ENDBRANCH  14  20
ENDBRANCH  10  13
ENDBRANCH   8   9
ENDBRANCH   4   7
ENDBRANCH   2   3
ENDBRANCH   1   2
BRANCH   1  26
ATOM     26  C   UNL     1       5.561  -8.032   3.660  1.00  0.00     0.023 C 
BRANCH  26  27
ATOM     27  C   UNL     1       4.812  -9.349   3.566  1.00  0.00     0.116 C 
BRANCH  27  28
ATOM     28  N   UNL     1       5.632 -10.546   3.490  1.00  0.00    -0.352 N 
ATOM     29  C   UNL     1       5.031 -11.767   3.807  1.00  0.00     0.251 C 
ATOM     30  H   UNL     1       6.579 -10.499   3.225  1.00  0.00     0.163 HD
ATOM     31  O   UNL     1       5.026 -12.286   4.904  1.00  0.00    -0.269 OA
BRANCH  29  32
ATOM     32  C   UNL     1       4.149 -12.258   2.722  1.00  0.00     0.039 A 
ATOM     33  C   UNL     1       4.592 -13.173   1.769  1.00  0.00     0.014 A 
ATOM     34  C   UNL     1       2.950 -11.564   2.553  1.00  0.00     0.014 A 
ATOM     35  C   UNL     1       3.887 -13.291   0.567  1.00  0.00     0.010 A 
ATOM     36  C   UNL     1       2.322 -11.603   1.329  1.00  0.00     0.010 A 
ATOM     37  C   UNL     1       2.799 -12.449   0.321  1.00  0.00    -0.014 A 
BRANCH  37  38
ATOM     38  C   UNL     1       2.128 -12.300  -0.968  1.00  0.00     0.031 A 
ATOM     39  C   UNL     1       0.729 -12.755  -1.153  1.00  0.00     0.074 A 
ATOM     40  C   UNL     1       2.716 -11.583  -1.951  1.00  0.00     0.049 A 
ATOM     41  N   UNL     1       0.179 -12.936  -2.307  1.00  0.00    -0.248 NA
ATOM     42  C   UNL     1      -0.166 -13.056  -0.038  1.00  0.00     0.031 C 
ATOM     43  C   UNL     1       2.071 -11.006  -3.128  1.00  0.00     0.029 A 
ATOM     44  N   UNL     1       4.077 -11.384  -2.175  1.00  0.00    -0.354 N 
ATOM     45  C   UNL     1      -1.170 -13.099  -2.106  1.00  0.00     0.074 A 
ATOM     46  C   UNL     1      -1.332 -13.212  -0.674  1.00  0.00     0.031 C 
ATOM     47  C   UNL     1       3.004 -10.754  -4.057  1.00  0.00     0.029 A 
ATOM     48  C   UNL     1       4.261 -11.293  -3.572  1.00  0.00     0.049 A 
ATOM     49  H   UNL     1       4.779 -11.319  -1.488  1.00  0.00     0.167 HD
ATOM     50  C   UNL     1      -2.034 -13.008  -3.155  1.00  0.00     0.037 A 
ATOM     51  C   UNL     1       5.018 -12.225  -4.226  1.00  0.00     0.037 A 
ATOM     52  C   UNL     1      -1.349 -12.792  -4.423  1.00  0.00     0.049 A 
ATOM     53  C   UNL     1       4.238 -13.113  -5.178  1.00  0.00     0.074 A 
ATOM     54  C   UNL     1      -1.090 -11.685  -5.215  1.00  0.00     0.029 A 
ATOM     55  N   UNL     1      -0.541 -13.801  -4.912  1.00  0.00    -0.354 N 
ATOM     56  N   UNL     1       2.963 -12.989  -5.432  1.00  0.00    -0.248 NA
ATOM     57  C   UNL     1       4.825 -14.264  -5.869  1.00  0.00     0.031 C 
ATOM     58  C   UNL     1      -0.087 -12.039  -6.164  1.00  0.00     0.029 A 
ATOM     59  C   UNL     1       0.257 -13.360  -5.949  1.00  0.00     0.049 A 
ATOM     60  H   UNL     1      -0.535 -14.722  -4.563  1.00  0.00     0.167 HD
ATOM     61  C   UNL     1       2.546 -14.045  -6.199  1.00  0.00     0.074 A 
ATOM     62  C   UNL     1       3.753 -14.798  -6.480  1.00  0.00     0.031 C 
ATOM     63  C   UNL     1       1.238 -14.271  -6.510  1.00  0.00     0.037 A 
BRANCH  50  64
ATOM     64  C   UNL     1      -3.522 -12.910  -2.958  1.00  0.00     0.058 A 
ATOM     65  C   UNL     1      -4.297 -12.012  -3.718  1.00  0.00     0.135 A 
ATOM     66  C   UNL     1      -4.230 -13.659  -1.996  1.00  0.00     0.135 A 
ATOM     67  F   UNL     1      -3.754 -11.275  -4.696  1.00  0.00    -0.206 F 
ATOM     68  C   UNL     1      -5.655 -11.806  -3.483  1.00  0.00     0.059 A 
ATOM     69  C   UNL     1      -5.579 -13.432  -1.706  1.00  0.00     0.059 A 
ATOM     70  F   UNL     1      -3.627 -14.641  -1.308  1.00  0.00    -0.206 F 
ATOM     71  C   UNL     1      -6.283 -12.496  -2.454  1.00  0.00     0.060 A 
BRANCH  71  72
ATOM     72  S   UNL     1      -8.008 -12.119  -2.089  1.00  0.00     0.124 S 
ATOM     73  O   UNL     1      -8.008 -10.659  -2.061  1.00  0.00    -0.237 OA
ATOM     74  O   UNL     1      -8.696 -12.731  -3.219  1.00  0.00    -0.237 OA
ATOM     75  O   UNL     1      -8.228 -12.759  -0.795  1.00  0.00    -0.744 OA
ENDBRANCH  71  72
ENDBRANCH  50  64
BRANCH  51  76
ATOM     76  C   UNL     1       6.212 -12.622  -3.425  1.00  0.00     0.058 A 
ATOM     77  C   UNL     1       7.173 -11.620  -3.177  1.00  0.00     0.135 A 
ATOM     78  C   UNL     1       6.157 -13.703  -2.535  1.00  0.00     0.135 A 
ATOM     79  F   UNL     1       7.287 -10.578  -4.017  1.00  0.00    -0.206 F 
ATOM     80  C   UNL     1       7.886 -11.575  -1.985  1.00  0.00     0.059 A 
ATOM     81  C   UNL     1       6.880 -13.687  -1.341  1.00  0.00     0.059 A 
ATOM     82  F   UNL     1       5.276 -14.695  -2.729  1.00  0.00    -0.206 F 
ATOM     83  C   UNL     1       7.659 -12.569  -1.036  1.00  0.00     0.060 A 
BRANCH  83  84
ATOM     84  S   UNL     1       8.238 -12.281   0.655  1.00  0.00     0.124 S 
ATOM     85  O   UNL     1       9.630 -11.902   0.444  1.00  0.00    -0.237 OA
ATOM     86  O   UNL     1       7.346 -11.207   1.103  1.00  0.00    -0.237 OA
ATOM     87  O   UNL     1       8.027 -13.571   1.302  1.00  0.00    -0.744 OA
ENDBRANCH  83  84
ENDBRANCH  51  76
BRANCH  63  88
ATOM     88  C   UNL     1       0.783 -15.401  -7.385  1.00  0.00     0.058 A 
ATOM     89  C   UNL     1       1.329 -15.610  -8.660  1.00  0.00     0.135 A 
ATOM     90  C   UNL     1      -0.317 -16.209  -7.030  1.00  0.00     0.135 A 
ATOM     91  F   UNL     1       2.359 -14.864  -9.092  1.00  0.00    -0.206 F 
ATOM     92  C   UNL     1       0.824 -16.575  -9.531  1.00  0.00     0.059 A 
ATOM     93  C   UNL     1      -0.866 -17.147  -7.899  1.00  0.00     0.059 A 
ATOM     94  F   UNL     1      -0.877 -16.123  -5.814  1.00  0.00    -0.206 F 
ATOM     95  C   UNL     1      -0.278 -17.335  -9.144  1.00  0.00     0.060 A 
BRANCH  95  96
ATOM     96  S   UNL     1      -0.966 -18.552 -10.283  1.00  0.00     0.124 S 
ATOM     97  O   UNL     1      -0.744 -17.935 -11.587  1.00  0.00    -0.237 OA
ATOM     98  O   UNL     1      -0.142 -19.721  -9.990  1.00  0.00    -0.237 OA
ATOM     99  O   UNL     1      -2.364 -18.645  -9.872  1.00  0.00    -0.744 OA
ENDBRANCH  95  96
ENDBRANCH  63  88
ENDBRANCH  37  38
ENDBRANCH  29  32
ENDBRANCH  27  28
ENDBRANCH  26  27
ENDBRANCH   1  26
TORSDOF 18
