REMARK SMILES O=C(NCCCCNC(=O)c1sccc1S(=O)(=O)Nc1ccccc1N1CCCCC1)c1ccc(-c2c3nc(c(-c4c(F)cc(S(=O)(=O)[O-])cc4F)c4ccc([nH]4)c(-c4c(F)cc(S(=O)(=O)[O-])cc4F)c4nc(c(-c5c(F)cc(S(=O)(=O)[O-])cc5F)c5ccc2[nH]5)C=C4)C=C3)cc1
REMARK SMILES IDX 6 1 5 2 4 3 3 4 1 5 2 6 32 8 33 9 97 10 34 11 96 12 35 13
REMARK SMILES IDX 36 14 37 15 90 16 38 17 95 18 89 19 91 20 39 21 94 22 88 23
REMARK SMILES IDX 87 24 40 26 74 27 53 28 73 29 54 30 57 31 72 32 92 33 55 34
REMARK SMILES IDX 56 35 71 37 93 38 58 39 41 40 42 41 51 42 43 43 44 44 50 45
REMARK SMILES IDX 52 46 45 47 46 48 47 49 48 50 49 51 75 52 76 53 85 54 77 55
REMARK SMILES IDX 78 56 84 57 86 58 79 59 80 60 81 61 82 62 83 63 59 64 60 65
REMARK SMILES IDX 69 66 61 67 62 68 68 69 70 70 63 71 64 72 65 73 66 74 67 75
REMARK SMILES IDX 7 76 8 77 9 78 10 80 11 81 12 82 15 83 13 84 14 85 16 86
REMARK SMILES IDX 17 87 18 88 19 89 20 91 21 92 25 93 22 94 24 95 23 96 26 97
REMARK SMILES IDX 27 98 31 99 28 100 30 101 29 102
REMARK H PARENT 3 7 91 25 57 36 8 79 19 90
REMARK Flexibility Score: inf
ROOT
ATOM      1  C   UNL     1       3.766  -3.678  -0.475  1.00  0.00     0.023 C 
ENDROOT
BRANCH   1   2
ATOM      2  C   UNL     1       4.456  -2.530   0.267  1.00  0.00     0.023 C 
BRANCH   2   3
ATOM      3  C   UNL     1       4.355  -1.167  -0.414  1.00  0.00     0.116 C 
BRANCH   3   4
ATOM      4  N   UNL     1       2.979  -0.737  -0.623  1.00  0.00    -0.352 N 
ATOM      5  O   UNL     1       1.032   0.294  -0.117  1.00  0.00    -0.269 OA
ATOM      6  C   UNL     1       2.241   0.198   0.064  1.00  0.00     0.251 C 
ATOM      7  H   UNL     1       2.509  -1.180  -1.366  1.00  0.00     0.163 HD
BRANCH   6   8
ATOM      8  C   UNL     1       2.920   1.071   1.042  1.00  0.00     0.039 A 
ATOM      9  C   UNL     1       4.101   1.723   0.686  1.00  0.00     0.014 A 
ATOM     10  C   UNL     1       2.394   1.211   2.328  1.00  0.00     0.014 A 
ATOM     11  C   UNL     1       4.856   2.352   1.666  1.00  0.00     0.010 A 
ATOM     12  C   UNL     1       3.108   1.934   3.288  1.00  0.00     0.010 A 
ATOM     13  C   UNL     1       4.370   2.466   2.980  1.00  0.00    -0.014 A 
BRANCH  13  14
ATOM     14  C   UNL     1       5.201   3.163   3.995  1.00  0.00     0.031 A 
ATOM     15  C   UNL     1       5.736   2.432   5.199  1.00  0.00     0.074 A 
ATOM     16  C   UNL     1       5.523   4.455   3.790  1.00  0.00     0.049 A 
ATOM     17  N   UNL     1       6.517   2.877   6.150  1.00  0.00    -0.248 NA
ATOM     18  C   UNL     1       5.340   1.024   5.363  1.00  0.00     0.031 C 
ATOM     19  C   UNL     1       5.053   5.270   2.665  1.00  0.00     0.029 A 
ATOM     20  N   UNL     1       6.341   5.302   4.492  1.00  0.00    -0.354 N 
ATOM     21  C   UNL     1       6.678   1.822   7.042  1.00  0.00     0.074 A 
ATOM     22  C   UNL     1       5.901   0.716   6.525  1.00  0.00     0.031 C 
ATOM     23  C   UNL     1       5.641   6.474   2.717  1.00  0.00     0.029 A 
ATOM     24  C   UNL     1       6.478   6.540   3.910  1.00  0.00     0.049 A 
ATOM     25  H   UNL     1       6.787   5.048   5.332  1.00  0.00     0.167 HD
ATOM     26  C   UNL     1       7.409   1.780   8.182  1.00  0.00     0.037 A 
ATOM     27  C   UNL     1       7.193   7.613   4.294  1.00  0.00     0.037 A 
ATOM     28  C   UNL     1       8.208   2.875   8.671  1.00  0.00     0.049 A 
ATOM     29  C   UNL     1       8.011   7.532   5.549  1.00  0.00     0.074 A 
ATOM     30  C   UNL     1       9.014   2.918   9.796  1.00  0.00     0.029 A 
ATOM     31  N   UNL     1       8.306   4.118   8.063  1.00  0.00    -0.354 N 
ATOM     32  N   UNL     1       8.162   6.518   6.367  1.00  0.00    -0.248 NA
ATOM     33  C   UNL     1       8.752   8.739   5.935  1.00  0.00     0.031 C 
ATOM     34  C   UNL     1       9.573   4.199   9.886  1.00  0.00     0.029 A 
ATOM     35  C   UNL     1       9.149   4.939   8.795  1.00  0.00     0.049 A 
ATOM     36  H   UNL     1       7.845   4.379   7.233  1.00  0.00     0.167 HD
ATOM     37  C   UNL     1       9.029   6.960   7.359  1.00  0.00     0.074 A 
ATOM     38  C   UNL     1       9.381   8.327   7.027  1.00  0.00     0.031 C 
ATOM     39  C   UNL     1       9.490   6.296   8.447  1.00  0.00     0.037 A 
BRANCH  26  40
ATOM     40  C   UNL     1       7.365   0.515   8.996  1.00  0.00     0.058 A 
ATOM     41  C   UNL     1       8.020  -0.657   8.585  1.00  0.00     0.135 A 
ATOM     42  C   UNL     1       6.686   0.487  10.226  1.00  0.00     0.135 A 
ATOM     43  F   UNL     1       8.671  -0.691   7.412  1.00  0.00    -0.206 F 
ATOM     44  C   UNL     1       7.983  -1.818   9.352  1.00  0.00     0.059 A 
ATOM     45  C   UNL     1       6.655  -0.657  11.020  1.00  0.00     0.059 A 
ATOM     46  F   UNL     1       6.043   1.579  10.668  1.00  0.00    -0.206 F 
ATOM     47  C   UNL     1       7.294  -1.809  10.566  1.00  0.00     0.060 A 
BRANCH  47  48
ATOM     48  S   UNL     1       7.250  -3.324  11.549  1.00  0.00     0.124 S 
ATOM     49  O   UNL     1       6.286  -4.125  10.802  1.00  0.00    -0.237 OA
ATOM     50  O   UNL     1       8.635  -3.780  11.486  1.00  0.00    -0.237 OA
ATOM     51  O   UNL     1       6.804  -2.865  12.861  1.00  0.00    -0.744 OA
ENDBRANCH  47  48
ENDBRANCH  26  40
BRANCH  27  52
ATOM     52  C   UNL     1       7.168   8.847   3.467  1.00  0.00     0.058 A 
ATOM     53  C   UNL     1       8.290   9.239   2.723  1.00  0.00     0.135 A 
ATOM     54  C   UNL     1       6.011   9.636   3.376  1.00  0.00     0.135 A 
ATOM     55  F   UNL     1       9.419   8.517   2.780  1.00  0.00    -0.206 F 
ATOM     56  C   UNL     1       8.270  10.376   1.923  1.00  0.00     0.059 A 
ATOM     57  C   UNL     1       5.958  10.762   2.563  1.00  0.00     0.059 A 
ATOM     58  F   UNL     1       4.905   9.289   4.053  1.00  0.00    -0.206 F 
ATOM     59  C   UNL     1       7.096  11.130   1.847  1.00  0.00     0.060 A 
BRANCH  59  60
ATOM     60  S   UNL     1       7.057  12.570   0.759  1.00  0.00     0.124 S 
ATOM     61  O   UNL     1       7.794  13.551   1.546  1.00  0.00    -0.237 OA
ATOM     62  O   UNL     1       7.731  12.073  -0.437  1.00  0.00    -0.237 OA
ATOM     63  O   UNL     1       5.629  12.829   0.601  1.00  0.00    -0.744 OA
ENDBRANCH  59  60
ENDBRANCH  27  52
BRANCH  39  64
ATOM     64  C   UNL     1      10.451   7.032   9.335  1.00  0.00     0.058 A 
ATOM     65  C   UNL     1      10.024   8.056  10.194  1.00  0.00     0.135 A 
ATOM     66  C   UNL     1      11.814   6.696   9.338  1.00  0.00     0.135 A 
ATOM     67  F   UNL     1       8.731   8.419  10.223  1.00  0.00    -0.206 F 
ATOM     68  C   UNL     1      10.921   8.745  11.003  1.00  0.00     0.059 A 
ATOM     69  C   UNL     1      12.725   7.355  10.156  1.00  0.00     0.059 A 
ATOM     70  F   UNL     1      12.271   5.717   8.541  1.00  0.00    -0.206 F 
ATOM     71  C   UNL     1      12.271   8.390  10.973  1.00  0.00     0.060 A 
BRANCH  71  72
ATOM     72  S   UNL     1      13.428   9.283  12.033  1.00  0.00     0.124 S 
ATOM     73  O   UNL     1      13.612  10.522  11.286  1.00  0.00    -0.237 OA
ATOM     74  O   UNL     1      12.685   9.400  13.284  1.00  0.00    -0.237 OA
ATOM     75  O   UNL     1      14.590   8.400  12.082  1.00  0.00    -0.744 OA
ENDBRANCH  71  72
ENDBRANCH  39  64
ENDBRANCH  13  14
ENDBRANCH   6   8
ENDBRANCH   3   4
ENDBRANCH   2   3
ENDBRANCH   1   2
BRANCH   1  76
ATOM     76  C   UNL     1       4.169  -3.801  -1.938  1.00  0.00     0.116 C 
BRANCH  76  77
ATOM     77  N   UNL     1       5.552  -4.181  -2.106  1.00  0.00    -0.351 N 
ATOM     78  C   UNL     1       6.110  -4.912  -3.119  1.00  0.00     0.262 C 
ATOM     79  H   UNL     1       6.170  -3.877  -1.404  1.00  0.00     0.163 HD
ATOM     80  O   UNL     1       7.242  -5.363  -2.928  1.00  0.00    -0.268 OA
BRANCH  78  81
ATOM     81  C   UNL     1       5.336  -5.215  -4.299  1.00  0.00     0.112 A 
ATOM     82  S   UNL     1       5.086  -6.906  -4.575  1.00  0.00    -0.137 S 
ATOM     83  C   UNL     1       4.776  -4.449  -5.311  1.00  0.00     0.111 A 
ATOM     84  C   UNL     1       4.174  -6.626  -5.981  1.00  0.00     0.067 A 
ATOM     85  C   UNL     1       4.077  -5.286  -6.260  1.00  0.00     0.035 A 
BRANCH  83  86
ATOM     86  S   UNL     1       4.717  -2.723  -5.495  1.00  0.00     0.263 S 
ATOM     87  O   UNL     1       4.397  -2.553  -6.905  1.00  0.00    -0.201 OA
ATOM     88  O   UNL     1       3.720  -2.318  -4.531  1.00  0.00    -0.201 OA
BRANCH  86  89
ATOM     89  N   UNL     1       6.049  -1.752  -5.238  1.00  0.00    -0.277 N 
ATOM     90  H   UNL     1       6.038  -0.842  -5.615  1.00  0.00     0.180 HD
BRANCH  89  91
ATOM     91  C   UNL     1       7.202  -2.157  -4.507  1.00  0.00     0.072 A 
ATOM     92  C   UNL     1       7.413  -1.565  -3.252  1.00  0.00     0.029 A 
ATOM     93  C   UNL     1       8.130  -3.075  -5.045  1.00  0.00     0.061 A 
ATOM     94  C   UNL     1       8.538  -1.891  -2.498  1.00  0.00     0.002 A 
ATOM     95  C   UNL     1       9.247  -3.393  -4.252  1.00  0.00     0.028 A 
ATOM     96  C   UNL     1       9.451  -2.812  -2.996  1.00  0.00     0.002 A 
BRANCH  93  97
ATOM     97  N   UNL     1       8.032  -3.613  -6.319  1.00  0.00    -0.370 N 
ATOM     98  C   UNL     1       8.046  -5.060  -6.513  1.00  0.00     0.116 C 
ATOM     99  C   UNL     1       7.781  -2.751  -7.471  1.00  0.00     0.116 C 
ATOM    100  C   UNL     1       8.964  -5.438  -7.669  1.00  0.00     0.021 C 
ATOM    101  C   UNL     1       8.715  -3.134  -8.617  1.00  0.00     0.021 C 
ATOM    102  C   UNL     1       8.631  -4.628  -8.919  1.00  0.00     0.004 C 
ENDBRANCH  93  97
ENDBRANCH  89  91
ENDBRANCH  86  89
ENDBRANCH  83  86
ENDBRANCH  78  81
ENDBRANCH  76  77
ENDBRANCH   1  76
TORSDOF 18
