REMARK SMILES COc1cc(Nc2cn[nH]c(=O)n2)c(C(=O)NCCCCNC(=O)c2ccc(-c3c4nc(c(-c5c(F)cc(S(=O)(=O)[O-])cc5F)c5ccc([nH]5)c(-c5c(F)cc(S(=O)(=O)[O-])cc5F)c5nc(c(-c6c(F)cc(S(=O)(=O)[O-])cc6F)c6ccc3[nH]6)C=C5)C=C4)cc2)cc1OC
REMARK SMILES IDX 20 1 19 2 18 3 17 4 15 5 16 6 14 8 3 9 4 10 92 11 5 12 91 13
REMARK SMILES IDX 2 14 1 15 93 16 94 17 6 18 7 20 8 21 13 22 9 23 11 24 10 25
REMARK SMILES IDX 12 26 21 28 22 29 23 30 24 32 25 33 26 34 90 35 27 36 89 37
REMARK SMILES IDX 28 38 29 39 30 40 83 41 31 42 88 43 82 44 84 45 32 46 87 47
REMARK SMILES IDX 81 48 80 49 33 51 67 52 46 53 66 54 47 55 50 56 65 57 85 58
REMARK SMILES IDX 48 59 49 60 64 62 86 63 51 64 34 65 35 66 44 67 36 68 37 69
REMARK SMILES IDX 43 70 45 71 38 72 39 73 40 74 41 75 42 76 68 77 69 78 78 79
REMARK SMILES IDX 70 80 71 81 77 82 79 83 72 84 73 85 74 86 75 87 76 88 52 89
REMARK SMILES IDX 53 90 62 91 54 92 55 93 61 94 63 95 56 96 57 97 58 98 59 99
REMARK SMILES IDX 60 100
REMARK H PARENT 17 7 6 19 10 27 22 31 84 50 50 61
REMARK Flexibility Score: inf
ROOT
ATOM      1  C   UNL     1       6.415  -2.482   6.678  1.00  0.00     0.023 C 
ENDROOT
BRANCH   1   2
ATOM      2  C   UNL     1       5.519  -2.168   5.477  1.00  0.00     0.023 C 
BRANCH   2   3
ATOM      3  C   UNL     1       4.330  -3.117   5.303  1.00  0.00     0.116 C 
BRANCH   3   4
ATOM      4  N   UNL     1       3.238  -2.724   6.175  1.00  0.00    -0.352 N 
ATOM      5  C   UNL     1       2.139  -1.927   5.980  1.00  0.00     0.253 C 
ATOM      6  O   UNL     1       1.380  -1.766   6.942  1.00  0.00    -0.269 OA
ATOM      7  H   UNL     1       3.297  -3.103   7.082  1.00  0.00     0.163 HD
BRANCH   5   8
ATOM      8  C   UNL     1       1.776  -1.284   4.673  1.00  0.00     0.067 A 
ATOM      9  C   UNL     1       1.067  -0.066   2.231  1.00  0.00     0.162 A 
ATOM     10  C   UNL     1       0.082  -0.374   3.178  1.00  0.00     0.077 A 
ATOM     11  C   UNL     1       2.406  -0.315   2.519  1.00  0.00     0.161 A 
ATOM     12  C   UNL     1       0.415  -0.955   4.417  1.00  0.00     0.057 A 
ATOM     13  C   UNL     1       2.745  -0.898   3.742  1.00  0.00     0.066 A 
BRANCH   9  14
ATOM     14  O   UNL     1       0.729   0.617   1.094  1.00  0.00    -0.493 OA
ATOM     15  C   UNL     1      -0.111  -0.147   0.230  1.00  0.00     0.278 C 
ENDBRANCH   9  14
BRANCH  11  16
ATOM     16  O   UNL     1       3.487   0.005   1.742  1.00  0.00    -0.493 OA
ATOM     17  C   UNL     1       3.317  -0.179   0.341  1.00  0.00     0.278 C 
ENDBRANCH  11  16
BRANCH  12  18
ATOM     18  N   UNL     1      -0.568  -1.174   5.417  1.00  0.00    -0.338 N 
ATOM     19  H   UNL     1      -0.304  -1.742   6.176  1.00  0.00     0.168 HD
BRANCH  18  20
ATOM     20  C   UNL     1      -1.849  -0.678   5.440  1.00  0.00     0.156 A 
ATOM     21  C   UNL     1      -2.183   0.225   6.607  1.00  0.00     0.180 A 
ATOM     22  N   UNL     1      -2.749  -0.934   4.544  1.00  0.00    -0.173 NA
ATOM     23  N   UNL     1      -3.349   0.762   6.747  1.00  0.00    -0.176 NA
ATOM     24  C   UNL     1      -4.004  -0.410   4.706  1.00  0.00     0.363 A 
ATOM     25  N   UNL     1      -4.243   0.425   5.778  1.00  0.00    -0.227 N 
ATOM     26  O   UNL     1      -4.923  -0.656   3.927  1.00  0.00    -0.244 OA
ATOM     27  H   UNL     1      -5.145   0.813   5.849  1.00  0.00     0.195 HD
ENDBRANCH  18  20
ENDBRANCH  12  18
ENDBRANCH   5   8
ENDBRANCH   3   4
ENDBRANCH   2   3
ENDBRANCH   1   2
BRANCH   1  28
ATOM     28  C   UNL     1       7.169  -3.806   6.589  1.00  0.00     0.116 C 
BRANCH  28  29
ATOM     29  N   UNL     1       8.001  -3.910   5.402  1.00  0.00    -0.352 N 
ATOM     30  C   UNL     1       9.163  -4.616   5.219  1.00  0.00     0.251 C 
ATOM     31  H   UNL     1       7.685  -3.404   4.619  1.00  0.00     0.163 HD
ATOM     32  O   UNL     1       9.781  -4.497   4.164  1.00  0.00    -0.269 OA
BRANCH  30  33
ATOM     33  C   UNL     1       9.692  -5.477   6.299  1.00  0.00     0.039 A 
ATOM     34  C   UNL     1      11.059  -5.419   6.581  1.00  0.00     0.014 A 
ATOM     35  C   UNL     1       8.864  -6.336   7.026  1.00  0.00     0.014 A 
ATOM     36  C   UNL     1      11.585  -6.182   7.624  1.00  0.00     0.010 A 
ATOM     37  C   UNL     1       9.377  -7.047   8.110  1.00  0.00     0.010 A 
ATOM     38  C   UNL     1      10.743  -6.980   8.417  1.00  0.00    -0.014 A 
BRANCH  38  39
ATOM     39  C   UNL     1      11.293  -7.732   9.573  1.00  0.00     0.031 A 
ATOM     40  C   UNL     1      11.301  -9.237   9.576  1.00  0.00     0.074 A 
ATOM     41  C   UNL     1      11.753  -7.049  10.640  1.00  0.00     0.049 A 
ATOM     42  N   UNL     1      11.773 -10.055  10.482  1.00  0.00    -0.248 NA
ATOM     43  C   UNL     1      10.677  -9.914   8.427  1.00  0.00     0.031 C 
ATOM     44  C   UNL     1      11.720  -5.591  10.791  1.00  0.00     0.029 A 
ATOM     45  N   UNL     1      12.338  -7.487  11.801  1.00  0.00    -0.354 N 
ATOM     46  C   UNL     1      11.490 -11.336  10.024  1.00  0.00     0.074 A 
ATOM     47  C   UNL     1      10.767 -11.189   8.779  1.00  0.00     0.031 C 
ATOM     48  C   UNL     1      12.287  -5.256  11.962  1.00  0.00     0.029 A 
ATOM     49  C   UNL     1      12.706  -6.471  12.652  1.00  0.00     0.049 A 
ATOM     50  H   UNL     1      12.480  -8.440  12.006  1.00  0.00     0.167 HD
ATOM     51  C   UNL     1      11.823 -12.525  10.579  1.00  0.00     0.037 A 
ATOM     52  C   UNL     1      13.323  -6.515  13.848  1.00  0.00     0.037 A 
ATOM     53  C   UNL     1      12.585 -12.664  11.793  1.00  0.00     0.049 A 
ATOM     54  C   UNL     1      13.740  -7.848  14.407  1.00  0.00     0.074 A 
ATOM     55  C   UNL     1      13.063 -13.823  12.381  1.00  0.00     0.029 A 
ATOM     56  N   UNL     1      12.982 -11.613  12.604  1.00  0.00    -0.354 N 
ATOM     57  N   UNL     1      13.560  -9.046  13.904  1.00  0.00    -0.248 NA
ATOM     58  C   UNL     1      14.461  -7.834  15.687  1.00  0.00     0.031 C 
ATOM     59  C   UNL     1      13.716 -13.475  13.568  1.00  0.00     0.029 A 
ATOM     60  C   UNL     1      13.680 -12.096  13.698  1.00  0.00     0.049 A 
ATOM     61  H   UNL     1      12.794 -10.662  12.428  1.00  0.00     0.167 HD
ATOM     62  C   UNL     1      14.166  -9.926  14.794  1.00  0.00     0.074 A 
ATOM     63  C   UNL     1      14.736  -9.120  15.854  1.00  0.00     0.031 C 
ATOM     64  C   UNL     1      14.242 -11.279  14.742  1.00  0.00     0.037 A 
BRANCH  51  65
ATOM     65  C   UNL     1      11.384 -13.780   9.876  1.00  0.00     0.058 A 
ATOM     66  C   UNL     1      11.988 -14.206   8.683  1.00  0.00     0.135 A 
ATOM     67  C   UNL     1      10.397 -14.604  10.442  1.00  0.00     0.135 A 
ATOM     68  F   UNL     1      12.924 -13.448   8.091  1.00  0.00    -0.206 F 
ATOM     69  C   UNL     1      11.621 -15.399   8.068  1.00  0.00     0.059 A 
ATOM     70  C   UNL     1      10.031 -15.813   9.856  1.00  0.00     0.059 A 
ATOM     71  F   UNL     1       9.785 -14.242  11.580  1.00  0.00    -0.206 F 
ATOM     72  C   UNL     1      10.645 -16.198   8.665  1.00  0.00     0.060 A 
BRANCH  72  73
ATOM     73  S   UNL     1      10.209 -17.762   7.875  1.00  0.00     0.124 S 
ATOM     74  O   UNL     1       9.421 -17.302   6.736  1.00  0.00    -0.237 OA
ATOM     75  O   UNL     1      11.516 -18.326   7.555  1.00  0.00    -0.237 OA
ATOM     76  O   UNL     1       9.461 -18.469   8.911  1.00  0.00    -0.744 OA
ENDBRANCH  72  73
ENDBRANCH  51  65
BRANCH  52  77
ATOM     77  C   UNL     1      13.616  -5.260  14.589  1.00  0.00     0.058 A 
ATOM     78  C   UNL     1      14.932  -4.794  14.729  1.00  0.00     0.135 A 
ATOM     79  C   UNL     1      12.591  -4.514  15.189  1.00  0.00     0.135 A 
ATOM     80  F   UNL     1      15.947  -5.474  14.172  1.00  0.00    -0.206 F 
ATOM     81  C   UNL     1      15.227  -3.654  15.469  1.00  0.00     0.059 A 
ATOM     82  C   UNL     1      12.858  -3.357  15.914  1.00  0.00     0.059 A 
ATOM     83  F   UNL     1      11.313  -4.905  15.065  1.00  0.00    -0.206 F 
ATOM     84  C   UNL     1      14.182  -2.946  16.064  1.00  0.00     0.060 A 
BRANCH  84  85
ATOM     85  S   UNL     1      14.568  -1.458  17.013  1.00  0.00     0.124 S 
ATOM     86  O   UNL     1      15.061  -2.029  18.261  1.00  0.00    -0.237 OA
ATOM     87  O   UNL     1      15.565  -0.803  16.172  1.00  0.00    -0.237 OA
ATOM     88  O   UNL     1      13.281  -0.773  17.094  1.00  0.00    -0.744 OA
ENDBRANCH  84  85
ENDBRANCH  52  77
BRANCH  64  89
ATOM     89  C   UNL     1      14.991 -11.962  15.852  1.00  0.00     0.058 A 
ATOM     90  C   UNL     1      14.463 -12.050  17.149  1.00  0.00     0.135 A 
ATOM     91  C   UNL     1      16.248 -12.538  15.612  1.00  0.00     0.135 A 
ATOM     92  F   UNL     1      13.266 -11.512  17.430  1.00  0.00    -0.206 F 
ATOM     93  C   UNL     1      15.176 -12.648  18.183  1.00  0.00     0.059 A 
ATOM     94  C   UNL     1      16.967 -13.165  16.625  1.00  0.00     0.059 A 
ATOM     95  F   UNL     1      16.791 -12.493  14.385  1.00  0.00    -0.206 F 
ATOM     96  C   UNL     1      16.432 -13.195  17.912  1.00  0.00     0.060 A 
BRANCH  96  97
ATOM     97  S   UNL     1      17.356 -13.961  19.261  1.00  0.00     0.124 S 
ATOM     98  O   UNL     1      17.889 -12.791  19.950  1.00  0.00    -0.237 OA
ATOM     99  O   UNL     1      16.320 -14.700  19.975  1.00  0.00    -0.237 OA
ATOM    100  O   UNL     1      18.341 -14.787  18.568  1.00  0.00    -0.744 OA
ENDBRANCH  96  97
ENDBRANCH  64  89
ENDBRANCH  38  39
ENDBRANCH  30  33
ENDBRANCH  28  29
ENDBRANCH   1  28
TORSDOF 18
