REMARK SMILES COC(=O)c1ccc([C@H]2CC(=O)Nc3c(C(=O)NCCCCNC(=O)c4ccc(-c5c6nc(c(-c7c(F)cc(S(=O)(=O)[O-])cc7F)c7ccc([nH]7)c(-c7c(F)cc(S(=O)(=O)[O-])cc7F)c7nc(c(-c8c(F)cc(S(=O)(=O)[O-])cc8F)c8ccc5[nH]8)C=C7)C=C6)cc4)cn(-c4ccccc4)c32)cc1
REMARK SMILES IDX 20 1 19 2 18 3 16 4 17 5 15 7 9 8 10 9 100 10 11 11 14 12
REMARK SMILES IDX 93 13 12 14 13 15 92 16 8 18 5 19 6 20 102 21 7 22 101 23
REMARK SMILES IDX 3 24 4 25 2 26 1 27 94 28 95 29 99 30 96 31 98 32 97 33
REMARK SMILES IDX 21 34 22 35 23 36 24 37 25 39 26 40 27 41 91 42 28 43 90 44
REMARK SMILES IDX 29 45 30 46 31 47 84 48 32 49 89 50 83 51 85 52 33 53 88 54
REMARK SMILES IDX 82 55 81 56 34 58 68 59 47 60 67 61 48 62 51 63 66 64 86 65
REMARK SMILES IDX 49 66 50 67 65 69 87 70 52 71 35 72 36 73 45 74 37 75 38 76
REMARK SMILES IDX 44 77 46 78 39 79 40 80 41 81 42 82 43 83 69 84 70 85 79 86
REMARK SMILES IDX 71 87 72 88 78 89 80 90 73 91 74 92 75 93 76 94 77 95 53 96
REMARK SMILES IDX 54 97 63 98 55 99 56 100 62 101 64 102 57 103 58 104 59 105
REMARK SMILES IDX 60 106 61 107
REMARK H PARENT 18 6 13 17 23 38 85 57 51 68
REMARK Flexibility Score: inf
ROOT
ATOM      1  C   UNL     1      -6.076   4.536  -8.171  1.00  0.00     0.023 C 
ENDROOT
BRANCH   1   2
ATOM      2  C   UNL     1      -5.864   3.055  -7.824  1.00  0.00     0.116 C 
BRANCH   2   3
ATOM      3  N   UNL     1      -5.074   2.380  -8.824  1.00  0.00    -0.352 N 
ATOM      4  C   UNL     1      -3.735   2.201  -9.034  1.00  0.00     0.254 C 
ATOM      5  O   UNL     1      -3.471   1.494 -10.014  1.00  0.00    -0.269 OA
ATOM      6  H   UNL     1      -5.627   1.948  -9.515  1.00  0.00     0.163 HD
BRANCH   4   7
ATOM      7  C   UNL     1      -2.637   2.774  -8.235  1.00  0.00     0.081 A 
ATOM      8  C   UNL     1      -0.494   5.001  -6.109  1.00  0.00     0.078 C 
ATOM      9  C   UNL     1      -1.554   6.038  -5.715  1.00  0.00     0.115 C 
ATOM     10  C   UNL     1      -1.097   3.923  -6.980  1.00  0.00     0.055 A 
ATOM     11  C   UNL     1      -2.962   5.517  -5.630  1.00  0.00     0.225 C 
ATOM     12  C   UNL     1      -2.452   3.762  -7.219  1.00  0.00     0.076 A 
ATOM     13  N   UNL     1      -0.424   2.927  -7.665  1.00  0.00    -0.317 N 
ATOM     14  O   UNL     1      -3.803   6.050  -4.907  1.00  0.00    -0.275 OA
ATOM     15  N   UNL     1      -3.329   4.528  -6.493  1.00  0.00    -0.324 N 
ATOM     16  C   UNL     1      -1.337   2.330  -8.498  1.00  0.00     0.107 A 
ATOM     17  H   UNL     1      -4.291   4.351  -6.603  1.00  0.00     0.170 HD
BRANCH   8  18
ATOM     18  C   UNL     1       0.688   5.784  -6.696  1.00  0.00    -0.038 A 
ATOM     19  C   UNL     1       2.946   7.178  -7.665  1.00  0.00     0.060 A 
ATOM     20  C   UNL     1       2.612   7.234  -6.309  1.00  0.00     0.016 A 
ATOM     21  C   UNL     1       2.123   6.471  -8.544  1.00  0.00     0.016 A 
ATOM     22  C   UNL     1       1.502   6.534  -5.828  1.00  0.00     0.005 A 
ATOM     23  C   UNL     1       0.983   5.819  -8.068  1.00  0.00     0.005 A 
BRANCH  19  24
ATOM     24  C   UNL     1       4.186   7.866  -8.118  1.00  0.00     0.337 C 
ATOM     25  O   UNL     1       5.015   8.332  -7.364  1.00  0.00    -0.246 OA
BRANCH  24  26
ATOM     26  O   UNL     1       4.234   7.897  -9.477  1.00  0.00    -0.465 OA
ATOM     27  C   UNL     1       5.396   8.537 -10.002  1.00  0.00     0.282 C 
ENDBRANCH  24  26
ENDBRANCH  19  24
ENDBRANCH   8  18
BRANCH  13  28
ATOM     28  C   UNL     1       0.968   2.651  -7.649  1.00  0.00     0.045 A 
ATOM     29  C   UNL     1       1.674   2.643  -6.441  1.00  0.00     0.026 A 
ATOM     30  C   UNL     1       1.652   2.511  -8.865  1.00  0.00     0.026 A 
ATOM     31  C   UNL     1       3.067   2.573  -6.454  1.00  0.00     0.002 A 
ATOM     32  C   UNL     1       3.047   2.475  -8.869  1.00  0.00     0.002 A 
ATOM     33  C   UNL     1       3.753   2.518  -7.666  1.00  0.00     0.000 A 
ENDBRANCH  13  28
ENDBRANCH   4   7
ENDBRANCH   2   3
ENDBRANCH   1   2
BRANCH   1  34
ATOM     34  C   UNL     1      -7.306   4.819  -9.046  1.00  0.00     0.023 C 
BRANCH  34  35
ATOM     35  C   UNL     1      -8.644   4.691  -8.317  1.00  0.00     0.116 C 
BRANCH  35  36
ATOM     36  N   UNL     1      -8.807   5.677  -7.249  1.00  0.00    -0.352 N 
ATOM     37  C   UNL     1      -9.640   5.599  -6.148  1.00  0.00     0.251 C 
ATOM     38  H   UNL     1      -8.260   6.492  -7.322  1.00  0.00     0.163 HD
ATOM     39  O   UNL     1     -10.019   6.607  -5.568  1.00  0.00    -0.269 OA
BRANCH  37  40
ATOM     40  C   UNL     1     -10.050   4.263  -5.684  1.00  0.00     0.039 A 
ATOM     41  C   UNL     1     -11.386   3.974  -5.397  1.00  0.00     0.014 A 
ATOM     42  C   UNL     1      -9.067   3.278  -5.614  1.00  0.00     0.014 A 
ATOM     43  C   UNL     1     -11.741   2.653  -5.131  1.00  0.00     0.010 A 
ATOM     44  C   UNL     1      -9.439   1.962  -5.469  1.00  0.00     0.010 A 
ATOM     45  C   UNL     1     -10.768   1.641  -5.195  1.00  0.00    -0.014 A 
BRANCH  45  46
ATOM     46  C   UNL     1     -11.162   0.234  -5.112  1.00  0.00     0.031 A 
ATOM     47  C   UNL     1     -12.238  -0.182  -6.064  1.00  0.00     0.074 A 
ATOM     48  C   UNL     1     -10.467  -0.693  -4.415  1.00  0.00     0.049 A 
ATOM     49  N   UNL     1     -13.431  -0.600  -5.792  1.00  0.00    -0.248 NA
ATOM     50  C   UNL     1     -11.992   0.000  -7.505  1.00  0.00     0.031 C 
ATOM     51  C   UNL     1      -9.199  -0.532  -3.694  1.00  0.00     0.029 A 
ATOM     52  N   UNL     1     -10.701  -2.029  -4.301  1.00  0.00    -0.354 N 
ATOM     53  C   UNL     1     -14.008  -0.947  -7.013  1.00  0.00     0.074 A 
ATOM     54  C   UNL     1     -13.154  -0.392  -8.031  1.00  0.00     0.031 C 
ATOM     55  C   UNL     1      -8.665  -1.746  -3.437  1.00  0.00     0.029 A 
ATOM     56  C   UNL     1      -9.631  -2.764  -3.804  1.00  0.00     0.049 A 
ATOM     57  H   UNL     1     -11.560  -2.442  -4.550  1.00  0.00     0.167 HD
ATOM     58  C   UNL     1     -15.017  -1.861  -7.096  1.00  0.00     0.037 A 
ATOM     59  C   UNL     1      -9.536  -4.115  -3.718  1.00  0.00     0.037 A 
ATOM     60  C   UNL     1     -15.642  -2.071  -5.815  1.00  0.00     0.049 A 
ATOM     61  C   UNL     1     -10.921  -4.649  -3.777  1.00  0.00     0.074 A 
ATOM     62  C   UNL     1     -16.267  -1.249  -4.896  1.00  0.00     0.029 A 
ATOM     63  N   UNL     1     -15.334  -3.219  -5.126  1.00  0.00    -0.354 N 
ATOM     64  N   UNL     1     -11.819  -4.448  -2.853  1.00  0.00    -0.248 NA
ATOM     65  C   UNL     1     -11.441  -5.031  -5.080  1.00  0.00     0.031 C 
ATOM     66  C   UNL     1     -15.826  -1.721  -3.623  1.00  0.00     0.029 A 
ATOM     67  C   UNL     1     -15.027  -2.844  -3.841  1.00  0.00     0.049 A 
ATOM     68  H   UNL     1     -15.333  -4.136  -5.484  1.00  0.00     0.167 HD
ATOM     69  C   UNL     1     -13.004  -4.252  -3.546  1.00  0.00     0.074 A 
ATOM     70  C   UNL     1     -12.725  -4.712  -4.906  1.00  0.00     0.031 C 
ATOM     71  C   UNL     1     -14.011  -3.484  -3.034  1.00  0.00     0.037 A 
BRANCH  58  72
ATOM     72  C   UNL     1     -15.208  -2.813  -8.257  1.00  0.00     0.058 A 
ATOM     73  C   UNL     1     -16.382  -3.590  -8.343  1.00  0.00     0.135 A 
ATOM     74  C   UNL     1     -14.169  -3.189  -9.139  1.00  0.00     0.135 A 
ATOM     75  F   UNL     1     -17.428  -3.339  -7.539  1.00  0.00    -0.206 F 
ATOM     76  C   UNL     1     -16.494  -4.690  -9.198  1.00  0.00     0.059 A 
ATOM     77  C   UNL     1     -14.279  -4.245 -10.037  1.00  0.00     0.059 A 
ATOM     78  F   UNL     1     -12.961  -2.615  -9.104  1.00  0.00    -0.206 F 
ATOM     79  C   UNL     1     -15.429  -5.015 -10.033  1.00  0.00     0.060 A 
BRANCH  79  80
ATOM     80  S   UNL     1     -15.530  -6.484 -11.072  1.00  0.00     0.124 S 
ATOM     81  O   UNL     1     -15.452  -7.548 -10.078  1.00  0.00    -0.237 OA
ATOM     82  O   UNL     1     -16.824  -6.308 -11.722  1.00  0.00    -0.237 OA
ATOM     83  O   UNL     1     -14.371  -6.352 -11.951  1.00  0.00    -0.744 OA
ENDBRANCH  79  80
ENDBRANCH  58  72
BRANCH  59  84
ATOM     84  C   UNL     1      -8.342  -4.977  -3.922  1.00  0.00     0.058 A 
ATOM     85  C   UNL     1      -8.370  -6.341  -3.577  1.00  0.00     0.135 A 
ATOM     86  C   UNL     1      -7.265  -4.563  -4.732  1.00  0.00     0.135 A 
ATOM     87  F   UNL     1      -9.365  -6.824  -2.818  1.00  0.00    -0.206 F 
ATOM     88  C   UNL     1      -7.429  -7.253  -4.065  1.00  0.00     0.059 A 
ATOM     89  C   UNL     1      -6.309  -5.452  -5.222  1.00  0.00     0.059 A 
ATOM     90  F   UNL     1      -7.166  -3.293  -5.154  1.00  0.00    -0.206 F 
ATOM     91  C   UNL     1      -6.416  -6.803  -4.911  1.00  0.00     0.060 A 
BRANCH  91  92
ATOM     92  S   UNL     1      -5.326  -8.007  -5.708  1.00  0.00     0.124 S 
ATOM     93  O   UNL     1      -4.520  -8.473  -4.585  1.00  0.00    -0.237 OA
ATOM     94  O   UNL     1      -6.277  -8.969  -6.253  1.00  0.00    -0.237 OA
ATOM     95  O   UNL     1      -4.612  -7.210  -6.702  1.00  0.00    -0.744 OA
ENDBRANCH  91  92
ENDBRANCH  59  84
BRANCH  71  96
ATOM     96  C   UNL     1     -13.945  -3.090  -1.577  1.00  0.00     0.058 A 
ATOM     97  C   UNL     1     -12.928  -2.308  -0.999  1.00  0.00     0.135 A 
ATOM     98  C   UNL     1     -15.041  -3.409  -0.760  1.00  0.00     0.135 A 
ATOM     99  F   UNL     1     -11.896  -1.865  -1.729  1.00  0.00    -0.206 F 
ATOM    100  C   UNL     1     -12.974  -1.909   0.340  1.00  0.00     0.059 A 
ATOM    101  C   UNL     1     -15.124  -2.993   0.567  1.00  0.00     0.059 A 
ATOM    102  F   UNL     1     -16.077  -4.099  -1.264  1.00  0.00    -0.206 F 
ATOM    103  C   UNL     1     -14.078  -2.257   1.116  1.00  0.00     0.060 A 
BRANCH 103 104
ATOM    104  S   UNL     1     -14.165  -1.696   2.830  1.00  0.00     0.124 S 
ATOM    105  O   UNL     1     -13.139  -2.509   3.473  1.00  0.00    -0.237 OA
ATOM    106  O   UNL     1     -13.865  -0.271   2.715  1.00  0.00    -0.237 OA
ATOM    107  O   UNL     1     -15.539  -2.003   3.221  1.00  0.00    -0.744 OA
ENDBRANCH 103 104
ENDBRANCH  71  96
ENDBRANCH  45  46
ENDBRANCH  37  40
ENDBRANCH  35  36
ENDBRANCH  34  35
ENDBRANCH   1  34
TORSDOF 18
