REMARK SMILES CC[NH2+][C@]1(C(=O)NCCCCNC(=O)c2ccc(-c3c4nc(c(-c5c(F)cc(S(=O)(=O)[O-])cc5F)c5ccc([nH]5)c(-c5c(F)cc(S(=O)(=O)[O-])cc5F)c5nc(c(-c6c(F)cc(S(=O)(=O)[O-])cc6F)c6ccc3[nH]6)C=C5)C=C4)cc2)CC[C@@H](Sc2ccc(OC)cc2)C1
REMARK SMILES IDX 9 1 8 2 7 3 5 4 6 5 4 7 81 8 93 9 82 10 83 11 3 12 2 15 1 16
REMARK SMILES IDX 84 17 85 18 86 19 92 20 87 21 91 22 88 23 89 24 90 25 10 26
REMARK SMILES IDX 11 27 12 28 13 29 14 31 15 32 16 33 80 34 17 35 79 36 18 37
REMARK SMILES IDX 19 38 20 39 73 40 21 41 78 42 72 43 74 44 22 45 77 46 71 47
REMARK SMILES IDX 70 48 23 50 57 51 36 52 56 53 37 54 40 55 55 56 75 57 38 58
REMARK SMILES IDX 39 59 54 61 76 62 41 63 24 64 25 65 34 66 26 67 27 68 33 69
REMARK SMILES IDX 35 70 28 71 29 72 30 73 31 74 32 75 58 76 59 77 68 78 60 79
REMARK SMILES IDX 61 80 67 81 69 82 62 83 63 84 64 85 65 86 66 87 42 88 43 89
REMARK SMILES IDX 52 90 44 91 45 92 51 93 53 94 46 95 47 96 48 97 49 98 50 99
REMARK H PARENT 7 6 3 13 3 14 12 30 74 49 40 60
REMARK Flexibility Score: inf
ROOT
ATOM      1  C   UNL     1       4.504  -0.601  -2.161  1.00  0.00     0.023 C 
ENDROOT
BRANCH   1   2
ATOM      2  C   UNL     1       3.286  -1.224  -2.818  1.00  0.00     0.116 C 
BRANCH   2   3
ATOM      3  N   UNL     1       2.113  -1.093  -1.997  1.00  0.00    -0.351 N 
ATOM      4  C   UNL     1       0.899  -0.571  -2.303  1.00  0.00     0.281 C 
ATOM      5  O   UNL     1       0.242  -0.195  -1.323  1.00  0.00    -0.268 OA
ATOM      6  H   UNL     1       2.205  -1.433  -1.078  1.00  0.00     0.163 HD
BRANCH   4   7
ATOM      7  C   UNL     1       0.386  -0.381  -3.779  1.00  0.00     0.176 C 
ATOM      8  C   UNL     1       0.904   1.001  -4.239  1.00  0.00     0.080 C 
ATOM      9  C   UNL     1       0.886  -1.324  -4.906  1.00  0.00     0.094 C 
ATOM     10  C   UNL     1       0.858   1.003  -5.758  1.00  0.00     0.022 C 
ATOM     11  C   UNL     1       1.007  -0.457  -6.174  1.00  0.00     0.058 C 
BRANCH   7  12
ATOM     12  N   UNL     1      -1.114  -0.377  -3.789  1.00  0.00    -0.334 N 
ATOM     13  H   UNL     1      -1.438   0.462  -3.307  1.00  0.00     0.347 HD
ATOM     14  H   UNL     1      -1.407  -0.398  -4.766  1.00  0.00     0.347 HD
BRANCH  12  15
ATOM     15  C   UNL     1      -1.710  -1.551  -3.134  1.00  0.00     0.257 C 
ATOM     16  C   UNL     1      -3.228  -1.473  -3.163  1.00  0.00     0.071 C 
ENDBRANCH  12  15
ENDBRANCH   7  12
BRANCH  11  17
ATOM     17  S   UNL     1       2.397  -0.877  -7.313  1.00  0.00    -0.122 SA
BRANCH  17  18
ATOM     18  C   UNL     1       3.891  -0.304  -6.519  1.00  0.00     0.008 A 
ATOM     19  C   UNL     1       4.309   1.027  -6.630  1.00  0.00     0.019 A 
ATOM     20  C   UNL     1       4.772  -1.232  -5.948  1.00  0.00     0.019 A 
ATOM     21  C   UNL     1       5.541   1.437  -6.104  1.00  0.00     0.047 A 
ATOM     22  C   UNL     1       6.011  -0.825  -5.431  1.00  0.00     0.047 A 
ATOM     23  C   UNL     1       6.375   0.519  -5.470  1.00  0.00     0.118 A 
BRANCH  23  24
ATOM     24  O   UNL     1       7.567   0.991  -4.994  1.00  0.00    -0.497 OA
ATOM     25  C   UNL     1       7.816   0.632  -3.634  1.00  0.00     0.278 C 
ENDBRANCH  23  24
ENDBRANCH  17  18
ENDBRANCH  11  17
ENDBRANCH   4   7
ENDBRANCH   2   3
ENDBRANCH   1   2
BRANCH   1  26
ATOM     26  C   UNL     1       5.057  -1.345  -0.956  1.00  0.00     0.023 C 
BRANCH  26  27
ATOM     27  C   UNL     1       5.288  -2.837  -1.163  1.00  0.00     0.116 C 
BRANCH  27  28
ATOM     28  N   UNL     1       6.092  -3.148  -2.341  1.00  0.00    -0.352 N 
ATOM     29  C   UNL     1       7.321  -3.763  -2.447  1.00  0.00     0.251 C 
ATOM     30  H   UNL     1       5.691  -2.876  -3.198  1.00  0.00     0.163 HD
ATOM     31  O   UNL     1       7.888  -3.806  -3.529  1.00  0.00    -0.269 OA
BRANCH  29  32
ATOM     32  C   UNL     1       7.959  -4.322  -1.235  1.00  0.00     0.039 A 
ATOM     33  C   UNL     1       9.301  -4.038  -0.975  1.00  0.00     0.014 A 
ATOM     34  C   UNL     1       7.206  -5.062  -0.324  1.00  0.00     0.014 A 
ATOM     35  C   UNL     1       9.850  -4.392   0.261  1.00  0.00     0.010 A 
ATOM     36  C   UNL     1       7.717  -5.308   0.943  1.00  0.00     0.010 A 
ATOM     37  C   UNL     1       9.042  -4.967   1.256  1.00  0.00    -0.014 A 
BRANCH  37  38
ATOM     38  C   UNL     1       9.536  -5.205   2.638  1.00  0.00     0.031 A 
ATOM     39  C   UNL     1       9.483  -6.591   3.225  1.00  0.00     0.074 A 
ATOM     40  C   UNL     1       9.914  -4.161   3.405  1.00  0.00     0.049 A 
ATOM     41  N   UNL     1       9.707  -6.977   4.454  1.00  0.00    -0.248 NA
ATOM     42  C   UNL     1       9.077  -7.680   2.320  1.00  0.00     0.031 C 
ATOM     43  C   UNL     1       9.934  -2.758   2.981  1.00  0.00     0.029 A 
ATOM     44  N   UNL     1      10.333  -4.114   4.711  1.00  0.00    -0.354 N 
ATOM     45  C   UNL     1       9.431  -8.339   4.478  1.00  0.00     0.074 A 
ATOM     46  C   UNL     1       8.973  -8.703   3.155  1.00  0.00     0.031 C 
ATOM     47  C   UNL     1      10.366  -1.994   3.998  1.00  0.00     0.029 A 
ATOM     48  C   UNL     1      10.613  -2.843   5.159  1.00  0.00     0.049 A 
ATOM     49  H   UNL     1      10.425  -4.915   5.276  1.00  0.00     0.167 HD
ATOM     50  C   UNL     1       9.572  -9.214   5.501  1.00  0.00     0.037 A 
ATOM     51  C   UNL     1      11.014  -2.408   6.369  1.00  0.00     0.037 A 
ATOM     52  C   UNL     1      10.089  -8.858   6.795  1.00  0.00     0.049 A 
ATOM     53  C   UNL     1      11.227  -3.407   7.472  1.00  0.00     0.074 A 
ATOM     54  C   UNL     1      10.355  -9.686   7.872  1.00  0.00     0.029 A 
ATOM     55  N   UNL     1      10.431  -7.572   7.185  1.00  0.00    -0.354 N 
ATOM     56  N   UNL     1      11.020  -4.702   7.458  1.00  0.00    -0.248 NA
ATOM     57  C   UNL     1      11.735  -2.892   8.750  1.00  0.00     0.031 C 
ATOM     58  C   UNL     1      10.830  -8.895   8.923  1.00  0.00     0.029 A 
ATOM     59  C   UNL     1      10.898  -7.581   8.488  1.00  0.00     0.049 A 
ATOM     60  H   UNL     1      10.352  -6.770   6.619  1.00  0.00     0.167 HD
ATOM     61  C   UNL     1      11.393  -5.160   8.717  1.00  0.00     0.074 A 
ATOM     62  C   UNL     1      11.850  -4.005   9.462  1.00  0.00     0.031 C 
ATOM     63  C   UNL     1      11.358  -6.422   9.210  1.00  0.00     0.037 A 
BRANCH  50  64
ATOM     64  C   UNL     1       9.183 -10.646   5.256  1.00  0.00     0.058 A 
ATOM     65  C   UNL     1       9.940 -11.481   4.419  1.00  0.00     0.135 A 
ATOM     66  C   UNL     1       8.063 -11.201   5.896  1.00  0.00     0.135 A 
ATOM     67  F   UNL     1      11.010 -10.997   3.768  1.00  0.00    -0.206 F 
ATOM     68  C   UNL     1       9.585 -12.808   4.202  1.00  0.00     0.059 A 
ATOM     69  C   UNL     1       7.706 -12.535   5.716  1.00  0.00     0.059 A 
ATOM     70  F   UNL     1       7.303 -10.447   6.705  1.00  0.00    -0.206 F 
ATOM     71  C   UNL     1       8.467 -13.326   4.856  1.00  0.00     0.060 A 
BRANCH  71  72
ATOM     72  S   UNL     1       8.030 -15.055   4.577  1.00  0.00     0.124 S 
ATOM     73  O   UNL     1       7.470 -14.999   3.231  1.00  0.00    -0.237 OA
ATOM     74  O   UNL     1       9.321 -15.727   4.697  1.00  0.00    -0.237 OA
ATOM     75  O   UNL     1       7.076 -15.342   5.643  1.00  0.00    -0.744 OA
ENDBRANCH  71  72
ENDBRANCH  50  64
BRANCH  51  76
ATOM     76  C   UNL     1      11.270  -0.959   6.588  1.00  0.00     0.058 A 
ATOM     77  C   UNL     1      12.580  -0.472   6.711  1.00  0.00     0.135 A 
ATOM     78  C   UNL     1      10.220  -0.030   6.645  1.00  0.00     0.135 A 
ATOM     79  F   UNL     1      13.617  -1.322   6.668  1.00  0.00    -0.206 F 
ATOM     80  C   UNL     1      12.841   0.882   6.892  1.00  0.00     0.059 A 
ATOM     81  C   UNL     1      10.457   1.332   6.803  1.00  0.00     0.059 A 
ATOM     82  F   UNL     1       8.950  -0.443   6.513  1.00  0.00    -0.206 F 
ATOM     83  C   UNL     1      11.772   1.778   6.933  1.00  0.00     0.060 A 
BRANCH  83  84
ATOM     84  S   UNL     1      12.126   3.541   7.100  1.00  0.00     0.124 S 
ATOM     85  O   UNL     1      12.502   3.633   8.506  1.00  0.00    -0.237 OA
ATOM     86  O   UNL     1      13.205   3.731   6.136  1.00  0.00    -0.237 OA
ATOM     87  O   UNL     1      10.858   4.172   6.741  1.00  0.00    -0.744 OA
ENDBRANCH  83  84
ENDBRANCH  51  76
BRANCH  63  88
ATOM     88  C   UNL     1      11.857  -6.631  10.612  1.00  0.00     0.058 A 
ATOM     89  C   UNL     1      11.104  -6.237  11.727  1.00  0.00     0.135 A 
ATOM     90  C   UNL     1      13.075  -7.293  10.839  1.00  0.00     0.135 A 
ATOM     91  F   UNL     1       9.935  -5.597  11.562  1.00  0.00    -0.206 F 
ATOM     92  C   UNL     1      11.549  -6.475  13.023  1.00  0.00     0.059 A 
ATOM     93  C   UNL     1      13.528  -7.563  12.126  1.00  0.00     0.059 A 
ATOM     94  F   UNL     1      13.827  -7.700   9.805  1.00  0.00    -0.206 F 
ATOM     95  C   UNL     1      12.762  -7.141  13.212  1.00  0.00     0.060 A 
BRANCH  95  96
ATOM     96  S   UNL     1      13.310  -7.479  14.899  1.00  0.00     0.124 S 
ATOM     97  O   UNL     1      13.767  -6.162  15.328  1.00  0.00    -0.237 OA
ATOM     98  O   UNL     1      12.089  -7.966  15.534  1.00  0.00    -0.237 OA
ATOM     99  O   UNL     1      14.358  -8.480  14.720  1.00  0.00    -0.744 OA
ENDBRANCH  95  96
ENDBRANCH  63  88
ENDBRANCH  37  38
ENDBRANCH  29  32
ENDBRANCH  27  28
ENDBRANCH  26  27
ENDBRANCH   1  26
TORSDOF 19
