REMARK SMILES Cc1nccn1C1(C(=O)NCCCCNC(=O)c2ccc(-c3c4nc(c(-c5c(F)cc(S(=O)(=O)[O-])cc5F)c5ccc([nH]5)c(-c5c(F)cc(S(=O)(=O)[O-])cc5F)c5nc(c(-c6c(F)cc(S(=O)(=O)[O-])cc6F)c6ccc3[nH]6)C=C5)C=C4)cc2)CCN(C(=O)[C@@H]2C[C@H]2c2ccccc2)CC1
REMARK SMILES IDX 13 1 12 2 11 3 10 4 8 5 9 6 7 8 84 9 99 10 85 11 98 12 86 13
REMARK SMILES IDX 87 14 88 15 6 16 1 17 2 18 3 19 4 20 5 21 89 22 90 23 91 24
REMARK SMILES IDX 92 25 93 26 97 27 94 28 96 29 95 30 14 31 15 32 16 33 17 35
REMARK SMILES IDX 18 36 19 37 83 38 20 39 82 40 21 41 22 42 23 43 76 44 24 45
REMARK SMILES IDX 81 46 75 47 77 48 25 49 80 50 74 51 73 52 26 54 60 55 39 56
REMARK SMILES IDX 59 57 40 58 43 59 58 60 78 61 41 62 42 63 57 65 79 66 44 67
REMARK SMILES IDX 27 68 28 69 37 70 29 71 30 72 36 73 38 74 31 75 32 76 33 77
REMARK SMILES IDX 34 78 35 79 61 80 62 81 71 82 63 83 64 84 70 85 72 86 65 87
REMARK SMILES IDX 66 88 67 89 68 90 69 91 45 92 46 93 55 94 47 95 48 96 54 97
REMARK SMILES IDX 56 98 49 99 50 100 51 101 52 102 53 103
REMARK H PARENT 10 7 15 34 77 53 43 64
REMARK Flexibility Score: inf
ROOT
ATOM      1  C   UNL     1      -3.379   5.082   4.462  1.00  0.00     0.023 C 
ENDROOT
BRANCH   1   2
ATOM      2  C   UNL     1      -3.125   4.288   3.169  1.00  0.00     0.023 C 
BRANCH   2   3
ATOM      3  C   UNL     1      -1.693   3.778   2.954  1.00  0.00     0.116 C 
BRANCH   3   4
ATOM      4  N   UNL     1      -1.353   2.684   3.854  1.00  0.00    -0.354 N 
ATOM      5  C   UNL     1      -0.649   1.516   3.692  1.00  0.00     0.246 C 
ATOM      6  O   UNL     1      -0.344   0.979   4.761  1.00  0.00    -0.272 OA
ATOM      7  H   UNL     1      -1.699   2.808   4.767  1.00  0.00     0.163 HD
BRANCH   5   8
ATOM      8  C   UNL     1      -0.199   0.958   2.281  1.00  0.00     0.127 C 
ATOM      9  C   UNL     1      -1.441   0.867   1.373  1.00  0.00     0.061 C 
ATOM     10  C   UNL     1       0.895   1.961   1.828  1.00  0.00     0.061 C 
ATOM     11  C   UNL     1      -1.130   1.097  -0.088  1.00  0.00     0.122 C 
ATOM     12  C   UNL     1       0.805   2.567   0.425  1.00  0.00     0.122 C 
ATOM     13  N   UNL     1      -0.425   2.350  -0.325  1.00  0.00    -0.342 N 
ATOM     14  C   UNL     1      -0.700   2.952  -1.568  1.00  0.00     0.226 C 
ATOM     15  O   UNL     1      -1.389   2.368  -2.405  1.00  0.00    -0.275 OA
BRANCH   8  16
ATOM     16  N   UNL     1       0.321  -0.459   2.372  1.00  0.00    -0.320 N 
ATOM     17  C   UNL     1       1.868  -0.736   0.294  1.00  0.00     0.087 C 
ATOM     18  C   UNL     1       1.105  -1.196   1.479  1.00  0.00     0.106 A 
ATOM     19  N   UNL     1       1.107  -2.479   1.795  1.00  0.00    -0.242 NA
ATOM     20  C   UNL     1       0.345  -2.609   2.906  1.00  0.00     0.131 A 
ATOM     21  C   UNL     1      -0.178  -1.398   3.262  1.00  0.00     0.108 A 
ENDBRANCH   8  16
BRANCH  14  22
ATOM     22  C   UNL     1      -0.271   4.327  -1.947  1.00  0.00     0.087 C 
ATOM     23  C   UNL     1       1.114   4.889  -1.854  1.00  0.00     0.023 C 
ATOM     24  C   UNL     1       0.012   5.451  -0.977  1.00  0.00     0.032 C 
BRANCH  24  25
ATOM     25  C   UNL     1      -0.621   6.795  -1.228  1.00  0.00    -0.044 A 
ATOM     26  C   UNL     1       0.120   7.913  -1.641  1.00  0.00     0.004 A 
ATOM     27  C   UNL     1      -1.991   6.979  -0.974  1.00  0.00     0.004 A 
ATOM     28  C   UNL     1      -0.484   9.162  -1.799  1.00  0.00     0.000 A 
ATOM     29  C   UNL     1      -2.597   8.228  -1.119  1.00  0.00     0.000 A 
ATOM     30  C   UNL     1      -1.841   9.320  -1.532  1.00  0.00     0.000 A 
ENDBRANCH  24  25
ENDBRANCH  14  22
ENDBRANCH   5   8
ENDBRANCH   3   4
ENDBRANCH   2   3
ENDBRANCH   1   2
BRANCH   1  31
ATOM     31  C   UNL     1      -2.595   6.381   4.562  1.00  0.00     0.116 C 
BRANCH  31  32
ATOM     32  N   UNL     1      -2.942   7.362   3.527  1.00  0.00    -0.352 N 
ATOM     33  C   UNL     1      -2.463   8.657   3.400  1.00  0.00     0.251 C 
ATOM     34  H   UNL     1      -3.589   7.067   2.845  1.00  0.00     0.163 HD
ATOM     35  O   UNL     1      -3.069   9.497   2.736  1.00  0.00    -0.269 OA
BRANCH  33  36
ATOM     36  C   UNL     1      -1.197   8.993   4.072  1.00  0.00     0.039 A 
ATOM     37  C   UNL     1      -0.983  10.193   4.760  1.00  0.00     0.014 A 
ATOM     38  C   UNL     1      -0.224   8.003   4.050  1.00  0.00     0.014 A 
ATOM     39  C   UNL     1       0.201  10.347   5.483  1.00  0.00     0.010 A 
ATOM     40  C   UNL     1       0.802   8.056   4.943  1.00  0.00     0.010 A 
ATOM     41  C   UNL     1       1.083   9.262   5.571  1.00  0.00    -0.014 A 
BRANCH  41  42
ATOM     42  C   UNL     1       2.317   9.296   6.343  1.00  0.00     0.031 A 
ATOM     43  C   UNL     1       2.131   9.443   7.814  1.00  0.00     0.074 A 
ATOM     44  C   UNL     1       3.476   8.883   5.778  1.00  0.00     0.049 A 
ATOM     45  N   UNL     1       2.482  10.429   8.570  1.00  0.00    -0.248 NA
ATOM     46  C   UNL     1       1.307   8.438   8.508  1.00  0.00     0.031 C 
ATOM     47  C   UNL     1       3.692   8.347   4.422  1.00  0.00     0.029 A 
ATOM     48  N   UNL     1       4.693   8.707   6.350  1.00  0.00    -0.354 N 
ATOM     49  C   UNL     1       2.143  10.055   9.872  1.00  0.00     0.074 A 
ATOM     50  C   UNL     1       1.228   8.956   9.736  1.00  0.00     0.031 C 
ATOM     51  C   UNL     1       4.866   7.681   4.375  1.00  0.00     0.029 A 
ATOM     52  C   UNL     1       5.566   7.900   5.624  1.00  0.00     0.049 A 
ATOM     53  H   UNL     1       4.940   9.117   7.210  1.00  0.00     0.167 HD
ATOM     54  C   UNL     1       2.845  10.513  10.950  1.00  0.00     0.037 A 
ATOM     55  C   UNL     1       6.755   7.413   6.062  1.00  0.00     0.037 A 
ATOM     56  C   UNL     1       3.698  11.612  10.564  1.00  0.00     0.049 A 
ATOM     57  C   UNL     1       7.146   8.254   7.230  1.00  0.00     0.074 A 
ATOM     58  C   UNL     1       3.483  12.862  10.018  1.00  0.00     0.029 A 
ATOM     59  N   UNL     1       5.029  11.335  10.356  1.00  0.00    -0.354 N 
ATOM     60  N   UNL     1       7.408   9.533   7.144  1.00  0.00    -0.248 NA
ATOM     61  C   UNL     1       6.741   7.789   8.549  1.00  0.00     0.031 C 
ATOM     62  C   UNL     1       4.544  13.036   9.082  1.00  0.00     0.029 A 
ATOM     63  C   UNL     1       5.392  11.930   9.176  1.00  0.00     0.049 A 
ATOM     64  H   UNL     1       5.614  10.806  10.946  1.00  0.00     0.167 HD
ATOM     65  C   UNL     1       6.818  10.099   8.268  1.00  0.00     0.074 A 
ATOM     66  C   UNL     1       6.471   8.965   9.124  1.00  0.00     0.031 C 
ATOM     67  C   UNL     1       6.392  11.398   8.274  1.00  0.00     0.037 A 
BRANCH  54  68
ATOM     68  C   UNL     1       3.075   9.759  12.247  1.00  0.00     0.058 A 
ATOM     69  C   UNL     1       3.796  10.399  13.282  1.00  0.00     0.135 A 
ATOM     70  C   UNL     1       2.886   8.371  12.420  1.00  0.00     0.135 A 
ATOM     71  F   UNL     1       4.012  11.723  13.251  1.00  0.00    -0.206 F 
ATOM     72  C   UNL     1       4.389   9.697  14.331  1.00  0.00     0.059 A 
ATOM     73  C   UNL     1       3.425   7.659  13.488  1.00  0.00     0.059 A 
ATOM     74  F   UNL     1       2.253   7.609  11.523  1.00  0.00    -0.206 F 
ATOM     75  C   UNL     1       4.219   8.320  14.408  1.00  0.00     0.060 A 
BRANCH  75  76
ATOM     76  S   UNL     1       5.094   7.390  15.677  1.00  0.00     0.124 S 
ATOM     77  O   UNL     1       6.476   7.526  15.231  1.00  0.00    -0.237 OA
ATOM     78  O   UNL     1       4.736   8.121  16.887  1.00  0.00    -0.237 OA
ATOM     79  O   UNL     1       4.522   6.052  15.566  1.00  0.00    -0.744 OA
ENDBRANCH  75  76
ENDBRANCH  54  68
BRANCH  55  80
ATOM     80  C   UNL     1       7.337   6.068   5.791  1.00  0.00     0.058 A 
ATOM     81  C   UNL     1       8.687   5.782   6.058  1.00  0.00     0.135 A 
ATOM     82  C   UNL     1       6.513   4.956   5.513  1.00  0.00     0.135 A 
ATOM     83  F   UNL     1       9.539   6.775   6.354  1.00  0.00    -0.206 F 
ATOM     84  C   UNL     1       9.184   4.471   6.083  1.00  0.00     0.059 A 
ATOM     85  C   UNL     1       6.986   3.644   5.526  1.00  0.00     0.059 A 
ATOM     86  F   UNL     1       5.197   5.107   5.301  1.00  0.00    -0.206 F 
ATOM     87  C   UNL     1       8.319   3.405   5.833  1.00  0.00     0.060 A 
BRANCH  87  88
ATOM     88  S   UNL     1       8.915   1.705   6.015  1.00  0.00     0.124 S 
ATOM     89  O   UNL     1       9.837   1.588   4.890  1.00  0.00    -0.237 OA
ATOM     90  O   UNL     1       9.524   1.731   7.340  1.00  0.00    -0.237 OA
ATOM     91  O   UNL     1       7.696   0.908   5.906  1.00  0.00    -0.744 OA
ENDBRANCH  87  88
ENDBRANCH  55  80
BRANCH  67  92
ATOM     92  C   UNL     1       6.797  12.311   7.144  1.00  0.00     0.058 A 
ATOM     93  C   UNL     1       6.337  12.193   5.821  1.00  0.00     0.135 A 
ATOM     94  C   UNL     1       7.485  13.486   7.480  1.00  0.00     0.135 A 
ATOM     95  F   UNL     1       5.595  11.145   5.439  1.00  0.00    -0.206 F 
ATOM     96  C   UNL     1       6.554  13.198   4.873  1.00  0.00     0.059 A 
ATOM     97  C   UNL     1       7.688  14.512   6.562  1.00  0.00     0.059 A 
ATOM     98  F   UNL     1       7.897  13.684   8.743  1.00  0.00    -0.206 F 
ATOM     99  C   UNL     1       7.221  14.361   5.259  1.00  0.00     0.060 A 
BRANCH  99 100
ATOM    100  S   UNL     1       7.393  15.714   4.074  1.00  0.00     0.124 S 
ATOM    101  O   UNL     1       8.382  15.180   3.142  1.00  0.00    -0.237 OA
ATOM    102  O   UNL     1       6.038  15.852   3.549  1.00  0.00    -0.237 OA
ATOM    103  O   UNL     1       7.850  16.832   4.896  1.00  0.00    -0.744 OA
ENDBRANCH  99 100
ENDBRANCH  67  92
ENDBRANCH  41  42
ENDBRANCH  33  36
ENDBRANCH  31  32
ENDBRANCH   1  31
TORSDOF 17
