REMARK SMILES COCCCNC(=O)/C(C#N)=C/c1ccc(C(=O)NCCCCNC(=O)c2ccc(-c3c4nc(c(-c5c(F)cc(S(=O)(=O)[O-])cc5F)c5ccc([nH]5)c(-c5c(F)cc(S(=O)(=O)[O-])cc5F)c5nc(c(-c6c(F)cc(S(=O)(=O)[O-])cc6F)c6ccc3[nH]6)C=C5)C=C4)cc2)cc1
REMARK SMILES IDX 20 1 19 2 17 3 18 4 16 6 13 7 14 8 94 9 15 10 93 11 12 12
REMARK SMILES IDX 9 13 7 14 6 15 8 17 5 18 4 19 3 20 2 21 1 22 10 23 11 24
REMARK SMILES IDX 21 25 22 26 23 27 24 28 25 29 26 31 27 32 28 33 92 34 29 35
REMARK SMILES IDX 91 36 30 37 31 38 32 39 85 40 33 41 90 42 84 43 86 44 34 45
REMARK SMILES IDX 89 46 83 47 82 48 35 50 69 51 48 52 68 53 49 54 52 55 67 56
REMARK SMILES IDX 87 57 50 58 51 59 66 61 88 62 53 63 36 64 37 65 46 66 38 67
REMARK SMILES IDX 39 68 45 69 47 70 40 71 41 72 42 73 43 74 44 75 70 76 71 77
REMARK SMILES IDX 80 78 72 79 73 80 79 81 81 82 74 83 75 84 76 85 77 86 78 87
REMARK SMILES IDX 54 88 55 89 64 90 56 91 57 92 63 93 65 94 58 95 59 96 60 97
REMARK SMILES IDX 61 98 62 99
REMARK H PARENT 19 5 6 16 24 30 86 49 52 60
REMARK Flexibility Score: inf
ROOT
ATOM      1  C   UNL     1      -1.467   9.998   1.009  1.00  0.00     0.116 C 
ENDROOT
BRANCH   1   2
ATOM      2  N   UNL     1      -0.689  11.003   0.305  1.00  0.00    -0.352 N 
ATOM      3  C   UNL     1       0.550  10.954  -0.282  1.00  0.00     0.251 C 
ATOM      4  O   UNL     1       0.959  11.956  -0.868  1.00  0.00    -0.269 OA
ATOM      5  H   UNL     1      -1.132  11.880   0.237  1.00  0.00     0.163 HD
BRANCH   3   6
ATOM      6  C   UNL     1       1.384   9.722  -0.300  1.00  0.00     0.039 A 
ATOM      7  C   UNL     1       2.783   7.309  -0.613  1.00  0.00    -0.024 A 
ATOM      8  C   UNL     1       2.906   8.310  -1.576  1.00  0.00     0.009 A 
ATOM      9  C   UNL     1       2.074   7.571   0.565  1.00  0.00     0.009 A 
ATOM     10  C   UNL     1       2.207   9.512  -1.418  1.00  0.00     0.014 A 
ATOM     11  C   UNL     1       1.390   8.773   0.722  1.00  0.00     0.014 A 
BRANCH   7  12
ATOM     12  C   UNL     1       3.265   5.947  -0.869  1.00  0.00     0.033 C 
ATOM     13  C   UNL     1       2.413   4.907  -1.026  1.00  0.00     0.117 C 
BRANCH  13  14
ATOM     14  C   UNL     1       3.022   3.550  -1.183  1.00  0.00     0.261 C 
ATOM     15  N   UNL     1       2.297   2.408  -1.353  1.00  0.00    -0.351 N 
ATOM     16  H   UNL     1       2.856   1.605  -1.466  1.00  0.00     0.163 HD
ATOM     17  O   UNL     1       4.248   3.408  -1.139  1.00  0.00    -0.268 OA
BRANCH  15  18
ATOM     18  C   UNL     1       0.868   2.130  -1.403  1.00  0.00     0.118 C 
BRANCH  18  19
ATOM     19  C   UNL     1       0.484   1.071  -2.430  1.00  0.00     0.050 C 
BRANCH  19  20
ATOM     20  C   UNL     1       1.085  -0.317  -2.246  1.00  0.00     0.161 C 
BRANCH  20  21
ATOM     21  O   UNL     1       0.479  -1.072  -1.203  1.00  0.00    -0.385 OA
ATOM     22  C   UNL     1       0.957  -0.781   0.100  1.00  0.00     0.194 C 
ENDBRANCH  20  21
ENDBRANCH  19  20
ENDBRANCH  18  19
ENDBRANCH  15  18
ENDBRANCH  13  14
BRANCH  13  23
ATOM     23  C   UNL     1       1.006   5.123  -0.990  1.00  0.00     0.105 C 
ATOM     24  N   UNL     1      -0.135   5.328  -0.939  1.00  0.00    -0.192 NA
ENDBRANCH  13  23
ENDBRANCH   7  12
ENDBRANCH   3   6
ENDBRANCH   1   2
BRANCH   1  25
ATOM     25  C   UNL     1      -1.340  10.182   2.523  1.00  0.00     0.023 C 
BRANCH  25  26
ATOM     26  C   UNL     1      -2.135  11.366   3.075  1.00  0.00     0.023 C 
BRANCH  26  27
ATOM     27  C   UNL     1      -3.639  11.271   2.865  1.00  0.00     0.116 C 
BRANCH  27  28
ATOM     28  N   UNL     1      -4.223  10.083   3.471  1.00  0.00    -0.352 N 
ATOM     29  C   UNL     1      -5.405   9.975   4.163  1.00  0.00     0.251 C 
ATOM     30  H   UNL     1      -3.705   9.252   3.372  1.00  0.00     0.163 HD
ATOM     31  O   UNL     1      -5.690   8.934   4.746  1.00  0.00    -0.269 OA
BRANCH  29  32
ATOM     32  C   UNL     1      -6.305  11.144   4.222  1.00  0.00     0.039 A 
ATOM     33  C   UNL     1      -6.803  11.555   5.459  1.00  0.00     0.014 A 
ATOM     34  C   UNL     1      -6.602  11.865   3.062  1.00  0.00     0.014 A 
ATOM     35  C   UNL     1      -7.548  12.731   5.540  1.00  0.00     0.010 A 
ATOM     36  C   UNL     1      -7.264  13.083   3.160  1.00  0.00     0.010 A 
ATOM     37  C   UNL     1      -7.750  13.527   4.399  1.00  0.00    -0.014 A 
BRANCH  37  38
ATOM     38  C   UNL     1      -8.463  14.827   4.485  1.00  0.00     0.031 A 
ATOM     39  C   UNL     1      -9.742  15.038   3.721  1.00  0.00     0.074 A 
ATOM     40  C   UNL     1      -7.931  15.833   5.208  1.00  0.00     0.049 A 
ATOM     41  N   UNL     1     -10.486  16.110   3.638  1.00  0.00    -0.248 NA
ATOM     42  C   UNL     1     -10.239  13.903   2.925  1.00  0.00     0.031 C 
ATOM     43  C   UNL     1      -6.672  15.764   5.954  1.00  0.00     0.029 A 
ATOM     44  N   UNL     1      -8.376  17.112   5.432  1.00  0.00    -0.354 N 
ATOM     45  C   UNL     1     -11.528  15.784   2.778  1.00  0.00     0.074 A 
ATOM     46  C   UNL     1     -11.288  14.435   2.316  1.00  0.00     0.031 C 
ATOM     47  C   UNL     1      -6.466  16.933   6.580  1.00  0.00     0.029 A 
ATOM     48  C   UNL     1      -7.546  17.854   6.240  1.00  0.00     0.049 A 
ATOM     49  H   UNL     1      -9.212  17.465   5.049  1.00  0.00     0.167 HD
ATOM     50  C   UNL     1     -12.600  16.532   2.425  1.00  0.00     0.037 A 
ATOM     51  C   UNL     1      -7.639  19.133   6.652  1.00  0.00     0.037 A 
ATOM     52  C   UNL     1     -12.834  17.872   2.899  1.00  0.00     0.049 A 
ATOM     53  C   UNL     1      -8.825  19.954   6.221  1.00  0.00     0.074 A 
ATOM     54  C   UNL     1     -13.917  18.695   2.645  1.00  0.00     0.029 A 
ATOM     55  N   UNL     1     -11.969  18.590   3.713  1.00  0.00    -0.354 N 
ATOM     56  N   UNL     1      -9.840  19.605   5.467  1.00  0.00    -0.248 NA
ATOM     57  C   UNL     1      -8.882  21.342   6.699  1.00  0.00     0.031 C 
ATOM     58  C   UNL     1     -13.673  19.934   3.244  1.00  0.00     0.029 A 
ATOM     59  C   UNL     1     -12.477  19.859   3.940  1.00  0.00     0.049 A 
ATOM     60  H   UNL     1     -11.120  18.248   4.076  1.00  0.00     0.167 HD
ATOM     61  C   UNL     1     -10.673  20.718   5.410  1.00  0.00     0.074 A 
ATOM     62  C   UNL     1     -10.049  21.746   6.217  1.00  0.00     0.031 C 
ATOM     63  C   UNL     1     -11.849  20.873   4.752  1.00  0.00     0.037 A 
BRANCH  50  64
ATOM     64  C   UNL     1     -13.597  15.927   1.472  1.00  0.00     0.058 A 
ATOM     65  C   UNL     1     -14.412  14.843   1.838  1.00  0.00     0.135 A 
ATOM     66  C   UNL     1     -13.772  16.468   0.187  1.00  0.00     0.135 A 
ATOM     67  F   UNL     1     -14.280  14.273   3.047  1.00  0.00    -0.206 F 
ATOM     68  C   UNL     1     -15.341  14.299   0.957  1.00  0.00     0.059 A 
ATOM     69  C   UNL     1     -14.720  15.963  -0.698  1.00  0.00     0.059 A 
ATOM     70  F   UNL     1     -13.020  17.503  -0.219  1.00  0.00    -0.206 F 
ATOM     71  C   UNL     1     -15.491  14.870  -0.308  1.00  0.00     0.060 A 
BRANCH  71  72
ATOM     72  S   UNL     1     -16.712  14.160  -1.432  1.00  0.00     0.124 S 
ATOM     73  O   UNL     1     -16.103  12.872  -1.748  1.00  0.00    -0.237 OA
ATOM     74  O   UNL     1     -17.907  14.108  -0.596  1.00  0.00    -0.237 OA
ATOM     75  O   UNL     1     -16.760  15.117  -2.533  1.00  0.00    -0.744 OA
ENDBRANCH  71  72
ENDBRANCH  50  64
BRANCH  51  76
ATOM     76  C   UNL     1      -6.588  19.713   7.534  1.00  0.00     0.058 A 
ATOM     77  C   UNL     1      -6.871  20.075   8.860  1.00  0.00     0.135 A 
ATOM     78  C   UNL     1      -5.278  19.918   7.070  1.00  0.00     0.135 A 
ATOM     79  F   UNL     1      -8.109  19.907   9.350  1.00  0.00    -0.206 F 
ATOM     80  C   UNL     1      -5.904  20.636   9.687  1.00  0.00     0.059 A 
ATOM     81  C   UNL     1      -4.285  20.447   7.888  1.00  0.00     0.059 A 
ATOM     82  F   UNL     1      -4.947  19.576   5.815  1.00  0.00    -0.206 F 
ATOM     83  C   UNL     1      -4.611  20.814   9.192  1.00  0.00     0.060 A 
BRANCH  83  84
ATOM     84  S   UNL     1      -3.353  21.503  10.290  1.00  0.00     0.124 S 
ATOM     85  O   UNL     1      -3.806  22.882  10.428  1.00  0.00    -0.237 OA
ATOM     86  O   UNL     1      -3.492  20.662  11.475  1.00  0.00    -0.237 OA
ATOM     87  O   UNL     1      -2.114  21.317   9.540  1.00  0.00    -0.744 OA
ENDBRANCH  83  84
ENDBRANCH  51  76
BRANCH  63  88
ATOM     88  C   UNL     1     -12.569  22.186   4.910  1.00  0.00     0.058 A 
ATOM     89  C   UNL     1     -12.080  23.377   4.350  1.00  0.00     0.135 A 
ATOM     90  C   UNL     1     -13.799  22.241   5.588  1.00  0.00     0.135 A 
ATOM     91  F   UNL     1     -10.907  23.386   3.697  1.00  0.00    -0.206 F 
ATOM     92  C   UNL     1     -12.769  24.579   4.480  1.00  0.00     0.059 A 
ATOM     93  C   UNL     1     -14.524  23.423   5.697  1.00  0.00     0.059 A 
ATOM     94  F   UNL     1     -14.320  21.131   6.134  1.00  0.00    -0.206 F 
ATOM     95  C   UNL     1     -13.994  24.590   5.151  1.00  0.00     0.060 A 
BRANCH  95  96
ATOM     96  S   UNL     1     -14.894  26.149   5.279  1.00  0.00     0.124 S 
ATOM     97  O   UNL     1     -14.056  26.898   6.211  1.00  0.00    -0.237 OA
ATOM     98  O   UNL     1     -14.888  26.625   3.899  1.00  0.00    -0.237 OA
ATOM     99  O   UNL     1     -16.200  25.749   5.794  1.00  0.00    -0.744 OA
ENDBRANCH  95  96
ENDBRANCH  63  88
ENDBRANCH  37  38
ENDBRANCH  29  32
ENDBRANCH  27  28
ENDBRANCH  26  27
ENDBRANCH  25  26
ENDBRANCH   1  25
TORSDOF 21
