REMARK SMILES C[C@@H](C(=O)NCCCCNC(=O)c1ccc(-c2c3nc(c(-c4c(F)cc(S(=O)(=O)[O-])cc4F)c4ccc([nH]4)c(-c4c(F)cc(S(=O)(=O)[O-])cc4F)c4nc(c(-c5c(F)cc(S(=O)(=O)[O-])cc5F)c5ccc2[nH]5)C=C4)C=C3)cc1)c1ccc(OC2CCCC2)cc1F
REMARK SMILES IDX 7 1 6 2 5 3 3 4 4 5 2 7 1 8 79 9 80 10 90 11 81 12 89 13
REMARK SMILES IDX 91 14 82 15 83 16 84 17 85 18 88 19 86 20 87 21 8 22 9 23
REMARK SMILES IDX 10 24 11 25 12 27 13 28 14 29 78 30 15 31 77 32 16 33 17 34
REMARK SMILES IDX 18 35 71 36 19 37 76 38 70 39 72 40 20 41 75 42 69 43 68 44
REMARK SMILES IDX 21 46 55 47 34 48 54 49 35 50 38 51 53 52 73 53 36 54 37 55
REMARK SMILES IDX 52 57 74 58 39 59 22 60 23 61 32 62 24 63 25 64 31 65 33 66
REMARK SMILES IDX 26 67 27 68 28 69 29 70 30 71 56 72 57 73 66 74 58 75 59 76
REMARK SMILES IDX 65 77 67 78 60 79 61 80 62 81 63 82 64 83 40 84 41 85 50 86
REMARK SMILES IDX 42 87 43 88 49 89 51 90 44 91 45 92 46 93 47 94 48 95
REMARK H PARENT 5 6 10 26 72 45 38 56
REMARK Flexibility Score: inf
ROOT
ATOM      1  C   UNL     1       4.189   0.023   1.154  1.00  0.00     0.023 C 
ENDROOT
BRANCH   1   2
ATOM      2  C   UNL     1       3.389  -1.268   1.331  1.00  0.00     0.116 C 
BRANCH   2   3
ATOM      3  N   UNL     1       2.341  -1.091   2.313  1.00  0.00    -0.356 N 
ATOM      4  C   UNL     1       1.016  -0.823   2.134  1.00  0.00     0.227 C 
ATOM      5  O   UNL     1       0.359  -0.547   3.141  1.00  0.00    -0.274 OA
ATOM      6  H   UNL     1       2.627  -1.178   3.251  1.00  0.00     0.163 HD
BRANCH   4   7
ATOM      7  C   UNL     1       0.397  -0.900   0.730  1.00  0.00     0.108 C 
ATOM      8  C   UNL     1       0.812   0.278  -0.157  1.00  0.00     0.023 C 
BRANCH   7   9
ATOM      9  C   UNL     1      -1.116  -1.036   0.821  1.00  0.00     0.000 A 
ATOM     10  C   UNL     1      -1.972   0.071   0.882  1.00  0.00     0.011 A 
ATOM     11  C   UNL     1      -1.683  -2.307   0.924  1.00  0.00     0.130 A 
ATOM     12  C   UNL     1      -3.353  -0.111   0.989  1.00  0.00     0.047 A 
ATOM     13  C   UNL     1      -3.059  -2.490   1.044  1.00  0.00     0.086 A 
ATOM     14  F   UNL     1      -0.896  -3.393   0.902  1.00  0.00    -0.207 F 
ATOM     15  C   UNL     1      -3.910  -1.391   1.049  1.00  0.00     0.122 A 
BRANCH  15  16
ATOM     16  O   UNL     1      -5.269  -1.401   1.123  1.00  0.00    -0.490 OA
BRANCH  16  17
ATOM     17  C   UNL     1      -6.044  -2.578   0.948  1.00  0.00     0.173 C 
ATOM     18  C   UNL     1      -5.821  -3.373  -0.334  1.00  0.00     0.045 C 
ATOM     19  C   UNL     1      -5.994  -3.575   2.101  1.00  0.00     0.045 C 
ATOM     20  C   UNL     1      -6.452  -4.721  -0.030  1.00  0.00     0.004 C 
ATOM     21  C   UNL     1      -6.298  -4.935   1.476  1.00  0.00     0.004 C 
ENDBRANCH  16  17
ENDBRANCH  15  16
ENDBRANCH   7   9
ENDBRANCH   4   7
ENDBRANCH   2   3
ENDBRANCH   1   2
BRANCH   1  22
ATOM     22  C   UNL     1       4.972   0.460   2.395  1.00  0.00     0.023 C 
BRANCH  22  23
ATOM     23  C   UNL     1       5.959  -0.570   2.932  1.00  0.00     0.116 C 
BRANCH  23  24
ATOM     24  N   UNL     1       6.944  -0.973   1.941  1.00  0.00    -0.352 N 
ATOM     25  C   UNL     1       8.295  -1.160   2.096  1.00  0.00     0.251 C 
ATOM     26  H   UNL     1       6.594  -1.134   1.035  1.00  0.00     0.163 HD
ATOM     27  O   UNL     1       9.001  -1.363   1.112  1.00  0.00    -0.269 OA
BRANCH  25  28
ATOM     28  C   UNL     1       8.896  -1.083   3.444  1.00  0.00     0.039 A 
ATOM     29  C   UNL     1      10.058  -0.330   3.622  1.00  0.00     0.014 A 
ATOM     30  C   UNL     1       8.306  -1.736   4.531  1.00  0.00     0.014 A 
ATOM     31  C   UNL     1      10.595  -0.182   4.902  1.00  0.00     0.010 A 
ATOM     32  C   UNL     1       8.801  -1.528   5.815  1.00  0.00     0.010 A 
ATOM     33  C   UNL     1       9.952  -0.751   6.014  1.00  0.00    -0.014 A 
BRANCH  33  34
ATOM     34  C   UNL     1      10.467  -0.541   7.391  1.00  0.00     0.031 A 
ATOM     35  C   UNL     1      10.958  -1.709   8.202  1.00  0.00     0.074 A 
ATOM     36  C   UNL     1      10.433   0.693   7.933  1.00  0.00     0.049 A 
ATOM     37  N   UNL     1      11.385  -1.734   9.438  1.00  0.00    -0.248 NA
ATOM     38  C   UNL     1      10.941  -3.027   7.546  1.00  0.00     0.031 C 
ATOM     39  C   UNL     1       9.928   1.896   7.266  1.00  0.00     0.029 A 
ATOM     40  N   UNL     1      10.819   1.140   9.172  1.00  0.00    -0.354 N 
ATOM     41  C   UNL     1      11.673  -3.066   9.713  1.00  0.00     0.074 A 
ATOM     42  C   UNL     1      11.323  -3.826   8.532  1.00  0.00     0.031 C 
ATOM     43  C   UNL     1      10.053   2.945   8.096  1.00  0.00     0.029 A 
ATOM     44  C   UNL     1      10.613   2.486   9.363  1.00  0.00     0.049 A 
ATOM     45  H   UNL     1      11.207   0.551   9.859  1.00  0.00     0.167 HD
ATOM     46  C   UNL     1      12.202  -3.603  10.838  1.00  0.00     0.037 A 
ATOM     47  C   UNL     1      10.842   3.262  10.441  1.00  0.00     0.037 A 
ATOM     48  C   UNL     1      12.573  -2.837  11.999  1.00  0.00     0.049 A 
ATOM     49  C   UNL     1      11.442   2.644  11.674  1.00  0.00     0.074 A 
ATOM     50  C   UNL     1      13.176  -3.279  13.164  1.00  0.00     0.029 A 
ATOM     51  N   UNL     1      12.377  -1.471  12.144  1.00  0.00    -0.354 N 
ATOM     52  N   UNL     1      11.772   1.393  11.892  1.00  0.00    -0.248 NA
ATOM     53  C   UNL     1      11.711   3.543  12.805  1.00  0.00     0.031 C 
ATOM     54  C   UNL     1      13.304  -2.188  14.030  1.00  0.00     0.029 A 
ATOM     55  C   UNL     1      12.829  -1.057  13.386  1.00  0.00     0.049 A 
ATOM     56  H   UNL     1      11.976  -0.883  11.464  1.00  0.00     0.167 HD
ATOM     57  C   UNL     1      12.310   1.360  13.174  1.00  0.00     0.074 A 
ATOM     58  C   UNL     1      12.274   2.718  13.677  1.00  0.00     0.031 C 
ATOM     59  C   UNL     1      12.792   0.301  13.870  1.00  0.00     0.037 A 
BRANCH  46  60
ATOM     60  C   UNL     1      12.417  -5.092  10.867  1.00  0.00     0.058 A 
ATOM     61  C   UNL     1      13.410  -5.709  10.088  1.00  0.00     0.135 A 
ATOM     62  C   UNL     1      11.650  -5.909  11.713  1.00  0.00     0.135 A 
ATOM     63  F   UNL     1      14.162  -4.978   9.249  1.00  0.00    -0.206 F 
ATOM     64  C   UNL     1      13.616  -7.084  10.125  1.00  0.00     0.059 A 
ATOM     65  C   UNL     1      11.858  -7.284  11.789  1.00  0.00     0.059 A 
ATOM     66  F   UNL     1      10.687  -5.373  12.480  1.00  0.00    -0.206 F 
ATOM     67  C   UNL     1      12.835  -7.863  10.980  1.00  0.00     0.060 A 
BRANCH  67  68
ATOM     68  S   UNL     1      13.122  -9.645  11.024  1.00  0.00     0.124 S 
ATOM     69  O   UNL     1      12.552 -10.063   9.747  1.00  0.00    -0.237 OA
ATOM     70  O   UNL     1      14.576  -9.724  11.125  1.00  0.00    -0.237 OA
ATOM     71  O   UNL     1      12.390 -10.079  12.210  1.00  0.00    -0.744 OA
ENDBRANCH  67  68
ENDBRANCH  46  60
BRANCH  47  72
ATOM     72  C   UNL     1      10.523   4.714  10.390  1.00  0.00     0.058 A 
ATOM     73  C   UNL     1      11.542   5.677  10.355  1.00  0.00     0.135 A 
ATOM     74  C   UNL     1       9.194   5.167  10.358  1.00  0.00     0.135 A 
ATOM     75  F   UNL     1      12.827   5.294  10.390  1.00  0.00    -0.206 F 
ATOM     76  C   UNL     1      11.258   7.038  10.306  1.00  0.00     0.059 A 
ATOM     77  C   UNL     1       8.885   6.521  10.283  1.00  0.00     0.059 A 
ATOM     78  F   UNL     1       8.182   4.285  10.371  1.00  0.00    -0.206 F 
ATOM     79  C   UNL     1       9.925   7.450  10.267  1.00  0.00     0.060 A 
BRANCH  79  80
ATOM     80  S   UNL     1       9.568   9.217  10.151  1.00  0.00     0.124 S 
ATOM     81  O   UNL     1       9.889   9.671  11.499  1.00  0.00    -0.237 OA
ATOM     82  O   UNL     1      10.484   9.646   9.098  1.00  0.00    -0.237 OA
ATOM     83  O   UNL     1       8.154   9.250   9.792  1.00  0.00    -0.744 OA
ENDBRANCH  79  80
ENDBRANCH  47  72
BRANCH  59  84
ATOM     84  C   UNL     1      13.353   0.570  15.240  1.00  0.00     0.058 A 
ATOM     85  C   UNL     1      12.524   0.874  16.331  1.00  0.00     0.135 A 
ATOM     86  C   UNL     1      14.734   0.471  15.473  1.00  0.00     0.135 A 
ATOM     87  F   UNL     1      11.197   0.986  16.161  1.00  0.00    -0.206 F 
ATOM     88  C   UNL     1      13.048   1.097  17.600  1.00  0.00     0.059 A 
ATOM     89  C   UNL     1      15.277   0.662  16.739  1.00  0.00     0.059 A 
ATOM     90  F   UNL     1      15.570   0.172  14.466  1.00  0.00    -0.206 F 
ATOM     91  C   UNL     1      14.426   0.987  17.795  1.00  0.00     0.060 A 
BRANCH  91  92
ATOM     92  S   UNL     1      15.090   1.248  19.453  1.00  0.00     0.124 S 
ATOM     93  O   UNL     1      14.989   2.697  19.585  1.00  0.00    -0.237 OA
ATOM     94  O   UNL     1      14.175   0.470  20.283  1.00  0.00    -0.237 OA
ATOM     95  O   UNL     1      16.448   0.719  19.363  1.00  0.00    -0.744 OA
ENDBRANCH  91  92
ENDBRANCH  59  84
ENDBRANCH  33  34
ENDBRANCH  25  28
ENDBRANCH  23  24
ENDBRANCH  22  23
ENDBRANCH   1  22
TORSDOF 17
