REMARK SMILES CCCc1c(C(=O)NCCCCNC(=O)c2ccc(-c3c4nc(c(-c5c(F)cc(S(=O)(=O)[O-])cc5F)c5ccc([nH]5)c(-c5c(F)cc(S(=O)(=O)[O-])cc5F)c5nc(c(-c6c(F)cc(S(=O)(=O)[O-])cc6F)c6ccc3[nH]6)C=C5)C=C4)cc2)nnn1[C@@H](C)[C@H](C)O
REMARK SMILES IDX 10 1 9 2 8 3 6 4 7 5 5 7 4 8 84 9 82 10 83 11 3 12 2 13 1 14
REMARK SMILES IDX 85 15 86 16 87 17 88 18 89 19 11 21 12 22 13 23 14 24 15 26
REMARK SMILES IDX 16 27 17 28 81 29 18 30 80 31 19 32 20 33 21 34 74 35 22 36
REMARK SMILES IDX 79 37 73 38 75 39 23 40 78 41 72 42 71 43 24 45 58 46 37 47
REMARK SMILES IDX 57 48 38 49 41 50 56 51 76 52 39 53 40 54 55 56 77 57 42 58
REMARK SMILES IDX 25 59 26 60 35 61 27 62 28 63 34 64 36 65 29 66 30 67 31 68
REMARK SMILES IDX 32 69 33 70 59 71 60 72 69 73 61 74 62 75 68 76 70 77 63 78
REMARK SMILES IDX 64 79 65 80 66 81 67 82 43 83 44 84 53 85 45 86 46 87 52 88
REMARK SMILES IDX 54 89 47 90 48 91 49 92 50 93 51 94
REMARK H PARENT 8 6 89 20 13 25 75 44 41 55
REMARK Flexibility Score: inf
ROOT
ATOM      1  C   UNL     1      -1.703   5.150   2.521  1.00  0.00     0.023 C 
ENDROOT
BRANCH   1   2
ATOM      2  C   UNL     1      -3.171   4.699   2.449  1.00  0.00     0.116 C 
BRANCH   2   3
ATOM      3  N   UNL     1      -4.024   5.643   1.758  1.00  0.00    -0.351 N 
ATOM      4  C   UNL     1      -4.590   5.715   0.505  1.00  0.00     0.273 C 
ATOM      5  O   UNL     1      -5.422   6.623   0.393  1.00  0.00    -0.267 OA
ATOM      6  H   UNL     1      -4.254   6.419   2.318  1.00  0.00     0.163 HD
BRANCH   4   7
ATOM      7  C   UNL     1      -4.287   4.853  -0.653  1.00  0.00     0.173 A 
ATOM      8  C   UNL     1      -3.182   4.120  -1.099  1.00  0.00     0.072 A 
ATOM      9  N   UNL     1      -3.590   3.601  -2.314  1.00  0.00    -0.243 N 
ATOM     10  N   UNL     1      -5.221   4.839  -1.678  1.00  0.00    -0.125 NA
ATOM     11  N   UNL     1      -4.767   4.118  -2.682  1.00  0.00    -0.066 NA
BRANCH   8  12
ATOM     12  C   UNL     1      -1.812   3.910  -0.580  1.00  0.00     0.058 C 
BRANCH  12  13
ATOM     13  C   UNL     1      -0.842   5.068  -0.857  1.00  0.00     0.003 C 
ATOM     14  C   UNL     1      -1.415   6.482  -0.873  1.00  0.00     0.004 C 
ENDBRANCH  12  13
ENDBRANCH   8  12
BRANCH   9  15
ATOM     15  C   UNL     1      -2.945   2.629  -3.189  1.00  0.00     0.135 C 
ATOM     16  C   UNL     1      -3.970   1.673  -3.826  1.00  0.00     0.036 C 
BRANCH  15  17
ATOM     17  C   UNL     1      -2.019   3.229  -4.290  1.00  0.00     0.135 C 
ATOM     18  C   UNL     1      -0.529   3.183  -3.944  1.00  0.00     0.040 C 
BRANCH  17  19
ATOM     19  O   UNL     1      -2.346   4.550  -4.716  1.00  0.00    -0.391 OA
ATOM     20  H   UNL     1      -2.180   5.174  -3.992  1.00  0.00     0.211 HD
ENDBRANCH  17  19
ENDBRANCH  15  17
ENDBRANCH   9  15
ENDBRANCH   4   7
ENDBRANCH   2   3
ENDBRANCH   1   2
BRANCH   1  21
ATOM     21  C   UNL     1      -1.324   6.299   3.462  1.00  0.00     0.023 C 
BRANCH  21  22
ATOM     22  C   UNL     1      -1.057   5.890   4.905  1.00  0.00     0.116 C 
BRANCH  22  23
ATOM     23  N   UNL     1       0.009   4.877   5.035  1.00  0.00    -0.352 N 
ATOM     24  C   UNL     1       0.182   3.889   6.004  1.00  0.00     0.251 C 
ATOM     25  H   UNL     1       0.700   4.903   4.335  1.00  0.00     0.163 HD
ATOM     26  O   UNL     1       1.254   3.351   6.184  1.00  0.00    -0.269 OA
BRANCH  24  27
ATOM     27  C   UNL     1      -1.011   3.490   6.772  1.00  0.00     0.039 A 
ATOM     28  C   UNL     1      -1.032   3.315   8.159  1.00  0.00     0.014 A 
ATOM     29  C   UNL     1      -2.174   3.457   6.025  1.00  0.00     0.014 A 
ATOM     30  C   UNL     1      -2.273   3.193   8.783  1.00  0.00     0.010 A 
ATOM     31  C   UNL     1      -3.339   3.711   6.668  1.00  0.00     0.010 A 
ATOM     32  C   UNL     1      -3.423   3.416   8.015  1.00  0.00    -0.014 A 
BRANCH  32  33
ATOM     33  C   UNL     1      -4.775   3.426   8.533  1.00  0.00     0.031 A 
ATOM     34  C   UNL     1      -5.029   4.453   9.564  1.00  0.00     0.074 A 
ATOM     35  C   UNL     1      -5.769   2.766   7.896  1.00  0.00     0.049 A 
ATOM     36  N   UNL     1      -5.074   4.268  10.839  1.00  0.00    -0.248 NA
ATOM     37  C   UNL     1      -5.020   5.870   9.170  1.00  0.00     0.031 C 
ATOM     38  C   UNL     1      -5.731   1.995   6.643  1.00  0.00     0.029 A 
ATOM     39  N   UNL     1      -7.084   2.736   8.215  1.00  0.00    -0.354 N 
ATOM     40  C   UNL     1      -5.373   5.508  11.388  1.00  0.00     0.074 A 
ATOM     41  C   UNL     1      -5.062   6.470  10.364  1.00  0.00     0.031 C 
ATOM     42  C   UNL     1      -6.990   1.762   6.210  1.00  0.00     0.029 A 
ATOM     43  C   UNL     1      -7.915   2.210   7.231  1.00  0.00     0.049 A 
ATOM     44  H   UNL     1      -7.426   3.062   9.079  1.00  0.00     0.167 HD
ATOM     45  C   UNL     1      -6.097   5.607  12.539  1.00  0.00     0.037 A 
ATOM     46  C   UNL     1      -9.271   2.184   7.275  1.00  0.00     0.037 A 
ATOM     47  C   UNL     1      -6.274   4.298  13.133  1.00  0.00     0.049 A 
ATOM     48  C   UNL     1      -9.636   2.301   8.721  1.00  0.00     0.074 A 
ATOM     49  C   UNL     1      -5.408   3.328  13.600  1.00  0.00     0.029 A 
ATOM     50  N   UNL     1      -7.468   3.651  12.893  1.00  0.00    -0.354 N 
ATOM     51  N   UNL     1      -9.330   1.390   9.612  1.00  0.00    -0.248 NA
ATOM     52  C   UNL     1      -9.850   3.638   9.260  1.00  0.00     0.031 C 
ATOM     53  C   UNL     1      -5.959   2.093  13.143  1.00  0.00     0.029 A 
ATOM     54  C   UNL     1      -7.177   2.362  12.515  1.00  0.00     0.049 A 
ATOM     55  H   UNL     1      -8.367   4.042  12.977  1.00  0.00     0.167 HD
ATOM     56  C   UNL     1      -8.903   2.099  10.730  1.00  0.00     0.074 A 
ATOM     57  C   UNL     1      -9.314   3.481  10.475  1.00  0.00     0.031 C 
ATOM     58  C   UNL     1      -7.990   1.574  11.605  1.00  0.00     0.037 A 
BRANCH  45  59
ATOM     59  C   UNL     1      -6.946   6.785  12.955  1.00  0.00     0.058 A 
ATOM     60  C   UNL     1      -7.504   6.793  14.252  1.00  0.00     0.135 A 
ATOM     61  C   UNL     1      -7.438   7.777  12.080  1.00  0.00     0.135 A 
ATOM     62  F   UNL     1      -7.102   5.906  15.177  1.00  0.00    -0.206 F 
ATOM     63  C   UNL     1      -8.533   7.659  14.620  1.00  0.00     0.059 A 
ATOM     64  C   UNL     1      -8.425   8.687  12.444  1.00  0.00     0.059 A 
ATOM     65  F   UNL     1      -7.060   7.860  10.800  1.00  0.00    -0.206 F 
ATOM     66  C   UNL     1      -8.999   8.591  13.700  1.00  0.00     0.060 A 
BRANCH  66  67
ATOM     67  S   UNL     1     -10.399   9.634  14.135  1.00  0.00     0.124 S 
ATOM     68  O   UNL     1     -11.480   8.657  14.194  1.00  0.00    -0.237 OA
ATOM     69  O   UNL     1      -9.972  10.195  15.412  1.00  0.00    -0.237 OA
ATOM     70  O   UNL     1     -10.466  10.585  13.029  1.00  0.00    -0.744 OA
ENDBRANCH  66  67
ENDBRANCH  45  59
BRANCH  46  71
ATOM     71  C   UNL     1     -10.207   2.485   6.154  1.00  0.00     0.058 A 
ATOM     72  C   UNL     1     -11.597   2.333   6.308  1.00  0.00     0.135 A 
ATOM     73  C   UNL     1      -9.790   3.191   5.004  1.00  0.00     0.135 A 
ATOM     74  F   UNL     1     -12.089   1.678   7.370  1.00  0.00    -0.206 F 
ATOM     75  C   UNL     1     -12.516   2.912   5.422  1.00  0.00     0.059 A 
ATOM     76  C   UNL     1     -10.685   3.766   4.103  1.00  0.00     0.059 A 
ATOM     77  F   UNL     1      -8.492   3.429   4.766  1.00  0.00    -0.206 F 
ATOM     78  C   UNL     1     -12.049   3.653   4.337  1.00  0.00     0.060 A 
BRANCH  78  79
ATOM     79  S   UNL     1     -13.218   4.592   3.324  1.00  0.00     0.124 S 
ATOM     80  O   UNL     1     -13.889   3.533   2.578  1.00  0.00    -0.237 OA
ATOM     81  O   UNL     1     -14.024   5.270   4.334  1.00  0.00    -0.237 OA
ATOM     82  O   UNL     1     -12.355   5.465   2.534  1.00  0.00    -0.744 OA
ENDBRANCH  78  79
ENDBRANCH  46  71
BRANCH  58  83
ATOM     83  C   UNL     1      -7.625   0.110  11.481  1.00  0.00     0.058 A 
ATOM     84  C   UNL     1      -6.980  -0.462  10.368  1.00  0.00     0.135 A 
ATOM     85  C   UNL     1      -7.769  -0.709  12.610  1.00  0.00     0.135 A 
ATOM     86  F   UNL     1      -6.699   0.269   9.284  1.00  0.00    -0.206 F 
ATOM     87  C   UNL     1      -6.537  -1.787  10.361  1.00  0.00     0.059 A 
ATOM     88  C   UNL     1      -7.308  -2.025  12.639  1.00  0.00     0.059 A 
ATOM     89  F   UNL     1      -8.313  -0.213  13.733  1.00  0.00    -0.206 F 
ATOM     90  C   UNL     1      -6.705  -2.563  11.505  1.00  0.00     0.060 A 
BRANCH  90  91
ATOM     91  S   UNL     1      -6.075  -4.255  11.520  1.00  0.00     0.124 S 
ATOM     92  O   UNL     1      -7.005  -4.936  10.625  1.00  0.00    -0.237 OA
ATOM     93  O   UNL     1      -4.714  -4.093  11.015  1.00  0.00    -0.237 OA
ATOM     94  O   UNL     1      -6.167  -4.641  12.926  1.00  0.00    -0.744 OA
ENDBRANCH  90  91
ENDBRANCH  58  83
ENDBRANCH  32  33
ENDBRANCH  24  27
ENDBRANCH  22  23
ENDBRANCH  21  22
ENDBRANCH   1  21
TORSDOF 19
