REMARK SMILES O=C(Cn1cccc1C(=O)NCCCCNC(=O)c1ccc(-c2c3nc(c(-c4c(F)cc(S(=O)(=O)[O-])cc4F)c4ccc([nH]4)c(-c4c(F)cc(S(=O)(=O)[O-])cc4F)c4nc(c(-c5c(F)cc(S(=O)(=O)[O-])cc5F)c5ccc2[nH]5)C=C4)C=C3)cc1)NCC1CCCC1
REMARK SMILES IDX 13 1 12 2 11 3 9 4 10 5 8 7 4 8 5 9 6 10 7 11 3 12 2 13 1 14
REMARK SMILES IDX 85 15 86 17 87 18 88 19 91 20 89 21 90 22 14 23 15 24 16 25
REMARK SMILES IDX 17 26 18 28 19 29 20 30 84 31 21 32 83 33 22 34 23 35 24 36
REMARK SMILES IDX 77 37 25 38 82 39 76 40 78 41 26 42 81 43 75 44 74 45 27 47
REMARK SMILES IDX 61 48 40 49 60 50 41 51 44 52 59 53 79 54 42 55 43 56 58 58
REMARK SMILES IDX 80 59 45 60 28 61 29 62 38 63 30 64 31 65 37 66 39 67 32 68
REMARK SMILES IDX 33 69 34 70 35 71 36 72 62 73 63 74 72 75 64 76 65 77 71 78
REMARK SMILES IDX 73 79 66 80 67 81 68 82 69 83 70 84 46 85 47 86 56 87 48 88
REMARK SMILES IDX 49 89 55 90 57 91 50 92 51 93 52 94 53 95 54 96
REMARK H PARENT 11 6 85 16 16 27 78 46 44 57
REMARK Flexibility Score: inf
ROOT
ATOM      1  C   UNL     1       4.664  -2.208  -2.861  1.00  0.00     0.023 C 
ENDROOT
BRANCH   1   2
ATOM      2  C   UNL     1       4.268  -1.208  -1.774  1.00  0.00     0.116 C 
BRANCH   2   3
ATOM      3  N   UNL     1       5.278  -0.906  -0.795  1.00  0.00    -0.351 N 
ATOM      4  C   UNL     1       5.619   0.262  -0.164  1.00  0.00     0.267 C 
ATOM      5  O   UNL     1       6.583   0.170   0.600  1.00  0.00    -0.268 OA
ATOM      6  H   UNL     1       5.824  -1.681  -0.529  1.00  0.00     0.163 HD
BRANCH   4   7
ATOM      7  C   UNL     1       4.974   1.558  -0.384  1.00  0.00     0.107 A 
ATOM      8  N   UNL     1       3.665   1.955  -0.641  1.00  0.00    -0.334 N 
ATOM      9  C   UNL     1       3.618   3.337  -0.754  1.00  0.00     0.087 A 
ATOM     10  C   UNL     1       4.842   3.854  -0.430  1.00  0.00     0.020 A 
ATOM     11  C   UNL     1       5.676   2.753  -0.180  1.00  0.00     0.033 A 
BRANCH   8  12
ATOM     12  C   UNL     1       2.427   1.193  -0.758  1.00  0.00     0.222 C 
BRANCH  12  13
ATOM     13  C   UNL     1       1.957   0.366   0.413  1.00  0.00     0.239 C 
ATOM     14  O   UNL     1       0.883  -0.234   0.325  1.00  0.00    -0.273 OA
ATOM     15  N   UNL     1       2.711   0.359   1.555  1.00  0.00    -0.354 N 
ATOM     16  H   UNL     1       3.639   0.684   1.515  1.00  0.00     0.163 HD
BRANCH  15  17
ATOM     17  C   UNL     1       2.189  -0.112   2.815  1.00  0.00     0.119 C 
BRANCH  17  18
ATOM     18  C   UNL     1       2.689  -1.465   3.285  1.00  0.00     0.008 C 
ATOM     19  C   UNL     1       1.594  -2.524   3.300  1.00  0.00     0.005 C 
ATOM     20  C   UNL     1       3.794  -2.183   2.514  1.00  0.00     0.005 C 
ATOM     21  C   UNL     1       2.376  -3.733   3.768  1.00  0.00     0.000 C 
ATOM     22  C   UNL     1       3.746  -3.609   3.079  1.00  0.00     0.000 C 
ENDBRANCH  17  18
ENDBRANCH  15  17
ENDBRANCH  12  13
ENDBRANCH   8  12
ENDBRANCH   4   7
ENDBRANCH   2   3
ENDBRANCH   1   2
BRANCH   1  23
ATOM     23  C   UNL     1       5.034  -3.636  -2.447  1.00  0.00     0.023 C 
BRANCH  23  24
ATOM     24  C   UNL     1       3.985  -4.403  -1.639  1.00  0.00     0.116 C 
BRANCH  24  25
ATOM     25  N   UNL     1       2.795  -4.774  -2.396  1.00  0.00    -0.352 N 
ATOM     26  C   UNL     1       1.809  -5.716  -2.120  1.00  0.00     0.251 C 
ATOM     27  H   UNL     1       2.669  -4.279  -3.237  1.00  0.00     0.163 HD
ATOM     28  O   UNL     1       1.025  -6.020  -3.004  1.00  0.00    -0.269 OA
BRANCH  26  29
ATOM     29  C   UNL     1       1.691  -6.367  -0.780  1.00  0.00     0.039 A 
ATOM     30  C   UNL     1       1.141  -7.659  -0.645  1.00  0.00     0.014 A 
ATOM     31  C   UNL     1       2.069  -5.696   0.367  1.00  0.00     0.014 A 
ATOM     32  C   UNL     1       1.050  -8.285   0.618  1.00  0.00     0.010 A 
ATOM     33  C   UNL     1       2.040  -6.348   1.587  1.00  0.00     0.010 A 
ATOM     34  C   UNL     1       1.532  -7.628   1.748  1.00  0.00    -0.014 A 
BRANCH  34  35
ATOM     35  C   UNL     1       1.662  -8.215   3.113  1.00  0.00     0.031 A 
ATOM     36  C   UNL     1       3.062  -8.810   3.369  1.00  0.00     0.074 A 
ATOM     37  C   UNL     1       0.614  -8.067   3.988  1.00  0.00     0.049 A 
ATOM     38  N   UNL     1       3.405  -9.847   4.069  1.00  0.00    -0.248 NA
ATOM     39  C   UNL     1       4.247  -8.227   2.677  1.00  0.00     0.031 C 
ATOM     40  C   UNL     1      -0.621  -7.311   3.684  1.00  0.00     0.029 A 
ATOM     41  N   UNL     1       0.364  -8.467   5.294  1.00  0.00    -0.354 N 
ATOM     42  C   UNL     1       4.817  -9.946   4.030  1.00  0.00     0.074 A 
ATOM     43  C   UNL     1       5.262  -9.009   3.049  1.00  0.00     0.031 C 
ATOM     44  C   UNL     1      -1.503  -7.386   4.705  1.00  0.00     0.029 A 
ATOM     45  C   UNL     1      -0.947  -8.184   5.782  1.00  0.00     0.049 A 
ATOM     46  H   UNL     1       1.045  -8.916   5.845  1.00  0.00     0.167 HD
ATOM     47  C   UNL     1       5.550 -10.681   4.918  1.00  0.00     0.037 A 
ATOM     48  C   UNL     1      -1.564  -8.599   6.939  1.00  0.00     0.037 A 
ATOM     49  C   UNL     1       4.684 -11.227   5.907  1.00  0.00     0.049 A 
ATOM     50  C   UNL     1      -0.524  -9.286   7.715  1.00  0.00     0.074 A 
ATOM     51  C   UNL     1       3.723 -12.201   5.861  1.00  0.00     0.029 A 
ATOM     52  N   UNL     1       4.516 -10.470   7.043  1.00  0.00    -0.354 N 
ATOM     53  N   UNL     1       0.424  -8.696   8.376  1.00  0.00    -0.248 NA
ATOM     54  C   UNL     1      -0.508 -10.756   7.716  1.00  0.00     0.031 C 
ATOM     55  C   UNL     1       2.725 -11.709   6.723  1.00  0.00     0.029 A 
ATOM     56  C   UNL     1       3.204 -10.590   7.418  1.00  0.00     0.049 A 
ATOM     57  H   UNL     1       5.208  -9.941   7.501  1.00  0.00     0.167 HD
ATOM     58  C   UNL     1       1.319  -9.719   8.570  1.00  0.00     0.074 A 
ATOM     59  C   UNL     1       0.574 -10.954   8.463  1.00  0.00     0.031 C 
ATOM     60  C   UNL     1       2.612  -9.531   8.204  1.00  0.00     0.037 A 
BRANCH  47  61
ATOM     61  C   UNL     1       7.026 -10.784   5.201  1.00  0.00     0.058 A 
ATOM     62  C   UNL     1       7.480 -11.931   5.902  1.00  0.00     0.135 A 
ATOM     63  C   UNL     1       7.926  -9.712   5.127  1.00  0.00     0.135 A 
ATOM     64  F   UNL     1       6.715 -13.034   5.981  1.00  0.00    -0.206 F 
ATOM     65  C   UNL     1       8.681 -11.960   6.601  1.00  0.00     0.059 A 
ATOM     66  C   UNL     1       9.162  -9.739   5.783  1.00  0.00     0.059 A 
ATOM     67  F   UNL     1       7.602  -8.578   4.493  1.00  0.00    -0.206 F 
ATOM     68  C   UNL     1       9.502 -10.842   6.564  1.00  0.00     0.060 A 
BRANCH  68  69
ATOM     69  S   UNL     1      10.992 -10.840   7.583  1.00  0.00     0.124 S 
ATOM     70  O   UNL     1      10.437 -10.646   8.918  1.00  0.00    -0.237 OA
ATOM     71  O   UNL     1      11.552 -12.162   7.317  1.00  0.00    -0.237 OA
ATOM     72  O   UNL     1      11.763  -9.723   7.046  1.00  0.00    -0.744 OA
ENDBRANCH  68  69
ENDBRANCH  47  61
BRANCH  48  73
ATOM     73  C   UNL     1      -2.964  -8.657   7.544  1.00  0.00     0.058 A 
ATOM     74  C   UNL     1      -4.121  -8.053   7.038  1.00  0.00     0.135 A 
ATOM     75  C   UNL     1      -3.211  -9.503   8.670  1.00  0.00     0.135 A 
ATOM     76  F   UNL     1      -4.049  -7.104   6.097  1.00  0.00    -0.206 F 
ATOM     77  C   UNL     1      -5.415  -8.404   7.481  1.00  0.00     0.059 A 
ATOM     78  C   UNL     1      -4.475  -9.909   9.089  1.00  0.00     0.059 A 
ATOM     79  F   UNL     1      -2.217 -10.012   9.412  1.00  0.00    -0.206 F 
ATOM     80  C   UNL     1      -5.582  -9.383   8.460  1.00  0.00     0.060 A 
BRANCH  80  81
ATOM     81  S   UNL     1      -7.208 -10.079   8.829  1.00  0.00     0.124 S 
ATOM     82  O   UNL     1      -7.704  -9.172   9.857  1.00  0.00    -0.237 OA
ATOM     83  O   UNL     1      -7.883 -10.010   7.537  1.00  0.00    -0.237 OA
ATOM     84  O   UNL     1      -6.892 -11.433   9.281  1.00  0.00    -0.744 OA
ENDBRANCH  80  81
ENDBRANCH  48  73
BRANCH  60  85
ATOM     85  C   UNL     1       3.081  -8.092   8.307  1.00  0.00     0.058 A 
ATOM     86  C   UNL     1       3.075  -7.451   9.560  1.00  0.00     0.135 A 
ATOM     87  C   UNL     1       3.417  -7.287   7.204  1.00  0.00     0.135 A 
ATOM     88  F   UNL     1       2.763  -8.147  10.666  1.00  0.00    -0.206 F 
ATOM     89  C   UNL     1       3.374  -6.094   9.710  1.00  0.00     0.059 A 
ATOM     90  C   UNL     1       3.736  -5.929   7.329  1.00  0.00     0.059 A 
ATOM     91  F   UNL     1       3.425  -7.798   5.969  1.00  0.00    -0.206 F 
ATOM     92  C   UNL     1       3.704  -5.338   8.588  1.00  0.00     0.060 A 
BRANCH  92  93
ATOM     93  S   UNL     1       4.099  -3.585   8.804  1.00  0.00     0.124 S 
ATOM     94  O   UNL     1       2.863  -3.050   9.366  1.00  0.00    -0.237 OA
ATOM     95  O   UNL     1       5.236  -3.638   9.718  1.00  0.00    -0.237 OA
ATOM     96  O   UNL     1       4.410  -3.130   7.450  1.00  0.00    -0.744 OA
ENDBRANCH  92  93
ENDBRANCH  60  85
ENDBRANCH  34  35
ENDBRANCH  26  29
ENDBRANCH  24  25
ENDBRANCH  23  24
ENDBRANCH   1  23
TORSDOF 18
