REMARK SMILES C[C@H]1[C@H](C(=O)NCCCCNC(=O)c2ccc(-c3c4nc(c(-c5c(F)cc(S(=O)(=O)[O-])cc5F)c5ccc([nH]5)c(-c5c(F)cc(S(=O)(=O)[O-])cc5F)c5nc(c(-c6c(F)cc(S(=O)(=O)[O-])cc6F)c6ccc3[nH]6)C=C5)C=C4)cc2)CC[N@@H+]1Cc1ccc(C(F)(F)F)cc1
REMARK SMILES IDX 8 1 7 2 6 3 4 4 5 5 3 7 1 8 2 9 82 10 80 11 81 12 83 14
REMARK SMILES IDX 84 15 85 16 93 17 86 18 92 19 87 20 88 21 89 22 90 23 91 24
REMARK SMILES IDX 9 25 10 26 11 27 12 28 13 30 14 31 15 32 79 33 16 34 78 35
REMARK SMILES IDX 17 36 18 37 19 38 72 39 20 40 77 41 71 42 73 43 21 44 76 45
REMARK SMILES IDX 70 46 69 47 22 49 56 50 35 51 55 52 36 53 39 54 54 55 74 56
REMARK SMILES IDX 37 57 38 58 53 60 75 61 40 62 23 63 24 64 33 65 25 66 26 67
REMARK SMILES IDX 32 68 34 69 27 70 28 71 29 72 30 73 31 74 57 75 58 76 67 77
REMARK SMILES IDX 59 78 60 79 66 80 68 81 61 82 62 83 63 84 64 85 65 86 41 87
REMARK SMILES IDX 42 88 51 89 43 90 44 91 50 92 52 93 45 94 46 95 47 96 48 97
REMARK SMILES IDX 49 98
REMARK H PARENT 6 6 82 13 11 29 73 48 39 59
REMARK Flexibility Score: inf
ROOT
ATOM      1  C   UNL     1       0.713   0.690   4.131  1.00  0.00     0.023 C 
ENDROOT
BRANCH   1   2
ATOM      2  C   UNL     1      -0.327   1.401   3.257  1.00  0.00     0.116 C 
BRANCH   2   3
ATOM      3  N   UNL     1       0.269   2.429   2.434  1.00  0.00    -0.356 N 
ATOM      4  C   UNL     1       0.563   2.455   1.111  1.00  0.00     0.229 C 
ATOM      5  O   UNL     1       1.027   3.516   0.675  1.00  0.00    -0.275 OA
ATOM      6  H   UNL     1       0.502   3.254   2.919  1.00  0.00     0.163 HD
BRANCH   4   7
ATOM      7  C   UNL     1       0.299   1.313   0.133  1.00  0.00     0.142 C 
ATOM      8  C   UNL     1       2.074  -0.448  -0.095  1.00  0.00     0.076 C 
ATOM      9  C   UNL     1       0.696  -0.129   0.498  1.00  0.00     0.193 C 
ATOM     10  N   UNL     1      -0.304  -1.006  -0.155  1.00  0.00    -0.328 N 
ATOM     11  C   UNL     1      -1.141   1.200  -0.337  1.00  0.00     0.081 C 
ATOM     12  C   UNL     1      -1.130  -0.163  -1.014  1.00  0.00     0.263 C 
ATOM     13  H   UNL     1       0.196  -1.685  -0.729  1.00  0.00     0.348 HD
BRANCH  10  14
ATOM     14  C   UNL     1      -1.007  -1.995   0.685  1.00  0.00     0.299 C 
BRANCH  14  15
ATOM     15  C   UNL     1      -2.049  -1.514   1.683  1.00  0.00     0.006 A 
ATOM     16  C   UNL     1      -1.867  -1.714   3.058  1.00  0.00     0.010 A 
ATOM     17  C   UNL     1      -3.233  -0.880   1.277  1.00  0.00     0.010 A 
ATOM     18  C   UNL     1      -2.743  -1.135   3.985  1.00  0.00     0.013 A 
ATOM     19  C   UNL     1      -4.074  -0.251   2.197  1.00  0.00     0.013 A 
ATOM     20  C   UNL     1      -3.804  -0.326   3.564  1.00  0.00     0.056 A 
BRANCH  20  21
ATOM     21  C   UNL     1      -4.568   0.519   4.554  1.00  0.00     0.416 C 
ATOM     22  F   UNL     1      -4.881  -0.136   5.702  1.00  0.00    -0.166 F 
ATOM     23  F   UNL     1      -3.844   1.613   4.935  1.00  0.00    -0.166 F 
ATOM     24  F   UNL     1      -5.740   1.007   4.060  1.00  0.00    -0.166 F 
ENDBRANCH  20  21
ENDBRANCH  14  15
ENDBRANCH  10  14
ENDBRANCH   4   7
ENDBRANCH   2   3
ENDBRANCH   1   2
BRANCH   1  25
ATOM     25  C   UNL     1       0.864   1.255   5.549  1.00  0.00     0.023 C 
BRANCH  25  26
ATOM     26  C   UNL     1      -0.365   1.114   6.450  1.00  0.00     0.116 C 
BRANCH  26  27
ATOM     27  N   UNL     1      -0.790  -0.261   6.658  1.00  0.00    -0.352 N 
ATOM     28  C   UNL     1      -1.645  -0.778   7.612  1.00  0.00     0.251 C 
ATOM     29  H   UNL     1      -0.413  -0.918   6.029  1.00  0.00     0.163 HD
ATOM     30  O   UNL     1      -1.895  -1.972   7.613  1.00  0.00    -0.269 OA
BRANCH  28  31
ATOM     31  C   UNL     1      -2.181   0.104   8.677  1.00  0.00     0.039 A 
ATOM     32  C   UNL     1      -2.057  -0.330  10.000  1.00  0.00     0.014 A 
ATOM     33  C   UNL     1      -2.704   1.368   8.400  1.00  0.00     0.014 A 
ATOM     34  C   UNL     1      -2.316   0.558  11.045  1.00  0.00     0.010 A 
ATOM     35  C   UNL     1      -2.902   2.274   9.439  1.00  0.00     0.010 A 
ATOM     36  C   UNL     1      -2.660   1.890  10.765  1.00  0.00    -0.014 A 
BRANCH  36  37
ATOM     37  C   UNL     1      -2.632   2.917  11.835  1.00  0.00     0.031 A 
ATOM     38  C   UNL     1      -3.884   3.613  12.274  1.00  0.00     0.074 A 
ATOM     39  C   UNL     1      -1.435   3.276  12.343  1.00  0.00     0.049 A 
ATOM     40  N   UNL     1      -4.029   4.556  13.168  1.00  0.00    -0.248 NA
ATOM     41  C   UNL     1      -5.133   3.217  11.606  1.00  0.00     0.031 C 
ATOM     42  C   UNL     1      -0.141   2.720  11.931  1.00  0.00     0.029 A 
ATOM     43  N   UNL     1      -1.104   4.199  13.302  1.00  0.00    -0.354 N 
ATOM     44  C   UNL     1      -5.381   4.870  13.172  1.00  0.00     0.074 A 
ATOM     45  C   UNL     1      -6.007   4.048  12.157  1.00  0.00     0.031 C 
ATOM     46  C   UNL     1       0.836   3.295  12.648  1.00  0.00     0.029 A 
ATOM     47  C   UNL     1       0.247   4.279  13.549  1.00  0.00     0.049 A 
ATOM     48  H   UNL     1      -1.770   4.751  13.771  1.00  0.00     0.167 HD
ATOM     49  C   UNL     1      -6.039   5.752  13.962  1.00  0.00     0.037 A 
ATOM     50  C   UNL     1       0.935   5.057  14.405  1.00  0.00     0.037 A 
ATOM     51  C   UNL     1      -5.405   6.559  14.973  1.00  0.00     0.049 A 
ATOM     52  C   UNL     1       0.178   6.005  15.292  1.00  0.00     0.074 A 
ATOM     53  C   UNL     1      -5.988   7.444  15.863  1.00  0.00     0.029 A 
ATOM     54  N   UNL     1      -4.040   6.582  15.225  1.00  0.00    -0.354 N 
ATOM     55  N   UNL     1      -1.113   6.231  15.338  1.00  0.00    -0.248 NA
ATOM     56  C   UNL     1       0.966   6.793  16.248  1.00  0.00     0.031 C 
ATOM     57  C   UNL     1      -4.973   8.024  16.633  1.00  0.00     0.029 A 
ATOM     58  C   UNL     1      -3.760   7.474  16.247  1.00  0.00     0.049 A 
ATOM     59  H   UNL     1      -3.369   6.043  14.747  1.00  0.00     0.167 HD
ATOM     60  C   UNL     1      -1.296   7.174  16.341  1.00  0.00     0.074 A 
ATOM     61  C   UNL     1       0.016   7.466  16.885  1.00  0.00     0.031 C 
ATOM     62  C   UNL     1      -2.446   7.746  16.774  1.00  0.00     0.037 A 
BRANCH  49  63
ATOM     63  C   UNL     1      -7.524   5.880  13.766  1.00  0.00     0.058 A 
ATOM     64  C   UNL     1      -8.405   4.862  14.168  1.00  0.00     0.135 A 
ATOM     65  C   UNL     1      -8.077   7.034  13.189  1.00  0.00     0.135 A 
ATOM     66  F   UNL     1      -7.928   3.732  14.713  1.00  0.00    -0.206 F 
ATOM     67  C   UNL     1      -9.778   4.969  13.973  1.00  0.00     0.059 A 
ATOM     68  C   UNL     1      -9.450   7.172  13.005  1.00  0.00     0.059 A 
ATOM     69  F   UNL     1      -7.280   8.037  12.788  1.00  0.00    -0.206 F 
ATOM     70  C   UNL     1     -10.291   6.126  13.385  1.00  0.00     0.060 A 
BRANCH  70  71
ATOM     71  S   UNL     1     -12.074   6.247  13.126  1.00  0.00     0.124 S 
ATOM     72  O   UNL     1     -12.257   5.376  11.968  1.00  0.00    -0.237 OA
ATOM     73  O   UNL     1     -12.610   5.744  14.386  1.00  0.00    -0.237 OA
ATOM     74  O   UNL     1     -12.286   7.670  12.881  1.00  0.00    -0.744 OA
ENDBRANCH  70  71
ENDBRANCH  49  63
BRANCH  50  75
ATOM     75  C   UNL     1       2.414   4.939  14.489  1.00  0.00     0.058 A 
ATOM     76  C   UNL     1       3.024   4.315  15.587  1.00  0.00     0.135 A 
ATOM     77  C   UNL     1       3.244   5.416  13.463  1.00  0.00     0.135 A 
ATOM     78  F   UNL     1       2.271   3.844  16.593  1.00  0.00    -0.206 F 
ATOM     79  C   UNL     1       4.405   4.177  15.673  1.00  0.00     0.059 A 
ATOM     80  C   UNL     1       4.627   5.273  13.517  1.00  0.00     0.059 A 
ATOM     81  F   UNL     1       2.707   6.002  12.382  1.00  0.00    -0.206 F 
ATOM     82  C   UNL     1       5.199   4.659  14.630  1.00  0.00     0.060 A 
BRANCH  82  83
ATOM     83  S   UNL     1       6.988   4.423  14.721  1.00  0.00     0.124 S 
ATOM     84  O   UNL     1       7.370   5.449  15.684  1.00  0.00    -0.237 OA
ATOM     85  O   UNL     1       7.095   3.043  15.183  1.00  0.00    -0.237 OA
ATOM     86  O   UNL     1       7.424   4.651  13.347  1.00  0.00    -0.744 OA
ENDBRANCH  82  83
ENDBRANCH  50  75
BRANCH  62  87
ATOM     87  C   UNL     1      -2.337   8.729  17.904  1.00  0.00     0.058 A 
ATOM     88  C   UNL     1      -1.850  10.028  17.701  1.00  0.00     0.135 A 
ATOM     89  C   UNL     1      -2.767   8.379  19.194  1.00  0.00     0.135 A 
ATOM     90  F   UNL     1      -1.419  10.406  16.487  1.00  0.00    -0.206 F 
ATOM     91  C   UNL     1      -1.776  10.945  18.744  1.00  0.00     0.059 A 
ATOM     92  C   UNL     1      -2.721   9.287  20.247  1.00  0.00     0.059 A 
ATOM     93  F   UNL     1      -3.247   7.149  19.437  1.00  0.00    -0.206 F 
ATOM     94  C   UNL     1      -2.214  10.565  20.014  1.00  0.00     0.060 A 
BRANCH  94  95
ATOM     95  S   UNL     1      -2.149  11.774  21.353  1.00  0.00     0.124 S 
ATOM     96  O   UNL     1      -0.732  11.751  21.700  1.00  0.00    -0.237 OA
ATOM     97  O   UNL     1      -2.623  12.991  20.703  1.00  0.00    -0.237 OA
ATOM     98  O   UNL     1      -3.052  11.216  22.356  1.00  0.00    -0.744 OA
ENDBRANCH  94  95
ENDBRANCH  62  87
ENDBRANCH  36  37
ENDBRANCH  28  31
ENDBRANCH  26  27
ENDBRANCH  25  26
ENDBRANCH   1  25
TORSDOF 17
