REMARK SMILES C[C@@H](SCCC(=O)NCCCCNC(=O)c1ccc(-c2c3nc(c(-c4c(F)cc(S(=O)(=O)[O-])cc4F)c4ccc([nH]4)c(-c4c(F)cc(S(=O)(=O)[O-])cc4F)c4nc(c(-c5c(F)cc(S(=O)(=O)[O-])cc5F)c5ccc2[nH]5)C=C4)C=C3)cc1)C(=O)Nc1ccc(C(N)=O)cc1
REMARK SMILES IDX 9 1 8 2 6 3 7 4 5 6 4 7 3 8 2 9 1 10 82 11 83 12 84 13 85 15
REMARK SMILES IDX 86 16 93 17 87 18 92 19 88 20 89 21 90 22 91 23 10 26 11 27
REMARK SMILES IDX 12 28 13 29 14 30 15 32 16 33 17 34 81 35 18 36 80 37 19 38
REMARK SMILES IDX 20 39 21 40 74 41 22 42 79 43 73 44 75 45 23 46 78 47 72 48
REMARK SMILES IDX 71 49 24 51 58 52 37 53 57 54 38 55 41 56 56 57 76 58 39 59
REMARK SMILES IDX 40 60 55 62 77 63 42 64 25 65 26 66 35 67 27 68 28 69 34 70
REMARK SMILES IDX 36 71 29 72 30 73 31 74 32 75 33 76 59 77 60 78 69 79 61 80
REMARK SMILES IDX 62 81 68 82 70 83 63 84 64 85 65 86 66 87 67 88 43 89 44 90
REMARK SMILES IDX 53 91 45 92 46 93 52 94 54 95 47 96 48 97 49 98 50 99 51 100
REMARK H PARENT 8 5 84 14 90 24 90 25 13 31 75 50 41 61
REMARK Flexibility Score: inf
ROOT
ATOM      1  C   UNL     1       1.103  -4.319  -0.307  1.00  0.00     0.116 C 
ENDROOT
BRANCH   1   2
ATOM      2  N   UNL     1       2.027  -3.339  -0.852  1.00  0.00    -0.356 N 
ATOM      3  C   UNL     1       2.920  -2.516  -0.245  1.00  0.00     0.220 C 
ATOM      4  O   UNL     1       3.571  -1.745  -0.952  1.00  0.00    -0.275 OA
ATOM      5  H   UNL     1       2.000  -3.258  -1.833  1.00  0.00     0.163 HD
BRANCH   3   6
ATOM      6  C   UNL     1       3.135  -2.580   1.250  1.00  0.00     0.111 C 
BRANCH   6   7
ATOM      7  C   UNL     1       3.148  -1.196   1.903  1.00  0.00     0.080 C 
BRANCH   7   8
ATOM      8  S   UNL     1       1.535  -0.651   2.606  1.00  0.00    -0.148 SA
BRANCH   8   9
ATOM      9  C   UNL     1       0.576  -0.352   1.075  1.00  0.00     0.133 C 
ATOM     10  C   UNL     1       1.151   0.731   0.178  1.00  0.00     0.030 C 
BRANCH   9  11
ATOM     11  C   UNL     1      -0.949  -0.342   1.354  1.00  0.00     0.237 C 
ATOM     12  O   UNL     1      -1.568  -1.391   1.577  1.00  0.00    -0.273 OA
ATOM     13  N   UNL     1      -1.685   0.818   1.402  1.00  0.00    -0.325 N 
ATOM     14  H   UNL     1      -2.494   0.925   0.852  1.00  0.00     0.169 HD
BRANCH  13  15
ATOM     15  C   UNL     1      -1.256   1.843   2.252  1.00  0.00     0.041 A 
ATOM     16  C   UNL     1      -1.508   1.698   3.617  1.00  0.00     0.027 A 
ATOM     17  C   UNL     1      -0.455   2.869   1.771  1.00  0.00     0.027 A 
ATOM     18  C   UNL     1      -0.808   2.486   4.523  1.00  0.00     0.016 A 
ATOM     19  C   UNL     1       0.267   3.640   2.676  1.00  0.00     0.016 A 
ATOM     20  C   UNL     1       0.119   3.424   4.051  1.00  0.00     0.039 A 
BRANCH  20  21
ATOM     21  C   UNL     1       1.035   4.139   4.971  1.00  0.00     0.248 C 
ATOM     22  N   UNL     1       0.590   4.362   6.243  1.00  0.00    -0.366 N 
ATOM     23  O   UNL     1       2.140   4.517   4.615  1.00  0.00    -0.270 OA
ATOM     24  H   UNL     1      -0.304   4.050   6.513  1.00  0.00     0.159 HD
ATOM     25  H   UNL     1       1.163   4.833   6.890  1.00  0.00     0.159 HD
ENDBRANCH  20  21
ENDBRANCH  13  15
ENDBRANCH   9  11
ENDBRANCH   8   9
ENDBRANCH   7   8
ENDBRANCH   6   7
ENDBRANCH   3   6
ENDBRANCH   1   2
BRANCH   1  26
ATOM     26  C   UNL     1      -0.278  -3.745   0.011  1.00  0.00     0.023 C 
BRANCH  26  27
ATOM     27  C   UNL     1      -0.828  -2.837  -1.098  1.00  0.00     0.023 C 
BRANCH  27  28
ATOM     28  C   UNL     1      -2.295  -3.045  -1.410  1.00  0.00     0.116 C 
BRANCH  28  29
ATOM     29  N   UNL     1      -3.220  -2.873  -0.307  1.00  0.00    -0.352 N 
ATOM     30  C   UNL     1      -4.580  -2.640  -0.357  1.00  0.00     0.251 C 
ATOM     31  H   UNL     1      -2.827  -2.928   0.594  1.00  0.00     0.163 HD
ATOM     32  O   UNL     1      -5.227  -2.546   0.684  1.00  0.00    -0.269 OA
BRANCH  30  33
ATOM     33  C   UNL     1      -5.247  -2.382  -1.664  1.00  0.00     0.039 A 
ATOM     34  C   UNL     1      -6.233  -1.390  -1.722  1.00  0.00     0.014 A 
ATOM     35  C   UNL     1      -4.853  -3.015  -2.841  1.00  0.00     0.014 A 
ATOM     36  C   UNL     1      -6.727  -0.964  -2.960  1.00  0.00     0.010 A 
ATOM     37  C   UNL     1      -5.235  -2.499  -4.072  1.00  0.00     0.010 A 
ATOM     38  C   UNL     1      -6.181  -1.469  -4.149  1.00  0.00    -0.014 A 
BRANCH  38  39
ATOM     39  C   UNL     1      -6.576  -0.960  -5.487  1.00  0.00     0.031 A 
ATOM     40  C   UNL     1      -7.126  -1.919  -6.512  1.00  0.00     0.074 A 
ATOM     41  C   UNL     1      -6.337   0.327  -5.814  1.00  0.00     0.049 A 
ATOM     42  N   UNL     1      -7.386  -1.718  -7.777  1.00  0.00    -0.248 NA
ATOM     43  C   UNL     1      -7.372  -3.301  -6.066  1.00  0.00     0.031 C 
ATOM     44  C   UNL     1      -5.747   1.333  -4.926  1.00  0.00     0.029 A 
ATOM     45  N   UNL     1      -6.540   1.008  -6.989  1.00  0.00    -0.354 N 
ATOM     46  C   UNL     1      -7.789  -2.950  -8.280  1.00  0.00     0.074 A 
ATOM     47  C   UNL     1      -7.684  -3.905  -7.202  1.00  0.00     0.031 C 
ATOM     48  C   UNL     1      -5.655   2.502  -5.579  1.00  0.00     0.029 A 
ATOM     49  C   UNL     1      -6.129   2.321  -6.947  1.00  0.00     0.049 A 
ATOM     50  H   UNL     1      -6.941   0.595  -7.787  1.00  0.00     0.167 HD
ATOM     51  C   UNL     1      -8.233  -3.250  -9.523  1.00  0.00     0.037 A 
ATOM     52  C   UNL     1      -6.116   3.266  -7.908  1.00  0.00     0.037 A 
ATOM     53  C   UNL     1      -8.382  -2.276 -10.570  1.00  0.00     0.049 A 
ATOM     54  C   UNL     1      -6.630   2.911  -9.278  1.00  0.00     0.074 A 
ATOM     55  C   UNL     1      -8.911  -2.450 -11.835  1.00  0.00     0.029 A 
ATOM     56  N   UNL     1      -7.998  -0.946 -10.474  1.00  0.00    -0.354 N 
ATOM     57  N   UNL     1      -7.093   1.762  -9.711  1.00  0.00    -0.248 NA
ATOM     58  C   UNL     1      -6.623   3.975 -10.291  1.00  0.00     0.031 C 
ATOM     59  C   UNL     1      -8.794  -1.240 -12.525  1.00  0.00     0.029 A 
ATOM     60  C   UNL     1      -8.248  -0.296 -11.669  1.00  0.00     0.049 A 
ATOM     61  H   UNL     1      -7.606  -0.527  -9.674  1.00  0.00     0.167 HD
ATOM     62  C   UNL     1      -7.453   1.972 -11.038  1.00  0.00     0.074 A 
ATOM     63  C   UNL     1      -7.171   3.361 -11.331  1.00  0.00     0.031 C 
ATOM     64  C   UNL     1      -7.969   1.094 -11.934  1.00  0.00     0.037 A 
BRANCH  51  65
ATOM     65  C   UNL     1      -8.595  -4.680  -9.819  1.00  0.00     0.058 A 
ATOM     66  C   UNL     1      -9.713  -5.300  -9.235  1.00  0.00     0.135 A 
ATOM     67  C   UNL     1      -7.841  -5.428 -10.737  1.00  0.00     0.135 A 
ATOM     68  F   UNL     1     -10.461  -4.639  -8.337  1.00  0.00    -0.206 F 
ATOM     69  C   UNL     1     -10.054  -6.615  -9.532  1.00  0.00     0.059 A 
ATOM     70  C   UNL     1      -8.182  -6.735 -11.074  1.00  0.00     0.059 A 
ATOM     71  F   UNL     1      -6.759  -4.889 -11.322  1.00  0.00    -0.206 F 
ATOM     72  C   UNL     1      -9.285  -7.324 -10.456  1.00  0.00     0.060 A 
BRANCH  72  73
ATOM     73  S   UNL     1      -9.758  -9.021 -10.847  1.00  0.00     0.124 S 
ATOM     74  O   UNL     1      -9.401  -9.714  -9.612  1.00  0.00    -0.237 OA
ATOM     75  O   UNL     1     -11.187  -8.892 -11.110  1.00  0.00    -0.237 OA
ATOM     76  O   UNL     1      -8.935  -9.346 -12.007  1.00  0.00    -0.744 OA
ENDBRANCH  72  73
ENDBRANCH  51  65
BRANCH  52  77
ATOM     77  C   UNL     1      -5.602   4.633  -7.612  1.00  0.00     0.058 A 
ATOM     78  C   UNL     1      -6.463   5.740  -7.589  1.00  0.00     0.135 A 
ATOM     79  C   UNL     1      -4.243   4.860  -7.343  1.00  0.00     0.135 A 
ATOM     80  F   UNL     1      -7.770   5.579  -7.844  1.00  0.00    -0.206 F 
ATOM     81  C   UNL     1      -5.994   7.026  -7.333  1.00  0.00     0.059 A 
ATOM     82  C   UNL     1      -3.754   6.131  -7.055  1.00  0.00     0.059 A 
ATOM     83  F   UNL     1      -3.377   3.834  -7.334  1.00  0.00    -0.206 F 
ATOM     84  C   UNL     1      -4.636   7.211  -7.066  1.00  0.00     0.060 A 
BRANCH  84  85
ATOM     85  S   UNL     1      -4.045   8.878  -6.702  1.00  0.00     0.124 S 
ATOM     86  O   UNL     1      -4.133   9.513  -8.012  1.00  0.00    -0.237 OA
ATOM     87  O   UNL     1      -5.009   9.334  -5.706  1.00  0.00    -0.237 OA
ATOM     88  O   UNL     1      -2.693   8.653  -6.199  1.00  0.00    -0.744 OA
ENDBRANCH  84  85
ENDBRANCH  52  77
BRANCH  64  89
ATOM     89  C   UNL     1      -8.290   1.610 -13.308  1.00  0.00     0.058 A 
ATOM     90  C   UNL     1      -7.282   1.909 -14.236  1.00  0.00     0.135 A 
ATOM     91  C   UNL     1      -9.626   1.720 -13.728  1.00  0.00     0.135 A 
ATOM     92  F   UNL     1      -5.990   1.827 -13.881  1.00  0.00    -0.206 F 
ATOM     93  C   UNL     1      -7.587   2.309 -15.533  1.00  0.00     0.059 A 
ATOM     94  C   UNL     1      -9.953   2.088 -15.028  1.00  0.00     0.059 A 
ATOM     95  F   UNL     1     -10.628   1.436 -12.880  1.00  0.00    -0.206 F 
ATOM     96  C   UNL     1      -8.926   2.386 -15.922  1.00  0.00     0.060 A 
BRANCH  96  97
ATOM     97  S   UNL     1      -9.303   2.843 -17.627  1.00  0.00     0.124 S 
ATOM     98  O   UNL     1      -8.955   4.260 -17.635  1.00  0.00    -0.237 OA
ATOM     99  O   UNL     1      -8.415   1.968 -18.386  1.00  0.00    -0.237 OA
ATOM    100  O   UNL     1     -10.726   2.545 -17.752  1.00  0.00    -0.744 OA
ENDBRANCH  96  97
ENDBRANCH  64  89
ENDBRANCH  38  39
ENDBRANCH  30  33
ENDBRANCH  28  29
ENDBRANCH  27  28
ENDBRANCH  26  27
ENDBRANCH   1  26
TORSDOF 20
