REMARK SMILES O=C(NCCCCNC(=O)c1cnc(Nc2ccccc2)nc1)c1ccc(-c2c3nc(c(-c4c(F)cc(S(=O)(=O)[O-])cc4F)c4ccc([nH]4)c(-c4c(F)cc(S(=O)(=O)[O-])cc4F)c4nc(c(-c5c(F)cc(S(=O)(=O)[O-])cc5F)c5ccc2[nH]5)C=C4)C=C3)cc1
REMARK SMILES IDX 5 1 4 2 3 3 1 4 2 5 24 7 25 8 89 9 26 10 88 11 27 12 28 13
REMARK SMILES IDX 29 14 82 15 30 16 87 17 81 18 83 19 31 20 86 21 80 22 79 23
REMARK SMILES IDX 32 25 66 26 45 27 65 28 46 29 49 30 64 31 84 32 47 33 48 34
REMARK SMILES IDX 63 36 85 37 50 38 33 39 34 40 43 41 35 42 36 43 42 44 44 45
REMARK SMILES IDX 37 46 38 47 39 48 40 49 41 50 67 51 68 52 77 53 69 54 70 55
REMARK SMILES IDX 76 56 78 57 71 58 72 59 73 60 74 61 75 62 51 63 52 64 61 65
REMARK SMILES IDX 53 66 54 67 60 68 62 69 55 70 56 71 57 72 58 73 59 74 6 75
REMARK SMILES IDX 7 76 8 77 9 78 10 80 11 81 12 82 23 83 13 84 22 85 14 86
REMARK SMILES IDX 15 87 16 89 17 90 21 91 18 92 20 93 19 94
REMARK H PARENT 3 6 83 24 49 35 8 79 15 88
REMARK Flexibility Score: inf
ROOT
ATOM      1  C   UNL     1       5.077   2.565   0.997  1.00  0.00     0.023 C 
ENDROOT
BRANCH   1   2
ATOM      2  C   UNL     1       4.740   1.093   0.785  1.00  0.00     0.116 C 
BRANCH   2   3
ATOM      3  N   UNL     1       3.310   0.837   0.795  1.00  0.00    -0.352 N 
ATOM      4  O   UNL     1       1.335   0.124  -0.017  1.00  0.00    -0.269 OA
ATOM      5  C   UNL     1       2.559   0.112  -0.098  1.00  0.00     0.251 C 
ATOM      6  H   UNL     1       2.812   1.237   1.544  1.00  0.00     0.163 HD
BRANCH   5   7
ATOM      7  C   UNL     1       3.229  -0.661  -1.167  1.00  0.00     0.039 A 
ATOM      8  C   UNL     1       4.325  -1.480  -0.880  1.00  0.00     0.014 A 
ATOM      9  C   UNL     1       2.734  -0.581  -2.472  1.00  0.00     0.014 A 
ATOM     10  C   UNL     1       4.986  -2.141  -1.911  1.00  0.00     0.010 A 
ATOM     11  C   UNL     1       3.361  -1.293  -3.497  1.00  0.00     0.010 A 
ATOM     12  C   UNL     1       4.501  -2.066  -3.227  1.00  0.00    -0.014 A 
BRANCH  12  13
ATOM     13  C   UNL     1       5.133  -2.884  -4.290  1.00  0.00     0.031 A 
ATOM     14  C   UNL     1       5.884  -2.244  -5.423  1.00  0.00     0.074 A 
ATOM     15  C   UNL     1       5.001  -4.224  -4.230  1.00  0.00     0.049 A 
ATOM     16  N   UNL     1       6.465  -2.815  -6.446  1.00  0.00    -0.248 NA
ATOM     17  C   UNL     1       5.991  -0.776  -5.415  1.00  0.00     0.031 C 
ATOM     18  C   UNL     1       4.266  -4.950  -3.190  1.00  0.00     0.029 A 
ATOM     19  N   UNL     1       5.467  -5.212  -5.057  1.00  0.00    -0.354 N 
ATOM     20  C   UNL     1       6.987  -1.782  -7.215  1.00  0.00     0.074 A 
ATOM     21  C   UNL     1       6.648  -0.545  -6.545  1.00  0.00     0.031 C 
ATOM     22  C   UNL     1       4.338  -6.266  -3.437  1.00  0.00     0.029 A 
ATOM     23  C   UNL     1       5.081  -6.474  -4.674  1.00  0.00     0.049 A 
ATOM     24  H   UNL     1       6.024  -5.035  -5.849  1.00  0.00     0.167 HD
ATOM     25  C   UNL     1       7.688  -1.867  -8.371  1.00  0.00     0.037 A 
ATOM     26  C   UNL     1       5.274  -7.667  -5.268  1.00  0.00     0.037 A 
ATOM     27  C   UNL     1       8.051  -3.106  -9.009  1.00  0.00     0.049 A 
ATOM     28  C   UNL     1       6.041  -7.726  -6.557  1.00  0.00     0.074 A 
ATOM     29  C   UNL     1       8.852  -3.297 -10.122  1.00  0.00     0.029 A 
ATOM     30  N   UNL     1       7.625  -4.361  -8.604  1.00  0.00    -0.354 N 
ATOM     31  N   UNL     1       6.595  -6.744  -7.226  1.00  0.00    -0.248 NA
ATOM     32  C   UNL     1       6.198  -9.047  -7.177  1.00  0.00     0.031 C 
ATOM     33  C   UNL     1       8.875  -4.665 -10.415  1.00  0.00     0.029 A 
ATOM     34  C   UNL     1       8.113  -5.328  -9.467  1.00  0.00     0.049 A 
ATOM     35  H   UNL     1       7.059  -4.539  -7.818  1.00  0.00     0.167 HD
ATOM     36  C   UNL     1       7.164  -7.329  -8.350  1.00  0.00     0.074 A 
ATOM     37  C   UNL     1       6.908  -8.752  -8.258  1.00  0.00     0.031 C 
ATOM     38  C   UNL     1       7.833  -6.737  -9.369  1.00  0.00     0.037 A 
BRANCH  25  39
ATOM     39  C   UNL     1       8.114  -0.590  -9.038  1.00  0.00     0.058 A 
ATOM     40  C   UNL     1       9.210   0.152  -8.576  1.00  0.00     0.135 A 
ATOM     41  C   UNL     1       7.472  -0.156 -10.210  1.00  0.00     0.135 A 
ATOM     42  F   UNL     1       9.851  -0.214  -7.455  1.00  0.00    -0.206 F 
ATOM     43  C   UNL     1       9.656   1.285  -9.251  1.00  0.00     0.059 A 
ATOM     44  C   UNL     1       7.910   0.965 -10.909  1.00  0.00     0.059 A 
ATOM     45  F   UNL     1       6.417  -0.832 -10.691  1.00  0.00    -0.206 F 
ATOM     46  C   UNL     1       9.000   1.682 -10.419  1.00  0.00     0.060 A 
BRANCH  46  47
ATOM     47  S   UNL     1       9.612   3.133 -11.304  1.00  0.00     0.124 S 
ATOM     48  O   UNL     1       9.132   4.216 -10.451  1.00  0.00    -0.237 OA
ATOM     49  O   UNL     1      11.055   2.917 -11.301  1.00  0.00    -0.237 OA
ATOM     50  O   UNL     1       8.969   3.030 -12.610  1.00  0.00    -0.744 OA
ENDBRANCH  46  47
ENDBRANCH  25  39
BRANCH  26  51
ATOM     51  C   UNL     1       4.692  -8.891  -4.665  1.00  0.00     0.058 A 
ATOM     52  C   UNL     1       5.501  -9.845  -4.035  1.00  0.00     0.135 A 
ATOM     53  C   UNL     1       3.306  -9.114  -4.687  1.00  0.00     0.135 A 
ATOM     54  F   UNL     1       6.831  -9.674  -3.993  1.00  0.00    -0.206 F 
ATOM     55  C   UNL     1       4.959 -10.986  -3.454  1.00  0.00     0.059 A 
ATOM     56  C   UNL     1       2.738 -10.236  -4.094  1.00  0.00     0.059 A 
ATOM     57  F   UNL     1       2.490  -8.218  -5.264  1.00  0.00    -0.206 F 
ATOM     58  C   UNL     1       3.575 -11.172  -3.489  1.00  0.00     0.060 A 
BRANCH  58  59
ATOM     59  S   UNL     1       2.867 -12.628  -2.688  1.00  0.00     0.124 S 
ATOM     60  O   UNL     1       3.083 -13.652  -3.702  1.00  0.00    -0.237 OA
ATOM     61  O   UNL     1       3.677 -12.745  -1.479  1.00  0.00    -0.237 OA
ATOM     62  O   UNL     1       1.478 -12.239  -2.464  1.00  0.00    -0.744 OA
ENDBRANCH  58  59
ENDBRANCH  26  51
BRANCH  38  63
ATOM     63  C   UNL     1       8.321  -7.628 -10.473  1.00  0.00     0.058 A 
ATOM     64  C   UNL     1       7.443  -8.110 -11.455  1.00  0.00     0.135 A 
ATOM     65  C   UNL     1       9.680  -7.961 -10.579  1.00  0.00     0.135 A 
ATOM     66  F   UNL     1       6.133  -7.826 -11.388  1.00  0.00    -0.206 F 
ATOM     67  C   UNL     1       7.895  -8.902 -12.504  1.00  0.00     0.059 A 
ATOM     68  C   UNL     1      10.157  -8.737 -11.630  1.00  0.00     0.059 A 
ATOM     69  F   UNL     1      10.558  -7.519  -9.665  1.00  0.00    -0.206 F 
ATOM     70  C   UNL     1       9.255  -9.210 -12.583  1.00  0.00     0.060 A 
BRANCH  70  71
ATOM     71  S   UNL     1       9.841 -10.203 -13.973  1.00  0.00     0.124 S 
ATOM     72  O   UNL     1       9.440 -11.545 -13.563  1.00  0.00    -0.237 OA
ATOM     73  O   UNL     1       9.104  -9.637 -15.098  1.00  0.00    -0.237 OA
ATOM     74  O   UNL     1      11.279  -9.952 -13.985  1.00  0.00    -0.744 OA
ENDBRANCH  70  71
ENDBRANCH  38  63
ENDBRANCH  12  13
ENDBRANCH   5   7
ENDBRANCH   2   3
ENDBRANCH   1   2
BRANCH   1  75
ATOM     75  C   UNL     1       4.603   3.159   2.324  1.00  0.00     0.023 C 
BRANCH  75  76
ATOM     76  C   UNL     1       5.064   2.404   3.569  1.00  0.00     0.116 C 
BRANCH  76  77
ATOM     77  N   UNL     1       6.514   2.425   3.721  1.00  0.00    -0.352 N 
ATOM     78  C   UNL     1       7.262   3.002   4.717  1.00  0.00     0.254 C 
ATOM     79  H   UNL     1       7.024   1.963   3.017  1.00  0.00     0.163 HD
ATOM     80  O   UNL     1       8.483   3.071   4.652  1.00  0.00    -0.269 OA
BRANCH  78  81
ATOM     81  C   UNL     1       6.573   3.562   5.871  1.00  0.00     0.076 A 
ATOM     82  C   UNL     1       5.842   2.783   6.729  1.00  0.00     0.130 A 
ATOM     83  C   UNL     1       6.549   4.912   6.109  1.00  0.00     0.130 A 
ATOM     84  N   UNL     1       5.058   3.300   7.693  1.00  0.00    -0.221 NA
ATOM     85  N   UNL     1       5.770   5.473   7.062  1.00  0.00    -0.221 NA
ATOM     86  C   UNL     1       5.013   4.641   7.805  1.00  0.00     0.227 A 
BRANCH  86  87
ATOM     87  N   UNL     1       4.055   5.255   8.605  1.00  0.00    -0.324 N 
ATOM     88  H   UNL     1       4.121   6.237   8.648  1.00  0.00     0.170 HD
BRANCH  87  89
ATOM     89  C   UNL     1       3.013   4.704   9.357  1.00  0.00     0.041 A 
ATOM     90  C   UNL     1       1.772   5.356   9.383  1.00  0.00     0.026 A 
ATOM     91  C   UNL     1       3.118   3.465  10.000  1.00  0.00     0.026 A 
ATOM     92  C   UNL     1       0.672   4.787  10.031  1.00  0.00     0.002 A 
ATOM     93  C   UNL     1       2.026   2.899  10.662  1.00  0.00     0.002 A 
ATOM     94  C   UNL     1       0.800   3.558  10.673  1.00  0.00     0.000 A 
ENDBRANCH  87  89
ENDBRANCH  86  87
ENDBRANCH  78  81
ENDBRANCH  76  77
ENDBRANCH  75  76
ENDBRANCH   1  75
TORSDOF 16
