REMARK SMILES O=C(NCCCCNC(=O)c1sccc1S(=O)(=O)Nc1ccc(-c2nc3ccccc3n2C(F)F)cc1)c1ccc(-c2c3nc(c(-c4c(F)cc(S(=O)(=O)[O-])cc4F)c4ccc([nH]4)c(-c4c(F)cc(S(=O)(=O)[O-])cc4F)c4nc(c(-c5c(F)cc(S(=O)(=O)[O-])cc5F)c5ccc2[nH]5)C=C4)C=C3)cc1
REMARK SMILES IDX 6 1 5 2 4 3 3 4 1 5 2 6 38 8 39 9 103 10 40 11 102 12 41 13
REMARK SMILES IDX 42 14 43 15 96 16 44 17 101 18 95 19 97 20 45 21 100 22
REMARK SMILES IDX 94 23 93 24 46 26 80 27 59 28 79 29 60 30 63 31 78 32 98 33
REMARK SMILES IDX 61 34 62 35 77 37 99 38 64 39 47 40 48 41 57 42 49 43 50 44
REMARK SMILES IDX 56 45 58 46 51 47 52 48 53 49 54 50 55 51 81 52 82 53 91 54
REMARK SMILES IDX 83 55 84 56 90 57 92 58 85 59 86 60 87 61 88 62 89 63 65 64
REMARK SMILES IDX 66 65 75 66 67 67 68 68 74 69 76 70 69 71 70 72 71 73 72 74
REMARK SMILES IDX 73 75 7 76 8 77 9 78 10 80 11 81 12 82 15 83 13 84 14 85
REMARK SMILES IDX 16 86 17 87 18 88 19 89 20 91 21 92 37 93 22 94 36 95 23 96
REMARK SMILES IDX 24 97 25 98 32 99 26 100 31 101 27 102 30 103 28 104 29 105
REMARK SMILES IDX 33 106 34 107 35 108
REMARK H PARENT 3 7 97 25 63 36 8 79 19 90
REMARK Flexibility Score: inf
ROOT
ATOM      1  C   UNL     1       3.999   1.729   3.122  1.00  0.00     0.023 C 
ENDROOT
BRANCH   1   2
ATOM      2  C   UNL     1       4.657   1.619   1.740  1.00  0.00     0.023 C 
BRANCH   2   3
ATOM      3  C   UNL     1       4.436   0.298   1.004  1.00  0.00     0.116 C 
BRANCH   3   4
ATOM      4  N   UNL     1       3.060  -0.104   0.821  1.00  0.00    -0.352 N 
ATOM      5  O   UNL     1       1.105  -0.555  -0.090  1.00  0.00    -0.269 OA
ATOM      6  C   UNL     1       2.092   0.185  -0.102  1.00  0.00     0.251 C 
ATOM      7  H   UNL     1       2.748  -0.725   1.518  1.00  0.00     0.163 HD
BRANCH   6   8
ATOM      8  C   UNL     1       2.110   1.347  -1.031  1.00  0.00     0.039 A 
ATOM      9  C   UNL     1       3.225   2.114  -1.364  1.00  0.00     0.014 A 
ATOM     10  C   UNL     1       0.862   1.700  -1.583  1.00  0.00     0.014 A 
ATOM     11  C   UNL     1       3.077   3.260  -2.147  1.00  0.00     0.010 A 
ATOM     12  C   UNL     1       0.713   2.832  -2.379  1.00  0.00     0.010 A 
ATOM     13  C   UNL     1       1.818   3.634  -2.634  1.00  0.00    -0.014 A 
BRANCH  13  14
ATOM     14  C   UNL     1       1.741   4.758  -3.567  1.00  0.00     0.031 A 
ATOM     15  C   UNL     1       2.465   4.523  -4.848  1.00  0.00     0.074 A 
ATOM     16  C   UNL     1       0.997   5.873  -3.406  1.00  0.00     0.049 A 
ATOM     17  N   UNL     1       3.555   5.086  -5.255  1.00  0.00    -0.248 NA
ATOM     18  C   UNL     1       1.998   3.432  -5.716  1.00  0.00     0.031 C 
ATOM     19  C   UNL     1      -0.008   6.151  -2.380  1.00  0.00     0.029 A 
ATOM     20  N   UNL     1       0.932   6.981  -4.203  1.00  0.00    -0.354 N 
ATOM     21  C   UNL     1       3.793   4.584  -6.532  1.00  0.00     0.074 A 
ATOM     22  C   UNL     1       2.911   3.456  -6.689  1.00  0.00     0.031 C 
ATOM     23  C   UNL     1      -0.724   7.244  -2.738  1.00  0.00     0.029 A 
ATOM     24  C   UNL     1      -0.144   7.825  -3.940  1.00  0.00     0.049 A 
ATOM     25  H   UNL     1       1.593   7.168  -4.908  1.00  0.00     0.167 HD
ATOM     26  C   UNL     1       4.543   5.271  -7.438  1.00  0.00     0.037 A 
ATOM     27  C   UNL     1      -0.549   8.893  -4.679  1.00  0.00     0.037 A 
ATOM     28  C   UNL     1       5.310   6.311  -6.800  1.00  0.00     0.049 A 
ATOM     29  C   UNL     1       0.607   9.327  -5.505  1.00  0.00     0.074 A 
ATOM     30  C   UNL     1       6.262   6.346  -5.798  1.00  0.00     0.029 A 
ATOM     31  N   UNL     1       4.871   7.605  -6.940  1.00  0.00    -0.354 N 
ATOM     32  N   UNL     1       1.688   9.870  -5.020  1.00  0.00    -0.248 NA
ATOM     33  C   UNL     1       0.738   8.762  -6.838  1.00  0.00     0.031 C 
ATOM     34  C   UNL     1       5.975   7.533  -5.062  1.00  0.00     0.029 A 
ATOM     35  C   UNL     1       4.918   8.183  -5.698  1.00  0.00     0.049 A 
ATOM     36  H   UNL     1       4.577   8.036  -7.775  1.00  0.00     0.167 HD
ATOM     37  C   UNL     1       2.720   9.325  -5.768  1.00  0.00     0.074 A 
ATOM     38  C   UNL     1       2.070   8.725  -6.931  1.00  0.00     0.031 C 
ATOM     39  C   UNL     1       3.969   9.170  -5.239  1.00  0.00     0.037 A 
BRANCH  26  40
ATOM     40  C   UNL     1       4.318   5.255  -8.934  1.00  0.00     0.058 A 
ATOM     41  C   UNL     1       5.251   5.893  -9.779  1.00  0.00     0.135 A 
ATOM     42  C   UNL     1       3.092   4.902  -9.540  1.00  0.00     0.135 A 
ATOM     43  F   UNL     1       6.449   6.279  -9.309  1.00  0.00    -0.206 F 
ATOM     44  C   UNL     1       4.957   6.229 -11.101  1.00  0.00     0.059 A 
ATOM     45  C   UNL     1       2.800   5.178 -10.871  1.00  0.00     0.059 A 
ATOM     46  F   UNL     1       2.082   4.363  -8.848  1.00  0.00    -0.206 F 
ATOM     47  C   UNL     1       3.721   5.879 -11.633  1.00  0.00     0.060 A 
BRANCH  47  48
ATOM     48  S   UNL     1       3.302   6.395 -13.306  1.00  0.00     0.124 S 
ATOM     49  O   UNL     1       3.171   7.838 -13.141  1.00  0.00    -0.237 OA
ATOM     50  O   UNL     1       4.464   5.939 -14.062  1.00  0.00    -0.237 OA
ATOM     51  O   UNL     1       2.062   5.673 -13.578  1.00  0.00    -0.744 OA
ENDBRANCH  47  48
ENDBRANCH  26  40
BRANCH  27  52
ATOM     52  C   UNL     1      -1.928   9.383  -4.959  1.00  0.00     0.058 A 
ATOM     53  C   UNL     1      -2.153  10.633  -5.570  1.00  0.00     0.135 A 
ATOM     54  C   UNL     1      -3.031   8.508  -4.921  1.00  0.00     0.135 A 
ATOM     55  F   UNL     1      -1.157  11.526  -5.668  1.00  0.00    -0.206 F 
ATOM     56  C   UNL     1      -3.377  10.969  -6.163  1.00  0.00     0.059 A 
ATOM     57  C   UNL     1      -4.262   8.824  -5.498  1.00  0.00     0.059 A 
ATOM     58  F   UNL     1      -2.916   7.274  -4.408  1.00  0.00    -0.206 F 
ATOM     59  C   UNL     1      -4.420  10.045  -6.144  1.00  0.00     0.060 A 
BRANCH  59  60
ATOM     60  S   UNL     1      -5.933  10.388  -7.076  1.00  0.00     0.124 S 
ATOM     61  O   UNL     1      -6.541  11.453  -6.285  1.00  0.00    -0.237 OA
ATOM     62  O   UNL     1      -5.412  10.782  -8.381  1.00  0.00    -0.237 OA
ATOM     63  O   UNL     1      -6.642   9.111  -7.052  1.00  0.00    -0.744 OA
ENDBRANCH  59  60
ENDBRANCH  27  52
BRANCH  39  64
ATOM     64  C   UNL     1       4.315   9.916  -3.978  1.00  0.00     0.058 A 
ATOM     65  C   UNL     1       3.657   9.773  -2.743  1.00  0.00     0.135 A 
ATOM     66  C   UNL     1       5.458  10.732  -4.002  1.00  0.00     0.135 A 
ATOM     67  F   UNL     1       2.625   8.927  -2.601  1.00  0.00    -0.206 F 
ATOM     68  C   UNL     1       4.085  10.455  -1.602  1.00  0.00     0.059 A 
ATOM     69  C   UNL     1       5.923  11.390  -2.870  1.00  0.00     0.059 A 
ATOM     70  F   UNL     1       6.168  10.863  -5.136  1.00  0.00    -0.206 F 
ATOM     71  C   UNL     1       5.220  11.262  -1.676  1.00  0.00     0.060 A 
BRANCH  71  72
ATOM     72  S   UNL     1       5.809  12.099  -0.188  1.00  0.00     0.124 S 
ATOM     73  O   UNL     1       4.786  13.120   0.015  1.00  0.00    -0.237 OA
ATOM     74  O   UNL     1       5.833  11.018   0.794  1.00  0.00    -0.237 OA
ATOM     75  O   UNL     1       7.124  12.602  -0.577  1.00  0.00    -0.744 OA
ENDBRANCH  71  72
ENDBRANCH  39  64
ENDBRANCH  13  14
ENDBRANCH   6   8
ENDBRANCH   3   4
ENDBRANCH   2   3
ENDBRANCH   1   2
BRANCH   1  76
ATOM     76  C   UNL     1       4.529   0.757   4.172  1.00  0.00     0.116 C 
BRANCH  76  77
ATOM     77  N   UNL     1       5.902   1.047   4.524  1.00  0.00    -0.351 N 
ATOM     78  C   UNL     1       6.572   0.831   5.698  1.00  0.00     0.262 C 
ATOM     79  H   UNL     1       6.436   1.465   3.811  1.00  0.00     0.163 HD
ATOM     80  O   UNL     1       7.680   1.360   5.801  1.00  0.00    -0.268 OA
BRANCH  78  81
ATOM     81  C   UNL     1       5.955   0.082   6.770  1.00  0.00     0.112 A 
ATOM     82  S   UNL     1       6.002   0.876   8.311  1.00  0.00    -0.137 S 
ATOM     83  C   UNL     1       5.377  -1.173   6.882  1.00  0.00     0.111 A 
ATOM     84  C   UNL     1       5.144  -0.372   9.079  1.00  0.00     0.067 A 
ATOM     85  C   UNL     1       4.861  -1.396   8.211  1.00  0.00     0.035 A 
BRANCH  83  86
ATOM     86  S   UNL     1       5.205  -2.448   5.714  1.00  0.00     0.263 S 
ATOM     87  O   UNL     1       5.745  -3.601   6.416  1.00  0.00    -0.201 OA
ATOM     88  O   UNL     1       3.800  -2.388   5.386  1.00  0.00    -0.201 OA
BRANCH  86  89
ATOM     89  N   UNL     1       5.999  -2.324   4.265  1.00  0.00    -0.280 N 
ATOM     90  H   UNL     1       5.510  -2.615   3.462  1.00  0.00     0.180 HD
BRANCH  89  91
ATOM     91  C   UNL     1       7.310  -1.842   4.074  1.00  0.00     0.049 A 
ATOM     92  C   UNL     1       7.569  -1.199   2.861  1.00  0.00     0.027 A 
ATOM     93  C   UNL     1       8.288  -1.873   5.051  1.00  0.00     0.027 A 
ATOM     94  C   UNL     1       8.705  -0.400   2.702  1.00  0.00     0.014 A 
ATOM     95  C   UNL     1       9.428  -1.084   4.883  1.00  0.00     0.014 A 
ATOM     96  C   UNL     1       9.617  -0.269   3.745  1.00  0.00     0.018 A 
BRANCH  96  97
ATOM     97  C   UNL     1      10.740   0.685   3.785  1.00  0.00     0.145 A 
ATOM     98  N   UNL     1      11.776   0.485   4.586  1.00  0.00    -0.228 NA
ATOM     99  N   UNL     1      10.864   1.927   3.176  1.00  0.00    -0.266 N 
ATOM    100  C   UNL     1      12.497   1.639   4.600  1.00  0.00     0.089 A 
ATOM    101  C   UNL     1      11.950   2.579   3.738  1.00  0.00     0.074 A 
ATOM    102  C   UNL     1      13.636   1.949   5.353  1.00  0.00     0.030 A 
ATOM    103  C   UNL     1      12.503   3.860   3.592  1.00  0.00     0.029 A 
ATOM    104  C   UNL     1      14.204   3.217   5.218  1.00  0.00     0.002 A 
ATOM    105  C   UNL     1      13.642   4.156   4.353  1.00  0.00     0.002 A 
BRANCH  99 106
ATOM    106  C   UNL     1      10.043   2.485   2.123  1.00  0.00     0.451 C 
ATOM    107  F   UNL     1      10.146   1.742   0.986  1.00  0.00    -0.185 F 
ATOM    108  F   UNL     1       8.725   2.518   2.454  1.00  0.00    -0.185 F 
ENDBRANCH  99 106
ENDBRANCH  96  97
ENDBRANCH  89  91
ENDBRANCH  86  89
ENDBRANCH  83  86
ENDBRANCH  78  81
ENDBRANCH  76  77
ENDBRANCH   1  76
TORSDOF 19
