REMARK SMILES CC(C)CN(C)c1cc2c(cc1Cl)C=C(C(=O)NCCCCNC(=O)c1ccc(-c3c4nc(c(-c5c(F)cc(S(=O)(=O)[O-])cc5F)c5ccc([nH]5)c(-c5c(F)cc(S(=O)(=O)[O-])cc5F)c5nc(c(-c6c(F)cc(S(=O)(=O)[O-])cc6F)c6ccc3[nH]6)C=C5)C=C4)cc1)[C@H](C(F)(F)F)O2
REMARK SMILES IDX 20 1 19 2 18 3 16 4 17 5 15 7 7 8 8 9 12 10 9 11 11 12 13 13
REMARK SMILES IDX 10 14 97 15 14 16 92 17 5 18 6 19 4 20 2 21 1 22 3 23 93 24
REMARK SMILES IDX 94 25 95 26 96 27 21 28 22 29 23 30 24 31 25 33 26 34 27 35
REMARK SMILES IDX 91 36 28 37 90 38 29 39 30 40 31 41 84 42 32 43 89 44 83 45
REMARK SMILES IDX 85 46 33 47 88 48 82 49 81 50 34 52 68 53 47 54 67 55 48 56
REMARK SMILES IDX 51 57 66 58 86 59 49 60 50 61 65 63 87 64 52 65 35 66 36 67
REMARK SMILES IDX 45 68 37 69 38 70 44 71 46 72 39 73 40 74 41 75 42 76 43 77
REMARK SMILES IDX 69 78 70 79 79 80 71 81 72 82 78 83 80 84 73 85 74 86 75 87
REMARK SMILES IDX 76 88 77 89 53 90 54 91 63 92 55 93 56 94 62 95 64 96 57 97
REMARK SMILES IDX 58 98 59 99 60 100 61 101
REMARK H PARENT 18 6 23 32 85 51 51 62
REMARK Flexibility Score: inf
ROOT
ATOM      1  C   UNL     1      -4.011   1.607   8.557  1.00  0.00     0.023 C 
ENDROOT
BRANCH   1   2
ATOM      2  C   UNL     1      -2.992   2.660   8.123  1.00  0.00     0.116 C 
BRANCH   2   3
ATOM      3  N   UNL     1      -1.651   2.109   8.095  1.00  0.00    -0.352 N 
ATOM      4  C   UNL     1      -0.795   1.750   7.109  1.00  0.00     0.251 C 
ATOM      5  O   UNL     1       0.333   1.390   7.452  1.00  0.00    -0.270 OA
ATOM      6  H   UNL     1      -1.280   1.963   8.995  1.00  0.00     0.163 HD
BRANCH   4   7
ATOM      7  C   UNL     1      -1.145   1.793   5.663  1.00  0.00     0.067 C 
ATOM      8  C   UNL     1      -0.689   1.875   0.624  1.00  0.00     0.059 A 
ATOM      9  C   UNL     1      -1.740   1.629   1.524  1.00  0.00     0.074 A 
ATOM     10  C   UNL     1       0.548   2.283   1.165  1.00  0.00     0.065 A 
ATOM     11  C   UNL     1      -1.556   1.738   2.904  1.00  0.00     0.130 A 
ATOM     12  C   UNL     1       0.743   2.349   2.550  1.00  0.00     0.034 A 
ATOM     13  Cl  UNL     1       1.878   2.749   0.160  1.00  0.00    -0.082 Cl
ATOM     14  C   UNL     1      -0.309   2.066   3.422  1.00  0.00     0.019 A 
ATOM     15  O   UNL     1      -2.661   1.529   3.673  1.00  0.00    -0.475 OA
ATOM     16  C   UNL     1      -0.115   2.107   4.860  1.00  0.00     0.025 C 
ATOM     17  C   UNL     1      -2.493   1.398   5.115  1.00  0.00     0.314 C 
BRANCH   8  18
ATOM     18  N   UNL     1      -0.887   1.702  -0.756  1.00  0.00    -0.373 N 
ATOM     19  C   UNL     1      -1.923   2.555  -1.333  1.00  0.00     0.143 C 
BRANCH  18  20
ATOM     20  C   UNL     1      -0.830   0.311  -1.254  1.00  0.00     0.119 C 
BRANCH  20  21
ATOM     21  C   UNL     1       0.616  -0.195  -1.431  1.00  0.00     0.002 C 
ATOM     22  C   UNL     1       1.104  -0.981  -0.210  1.00  0.00     0.009 C 
ATOM     23  C   UNL     1       0.736  -1.085  -2.672  1.00  0.00     0.009 C 
ENDBRANCH  20  21
ENDBRANCH  18  20
ENDBRANCH   8  18
BRANCH  17  24
ATOM     24  C   UNL     1      -2.977  -0.005   5.517  1.00  0.00     0.429 C 
ATOM     25  F   UNL     1      -2.764  -0.924   4.547  1.00  0.00    -0.167 F 
ATOM     26  F   UNL     1      -2.397  -0.474   6.641  1.00  0.00    -0.167 F 
ATOM     27  F   UNL     1      -4.317   0.023   5.746  1.00  0.00    -0.167 F 
ENDBRANCH  17  24
ENDBRANCH   4   7
ENDBRANCH   2   3
ENDBRANCH   1   2
BRANCH   1  28
ATOM     28  C   UNL     1      -4.045   1.347  10.063  1.00  0.00     0.023 C 
BRANCH  28  29
ATOM     29  C   UNL     1      -4.455   2.543  10.910  1.00  0.00     0.116 C 
BRANCH  29  30
ATOM     30  N   UNL     1      -5.747   3.109  10.543  1.00  0.00    -0.352 N 
ATOM     31  C   UNL     1      -6.685   3.682  11.373  1.00  0.00     0.251 C 
ATOM     32  H   UNL     1      -5.978   3.077   9.586  1.00  0.00     0.163 HD
ATOM     33  O   UNL     1      -7.770   4.051  10.936  1.00  0.00    -0.269 OA
BRANCH  31  34
ATOM     34  C   UNL     1      -6.367   3.791  12.809  1.00  0.00     0.039 A 
ATOM     35  C   UNL     1      -5.152   4.350  13.205  1.00  0.00     0.014 A 
ATOM     36  C   UNL     1      -7.224   3.206  13.744  1.00  0.00     0.014 A 
ATOM     37  C   UNL     1      -4.706   4.149  14.503  1.00  0.00     0.010 A 
ATOM     38  C   UNL     1      -6.811   3.092  15.074  1.00  0.00     0.010 A 
ATOM     39  C   UNL     1      -5.524   3.507  15.450  1.00  0.00    -0.014 A 
BRANCH  39  40
ATOM     40  C   UNL     1      -4.991   3.264  16.815  1.00  0.00     0.031 A 
ATOM     41  C   UNL     1      -4.773   1.862  17.322  1.00  0.00     0.074 A 
ATOM     42  C   UNL     1      -4.618   4.320  17.564  1.00  0.00     0.049 A 
ATOM     43  N   UNL     1      -4.291   1.470  18.474  1.00  0.00    -0.248 NA
ATOM     44  C   UNL     1      -5.144   0.755  16.425  1.00  0.00     0.031 C 
ATOM     45  C   UNL     1      -4.759   5.723  17.165  1.00  0.00     0.029 A 
ATOM     46  N   UNL     1      -4.008   4.384  18.789  1.00  0.00    -0.354 N 
ATOM     47  C   UNL     1      -4.322   0.080  18.451  1.00  0.00     0.074 A 
ATOM     48  C   UNL     1      -4.892  -0.307  17.179  1.00  0.00     0.031 C 
ATOM     49  C   UNL     1      -4.179   6.503  18.088  1.00  0.00     0.029 A 
ATOM     50  C   UNL     1      -3.695   5.664  19.179  1.00  0.00     0.049 A 
ATOM     51  H   UNL     1      -3.814   3.590  19.337  1.00  0.00     0.167 HD
ATOM     52  C   UNL     1      -3.904  -0.792  19.400  1.00  0.00     0.037 A 
ATOM     53  C   UNL     1      -3.094   6.117  20.295  1.00  0.00     0.037 A 
ATOM     54  C   UNL     1      -3.310  -0.399  20.652  1.00  0.00     0.049 A 
ATOM     55  C   UNL     1      -2.674   5.134  21.346  1.00  0.00     0.074 A 
ATOM     56  C   UNL     1      -2.853  -1.206  21.680  1.00  0.00     0.029 A 
ATOM     57  N   UNL     1      -3.081   0.912  21.044  1.00  0.00    -0.354 N 
ATOM     58  N   UNL     1      -2.746   3.825  21.321  1.00  0.00    -0.248 NA
ATOM     59  C   UNL     1      -2.113   5.686  22.585  1.00  0.00     0.031 C 
ATOM     60  C   UNL     1      -2.377  -0.382  22.706  1.00  0.00     0.029 A 
ATOM     61  C   UNL     1      -2.502   0.938  22.302  1.00  0.00     0.049 A 
ATOM     62  H   UNL     1      -3.297   1.708  20.506  1.00  0.00     0.167 HD
ATOM     63  C   UNL     1      -2.242   3.395  22.541  1.00  0.00     0.074 A 
ATOM     64  C   UNL     1      -1.847   4.583  23.272  1.00  0.00     0.031 C 
ATOM     65  C   UNL     1      -2.125   2.131  23.017  1.00  0.00     0.037 A 
BRANCH  52  66
ATOM     66  C   UNL     1      -4.081  -2.261  19.131  1.00  0.00     0.058 A 
ATOM     67  C   UNL     1      -3.263  -2.948  18.221  1.00  0.00     0.135 A 
ATOM     68  C   UNL     1      -5.051  -3.002  19.826  1.00  0.00     0.135 A 
ATOM     69  F   UNL     1      -2.331  -2.285  17.517  1.00  0.00    -0.206 F 
ATOM     70  C   UNL     1      -3.412  -4.313  17.994  1.00  0.00     0.059 A 
ATOM     71  C   UNL     1      -5.205  -4.372  19.631  1.00  0.00     0.059 A 
ATOM     72  F   UNL     1      -5.861  -2.395  20.707  1.00  0.00    -0.206 F 
ATOM     73  C   UNL     1      -4.387  -5.016  18.704  1.00  0.00     0.060 A 
BRANCH  73  74
ATOM     74  S   UNL     1      -4.567  -6.787  18.399  1.00  0.00     0.124 S 
ATOM     75  O   UNL     1      -5.187  -6.793  17.078  1.00  0.00    -0.237 OA
ATOM     76  O   UNL     1      -3.186  -7.256  18.452  1.00  0.00    -0.237 OA
ATOM     77  O   UNL     1      -5.421  -7.237  19.494  1.00  0.00    -0.744 OA
ENDBRANCH  73  74
ENDBRANCH  52  66
BRANCH  53  78
ATOM     78  C   UNL     1      -2.862   7.575  20.459  1.00  0.00     0.058 A 
ATOM     79  C   UNL     1      -1.571   8.112  20.367  1.00  0.00     0.135 A 
ATOM     80  C   UNL     1      -3.932   8.464  20.647  1.00  0.00     0.135 A 
ATOM     81  F   UNL     1      -0.517   7.299  20.194  1.00  0.00    -0.206 F 
ATOM     82  C   UNL     1      -1.347   9.482  20.448  1.00  0.00     0.059 A 
ATOM     83  C   UNL     1      -3.736   9.839  20.706  1.00  0.00     0.059 A 
ATOM     84  F   UNL     1      -5.188   7.998  20.725  1.00  0.00    -0.206 F 
ATOM     85  C   UNL     1      -2.438  10.338  20.608  1.00  0.00     0.060 A 
BRANCH  85  86
ATOM     86  S   UNL     1      -2.146  12.120  20.624  1.00  0.00     0.124 S 
ATOM     87  O   UNL     1      -1.562  12.310  21.947  1.00  0.00    -0.237 OA
ATOM     88  O   UNL     1      -1.238  12.293  19.494  1.00  0.00    -0.237 OA
ATOM     89  O   UNL     1      -3.481  12.680  20.436  1.00  0.00    -0.744 OA
ENDBRANCH  85  86
ENDBRANCH  53  78
BRANCH  65  90
ATOM     90  C   UNL     1      -1.550   1.966  24.393  1.00  0.00     0.058 A 
ATOM     91  C   UNL     1      -2.314   2.237  25.537  1.00  0.00     0.135 A 
ATOM     92  C   UNL     1      -0.248   1.472  24.570  1.00  0.00     0.135 A 
ATOM     93  F   UNL     1      -3.562   2.719  25.419  1.00  0.00    -0.206 F 
ATOM     94  C   UNL     1      -1.804   2.032  26.814  1.00  0.00     0.059 A 
ATOM     95  C   UNL     1       0.276   1.241  25.837  1.00  0.00     0.059 A 
ATOM     96  F   UNL     1       0.519   1.193  23.504  1.00  0.00    -0.206 F 
ATOM     97  C   UNL     1      -0.508   1.530  26.954  1.00  0.00     0.060 A 
BRANCH  97  98
ATOM     98  S   UNL     1       0.124   1.224  28.617  1.00  0.00     0.124 S 
ATOM     99  O   UNL     1       0.373   2.581  29.091  1.00  0.00    -0.237 OA
ATOM    100  O   UNL     1      -0.991   0.526  29.250  1.00  0.00    -0.237 OA
ATOM    101  O   UNL     1       1.313   0.411  28.384  1.00  0.00    -0.744 OA
ENDBRANCH  97  98
ENDBRANCH  65  90
ENDBRANCH  39  40
ENDBRANCH  31  34
ENDBRANCH  29  30
ENDBRANCH  28  29
ENDBRANCH   1  28
TORSDOF 18
