REMARK SMILES C[NH2+][C@](C)(C(=O)NCCCCNC(=O)c1ccc(-c2c3nc(c(-c4c(F)cc(S(=O)(=O)[O-])cc4F)c4ccc([nH]4)c(-c4c(F)cc(S(=O)(=O)[O-])cc4F)c4nc(c(-c5c(F)cc(S(=O)(=O)[O-])cc5F)c5ccc2[nH]5)C=C4)C=C3)cc1)c1cccc(Cl)c1
REMARK SMILES IDX 10 1 9 2 8 3 7 4 5 5 6 6 3 8 4 9 2 10 1 11 81 14 82 15 87 16
REMARK SMILES IDX 83 17 85 18 84 19 86 20 11 21 12 22 13 23 14 25 15 26 16 27
REMARK SMILES IDX 80 28 17 29 79 30 18 31 19 32 20 33 73 34 21 35 78 36 72 37
REMARK SMILES IDX 74 38 22 39 77 40 71 41 70 42 23 44 57 45 36 46 56 47 37 48
REMARK SMILES IDX 40 49 55 50 75 51 38 52 39 53 54 55 76 56 41 57 24 58 25 59
REMARK SMILES IDX 34 60 26 61 27 62 33 63 35 64 28 65 29 66 30 67 31 68 32 69
REMARK SMILES IDX 58 70 59 71 68 72 60 73 61 74 67 75 69 76 62 77 63 78 64 79
REMARK SMILES IDX 65 80 66 81 42 82 43 83 52 84 44 85 45 86 51 87 53 88 46 89
REMARK SMILES IDX 47 90 48 91 49 92 50 93
REMARK H PARENT 7 7 2 12 2 13 12 24 74 43 40 54
REMARK Flexibility Score: inf
ROOT
ATOM      1  C   UNL     1       0.901  -5.825   2.476  1.00  0.00     0.023 C 
ENDROOT
BRANCH   1   2
ATOM      2  C   UNL     1       1.285  -4.604   1.644  1.00  0.00     0.023 C 
BRANCH   2   3
ATOM      3  C   UNL     1       0.133  -3.959   0.886  1.00  0.00     0.116 C 
BRANCH   3   4
ATOM      4  N   UNL     1      -0.882  -3.405   1.758  1.00  0.00    -0.350 N 
ATOM      5  C   UNL     1      -1.490  -2.177   1.806  1.00  0.00     0.285 C 
ATOM      6  O   UNL     1      -2.488  -2.155   2.535  1.00  0.00    -0.267 OA
ATOM      7  H   UNL     1      -1.197  -4.031   2.449  1.00  0.00     0.163 HD
BRANCH   5   8
ATOM      8  C   UNL     1      -0.973  -0.921   0.964  1.00  0.00     0.198 C 
ATOM      9  C   UNL     1       0.580  -0.856   1.081  1.00  0.00     0.096 C 
BRANCH   8  10
ATOM     10  N   UNL     1      -1.575  -1.036  -0.397  1.00  0.00    -0.332 N 
ATOM     11  C   UNL     1      -0.991  -1.901  -1.393  1.00  0.00     0.332 C 
ATOM     12  H   UNL     1      -2.535  -1.352  -0.265  1.00  0.00     0.347 HD
ATOM     13  H   UNL     1      -1.425  -0.106  -0.789  1.00  0.00     0.347 HD
ENDBRANCH   8  10
BRANCH   8  14
ATOM     14  C   UNL     1      -1.458   0.486   1.488  1.00  0.00     0.023 A 
ATOM     15  C   UNL     1      -1.001   1.641   0.793  1.00  0.00     0.011 A 
ATOM     16  C   UNL     1      -2.330   0.708   2.564  1.00  0.00     0.031 A 
ATOM     17  C   UNL     1      -1.368   2.935   1.166  1.00  0.00     0.002 A 
ATOM     18  C   UNL     1      -2.707   2.009   2.929  1.00  0.00     0.041 A 
ATOM     19  C   UNL     1      -2.224   3.119   2.241  1.00  0.00     0.020 A 
ATOM     20  Cl  UNL     1      -3.787   2.249   4.250  1.00  0.00    -0.084 Cl
ENDBRANCH   8  14
ENDBRANCH   5   8
ENDBRANCH   3   4
ENDBRANCH   2   3
ENDBRANCH   1   2
BRANCH   1  21
ATOM     21  C   UNL     1       0.083  -6.879   1.741  1.00  0.00     0.116 C 
BRANCH  21  22
ATOM     22  N   UNL     1       0.736  -7.365   0.535  1.00  0.00    -0.352 N 
ATOM     23  C   UNL     1       0.972  -8.659   0.136  1.00  0.00     0.251 C 
ATOM     24  H   UNL     1       1.053  -6.667  -0.083  1.00  0.00     0.163 HD
ATOM     25  O   UNL     1       1.671  -8.874  -0.846  1.00  0.00    -0.269 OA
BRANCH  23  26
ATOM     26  C   UNL     1       0.400  -9.780   0.912  1.00  0.00     0.039 A 
ATOM     27  C   UNL     1       1.200 -10.892   1.183  1.00  0.00     0.014 A 
ATOM     28  C   UNL     1      -0.918  -9.734   1.373  1.00  0.00     0.014 A 
ATOM     29  C   UNL     1       0.686 -11.940   1.949  1.00  0.00     0.010 A 
ATOM     30  C   UNL     1      -1.392 -10.730   2.219  1.00  0.00     0.010 A 
ATOM     31  C   UNL     1      -0.608 -11.859   2.491  1.00  0.00    -0.014 A 
BRANCH  31  32
ATOM     32  C   UNL     1      -1.178 -12.977   3.286  1.00  0.00     0.031 A 
ATOM     33  C   UNL     1      -2.398 -13.704   2.783  1.00  0.00     0.074 A 
ATOM     34  C   UNL     1      -0.624 -13.316   4.467  1.00  0.00     0.049 A 
ATOM     35  N   UNL     1      -3.060 -14.688   3.334  1.00  0.00    -0.248 NA
ATOM     36  C   UNL     1      -2.969 -13.245   1.505  1.00  0.00     0.031 C 
ATOM     37  C   UNL     1       0.525 -12.651   5.087  1.00  0.00     0.029 A 
ATOM     38  N   UNL     1      -0.953 -14.305   5.359  1.00  0.00    -0.354 N 
ATOM     39  C   UNL     1      -4.126 -14.953   2.481  1.00  0.00     0.074 A 
ATOM     40  C   UNL     1      -4.066 -13.980   1.414  1.00  0.00     0.031 C 
ATOM     41  C   UNL     1       0.825 -13.273   6.239  1.00  0.00     0.029 A 
ATOM     42  C   UNL     1      -0.129 -14.356   6.458  1.00  0.00     0.049 A 
ATOM     43  H   UNL     1      -1.709 -14.921   5.224  1.00  0.00     0.167 HD
ATOM     44  C   UNL     1      -5.052 -15.938   2.558  1.00  0.00     0.037 A 
ATOM     45  C   UNL     1      -0.139 -15.185   7.521  1.00  0.00     0.037 A 
ATOM     46  C   UNL     1      -5.088 -16.921   3.608  1.00  0.00     0.049 A 
ATOM     47  C   UNL     1      -1.170 -16.282   7.579  1.00  0.00     0.074 A 
ATOM     48  C   UNL     1      -5.952 -17.991   3.757  1.00  0.00     0.029 A 
ATOM     49  N   UNL     1      -4.218 -16.956   4.689  1.00  0.00    -0.354 N 
ATOM     50  N   UNL     1      -2.134 -16.556   6.731  1.00  0.00    -0.248 NA
ATOM     51  C   UNL     1      -1.105 -17.193   8.729  1.00  0.00     0.031 C 
ATOM     52  C   UNL     1      -5.636 -18.645   4.953  1.00  0.00     0.029 A 
ATOM     53  C   UNL     1      -4.534 -18.021   5.516  1.00  0.00     0.049 A 
ATOM     54  H   UNL     1      -3.485 -16.318   4.845  1.00  0.00     0.167 HD
ATOM     55  C   UNL     1      -2.762 -17.696   7.223  1.00  0.00     0.074 A 
ATOM     56  C   UNL     1      -2.062 -18.062   8.438  1.00  0.00     0.031 C 
ATOM     57  C   UNL     1      -3.816 -18.381   6.714  1.00  0.00     0.037 A 
BRANCH  44  58
ATOM     58  C   UNL     1      -6.094 -16.004   1.473  1.00  0.00     0.058 A 
ATOM     59  C   UNL     1      -5.765 -16.348   0.151  1.00  0.00     0.135 A 
ATOM     60  C   UNL     1      -7.444 -15.746   1.762  1.00  0.00     0.135 A 
ATOM     61  F   UNL     1      -4.488 -16.586  -0.189  1.00  0.00    -0.206 F 
ATOM     62  C   UNL     1      -6.729 -16.401  -0.850  1.00  0.00     0.059 A 
ATOM     63  C   UNL     1      -8.431 -15.827   0.784  1.00  0.00     0.059 A 
ATOM     64  F   UNL     1      -7.817 -15.411   3.008  1.00  0.00    -0.206 F 
ATOM     65  C   UNL     1      -8.061 -16.141  -0.523  1.00  0.00     0.060 A 
BRANCH  65  66
ATOM     66  S   UNL     1      -9.300 -16.225  -1.833  1.00  0.00     0.124 S 
ATOM     67  O   UNL     1      -8.987 -15.028  -2.607  1.00  0.00    -0.237 OA
ATOM     68  O   UNL     1      -8.986 -17.497  -2.477  1.00  0.00    -0.237 OA
ATOM     69  O   UNL     1     -10.566 -16.189  -1.107  1.00  0.00    -0.744 OA
ENDBRANCH  65  66
ENDBRANCH  44  58
BRANCH  45  70
ATOM     70  C   UNL     1       0.881 -15.037   8.594  1.00  0.00     0.058 A 
ATOM     71  C   UNL     1       1.884 -16.001   8.779  1.00  0.00     0.135 A 
ATOM     72  C   UNL     1       0.876 -13.930   9.457  1.00  0.00     0.135 A 
ATOM     73  F   UNL     1       1.931 -17.081   7.984  1.00  0.00    -0.206 F 
ATOM     74  C   UNL     1       2.829 -15.887   9.793  1.00  0.00     0.059 A 
ATOM     75  C   UNL     1       1.828 -13.778  10.460  1.00  0.00     0.059 A 
ATOM     76  F   UNL     1      -0.050 -12.969   9.312  1.00  0.00    -0.206 F 
ATOM     77  C   UNL     1       2.794 -14.770  10.629  1.00  0.00     0.060 A 
BRANCH  77  78
ATOM     78  S   UNL     1       4.049 -14.612  11.918  1.00  0.00     0.124 S 
ATOM     79  O   UNL     1       3.629 -15.640  12.864  1.00  0.00    -0.237 OA
ATOM     80  O   UNL     1       5.279 -14.885  11.181  1.00  0.00    -0.237 OA
ATOM     81  O   UNL     1       3.892 -13.234  12.373  1.00  0.00    -0.744 OA
ENDBRANCH  77  78
ENDBRANCH  45  70
BRANCH  57  82
ATOM     82  C   UNL     1      -4.239 -19.635   7.431  1.00  0.00     0.058 A 
ATOM     83  C   UNL     1      -4.856 -19.604   8.691  1.00  0.00     0.135 A 
ATOM     84  C   UNL     1      -4.046 -20.889   6.827  1.00  0.00     0.135 A 
ATOM     85  F   UNL     1      -5.063 -18.433   9.314  1.00  0.00    -0.206 F 
ATOM     86  C   UNL     1      -5.229 -20.774   9.346  1.00  0.00     0.059 A 
ATOM     87  C   UNL     1      -4.443 -22.069   7.448  1.00  0.00     0.059 A 
ATOM     88  F   UNL     1      -3.475 -20.976   5.615  1.00  0.00    -0.206 F 
ATOM     89  C   UNL     1      -5.015 -22.002   8.716  1.00  0.00     0.060 A 
BRANCH  89  90
ATOM     90  S   UNL     1      -5.505 -23.512   9.574  1.00  0.00     0.124 S 
ATOM     91  O   UNL     1      -4.474 -23.614  10.601  1.00  0.00    -0.237 OA
ATOM     92  O   UNL     1      -6.844 -23.181  10.051  1.00  0.00    -0.237 OA
ATOM     93  O   UNL     1      -5.452 -24.530   8.529  1.00  0.00    -0.744 OA
ENDBRANCH  89  90
ENDBRANCH  57  82
ENDBRANCH  31  32
ENDBRANCH  23  26
ENDBRANCH  21  22
ENDBRANCH   1  21
TORSDOF 16
