REMARK SMILES O=C(/C=C/C(=O)NNC(=O)CSc1ccc2ccccc2n1)NCCCCNC(=O)c1ccc(-c2c3nc(c(-c4c(F)cc(S(=O)(=O)[O-])cc4F)c4ccc([nH]4)c(-c4c(F)cc(S(=O)(=O)[O-])cc4F)c4nc(c(-c5c(F)cc(S(=O)(=O)[O-])cc5F)c5ccc2[nH]5)C=C4)C=C3)cc1
REMARK SMILES IDX 24 1 23 2 1 3 2 4 3 6 4 7 5 8 6 9 7 10 8 12 9 13 10 15 11 16
REMARK SMILES IDX 12 17 13 18 14 19 22 20 15 21 21 22 16 23 20 24 17 25 19 26
REMARK SMILES IDX 18 27 25 28 26 29 27 30 28 31 29 32 30 34 31 35 32 36 96 37
REMARK SMILES IDX 33 38 95 39 34 40 35 41 36 42 89 43 37 44 94 45 88 46 90 47
REMARK SMILES IDX 38 48 93 49 87 50 86 51 39 53 73 54 52 55 72 56 53 57 56 58
REMARK SMILES IDX 71 59 91 60 54 61 55 62 70 64 92 65 57 66 40 67 41 68 50 69
REMARK SMILES IDX 42 70 43 71 49 72 51 73 44 74 45 75 46 76 47 77 48 78 74 79
REMARK SMILES IDX 75 80 84 81 76 82 77 83 83 84 85 85 78 86 79 87 80 88 81 89
REMARK SMILES IDX 82 90 58 91 59 92 68 93 60 94 61 95 67 96 69 97 62 98 63 99
REMARK SMILES IDX 64 100 65 101 66 102
REMARK H PARENT 23 5 7 11 8 14 28 33 90 52 56 63
REMARK Flexibility Score: inf
ROOT
ATOM      1  C   UNL     1       2.081  -0.122   2.583  1.00  0.00     0.116 C 
ENDROOT
BRANCH   1   2
ATOM      2  N   UNL     1       2.735   0.036   1.296  1.00  0.00    -0.353 N 
ATOM      3  O   UNL     1       0.811  -0.140   0.044  1.00  0.00    -0.270 OA
ATOM      4  C   UNL     1       2.022   0.032   0.126  1.00  0.00     0.244 C 
ATOM      5  H   UNL     1       3.712   0.148   1.263  1.00  0.00     0.163 HD
BRANCH   4   6
ATOM      6  C   UNL     1       2.784   0.339  -1.106  1.00  0.00     0.077 C 
ATOM      7  C   UNL     1       4.001  -0.157  -1.365  1.00  0.00     0.078 C 
BRANCH   7   8
ATOM      8  C   UNL     1       4.769   0.093  -2.609  1.00  0.00     0.262 C 
ATOM      9  O   UNL     1       5.979   0.293  -2.517  1.00  0.00    -0.268 OA
ATOM     10  N   UNL     1       4.179   0.027  -3.844  1.00  0.00    -0.264 N 
ATOM     11  H   UNL     1       4.766   0.171  -4.621  1.00  0.00     0.191 HD
BRANCH  10  12
ATOM     12  N   UNL     1       2.839  -0.222  -4.112  1.00  0.00    -0.267 N 
ATOM     13  C   UNL     1       2.212   0.024  -5.311  1.00  0.00     0.248 C 
ATOM     14  H   UNL     1       2.296  -0.606  -3.386  1.00  0.00     0.191 HD
ATOM     15  O   UNL     1       0.995  -0.182  -5.376  1.00  0.00    -0.272 OA
BRANCH  13  16
ATOM     16  C   UNL     1       3.013   0.337  -6.565  1.00  0.00     0.178 C 
BRANCH  16  17
ATOM     17  S   UNL     1       4.193   1.711  -6.443  1.00  0.00    -0.096 SA
BRANCH  17  18
ATOM     18  C   UNL     1       3.109   3.122  -6.366  1.00  0.00     0.097 A 
ATOM     19  C   UNL     1       3.670   4.388  -6.443  1.00  0.00     0.036 A 
ATOM     20  N   UNL     1       1.787   2.915  -6.208  1.00  0.00    -0.241 NA
ATOM     21  C   UNL     1       2.836   5.495  -6.339  1.00  0.00     0.013 A 
ATOM     22  C   UNL     1       0.978   3.985  -6.099  1.00  0.00     0.072 A 
ATOM     23  C   UNL     1       1.463   5.309  -6.156  1.00  0.00     0.000 A 
ATOM     24  C   UNL     1      -0.385   3.799  -5.915  1.00  0.00     0.029 A 
ATOM     25  C   UNL     1       0.584   6.398  -6.021  1.00  0.00     0.010 A 
ATOM     26  C   UNL     1      -1.265   4.879  -5.779  1.00  0.00     0.002 A 
ATOM     27  C   UNL     1      -0.778   6.180  -5.830  1.00  0.00     0.001 A 
ENDBRANCH  17  18
ENDBRANCH  16  17
ENDBRANCH  13  16
ENDBRANCH  10  12
ENDBRANCH   7   8
ENDBRANCH   4   6
ENDBRANCH   1   2
BRANCH   1  28
ATOM     28  C   UNL     1       2.447  -1.428   3.285  1.00  0.00     0.023 C 
BRANCH  28  29
ATOM     29  C   UNL     1       3.927  -1.583   3.642  1.00  0.00     0.023 C 
BRANCH  29  30
ATOM     30  C   UNL     1       4.530  -0.449   4.466  1.00  0.00     0.116 C 
BRANCH  30  31
ATOM     31  N   UNL     1       3.894  -0.282   5.763  1.00  0.00    -0.352 N 
ATOM     32  C   UNL     1       4.473  -0.158   7.006  1.00  0.00     0.251 C 
ATOM     33  H   UNL     1       2.910  -0.255   5.751  1.00  0.00     0.163 HD
ATOM     34  O   UNL     1       3.772  -0.159   8.010  1.00  0.00    -0.269 OA
BRANCH  32  35
ATOM     35  C   UNL     1       5.947  -0.058   7.128  1.00  0.00     0.039 A 
ATOM     36  C   UNL     1       6.599  -0.837   8.087  1.00  0.00     0.014 A 
ATOM     37  C   UNL     1       6.684   0.788   6.295  1.00  0.00     0.014 A 
ATOM     38  C   UNL     1       7.994  -0.823   8.160  1.00  0.00     0.010 A 
ATOM     39  C   UNL     1       8.076   0.742   6.317  1.00  0.00     0.010 A 
ATOM     40  C   UNL     1       8.748  -0.065   7.248  1.00  0.00    -0.014 A 
BRANCH  40  41
ATOM     41  C   UNL     1      10.235  -0.113   7.247  1.00  0.00     0.031 A 
ATOM     42  C   UNL     1      11.035   1.130   7.532  1.00  0.00     0.074 A 
ATOM     43  C   UNL     1      10.865  -1.261   6.928  1.00  0.00     0.049 A 
ATOM     44  N   UNL     1      12.332   1.300   7.511  1.00  0.00    -0.248 NA
ATOM     45  C   UNL     1      10.277   2.349   7.859  1.00  0.00     0.031 C 
ATOM     46  C   UNL     1      10.204  -2.522   6.584  1.00  0.00     0.029 A 
ATOM     47  N   UNL     1      12.203  -1.554   6.828  1.00  0.00    -0.354 N 
ATOM     48  C   UNL     1      12.545   2.641   7.812  1.00  0.00     0.074 A 
ATOM     49  C   UNL     1      11.241   3.252   7.952  1.00  0.00     0.031 C 
ATOM     50  C   UNL     1      11.135  -3.455   6.332  1.00  0.00     0.029 A 
ATOM     51  C   UNL     1      12.459  -2.853   6.454  1.00  0.00     0.049 A 
ATOM     52  H   UNL     1      12.913  -0.896   7.008  1.00  0.00     0.167 HD
ATOM     53  C   UNL     1      13.719   3.297   7.981  1.00  0.00     0.037 A 
ATOM     54  C   UNL     1      13.627  -3.486   6.222  1.00  0.00     0.037 A 
ATOM     55  C   UNL     1      15.013   2.678   7.854  1.00  0.00     0.049 A 
ATOM     56  C   UNL     1      14.918  -2.733   6.401  1.00  0.00     0.074 A 
ATOM     57  C   UNL     1      16.260   3.245   8.054  1.00  0.00     0.029 A 
ATOM     58  N   UNL     1      15.231   1.357   7.490  1.00  0.00    -0.354 N 
ATOM     59  N   UNL     1      15.100  -1.481   6.749  1.00  0.00    -0.248 NA
ATOM     60  C   UNL     1      16.161  -3.478   6.164  1.00  0.00     0.031 C 
ATOM     61  C   UNL     1      17.231   2.283   7.761  1.00  0.00     0.029 A 
ATOM     62  C   UNL     1      16.591   1.098   7.436  1.00  0.00     0.049 A 
ATOM     63  H   UNL     1      14.523   0.701   7.298  1.00  0.00     0.167 HD
ATOM     64  C   UNL     1      16.478  -1.297   6.800  1.00  0.00     0.074 A 
ATOM     65  C   UNL     1      17.081  -2.570   6.460  1.00  0.00     0.031 C 
ATOM     66  C   UNL     1      17.180  -0.176   7.103  1.00  0.00     0.037 A 
BRANCH  53  67
ATOM     67  C   UNL     1      13.657   4.762   8.323  1.00  0.00     0.058 A 
ATOM     68  C   UNL     1      13.184   5.209   9.568  1.00  0.00     0.135 A 
ATOM     69  C   UNL     1      14.109   5.730   7.412  1.00  0.00     0.135 A 
ATOM     70  F   UNL     1      12.726   4.330  10.474  1.00  0.00    -0.206 F 
ATOM     71  C   UNL     1      13.130   6.563   9.884  1.00  0.00     0.059 A 
ATOM     72  C   UNL     1      14.095   7.088   7.719  1.00  0.00     0.059 A 
ATOM     73  F   UNL     1      14.573   5.361   6.207  1.00  0.00    -0.206 F 
ATOM     74  C   UNL     1      13.588   7.495   8.952  1.00  0.00     0.060 A 
BRANCH  74  75
ATOM     75  S   UNL     1      13.513   9.247   9.380  1.00  0.00     0.124 S 
ATOM     76  O   UNL     1      12.077   9.500   9.317  1.00  0.00    -0.237 OA
ATOM     77  O   UNL     1      14.102   9.268  10.714  1.00  0.00    -0.237 OA
ATOM     78  O   UNL     1      14.308   9.888   8.336  1.00  0.00    -0.744 OA
ENDBRANCH  74  75
ENDBRANCH  53  67
BRANCH  54  79
ATOM     79  C   UNL     1      13.627  -4.915   5.808  1.00  0.00     0.058 A 
ATOM     80  C   UNL     1      14.095  -5.919   6.669  1.00  0.00     0.135 A 
ATOM     81  C   UNL     1      13.148  -5.309   4.548  1.00  0.00     0.135 A 
ATOM     82  F   UNL     1      14.571  -5.595   7.881  1.00  0.00    -0.206 F 
ATOM     83  C   UNL     1      14.105  -7.258   6.292  1.00  0.00     0.059 A 
ATOM     84  C   UNL     1      13.120  -6.644   4.159  1.00  0.00     0.059 A 
ATOM     85  F   UNL     1      12.673  -4.390   3.692  1.00  0.00    -0.206 F 
ATOM     86  C   UNL     1      13.611  -7.612   5.035  1.00  0.00     0.060 A 
BRANCH  86  87
ATOM     87  S   UNL     1      13.582  -9.358   4.575  1.00  0.00     0.124 S 
ATOM     88  O   UNL     1      14.999  -9.630   4.365  1.00  0.00    -0.237 OA
ATOM     89  O   UNL     1      12.980  -9.974   5.754  1.00  0.00    -0.237 OA
ATOM     90  O   UNL     1      12.750  -9.375   3.376  1.00  0.00    -0.744 OA
ENDBRANCH  86  87
ENDBRANCH  54  79
BRANCH  66  91
ATOM     91  C   UNL     1      18.681  -0.279   7.119  1.00  0.00     0.058 A 
ATOM     92  C   UNL     1      19.429  -0.414   5.939  1.00  0.00     0.135 A 
ATOM     93  C   UNL     1      19.385  -0.187   8.332  1.00  0.00     0.135 A 
ATOM     94  F   UNL     1      18.807  -0.514   4.753  1.00  0.00    -0.206 F 
ATOM     95  C   UNL     1      20.818  -0.478   5.962  1.00  0.00     0.059 A 
ATOM     96  C   UNL     1      20.775  -0.217   8.376  1.00  0.00     0.059 A 
ATOM     97  F   UNL     1      18.720  -0.046   9.490  1.00  0.00    -0.206 F 
ATOM     98  C   UNL     1      21.483  -0.375   7.186  1.00  0.00     0.060 A 
BRANCH  98  99
ATOM     99  S   UNL     1      23.288  -0.424   7.197  1.00  0.00     0.124 S 
ATOM    100  O   UNL     1      23.546  -1.831   6.908  1.00  0.00    -0.237 OA
ATOM    101  O   UNL     1      23.631   0.515   6.133  1.00  0.00    -0.237 OA
ATOM    102  O   UNL     1      23.632   0.013   8.546  1.00  0.00    -0.744 OA
ENDBRANCH  98  99
ENDBRANCH  66  91
ENDBRANCH  40  41
ENDBRANCH  32  35
ENDBRANCH  30  31
ENDBRANCH  29  30
ENDBRANCH  28  29
ENDBRANCH   1  28
TORSDOF 19
