REMARK SMILES COc1cccc(N2/C(=[NH+]/C(=O)CCC(=O)NCCCCNC(=O)c3ccc(-c4c5nc(c(-c6c(F)cc(S(=O)(=O)[O-])cc6F)c6ccc([nH]6)c(-c6c(F)cc(S(=O)(=O)[O-])cc6F)c6nc(c(-c7c(F)cc(S(=O)(=O)[O-])cc7F)c7ccc4[nH]7)C=C6)C=C5)cc3)S[C@@H]3CS(=O)(=O)C[C@H]32)c1
REMARK SMILES IDX 19 1 18 2 17 3 15 4 16 5 14 7 13 8 11 9 8 10 9 11 98 12
REMARK SMILES IDX 10 13 91 14 92 15 97 16 93 18 94 19 12 20 95 21 96 22 7 23
REMARK SMILES IDX 3 24 4 25 99 26 5 27 6 28 2 29 1 30 20 31 21 32 22 33 23 34
REMARK SMILES IDX 24 36 25 37 26 38 90 39 27 40 89 41 28 42 29 43 30 44 83 45
REMARK SMILES IDX 31 46 88 47 82 48 84 49 32 50 87 51 81 52 80 53 33 55 67 56
REMARK SMILES IDX 46 57 66 58 47 59 50 60 65 61 85 62 48 63 49 64 64 66 86 67
REMARK SMILES IDX 51 68 34 69 35 70 44 71 36 72 37 73 43 74 45 75 38 76 39 77
REMARK SMILES IDX 40 78 41 79 42 80 68 81 69 82 78 83 70 84 71 85 77 86 79 87
REMARK SMILES IDX 72 88 73 89 74 90 75 91 76 92 52 93 53 94 62 95 54 96 55 97
REMARK SMILES IDX 61 98 63 99 56 100 57 101 58 102 59 103 60 104
REMARK H PARENT 17 6 10 17 22 35 84 54 50 65
REMARK Flexibility Score: inf
ROOT
ATOM      1  C   UNL     1       5.931  -0.471   1.641  1.00  0.00     0.023 C 
ENDROOT
BRANCH   1   2
ATOM      2  C   UNL     1       5.820   0.096   0.224  1.00  0.00     0.116 C 
BRANCH   2   3
ATOM      3  N   UNL     1       4.735   1.053   0.061  1.00  0.00    -0.356 N 
ATOM      4  C   UNL     1       4.611   2.345   0.466  1.00  0.00     0.220 C 
ATOM      5  O   UNL     1       3.559   2.933   0.216  1.00  0.00    -0.275 OA
ATOM      6  H   UNL     1       3.954   0.704  -0.428  1.00  0.00     0.163 HD
BRANCH   4   7
ATOM      7  C   UNL     1       5.754   3.042   1.163  1.00  0.00     0.112 C 
BRANCH   7   8
ATOM      8  C   UNL     1       5.281   3.694   2.458  1.00  0.00     0.138 C 
BRANCH   8   9
ATOM      9  C   UNL     1       5.604   2.823   3.651  1.00  0.00     0.308 C 
ATOM     10  N   UNL     1       3.645   0.346   5.557  1.00  0.00    -0.216 N 
ATOM     11  C   UNL     1       4.670   1.095   4.938  1.00  0.00     0.319 C 
ATOM     12  C   UNL     1       4.148  -0.872   6.237  1.00  0.00     0.212 C 
ATOM     13  N   UNL     1       4.533   2.115   4.151  1.00  0.00    -0.204 N 
ATOM     14  S   UNL     1       6.262   0.368   5.378  1.00  0.00    -0.029 SA
ATOM     15  C   UNL     1       5.524  -0.459   6.773  1.00  0.00     0.120 C 
ATOM     16  C   UNL     1       3.453  -1.478   7.446  1.00  0.00     0.188 C 
ATOM     17  H   UNL     1       3.624   2.397   3.900  1.00  0.00     0.316 HD
ATOM     18  C   UNL     1       6.151  -1.709   7.326  1.00  0.00     0.156 C 
ATOM     19  S   UNL     1       4.806  -2.280   8.361  1.00  0.00     0.155 S 
ATOM     20  O   UNL     1       6.753   2.843   4.089  1.00  0.00    -0.247 OA
ATOM     21  O   UNL     1       4.941  -1.623   9.643  1.00  0.00    -0.229 OA
ATOM     22  O   UNL     1       4.712  -3.718   8.255  1.00  0.00    -0.229 OA
BRANCH  10  23
ATOM     23  C   UNL     1       2.281   0.415   5.199  1.00  0.00     0.132 A 
ATOM     24  C   UNL     1       0.483   0.398   3.510  1.00  0.00     0.123 A 
ATOM     25  C   UNL     1      -0.454   0.625   4.512  1.00  0.00     0.047 A 
ATOM     26  C   UNL     1       1.836   0.312   3.862  1.00  0.00     0.098 A 
ATOM     27  C   UNL     1      -0.049   0.751   5.838  1.00  0.00     0.008 A 
ATOM     28  C   UNL     1       1.304   0.639   6.176  1.00  0.00     0.052 A 
BRANCH  24  29
ATOM     29  O   UNL     1      -0.053   0.331   2.255  1.00  0.00    -0.497 OA
ATOM     30  C   UNL     1       0.762  -0.047   1.157  1.00  0.00     0.278 C 
ENDBRANCH  24  29
ENDBRANCH  10  23
ENDBRANCH   8   9
ENDBRANCH   7   8
ENDBRANCH   4   7
ENDBRANCH   2   3
ENDBRANCH   1   2
BRANCH   1  31
ATOM     31  C   UNL     1       4.612  -1.018   2.171  1.00  0.00     0.023 C 
BRANCH  31  32
ATOM     32  C   UNL     1       4.377  -2.515   2.204  1.00  0.00     0.116 C 
BRANCH  32  33
ATOM     33  N   UNL     1       5.177  -3.203   3.198  1.00  0.00    -0.352 N 
ATOM     34  C   UNL     1       4.864  -4.096   4.197  1.00  0.00     0.251 C 
ATOM     35  H   UNL     1       6.137  -2.988   3.148  1.00  0.00     0.163 HD
ATOM     36  O   UNL     1       5.801  -4.462   4.909  1.00  0.00    -0.269 OA
BRANCH  34  37
ATOM     37  C   UNL     1       3.476  -4.552   4.524  1.00  0.00     0.039 A 
ATOM     38  C   UNL     1       3.245  -5.041   5.821  1.00  0.00     0.014 A 
ATOM     39  C   UNL     1       2.405  -4.556   3.633  1.00  0.00     0.014 A 
ATOM     40  C   UNL     1       1.969  -5.433   6.247  1.00  0.00     0.010 A 
ATOM     41  C   UNL     1       1.116  -4.897   4.061  1.00  0.00     0.010 A 
ATOM     42  C   UNL     1       0.889  -5.356   5.367  1.00  0.00    -0.014 A 
BRANCH  42  43
ATOM     43  C   UNL     1      -0.429  -5.951   5.702  1.00  0.00     0.031 A 
ATOM     44  C   UNL     1      -0.792  -7.267   5.069  1.00  0.00     0.074 A 
ATOM     45  C   UNL     1      -1.302  -5.330   6.516  1.00  0.00     0.049 A 
ATOM     46  N   UNL     1      -1.923  -7.921   5.093  1.00  0.00    -0.248 NA
ATOM     47  C   UNL     1       0.268  -7.921   4.284  1.00  0.00     0.031 C 
ATOM     48  C   UNL     1      -1.058  -4.077   7.226  1.00  0.00     0.029 A 
ATOM     49  N   UNL     1      -2.585  -5.673   6.870  1.00  0.00    -0.354 N 
ATOM     50  C   UNL     1      -1.719  -9.051   4.310  1.00  0.00     0.074 A 
ATOM     51  C   UNL     1      -0.371  -8.968   3.790  1.00  0.00     0.031 C 
ATOM     52  C   UNL     1      -2.156  -3.756   7.934  1.00  0.00     0.029 A 
ATOM     53  C   UNL     1      -3.196  -4.756   7.691  1.00  0.00     0.049 A 
ATOM     54  H   UNL     1      -3.025  -6.499   6.564  1.00  0.00     0.167 HD
ATOM     55  C   UNL     1      -2.571 -10.072   4.054  1.00  0.00     0.037 A 
ATOM     56  C   UNL     1      -4.456  -4.720   8.174  1.00  0.00     0.037 A 
ATOM     57  C   UNL     1      -3.909 -10.149   4.575  1.00  0.00     0.049 A 
ATOM     58  C   UNL     1      -5.418  -5.825   7.814  1.00  0.00     0.074 A 
ATOM     59  C   UNL     1      -4.850 -11.146   4.390  1.00  0.00     0.029 A 
ATOM     60  N   UNL     1      -4.503  -9.184   5.377  1.00  0.00    -0.354 N 
ATOM     61  N   UNL     1      -5.213  -6.895   7.080  1.00  0.00    -0.248 NA
ATOM     62  C   UNL     1      -6.785  -5.717   8.344  1.00  0.00     0.031 C 
ATOM     63  C   UNL     1      -6.031 -10.755   5.029  1.00  0.00     0.029 A 
ATOM     64  C   UNL     1      -5.807  -9.546   5.669  1.00  0.00     0.049 A 
ATOM     65  H   UNL     1      -4.061  -8.362   5.692  1.00  0.00     0.167 HD
ATOM     66  C   UNL     1      -6.413  -7.602   7.090  1.00  0.00     0.074 A 
ATOM     67  C   UNL     1      -7.337  -6.840   7.905  1.00  0.00     0.031 C 
ATOM     68  C   UNL     1      -6.718  -8.779   6.486  1.00  0.00     0.037 A 
BRANCH  55  69
ATOM     69  C   UNL     1      -2.081 -11.155   3.131  1.00  0.00     0.058 A 
ATOM     70  C   UNL     1      -1.042 -12.030   3.491  1.00  0.00     0.135 A 
ATOM     71  C   UNL     1      -2.634 -11.294   1.847  1.00  0.00     0.135 A 
ATOM     72  F   UNL     1      -0.463 -11.930   4.699  1.00  0.00    -0.206 F 
ATOM     73  C   UNL     1      -0.529 -12.960   2.593  1.00  0.00     0.059 A 
ATOM     74  C   UNL     1      -2.162 -12.242   0.946  1.00  0.00     0.059 A 
ATOM     75  F   UNL     1      -3.629 -10.486   1.448  1.00  0.00    -0.206 F 
ATOM     76  C   UNL     1      -1.089 -13.051   1.318  1.00  0.00     0.060 A 
BRANCH  76  77
ATOM     77  S   UNL     1      -0.378 -14.222   0.144  1.00  0.00     0.124 S 
ATOM     78  O   UNL     1       0.881 -13.565  -0.193  1.00  0.00    -0.237 OA
ATOM     79  O   UNL     1      -0.263 -15.437   0.945  1.00  0.00    -0.237 OA
ATOM     80  O   UNL     1      -1.366 -14.272  -0.928  1.00  0.00    -0.744 OA
ENDBRANCH  76  77
ENDBRANCH  55  69
BRANCH  56  81
ATOM     81  C   UNL     1      -4.879  -3.603   9.063  1.00  0.00     0.058 A 
ATOM     82  C   UNL     1      -5.133  -3.825  10.425  1.00  0.00     0.135 A 
ATOM     83  C   UNL     1      -5.018  -2.292   8.580  1.00  0.00     0.135 A 
ATOM     84  F   UNL     1      -5.035  -5.064  10.931  1.00  0.00    -0.206 F 
ATOM     85  C   UNL     1      -5.504  -2.790  11.278  1.00  0.00     0.059 A 
ATOM     86  C   UNL     1      -5.363  -1.236   9.418  1.00  0.00     0.059 A 
ATOM     87  F   UNL     1      -4.784  -2.024   7.286  1.00  0.00    -0.206 F 
ATOM     88  C   UNL     1      -5.604  -1.495  10.767  1.00  0.00     0.060 A 
BRANCH  88  89
ATOM     89  S   UNL     1      -5.997  -0.146  11.902  1.00  0.00     0.124 S 
ATOM     90  O   UNL     1      -7.392  -0.425  12.223  1.00  0.00    -0.237 OA
ATOM     91  O   UNL     1      -5.037  -0.368  12.979  1.00  0.00    -0.237 OA
ATOM     92  O   UNL     1      -5.760   1.049  11.098  1.00  0.00    -0.744 OA
ENDBRANCH  88  89
ENDBRANCH  56  81
BRANCH  68  93
ATOM     93  C   UNL     1      -8.096  -9.346   6.710  1.00  0.00     0.058 A 
ATOM     94  C   UNL     1      -9.239  -8.775   6.130  1.00  0.00     0.135 A 
ATOM     95  C   UNL     1      -8.263 -10.520   7.464  1.00  0.00     0.135 A 
ATOM     96  F   UNL     1      -9.139  -7.651   5.403  1.00  0.00    -0.206 F 
ATOM     97  C   UNL     1     -10.501  -9.336   6.306  1.00  0.00     0.059 A 
ATOM     98  C   UNL     1      -9.510 -11.115   7.627  1.00  0.00     0.059 A 
ATOM     99  F   UNL     1      -7.202 -11.116   8.032  1.00  0.00    -0.206 F 
ATOM    100  C   UNL     1     -10.626 -10.509   7.053  1.00  0.00     0.060 A 
BRANCH 100 101
ATOM    101  S   UNL     1     -12.263 -11.247   7.239  1.00  0.00     0.124 S 
ATOM    102  O   UNL     1     -12.906 -10.310   8.154  1.00  0.00    -0.237 OA
ATOM    103  O   UNL     1     -12.765 -11.241   5.868  1.00  0.00    -0.237 OA
ATOM    104  O   UNL     1     -11.981 -12.569   7.790  1.00  0.00    -0.744 OA
ENDBRANCH 100 101
ENDBRANCH  68  93
ENDBRANCH  42  43
ENDBRANCH  34  37
ENDBRANCH  32  33
ENDBRANCH  31  32
ENDBRANCH   1  31
TORSDOF 18
