REMARK SMILES NS(=O)(=O)c1ccc(-n2nc(C(=O)NCCCCNC(=O)c3ccc(-c4c5nc(c(-c6c(F)cc(S(=O)(=O)[O-])cc6F)c6ccc([nH]6)c(-c6c(F)cc(S(=O)(=O)[O-])cc6F)c6nc(c(-c7c(F)cc(S(=O)(=O)[O-])cc7F)c7ccc4[nH]7)C=C6)C=C5)cc3)cc2-c2ccc(Cl)s2)cc1
REMARK SMILES IDX 16 1 15 2 14 3 12 4 13 5 11 7 9 8 10 9 89 10 88 11 8 12 5 13
REMARK SMILES IDX 6 14 97 15 7 16 96 17 2 18 3 19 4 20 1 21 90 24 91 25 95 26
REMARK SMILES IDX 92 27 93 28 94 29 17 30 18 31 19 32 20 33 21 35 22 36 23 37
REMARK SMILES IDX 87 38 24 39 86 40 25 41 26 42 27 43 80 44 28 45 85 46 79 47
REMARK SMILES IDX 81 48 29 49 84 50 78 51 77 52 30 54 64 55 43 56 63 57 44 58
REMARK SMILES IDX 47 59 62 60 82 61 45 62 46 63 61 65 83 66 48 67 31 68 32 69
REMARK SMILES IDX 41 70 33 71 34 72 40 73 42 74 35 75 36 76 37 77 38 78 39 79
REMARK SMILES IDX 65 80 66 81 75 82 67 83 68 84 74 85 76 86 69 87 70 88 71 89
REMARK SMILES IDX 72 90 73 91 49 92 50 93 59 94 51 95 52 96 58 97 60 98 53 99
REMARK SMILES IDX 54 100 55 101 56 102 57 103
REMARK H PARENT 14 6 1 22 1 23 19 34 81 53 47 64
REMARK Flexibility Score: inf
ROOT
ATOM      1  C   UNL     1       5.092   2.950  11.159  1.00  0.00     0.023 C 
ENDROOT
BRANCH   1   2
ATOM      2  C   UNL     1       3.837   2.070  11.215  1.00  0.00     0.116 C 
BRANCH   2   3
ATOM      3  N   UNL     1       2.633   2.802  10.878  1.00  0.00    -0.351 N 
ATOM      4  C   UNL     1       1.949   3.025   9.702  1.00  0.00     0.271 C 
ATOM      5  O   UNL     1       0.956   3.751   9.802  1.00  0.00    -0.267 OA
ATOM      6  H   UNL     1       2.213   3.234  11.657  1.00  0.00     0.163 HD
BRANCH   4   7
ATOM      7  C   UNL     1       2.360   2.435   8.405  1.00  0.00     0.151 A 
ATOM      8  N   UNL     1       2.151   1.882   6.329  1.00  0.00    -0.231 N 
ATOM      9  N   UNL     1       1.636   2.682   7.289  1.00  0.00    -0.162 NA
ATOM     10  C   UNL     1       3.331   1.294   6.739  1.00  0.00     0.085 A 
ATOM     11  C   UNL     1       3.472   1.628   8.066  1.00  0.00     0.066 A 
BRANCH   8  12
ATOM     12  C   UNL     1       1.542   1.780   5.053  1.00  0.00     0.065 A 
ATOM     13  C   UNL     1       0.697   1.632   2.410  1.00  0.00     0.082 A 
ATOM     14  C   UNL     1       1.022   0.458   3.094  1.00  0.00     0.024 A 
ATOM     15  C   UNL     1       0.731   2.872   3.059  1.00  0.00     0.024 A 
ATOM     16  C   UNL     1       1.462   0.534   4.415  1.00  0.00     0.030 A 
ATOM     17  C   UNL     1       1.119   2.944   4.401  1.00  0.00     0.030 A 
BRANCH  13  18
ATOM     18  S   UNL     1       0.358   1.588   0.675  1.00  0.00     0.238 S 
ATOM     19  O   UNL     1       1.080   2.657   0.031  1.00  0.00    -0.207 OA
ATOM     20  O   UNL     1      -1.058   1.368   0.478  1.00  0.00    -0.207 OA
BRANCH  18  21
ATOM     21  N   UNL     1       1.117   0.181   0.146  1.00  0.00    -0.225 NA
ATOM     22  H   UNL     1       0.972   0.073  -0.858  1.00  0.00     0.137 HD
ATOM     23  H   UNL     1       0.723  -0.623   0.634  1.00  0.00     0.137 HD
ENDBRANCH  18  21
ENDBRANCH  13  18
ENDBRANCH   8  12
BRANCH  10  24
ATOM     24  C   UNL     1       4.284   0.601   5.926  1.00  0.00     0.054 A 
ATOM     25  C   UNL     1       4.778  -0.672   6.132  1.00  0.00     0.024 A 
ATOM     26  S   UNL     1       5.060   1.375   4.605  1.00  0.00    -0.122 S 
ATOM     27  C   UNL     1       5.812  -1.004   5.205  1.00  0.00     0.033 A 
ATOM     28  C   UNL     1       6.052   0.033   4.342  1.00  0.00     0.094 A 
ATOM     29  Cl  UNL     1       7.232   0.079   3.096  1.00  0.00    -0.072 Cl
ENDBRANCH  10  24
ENDBRANCH   4   7
ENDBRANCH   2   3
ENDBRANCH   1   2
BRANCH   1  30
ATOM     30  C   UNL     1       5.323   3.845  12.390  1.00  0.00     0.023 C 
BRANCH  30  31
ATOM     31  C   UNL     1       5.602   3.109  13.700  1.00  0.00     0.116 C 
BRANCH  31  32
ATOM     32  N   UNL     1       6.804   2.264  13.659  1.00  0.00    -0.352 N 
ATOM     33  C   UNL     1       7.183   1.257  14.541  1.00  0.00     0.251 C 
ATOM     34  H   UNL     1       7.422   2.432  12.911  1.00  0.00     0.163 HD
ATOM     35  O   UNL     1       8.355   0.920  14.648  1.00  0.00    -0.269 OA
BRANCH  33  36
ATOM     36  C   UNL     1       6.130   0.578  15.315  1.00  0.00     0.039 A 
ATOM     37  C   UNL     1       6.267   0.186  16.650  1.00  0.00     0.014 A 
ATOM     38  C   UNL     1       4.932   0.390  14.645  1.00  0.00     0.014 A 
ATOM     39  C   UNL     1       5.149  -0.330  17.309  1.00  0.00     0.010 A 
ATOM     40  C   UNL     1       3.797   0.160  15.359  1.00  0.00     0.010 A 
ATOM     41  C   UNL     1       3.911  -0.330  16.648  1.00  0.00    -0.014 A 
BRANCH  41  42
ATOM     42  C   UNL     1       2.670  -0.773  17.264  1.00  0.00     0.031 A 
ATOM     43  C   UNL     1       2.300  -0.032  18.496  1.00  0.00     0.074 A 
ATOM     44  C   UNL     1       1.796  -1.572  16.606  1.00  0.00     0.049 A 
ATOM     45  N   UNL     1       2.334  -0.460  19.713  1.00  0.00    -0.248 NA
ATOM     46  C   UNL     1       2.029   1.411  18.383  1.00  0.00     0.031 C 
ATOM     47  C   UNL     1       1.872  -2.090  15.229  1.00  0.00     0.029 A 
ATOM     48  N   UNL     1       0.573  -2.004  17.003  1.00  0.00    -0.354 N 
ATOM     49  C   UNL     1       1.828   0.579  20.489  1.00  0.00     0.074 A 
ATOM     50  C   UNL     1       1.894   1.757  19.665  1.00  0.00     0.031 C 
ATOM     51  C   UNL     1       0.659  -2.542  14.841  1.00  0.00     0.029 A 
ATOM     52  C   UNL     1      -0.227  -2.524  15.988  1.00  0.00     0.049 A 
ATOM     53  H   UNL     1       0.273  -1.954  17.939  1.00  0.00     0.167 HD
ATOM     54  C   UNL     1       1.137   0.328  21.637  1.00  0.00     0.037 A 
ATOM     55  C   UNL     1      -1.530  -2.889  16.096  1.00  0.00     0.037 A 
ATOM     56  C   UNL     1       1.307  -1.046  22.051  1.00  0.00     0.049 A 
ATOM     57  C   UNL     1      -1.790  -3.088  17.549  1.00  0.00     0.074 A 
ATOM     58  C   UNL     1       2.397  -1.839  22.356  1.00  0.00     0.029 A 
ATOM     59  N   UNL     1       0.275  -1.919  21.793  1.00  0.00    -0.354 N 
ATOM     60  N   UNL     1      -1.224  -4.027  18.261  1.00  0.00    -0.248 NA
ATOM     61  C   UNL     1      -2.276  -1.943  18.303  1.00  0.00     0.031 C 
ATOM     62  C   UNL     1       2.104  -3.105  21.767  1.00  0.00     0.029 A 
ATOM     63  C   UNL     1       0.822  -3.040  21.220  1.00  0.00     0.049 A 
ATOM     64  H   UNL     1      -0.679  -1.768  21.984  1.00  0.00     0.167 HD
ATOM     65  C   UNL     1      -0.904  -3.419  19.468  1.00  0.00     0.074 A 
ATOM     66  C   UNL     1      -1.637  -2.152  19.458  1.00  0.00     0.031 C 
ATOM     67  C   UNL     1       0.149  -3.850  20.226  1.00  0.00     0.037 A 
BRANCH  54  68
ATOM     68  C   UNL     1       0.014   1.187  22.172  1.00  0.00     0.058 A 
ATOM     69  C   UNL     1      -0.503   0.914  23.455  1.00  0.00     0.135 A 
ATOM     70  C   UNL     1      -0.755   2.073  21.384  1.00  0.00     0.135 A 
ATOM     71  F   UNL     1       0.143   0.085  24.291  1.00  0.00    -0.206 F 
ATOM     72  C   UNL     1      -1.730   1.416  23.890  1.00  0.00     0.059 A 
ATOM     73  C   UNL     1      -1.952   2.630  21.819  1.00  0.00     0.059 A 
ATOM     74  F   UNL     1      -0.443   2.366  20.116  1.00  0.00    -0.206 F 
ATOM     75  C   UNL     1      -2.454   2.261  23.055  1.00  0.00     0.060 A 
BRANCH  75  76
ATOM     76  S   UNL     1      -4.087   2.821  23.565  1.00  0.00     0.124 S 
ATOM     77  O   UNL     1      -4.849   1.580  23.508  1.00  0.00    -0.237 OA
ATOM     78  O   UNL     1      -3.820   3.350  24.899  1.00  0.00    -0.237 OA
ATOM     79  O   UNL     1      -4.428   3.821  22.557  1.00  0.00    -0.744 OA
ENDBRANCH  75  76
ENDBRANCH  54  68
BRANCH  55  80
ATOM     80  C   UNL     1      -2.626  -2.711  15.102  1.00  0.00     0.058 A 
ATOM     81  C   UNL     1      -3.875  -3.335  15.277  1.00  0.00     0.135 A 
ATOM     82  C   UNL     1      -2.574  -1.695  14.125  1.00  0.00     0.135 A 
ATOM     83  F   UNL     1      -4.021  -4.304  16.193  1.00  0.00    -0.206 F 
ATOM     84  C   UNL     1      -5.017  -2.935  14.572  1.00  0.00     0.059 A 
ATOM     85  C   UNL     1      -3.697  -1.284  13.406  1.00  0.00     0.059 A 
ATOM     86  F   UNL     1      -1.444  -1.005  13.907  1.00  0.00    -0.206 F 
ATOM     87  C   UNL     1      -4.923  -1.889  13.655  1.00  0.00     0.060 A 
BRANCH  87  88
ATOM     88  S   UNL     1      -6.429  -1.242  12.884  1.00  0.00     0.124 S 
ATOM     89  O   UNL     1      -6.803  -2.333  11.991  1.00  0.00    -0.237 OA
ATOM     90  O   UNL     1      -7.301  -1.036  14.036  1.00  0.00    -0.237 OA
ATOM     91  O   UNL     1      -5.974  -0.022  12.224  1.00  0.00    -0.744 OA
ENDBRANCH  87  88
ENDBRANCH  55  80
BRANCH  67  92
ATOM     92  C   UNL     1       0.799  -5.167  19.877  1.00  0.00     0.058 A 
ATOM     93  C   UNL     1       1.496  -5.428  18.682  1.00  0.00     0.135 A 
ATOM     94  C   UNL     1       0.861  -6.151  20.874  1.00  0.00     0.135 A 
ATOM     95  F   UNL     1       1.577  -4.505  17.715  1.00  0.00    -0.206 F 
ATOM     96  C   UNL     1       2.188  -6.625  18.476  1.00  0.00     0.059 A 
ATOM     97  C   UNL     1       1.569  -7.338  20.704  1.00  0.00     0.059 A 
ATOM     98  F   UNL     1       0.271  -5.939  22.062  1.00  0.00    -0.206 F 
ATOM     99  C   UNL     1       2.220  -7.574  19.496  1.00  0.00     0.060 A 
BRANCH  99 100
ATOM    100  S   UNL     1       3.170  -9.092  19.259  1.00  0.00     0.124 S 
ATOM    101  O   UNL     1       2.372  -9.802  18.266  1.00  0.00    -0.237 OA
ATOM    102  O   UNL     1       4.460  -8.591  18.795  1.00  0.00    -0.237 OA
ATOM    103  O   UNL     1       3.189  -9.694  20.590  1.00  0.00    -0.744 OA
ENDBRANCH  99 100
ENDBRANCH  67  92
ENDBRANCH  41  42
ENDBRANCH  33  36
ENDBRANCH  31  32
ENDBRANCH  30  31
ENDBRANCH   1  30
TORSDOF 18
