REMARK SMILES CC[NH2+][C@@]1(C(=O)NCCCCNC(=O)c2ccc(-c3c4nc(c(-c5c(F)cc(S(=O)(=O)[O-])cc5F)c5ccc([nH]5)c(-c5c(F)cc(S(=O)(=O)[O-])cc5F)c5nc(c(-c6c(F)cc(S(=O)(=O)[O-])cc6F)c6ccc3[nH]6)C=C5)C=C4)cc2)CC[C@H]([NH+]2CCC(C(C)(C)C)CC2)C1
REMARK SMILES IDX 10 1 9 2 8 3 7 4 5 5 6 6 4 8 81 9 94 10 82 11 83 12 3 13
REMARK SMILES IDX 2 16 1 17 84 18 85 19 93 20 86 22 92 23 87 24 88 25 89 26
REMARK SMILES IDX 90 27 91 28 11 29 12 30 13 31 14 33 15 34 16 35 80 36 17 37
REMARK SMILES IDX 79 38 18 39 19 40 20 41 73 42 21 43 78 44 72 45 74 46 22 47
REMARK SMILES IDX 77 48 71 49 70 50 23 52 57 53 36 54 56 55 37 56 40 57 55 58
REMARK SMILES IDX 75 59 38 60 39 61 54 63 76 64 41 65 24 66 25 67 34 68 26 69
REMARK SMILES IDX 27 70 33 71 35 72 28 73 29 74 30 75 31 76 32 77 58 78 59 79
REMARK SMILES IDX 68 80 60 81 61 82 67 83 69 84 62 85 63 86 64 87 65 88 66 89
REMARK SMILES IDX 42 90 43 91 52 92 44 93 45 94 51 95 53 96 46 97 47 98 48 99
REMARK SMILES IDX 49 100 50 101
REMARK H PARENT 7 7 3 14 3 15 84 21 12 32 74 51 40 62
REMARK Flexibility Score: inf
ROOT
ATOM      1  C   UNL     1      -3.083   7.010   2.593  1.00  0.00     0.023 C 
ENDROOT
BRANCH   1   2
ATOM      2  C   UNL     1      -2.002   6.956   1.285  1.00  0.00     0.023 C 
BRANCH   2   3
ATOM      3  C   UNL     1      -0.130   6.159   0.705  1.00  0.00     0.116 C 
BRANCH   3   4
ATOM      4  N   UNL     1       0.688   4.882   1.128  1.00  0.00    -0.351 N 
ATOM      5  C   UNL     1       1.036   3.679   0.619  1.00  0.00     0.281 C 
ATOM      6  O   UNL     1       1.857   3.053   1.308  1.00  0.00    -0.268 OA
ATOM      7  H   UNL     1       1.055   4.992   2.035  1.00  0.00     0.163 HD
BRANCH   5   8
ATOM      8  C   UNL     1       0.568   3.128  -0.754  1.00  0.00     0.181 C 
ATOM      9  C   UNL     1       1.126   4.080  -1.819  1.00  0.00     0.085 C 
ATOM     10  C   UNL     1      -0.939   3.084  -1.026  1.00  0.00     0.144 C 
ATOM     11  C   UNL     1      -0.079   4.856  -2.346  1.00  0.00     0.072 C 
ATOM     12  C   UNL     1      -1.317   4.486  -1.468  1.00  0.00     0.191 C 
BRANCH   8  13
ATOM     13  N   UNL     1       1.186   1.780  -0.966  1.00  0.00    -0.334 N 
ATOM     14  H   UNL     1       1.102   1.538  -1.953  1.00  0.00     0.347 HD
ATOM     15  H   UNL     1       2.158   1.845  -0.664  1.00  0.00     0.347 HD
BRANCH  13  16
ATOM     16  C   UNL     1       0.558   0.716  -0.172  1.00  0.00     0.257 C 
ATOM     17  C   UNL     1       1.200  -0.620  -0.515  1.00  0.00     0.071 C 
ENDBRANCH  13  16
ENDBRANCH   8  13
BRANCH  12  18
ATOM     18  N   UNL     1      -1.797   5.395  -0.400  1.00  0.00    -0.332 N 
ATOM     19  C   UNL     1      -1.487   7.140  -0.836  1.00  0.00     0.262 C 
ATOM     20  C   UNL     1      -1.677   4.870   1.381  1.00  0.00     0.262 C 
ATOM     21  H   UNL     1      -2.811   5.286  -0.397  1.00  0.00     0.348 HD
ATOM     22  C   UNL     1      -0.459   8.299   0.303  1.00  0.00     0.066 C 
ATOM     23  C   UNL     1      -0.748   6.009   2.719  1.00  0.00     0.066 C 
ATOM     24  C   UNL     1      -0.163   7.795   2.163  1.00  0.00     0.005 C 
BRANCH  24  25
ATOM     25  C   UNL     1       1.304   8.258   2.632  1.00  0.00    -0.035 C 
ATOM     26  C   UNL     1       1.315   9.805   2.634  1.00  0.00     0.011 C 
ATOM     27  C   UNL     1       1.611   7.746   4.045  1.00  0.00     0.011 C 
ATOM     28  C   UNL     1       2.501   7.837   1.737  1.00  0.00     0.011 C 
ENDBRANCH  24  25
ENDBRANCH  12  18
ENDBRANCH   5   8
ENDBRANCH   3   4
ENDBRANCH   2   3
ENDBRANCH   1   2
BRANCH   1  29
ATOM     29  C   UNL     1      -3.034   8.172   3.595  1.00  0.00     0.116 C 
BRANCH  29  30
ATOM     30  N   UNL     1      -2.925   9.482   2.967  1.00  0.00    -0.352 N 
ATOM     31  C   UNL     1      -2.635  10.689   3.564  1.00  0.00     0.251 C 
ATOM     32  H   UNL     1      -3.078   9.508   1.995  1.00  0.00     0.163 HD
ATOM     33  O   UNL     1      -2.504  11.704   2.911  1.00  0.00    -0.269 OA
BRANCH  31  34
ATOM     34  C   UNL     1      -2.602  10.724   5.039  1.00  0.00     0.039 A 
ATOM     35  C   UNL     1      -3.639  11.397   5.682  1.00  0.00     0.014 A 
ATOM     36  C   UNL     1      -1.653  10.001   5.762  1.00  0.00     0.014 A 
ATOM     37  C   UNL     1      -3.772  11.279   7.061  1.00  0.00     0.010 A 
ATOM     38  C   UNL     1      -1.826   9.828   7.131  1.00  0.00     0.010 A 
ATOM     39  C   UNL     1      -2.895  10.457   7.787  1.00  0.00    -0.014 A 
BRANCH  39  40
ATOM     40  C   UNL     1      -3.114  10.254   9.238  1.00  0.00     0.031 A 
ATOM     41  C   UNL     1      -2.134  10.812  10.226  1.00  0.00     0.074 A 
ATOM     42  C   UNL     1      -4.198   9.567   9.648  1.00  0.00     0.049 A 
ATOM     43  N   UNL     1      -2.181  10.791  11.531  1.00  0.00    -0.248 NA
ATOM     44  C   UNL     1      -0.935  11.466   9.677  1.00  0.00     0.031 C 
ATOM     45  C   UNL     1      -5.183   8.938   8.762  1.00  0.00     0.029 A 
ATOM     46  N   UNL     1      -4.664   9.290  10.907  1.00  0.00    -0.354 N 
ATOM     47  C   UNL     1      -1.023  11.427  11.959  1.00  0.00     0.074 A 
ATOM     48  C   UNL     1      -0.263  11.767  10.778  1.00  0.00     0.031 C 
ATOM     49  C   UNL     1      -6.154   8.383   9.507  1.00  0.00     0.029 A 
ATOM     50  C   UNL     1      -5.848   8.591  10.918  1.00  0.00     0.049 A 
ATOM     51  H   UNL     1      -4.194   9.567  11.727  1.00  0.00     0.167 HD
ATOM     52  C   UNL     1      -0.644  11.724  13.225  1.00  0.00     0.037 A 
ATOM     53  C   UNL     1      -6.604   8.174  11.953  1.00  0.00     0.037 A 
ATOM     54  C   UNL     1      -1.422  11.388  14.388  1.00  0.00     0.049 A 
ATOM     55  C   UNL     1      -6.163   8.520  13.350  1.00  0.00     0.074 A 
ATOM     56  C   UNL     1      -1.157  11.677  15.714  1.00  0.00     0.029 A 
ATOM     57  N   UNL     1      -2.618  10.683  14.361  1.00  0.00    -0.354 N 
ATOM     58  N   UNL     1      -5.101   9.188  13.736  1.00  0.00    -0.248 NA
ATOM     59  C   UNL     1      -7.024   8.069  14.450  1.00  0.00     0.031 C 
ATOM     60  C   UNL     1      -2.170  11.107  16.493  1.00  0.00     0.029 A 
ATOM     61  C   UNL     1      -3.093  10.508  15.649  1.00  0.00     0.049 A 
ATOM     62  H   UNL     1      -3.063  10.355  13.546  1.00  0.00     0.167 HD
ATOM     63  C   UNL     1      -5.178   9.258  15.122  1.00  0.00     0.074 A 
ATOM     64  C   UNL     1      -6.400   8.578  15.504  1.00  0.00     0.031 C 
ATOM     65  C   UNL     1      -4.318   9.831  16.000  1.00  0.00     0.037 A 
BRANCH  52  66
ATOM     66  C   UNL     1       0.663  12.444  13.406  1.00  0.00     0.058 A 
ATOM     67  C   UNL     1       0.831  13.780  13.007  1.00  0.00     0.135 A 
ATOM     68  C   UNL     1       1.760  11.796  13.997  1.00  0.00     0.135 A 
ATOM     69  F   UNL     1      -0.178  14.442  12.419  1.00  0.00    -0.206 F 
ATOM     70  C   UNL     1       2.047  14.438  13.156  1.00  0.00     0.059 A 
ATOM     71  C   UNL     1       2.978  12.444  14.183  1.00  0.00     0.059 A 
ATOM     72  F   UNL     1       1.657  10.518  14.393  1.00  0.00    -0.206 F 
ATOM     73  C   UNL     1       3.116  13.760  13.744  1.00  0.00     0.060 A 
BRANCH  73  74
ATOM     74  S   UNL     1       4.689  14.627  13.929  1.00  0.00     0.124 S 
ATOM     75  O   UNL     1       5.163  14.666  12.549  1.00  0.00    -0.237 OA
ATOM     76  O   UNL     1       4.274  15.908  14.492  1.00  0.00    -0.237 OA
ATOM     77  O   UNL     1       5.449  13.765  14.829  1.00  0.00    -0.744 OA
ENDBRANCH  73  74
ENDBRANCH  52  66
BRANCH  53  78
ATOM     78  C   UNL     1      -7.859   7.414  11.704  1.00  0.00     0.058 A 
ATOM     79  C   UNL     1      -9.117   7.979  11.964  1.00  0.00     0.135 A 
ATOM     80  C   UNL     1      -7.828   6.109  11.187  1.00  0.00     0.135 A 
ATOM     81  F   UNL     1      -9.202   9.222  12.463  1.00  0.00    -0.206 F 
ATOM     82  C   UNL     1     -10.296   7.275  11.739  1.00  0.00     0.059 A 
ATOM     83  C   UNL     1      -8.994   5.394  10.928  1.00  0.00     0.059 A 
ATOM     84  F   UNL     1      -6.653   5.526  10.902  1.00  0.00    -0.206 F 
ATOM     85  C   UNL     1     -10.224   5.982  11.218  1.00  0.00     0.060 A 
BRANCH  85  86
ATOM     86  S   UNL     1     -11.761   5.093  10.886  1.00  0.00     0.124 S 
ATOM     87  O   UNL     1     -12.210   4.768  12.234  1.00  0.00    -0.237 OA
ATOM     88  O   UNL     1     -12.547   6.097  10.174  1.00  0.00    -0.237 OA
ATOM     89  O   UNL     1     -11.324   3.961  10.075  1.00  0.00    -0.744 OA
ENDBRANCH  85  86
ENDBRANCH  53  78
BRANCH  65  90
ATOM     90  C   UNL     1      -4.681   9.771  17.458  1.00  0.00     0.058 A 
ATOM     91  C   UNL     1      -4.592   8.578  18.191  1.00  0.00     0.135 A 
ATOM     92  C   UNL     1      -5.063  10.937  18.141  1.00  0.00     0.135 A 
ATOM     93  F   UNL     1      -4.237   7.435  17.582  1.00  0.00    -0.206 F 
ATOM     94  C   UNL     1      -4.891   8.537  19.548  1.00  0.00     0.059 A 
ATOM     95  C   UNL     1      -5.338  10.925  19.504  1.00  0.00     0.059 A 
ATOM     96  F   UNL     1      -5.152  12.106  17.487  1.00  0.00    -0.206 F 
ATOM     97  C   UNL     1      -5.260   9.718  20.196  1.00  0.00     0.060 A 
BRANCH  97  98
ATOM     98  S   UNL     1      -5.609   9.659  21.966  1.00  0.00     0.124 S 
ATOM     99  O   UNL     1      -6.910   8.999  21.987  1.00  0.00    -0.237 OA
ATOM    100  O   UNL     1      -4.491   8.872  22.478  1.00  0.00    -0.237 OA
ATOM    101  O   UNL     1      -5.610  11.065  22.359  1.00  0.00    -0.744 OA
ENDBRANCH  97  98
ENDBRANCH  65  90
ENDBRANCH  39  40
ENDBRANCH  31  34
ENDBRANCH  29  30
ENDBRANCH   1  29
TORSDOF 18
