REMARK SMILES Cc1c(CCC(=O)N2CCC(C(=O)NCCCCNC(=O)c3ccc(-c4c5nc(c(-c6c(F)cc(S(=O)(=O)[O-])cc6F)c6ccc([nH]6)c(-c6c(F)cc(S(=O)(=O)[O-])cc6F)c6nc(c(-c7c(F)cc(S(=O)(=O)[O-])cc7F)c7ccc4[nH]7)C=C6)C=C5)cc3)CC2)c(=O)oc2cc3oc4c(c3cc12)CCCC4
REMARK SMILES IDX 16 1 15 2 14 3 12 4 13 5 11 7 6 8 7 9 8 10 9 11 89 12 10 13
REMARK SMILES IDX 88 14 5 15 4 16 3 17 1 18 2 19 101 20 90 21 93 22 100 23
REMARK SMILES IDX 91 24 92 25 94 26 99 27 95 28 98 29 96 30 97 31 102 32
REMARK SMILES IDX 105 33 103 34 104 35 17 36 18 37 19 38 20 39 21 41 22 42
REMARK SMILES IDX 23 43 87 44 24 45 86 46 25 47 26 48 27 49 80 50 28 51 85 52
REMARK SMILES IDX 79 53 81 54 29 55 84 56 78 57 77 58 30 60 64 61 43 62 63 63
REMARK SMILES IDX 44 64 47 65 62 66 82 67 45 68 46 69 61 71 83 72 48 73 31 74
REMARK SMILES IDX 32 75 41 76 33 77 34 78 40 79 42 80 35 81 36 82 37 83 38 84
REMARK SMILES IDX 39 85 65 86 66 87 75 88 67 89 68 90 74 91 76 92 69 93 70 94
REMARK SMILES IDX 71 95 72 96 73 97 49 98 50 99 59 100 51 101 52 102 58 103
REMARK SMILES IDX 60 104 53 105 54 106 55 107 56 108 57 109
REMARK H PARENT 14 6 19 40 81 59 47 70
REMARK Flexibility Score: inf
ROOT
ATOM      1  C   UNL     1       2.138  -3.950   2.932  1.00  0.00     0.023 C 
ENDROOT
BRANCH   1   2
ATOM      2  C   UNL     1       1.591  -3.059   1.829  1.00  0.00     0.116 C 
BRANCH   2   3
ATOM      3  N   UNL     1       0.534  -3.748   1.112  1.00  0.00    -0.356 N 
ATOM      4  C   UNL     1      -0.785  -3.471   0.989  1.00  0.00     0.223 C 
ATOM      5  O   UNL     1      -1.494  -4.314   0.433  1.00  0.00    -0.275 OA
ATOM      6  H   UNL     1       0.828  -4.556   0.633  1.00  0.00     0.163 HD
BRANCH   4   7
ATOM      7  C   UNL     1      -1.336  -2.094   1.304  1.00  0.00     0.082 C 
ATOM      8  C   UNL     1      -0.085   1.701   1.794  1.00  0.00     0.222 C 
ATOM      9  O   UNL     1       0.690   1.680   2.751  1.00  0.00    -0.275 OA
ATOM     10  N   UNL     1      -1.130   0.778   1.672  1.00  0.00    -0.343 N 
ATOM     11  C   UNL     1      -1.637  -0.028   2.808  1.00  0.00     0.120 C 
ATOM     12  C   UNL     1      -1.381   0.175   0.387  1.00  0.00     0.120 C 
ATOM     13  C   UNL     1      -1.357  -1.561   2.735  1.00  0.00     0.035 C 
ATOM     14  C   UNL     1      -0.581  -1.111   0.435  1.00  0.00     0.035 C 
BRANCH   8  15
ATOM     15  C   UNL     1       0.004   2.833   0.733  1.00  0.00     0.105 C 
BRANCH  15  16
ATOM     16  C   UNL     1       1.138   2.806  -0.329  1.00  0.00     0.053 C 
BRANCH  16  17
ATOM     17  C   UNL     1       0.704   2.266  -1.681  1.00  0.00     0.042 A 
ATOM     18  C   UNL     1       1.925   0.064  -1.497  1.00  0.00     0.046 C 
ATOM     19  C   UNL     1       0.865   0.985  -2.025  1.00  0.00    -0.030 A 
ATOM     20  C   UNL     1      -0.020   0.508  -3.069  1.00  0.00     0.022 A 
ATOM     21  C   UNL     1       0.185   3.165  -2.773  1.00  0.00     0.339 A 
ATOM     22  C   UNL     1      -0.116   1.232  -4.230  1.00  0.00     0.142 A 
ATOM     23  C   UNL     1      -0.814  -0.607  -2.926  1.00  0.00     0.024 A 
ATOM     24  O   UNL     1      -0.053   4.349  -2.565  1.00  0.00    -0.246 OA
ATOM     25  O   UNL     1       0.143   2.614  -4.092  1.00  0.00    -0.422 OA
ATOM     26  C   UNL     1      -0.510   0.614  -5.433  1.00  0.00     0.095 A 
ATOM     27  C   UNL     1      -1.199  -1.289  -4.061  1.00  0.00     0.025 A 
ATOM     28  C   UNL     1      -0.901  -0.733  -5.296  1.00  0.00     0.138 A 
ATOM     29  C   UNL     1      -1.621  -2.615  -4.237  1.00  0.00     0.001 A 
ATOM     30  O   UNL     1      -0.945  -1.746  -6.232  1.00  0.00    -0.461 OA
ATOM     31  C   UNL     1      -1.221  -2.888  -5.523  1.00  0.00     0.108 A 
ATOM     32  C   UNL     1      -1.791  -3.698  -3.225  1.00  0.00     0.040 C 
ATOM     33  C   UNL     1      -0.619  -4.207  -5.867  1.00  0.00     0.076 C 
ATOM     34  C   UNL     1      -0.585  -4.655  -3.275  1.00  0.00     0.005 C 
ATOM     35  C   UNL     1       0.208  -4.641  -4.615  1.00  0.00     0.008 C 
ENDBRANCH  16  17
ENDBRANCH  15  16
ENDBRANCH   8  15
ENDBRANCH   4   7
ENDBRANCH   2   3
ENDBRANCH   1   2
BRANCH   1  36
ATOM     36  C   UNL     1       2.676  -5.278   2.404  1.00  0.00     0.023 C 
BRANCH  36  37
ATOM     37  C   UNL     1       3.814  -5.107   1.397  1.00  0.00     0.116 C 
BRANCH  37  38
ATOM     38  N   UNL     1       5.071  -4.769   2.041  1.00  0.00    -0.352 N 
ATOM     39  C   UNL     1       5.863  -5.617   2.781  1.00  0.00     0.251 C 
ATOM     40  H   UNL     1       5.387  -3.842   1.939  1.00  0.00     0.163 HD
ATOM     41  O   UNL     1       6.845  -5.208   3.388  1.00  0.00    -0.269 OA
BRANCH  39  42
ATOM     42  C   UNL     1       5.456  -7.033   2.839  1.00  0.00     0.039 A 
ATOM     43  C   UNL     1       5.427  -7.782   1.656  1.00  0.00     0.014 A 
ATOM     44  C   UNL     1       4.956  -7.547   4.034  1.00  0.00     0.014 A 
ATOM     45  C   UNL     1       4.828  -9.034   1.648  1.00  0.00     0.010 A 
ATOM     46  C   UNL     1       4.372  -8.811   4.027  1.00  0.00     0.010 A 
ATOM     47  C   UNL     1       4.309  -9.557   2.834  1.00  0.00    -0.014 A 
BRANCH  47  48
ATOM     48  C   UNL     1       3.945 -10.984   2.845  1.00  0.00     0.031 A 
ATOM     49  C   UNL     1       4.916 -11.785   3.630  1.00  0.00     0.074 A 
ATOM     50  C   UNL     1       2.690 -11.466   2.733  1.00  0.00     0.049 A 
ATOM     51  N   UNL     1       4.799 -11.812   4.919  1.00  0.00    -0.248 NA
ATOM     52  C   UNL     1       6.198 -12.281   3.143  1.00  0.00     0.031 C 
ATOM     53  C   UNL     1       1.471 -10.661   2.868  1.00  0.00     0.029 A 
ATOM     54  N   UNL     1       2.237 -12.767   2.684  1.00  0.00    -0.354 N 
ATOM     55  C   UNL     1       6.007 -12.215   5.439  1.00  0.00     0.074 A 
ATOM     56  C   UNL     1       6.832 -12.550   4.299  1.00  0.00     0.031 C 
ATOM     57  C   UNL     1       0.425 -11.492   3.053  1.00  0.00     0.029 A 
ATOM     58  C   UNL     1       0.866 -12.876   2.894  1.00  0.00     0.049 A 
ATOM     59  H   UNL     1       2.823 -13.540   2.518  1.00  0.00     0.167 HD
ATOM     60  C   UNL     1       6.216 -12.220   6.783  1.00  0.00     0.037 A 
ATOM     61  C   UNL     1       0.213 -13.944   3.423  1.00  0.00     0.037 A 
ATOM     62  C   UNL     1       5.112 -11.802   7.625  1.00  0.00     0.049 A 
ATOM     63  C   UNL     1       0.702 -13.974   4.846  1.00  0.00     0.074 A 
ATOM     64  C   UNL     1       4.887 -11.068   8.772  1.00  0.00     0.029 A 
ATOM     65  N   UNL     1       3.874 -12.201   7.208  1.00  0.00    -0.354 N 
ATOM     66  N   UNL     1       0.267 -13.213   5.816  1.00  0.00    -0.248 NA
ATOM     67  C   UNL     1       1.915 -14.743   5.171  1.00  0.00     0.031 C 
ATOM     68  C   UNL     1       3.469 -11.089   9.027  1.00  0.00     0.029 A 
ATOM     69  C   UNL     1       2.861 -11.868   8.055  1.00  0.00     0.049 A 
ATOM     70  H   UNL     1       3.727 -12.688   6.366  1.00  0.00     0.167 HD
ATOM     71  C   UNL     1       1.287 -13.220   6.759  1.00  0.00     0.074 A 
ATOM     72  C   UNL     1       2.186 -14.293   6.390  1.00  0.00     0.031 C 
ATOM     73  C   UNL     1       1.518 -12.200   7.633  1.00  0.00     0.037 A 
BRANCH  60  74
ATOM     74  C   UNL     1       7.391 -12.878   7.384  1.00  0.00     0.058 A 
ATOM     75  C   UNL     1       7.224 -14.197   7.836  1.00  0.00     0.135 A 
ATOM     76  C   UNL     1       8.605 -12.236   7.639  1.00  0.00     0.135 A 
ATOM     77  F   UNL     1       6.076 -14.851   7.592  1.00  0.00    -0.206 F 
ATOM     78  C   UNL     1       8.212 -14.851   8.555  1.00  0.00     0.059 A 
ATOM     79  C   UNL     1       9.617 -12.876   8.356  1.00  0.00     0.059 A 
ATOM     80  F   UNL     1       8.809 -10.978   7.219  1.00  0.00    -0.206 F 
ATOM     81  C   UNL     1       9.401 -14.175   8.824  1.00  0.00     0.060 A 
BRANCH  81  82
ATOM     82  S   UNL     1      10.643 -15.030   9.817  1.00  0.00     0.124 S 
ATOM     83  O   UNL     1       9.939 -15.222  11.080  1.00  0.00    -0.237 OA
ATOM     84  O   UNL     1      10.879 -16.236   9.029  1.00  0.00    -0.237 OA
ATOM     85  O   UNL     1      11.754 -14.084   9.857  1.00  0.00    -0.744 OA
ENDBRANCH  81  82
ENDBRANCH  60  74
BRANCH  61  86
ATOM     86  C   UNL     1       0.093 -15.166   2.562  1.00  0.00     0.058 A 
ATOM     87  C   UNL     1      -0.308 -15.021   1.216  1.00  0.00     0.135 A 
ATOM     88  C   UNL     1       0.298 -16.486   2.997  1.00  0.00     0.135 A 
ATOM     89  F   UNL     1      -0.662 -13.816   0.738  1.00  0.00    -0.206 F 
ATOM     90  C   UNL     1      -0.365 -16.096   0.329  1.00  0.00     0.059 A 
ATOM     91  C   UNL     1       0.281 -17.574   2.123  1.00  0.00     0.059 A 
ATOM     92  F   UNL     1       0.522 -16.765   4.287  1.00  0.00    -0.206 F 
ATOM     93  C   UNL     1      -0.031 -17.366   0.784  1.00  0.00     0.060 A 
BRANCH  93  94
ATOM     94  S   UNL     1       0.040 -18.726  -0.400  1.00  0.00     0.124 S 
ATOM     95  O   UNL     1      -1.373 -18.946  -0.690  1.00  0.00    -0.237 OA
ATOM     96  O   UNL     1       0.828 -18.144  -1.483  1.00  0.00    -0.237 OA
ATOM     97  O   UNL     1       0.705 -19.788   0.347  1.00  0.00    -0.744 OA
ENDBRANCH  93  94
ENDBRANCH  61  86
BRANCH  73  98
ATOM     98  C   UNL     1       0.350 -11.364   7.995  1.00  0.00     0.058 A 
ATOM     99  C   UNL     1      -0.712 -11.953   8.700  1.00  0.00     0.135 A 
ATOM    100  C   UNL     1       0.284  -9.993   7.723  1.00  0.00     0.135 A 
ATOM    101  F   UNL     1      -0.679 -13.259   9.011  1.00  0.00    -0.206 F 
ATOM    102  C   UNL     1      -1.796 -11.206   9.137  1.00  0.00     0.059 A 
ATOM    103  C   UNL     1      -0.790  -9.222   8.161  1.00  0.00     0.059 A 
ATOM    104  F   UNL     1       1.269  -9.381   7.044  1.00  0.00    -0.206 F 
ATOM    105  C   UNL     1      -1.821  -9.837   8.874  1.00  0.00     0.060 A 
BRANCH 105 106
ATOM    106  S   UNL     1      -3.184  -8.869   9.550  1.00  0.00     0.124 S 
ATOM    107  O   UNL     1      -4.319  -9.354   8.772  1.00  0.00    -0.237 OA
ATOM    108  O   UNL     1      -3.169  -9.258  10.958  1.00  0.00    -0.237 OA
ATOM    109  O   UNL     1      -2.788  -7.489   9.286  1.00  0.00    -0.744 OA
ENDBRANCH 105 106
ENDBRANCH  73  98
ENDBRANCH  47  48
ENDBRANCH  39  42
ENDBRANCH  37  38
ENDBRANCH  36  37
ENDBRANCH   1  36
TORSDOF 17
