REMARK SMILES O=C(NCCCCNC(=O)[C@@H]1CCCN(C(=O)/C=C/c2cccc(F)c2)C1)c1ccc(-c2c3nc(c(-c4c(F)cc(S(=O)(=O)[O-])cc4F)c4ccc([nH]4)c(-c4c(F)cc(S(=O)(=O)[O-])cc4F)c4nc(c(-c5c(F)cc(S(=O)(=O)[O-])cc5F)c5ccc2[nH]5)C=C4)C=C3)cc1
REMARK SMILES IDX 5 1 4 2 3 3 1 4 2 5 28 7 29 8 93 9 30 10 92 11 31 12 32 13
REMARK SMILES IDX 33 14 86 15 34 16 91 17 85 18 87 19 35 20 90 21 84 22 83 23
REMARK SMILES IDX 36 25 70 26 49 27 69 28 50 29 53 30 68 31 88 32 51 33 52 34
REMARK SMILES IDX 67 36 89 37 54 38 37 39 38 40 47 41 39 42 40 43 46 44 48 45
REMARK SMILES IDX 41 46 42 47 43 48 44 49 45 50 71 51 72 52 81 53 73 54 74 55
REMARK SMILES IDX 80 56 82 57 75 58 76 59 77 60 78 61 79 62 55 63 56 64 65 65
REMARK SMILES IDX 57 66 58 67 64 68 66 69 59 70 60 71 61 72 62 73 63 74 6 75
REMARK SMILES IDX 7 76 8 77 9 78 10 80 11 81 12 82 27 83 13 84 15 85 14 86
REMARK SMILES IDX 16 87 17 88 18 89 19 90 20 91 21 92 26 93 22 94 24 95 23 96
REMARK SMILES IDX 25 97
REMARK H PARENT 3 6 87 24 53 35 8 79
REMARK Flexibility Score: inf
ROOT
ATOM      1  C   UNL     1       4.961  -0.250   2.290  1.00  0.00     0.023 C 
ENDROOT
BRANCH   1   2
ATOM      2  C   UNL     1       4.592  -0.729   0.889  1.00  0.00     0.116 C 
BRANCH   2   3
ATOM      3  N   UNL     1       3.154  -0.798   0.680  1.00  0.00    -0.352 N 
ATOM      4  O   UNL     1       1.111  -0.107   0.031  1.00  0.00    -0.269 OA
ATOM      5  C   UNL     1       2.327   0.011  -0.064  1.00  0.00     0.251 C 
ATOM      6  H   UNL     1       2.702  -1.540   1.143  1.00  0.00     0.163 HD
BRANCH   5   7
ATOM      7  C   UNL     1       2.905   1.040  -0.955  1.00  0.00     0.039 A 
ATOM      8  C   UNL     1       3.969   0.737  -1.809  1.00  0.00     0.014 A 
ATOM      9  C   UNL     1       2.358   2.325  -0.948  1.00  0.00     0.014 A 
ATOM     10  C   UNL     1       4.583   1.749  -2.540  1.00  0.00     0.010 A 
ATOM     11  C   UNL     1       2.923   3.322  -1.746  1.00  0.00     0.010 A 
ATOM     12  C   UNL     1       4.061   3.051  -2.523  1.00  0.00    -0.014 A 
BRANCH  12  13
ATOM     13  C   UNL     1       4.673   4.118  -3.354  1.00  0.00     0.031 A 
ATOM     14  C   UNL     1       5.298   5.325  -2.714  1.00  0.00     0.074 A 
ATOM     15  C   UNL     1       4.637   4.005  -4.696  1.00  0.00     0.049 A 
ATOM     16  N   UNL     1       5.785   6.399  -3.280  1.00  0.00    -0.248 NA
ATOM     17  C   UNL     1       5.379   5.331  -1.245  1.00  0.00     0.031 C 
ATOM     18  C   UNL     1       4.072   2.870  -5.428  1.00  0.00     0.029 A 
ATOM     19  N   UNL     1       5.072   4.854  -5.682  1.00  0.00    -0.354 N 
ATOM     20  C   UNL     1       6.205   7.220  -2.241  1.00  0.00     0.074 A 
ATOM     21  C   UNL     1       5.897   6.529  -1.007  1.00  0.00     0.031 C 
ATOM     22  C   UNL     1       4.209   3.084  -6.744  1.00  0.00     0.029 A 
ATOM     23  C   UNL     1       4.806   4.401  -6.951  1.00  0.00     0.049 A 
ATOM     24  H   UNL     1       5.532   5.705  -5.497  1.00  0.00     0.167 HD
ATOM     25  C   UNL     1       6.794   8.438  -2.315  1.00  0.00     0.037 A 
ATOM     26  C   UNL     1       4.983   4.988  -8.150  1.00  0.00     0.037 A 
ATOM     27  C   UNL     1       7.103   9.107  -3.554  1.00  0.00     0.049 A 
ATOM     28  C   UNL     1       5.586   6.360  -8.211  1.00  0.00     0.074 A 
ATOM     29  C   UNL     1       7.735  10.324  -3.736  1.00  0.00     0.029 A 
ATOM     30  N   UNL     1       6.793   8.624  -4.818  1.00  0.00    -0.354 N 
ATOM     31  N   UNL     1       5.997   7.118  -7.222  1.00  0.00    -0.248 NA
ATOM     32  C   UNL     1       5.745   6.965  -9.540  1.00  0.00     0.031 C 
ATOM     33  C   UNL     1       7.753  10.605  -5.106  1.00  0.00     0.029 A 
ATOM     34  C   UNL     1       7.190   9.534  -5.783  1.00  0.00     0.049 A 
ATOM     35  H   UNL     1       6.354   7.761  -5.001  1.00  0.00     0.167 HD
ATOM     36  C   UNL     1       6.482   8.280  -7.808  1.00  0.00     0.074 A 
ATOM     37  C   UNL     1       6.314   8.127  -9.239  1.00  0.00     0.031 C 
ATOM     38  C   UNL     1       7.024   9.368  -7.209  1.00  0.00     0.037 A 
BRANCH  25  39
ATOM     39  C   UNL     1       7.115   9.145  -1.025  1.00  0.00     0.058 A 
ATOM     40  C   UNL     1       6.414  10.306  -0.660  1.00  0.00     0.135 A 
ATOM     41  C   UNL     1       8.134   8.702  -0.166  1.00  0.00     0.135 A 
ATOM     42  F   UNL     1       5.431  10.778  -1.442  1.00  0.00    -0.206 F 
ATOM     43  C   UNL     1       6.709  11.000   0.509  1.00  0.00     0.059 A 
ATOM     44  C   UNL     1       8.427   9.365   1.024  1.00  0.00     0.059 A 
ATOM     45  F   UNL     1       8.828   7.590  -0.458  1.00  0.00    -0.206 F 
ATOM     46  C   UNL     1       7.713  10.518   1.349  1.00  0.00     0.060 A 
BRANCH  46  47
ATOM     47  S   UNL     1       8.026  11.382   2.904  1.00  0.00     0.124 S 
ATOM     48  O   UNL     1       8.668  12.607   2.444  1.00  0.00    -0.237 OA
ATOM     49  O   UNL     1       6.680  11.533   3.448  1.00  0.00    -0.237 OA
ATOM     50  O   UNL     1       8.886  10.456   3.637  1.00  0.00    -0.744 OA
ENDBRANCH  46  47
ENDBRANCH  25  39
BRANCH  26  51
ATOM     51  C   UNL     1       4.577   4.248  -9.373  1.00  0.00     0.058 A 
ATOM     52  C   UNL     1       3.224   4.001  -9.656  1.00  0.00     0.135 A 
ATOM     53  C   UNL     1       5.539   3.667 -10.212  1.00  0.00     0.135 A 
ATOM     54  F   UNL     1       2.267   4.525  -8.874  1.00  0.00    -0.206 F 
ATOM     55  C   UNL     1       2.839   3.159 -10.692  1.00  0.00     0.059 A 
ATOM     56  C   UNL     1       5.177   2.840 -11.272  1.00  0.00     0.059 A 
ATOM     57  F   UNL     1       6.843   3.885  -9.986  1.00  0.00    -0.206 F 
ATOM     58  C   UNL     1       3.825   2.570 -11.485  1.00  0.00     0.060 A 
BRANCH  58  59
ATOM     59  S   UNL     1       3.309   1.415 -12.774  1.00  0.00     0.124 S 
ATOM     60  O   UNL     1       2.777   0.312 -11.980  1.00  0.00    -0.237 OA
ATOM     61  O   UNL     1       2.326   2.201 -13.511  1.00  0.00    -0.237 OA
ATOM     62  O   UNL     1       4.549   1.131 -13.490  1.00  0.00    -0.744 OA
ENDBRANCH  58  59
ENDBRANCH  26  51
BRANCH  38  63
ATOM     63  C   UNL     1       7.511  10.491  -8.081  1.00  0.00     0.058 A 
ATOM     64  C   UNL     1       8.888  10.743  -8.201  1.00  0.00     0.135 A 
ATOM     65  C   UNL     1       6.622  11.401  -8.672  1.00  0.00     0.135 A 
ATOM     66  F   UNL     1       9.780   9.901  -7.654  1.00  0.00    -0.206 F 
ATOM     67  C   UNL     1       9.365  11.885  -8.833  1.00  0.00     0.059 A 
ATOM     68  C   UNL     1       7.079  12.539  -9.331  1.00  0.00     0.059 A 
ATOM     69  F   UNL     1       5.298  11.195  -8.599  1.00  0.00    -0.206 F 
ATOM     70  C   UNL     1       8.451  12.786  -9.381  1.00  0.00     0.060 A 
BRANCH  70  71
ATOM     71  S   UNL     1       9.088  14.296 -10.139  1.00  0.00     0.124 S 
ATOM     72  O   UNL     1       9.614  15.013  -8.982  1.00  0.00    -0.237 OA
ATOM     73  O   UNL     1      10.085  13.775 -11.069  1.00  0.00    -0.237 OA
ATOM     74  O   UNL     1       7.908  14.888 -10.762  1.00  0.00    -0.744 OA
ENDBRANCH  70  71
ENDBRANCH  38  63
ENDBRANCH  12  13
ENDBRANCH   5   7
ENDBRANCH   2   3
ENDBRANCH   1   2
BRANCH   1  75
ATOM     75  C   UNL     1       4.481  -1.142   3.435  1.00  0.00     0.023 C 
BRANCH  75  76
ATOM     76  C   UNL     1       4.809  -2.623   3.289  1.00  0.00     0.116 C 
BRANCH  76  77
ATOM     77  N   UNL     1       6.230  -2.909   3.220  1.00  0.00    -0.356 N 
ATOM     78  C   UNL     1       6.888  -4.053   3.580  1.00  0.00     0.224 C 
ATOM     79  H   UNL     1       6.795  -2.185   2.866  1.00  0.00     0.163 HD
ATOM     80  O   UNL     1       8.090  -4.140   3.328  1.00  0.00    -0.275 OA
BRANCH  78  81
ATOM     81  C   UNL     1       6.135  -5.143   4.345  1.00  0.00     0.098 C 
ATOM     82  C   UNL     1       7.088  -6.205   4.945  1.00  0.00     0.017 C 
ATOM     83  C   UNL     1       5.061  -5.821   3.490  1.00  0.00     0.133 C 
ATOM     84  C   UNL     1       7.535  -7.286   3.945  1.00  0.00     0.022 C 
ATOM     85  N   UNL     1       5.651  -6.743   2.530  1.00  0.00    -0.338 N 
ATOM     86  C   UNL     1       6.348  -7.852   3.167  1.00  0.00     0.120 C 
BRANCH  85  87
ATOM     87  C   UNL     1       5.663  -6.377   1.195  1.00  0.00     0.246 C 
ATOM     88  O   UNL     1       5.167  -5.323   0.794  1.00  0.00    -0.270 OA
BRANCH  87  89
ATOM     89  C   UNL     1       6.151  -7.325   0.163  1.00  0.00     0.072 C 
ATOM     90  C   UNL     1       7.325  -7.969   0.151  1.00  0.00     0.014 C 
BRANCH  90  91
ATOM     91  C   UNL     1       7.645  -8.901  -0.930  1.00  0.00    -0.023 A 
ATOM     92  C   UNL     1       8.421  -8.484  -2.017  1.00  0.00     0.008 A 
ATOM     93  C   UNL     1       7.158 -10.212  -0.892  1.00  0.00     0.047 A 
ATOM     94  C   UNL     1       8.716  -9.373  -3.055  1.00  0.00     0.004 A 
ATOM     95  C   UNL     1       7.461 -11.088  -1.929  1.00  0.00     0.123 A 
ATOM     96  C   UNL     1       8.236 -10.682  -3.009  1.00  0.00     0.039 A 
ATOM     97  F   UNL     1       6.998 -12.345  -1.886  1.00  0.00    -0.207 F 
ENDBRANCH  90  91
ENDBRANCH  87  89
ENDBRANCH  85  87
ENDBRANCH  78  81
ENDBRANCH  76  77
ENDBRANCH  75  76
ENDBRANCH   1  75
TORSDOF 17
