REMARK SMILES Cc1[nH]c2ccccc2c1[C@@H](C(=O)NCCCCNC(=O)c1ccc(-c2c3nc(c(-c4c(F)cc(S(=O)(=O)[O-])cc4F)c4ccc([nH]4)c(-c4c(F)cc(S(=O)(=O)[O-])cc4F)c4nc(c(-c5c(F)cc(S(=O)(=O)[O-])cc5F)c5ccc2[nH]5)C=C4)C=C3)cc1)[NH+]1CCCC1
REMARK SMILES IDX 17 1 16 2 15 3 14 4 12 5 13 6 11 8 10 9 1 10 2 11 3 12 4 13
REMARK SMILES IDX 9 15 5 16 8 17 6 18 7 19 88 20 89 21 92 22 90 24 91 25 18 26
REMARK SMILES IDX 19 27 20 28 21 30 22 31 23 32 87 33 24 34 86 35 25 36 26 37
REMARK SMILES IDX 27 38 80 39 28 40 85 41 79 42 81 43 29 44 84 45 78 46 77 47
REMARK SMILES IDX 30 49 64 50 43 51 63 52 44 53 47 54 62 55 82 56 45 57 46 58
REMARK SMILES IDX 61 60 83 61 48 62 31 63 32 64 41 65 33 66 34 67 40 68 42 69
REMARK SMILES IDX 35 70 36 71 37 72 38 73 39 74 65 75 66 76 75 77 67 78 68 79
REMARK SMILES IDX 74 80 76 81 69 82 70 83 71 84 72 85 73 86 49 87 50 88 59 89
REMARK SMILES IDX 51 90 52 91 58 92 60 93 53 94 54 95 55 96 56 97 57 98
REMARK H PARENT 14 7 3 14 88 23 19 29 81 48 47 59
REMARK Flexibility Score: inf
ROOT
ATOM      1  C   UNL     1      -1.153  -1.082  -4.750  1.00  0.00     0.023 C 
ENDROOT
BRANCH   1   2
ATOM      2  C   UNL     1      -1.765  -0.812  -3.376  1.00  0.00     0.023 C 
BRANCH   2   3
ATOM      3  C   UNL     1      -2.475  -2.008  -2.743  1.00  0.00     0.116 C 
BRANCH   3   4
ATOM      4  N   UNL     1      -1.548  -3.046  -2.336  1.00  0.00    -0.351 N 
ATOM      5  C   UNL     1      -1.031  -3.308  -1.089  1.00  0.00     0.283 C 
ATOM      6  O   UNL     1      -0.226  -4.242  -1.016  1.00  0.00    -0.268 OA
ATOM      7  H   UNL     1      -1.245  -3.648  -3.054  1.00  0.00     0.163 HD
BRANCH   5   8
ATOM      8  C   UNL     1      -1.518  -2.469   0.135  1.00  0.00     0.307 C 
BRANCH   8   9
ATOM      9  C   UNL     1      -1.048  -1.026   0.092  1.00  0.00     0.047 A 
ATOM     10  C   UNL     1      -3.333   0.261   0.372  1.00  0.00     0.065 C 
ATOM     11  C   UNL     1      -1.861   0.102   0.220  1.00  0.00     0.022 A 
ATOM     12  N   UNL     1      -1.054   1.210   0.177  1.00  0.00    -0.358 N 
ATOM     13  C   UNL     1       0.254   0.853  -0.019  1.00  0.00     0.046 A 
ATOM     14  H   UNL     1      -1.372   2.137   0.275  1.00  0.00     0.166 HD
ATOM     15  C   UNL     1       0.289  -0.536  -0.137  1.00  0.00     0.009 A 
ATOM     16  C   UNL     1       1.394   1.660  -0.116  1.00  0.00     0.027 A 
ATOM     17  C   UNL     1       1.534  -1.136  -0.430  1.00  0.00     0.011 A 
ATOM     18  C   UNL     1       2.616   1.031  -0.360  1.00  0.00     0.002 A 
ATOM     19  C   UNL     1       2.686  -0.347  -0.527  1.00  0.00     0.001 A 
ENDBRANCH   8   9
BRANCH   8  20
ATOM     20  N   UNL     1      -1.288  -3.150   1.440  1.00  0.00    -0.321 N 
ATOM     21  C   UNL     1      -1.904  -2.502   2.597  1.00  0.00     0.263 C 
ATOM     22  C   UNL     1       0.095  -3.424   1.826  1.00  0.00     0.263 C 
ATOM     23  H   UNL     1      -1.747  -4.032   1.216  1.00  0.00     0.349 HD
ATOM     24  C   UNL     1      -0.805  -1.698   3.271  1.00  0.00     0.067 C 
ATOM     25  C   UNL     1       0.484  -2.405   2.889  1.00  0.00     0.067 C 
ENDBRANCH   8  20
ENDBRANCH   5   8
ENDBRANCH   3   4
ENDBRANCH   2   3
ENDBRANCH   1   2
BRANCH   1  26
ATOM     26  C   UNL     1      -2.135  -1.530  -5.826  1.00  0.00     0.116 C 
BRANCH  26  27
ATOM     27  N   UNL     1      -3.213  -0.578  -6.056  1.00  0.00    -0.352 N 
ATOM     28  C   UNL     1      -3.775  -0.190  -7.251  1.00  0.00     0.251 C 
ATOM     29  H   UNL     1      -3.588  -0.155  -5.250  1.00  0.00     0.163 HD
ATOM     30  O   UNL     1      -4.611   0.704  -7.283  1.00  0.00    -0.269 OA
BRANCH  28  31
ATOM     31  C   UNL     1      -3.320  -0.837  -8.500  1.00  0.00     0.039 A 
ATOM     32  C   UNL     1      -2.871  -0.034  -9.551  1.00  0.00     0.014 A 
ATOM     33  C   UNL     1      -3.270  -2.230  -8.599  1.00  0.00     0.014 A 
ATOM     34  C   UNL     1      -2.280  -0.629 -10.668  1.00  0.00     0.010 A 
ATOM     35  C   UNL     1      -2.629  -2.818  -9.685  1.00  0.00     0.010 A 
ATOM     36  C   UNL     1      -2.108  -2.022 -10.718  1.00  0.00    -0.014 A 
BRANCH  36  37
ATOM     37  C   UNL     1      -1.332  -2.667 -11.806  1.00  0.00     0.031 A 
ATOM     38  C   UNL     1      -2.003  -3.621 -12.753  1.00  0.00     0.074 A 
ATOM     39  C   UNL     1       0.001  -2.471 -11.872  1.00  0.00     0.049 A 
ATOM     40  N   UNL     1      -1.471  -4.371 -13.682  1.00  0.00    -0.248 NA
ATOM     41  C   UNL     1      -3.461  -3.770 -12.620  1.00  0.00     0.031 C 
ATOM     42  C   UNL     1       0.775  -1.610 -10.975  1.00  0.00     0.029 A 
ATOM     43  N   UNL     1       0.945  -3.002 -12.716  1.00  0.00    -0.354 N 
ATOM     44  C   UNL     1      -2.521  -5.094 -14.232  1.00  0.00     0.074 A 
ATOM     45  C   UNL     1      -3.717  -4.719 -13.509  1.00  0.00     0.031 C 
ATOM     46  C   UNL     1       2.072  -1.667 -11.319  1.00  0.00     0.029 A 
ATOM     47  C   UNL     1       2.228  -2.596 -12.434  1.00  0.00     0.049 A 
ATOM     48  H   UNL     1       0.724  -3.616 -13.453  1.00  0.00     0.167 HD
ATOM     49  C   UNL     1      -2.491  -5.978 -15.258  1.00  0.00     0.037 A 
ATOM     50  C   UNL     1       3.402  -2.948 -12.994  1.00  0.00     0.037 A 
ATOM     51  C   UNL     1      -1.303  -6.324 -15.993  1.00  0.00     0.049 A 
ATOM     52  C   UNL     1       3.409  -3.934 -14.128  1.00  0.00     0.074 A 
ATOM     53  C   UNL     1      -1.187  -7.142 -17.103  1.00  0.00     0.029 A 
ATOM     54  N   UNL     1      -0.025  -5.877 -15.690  1.00  0.00    -0.354 N 
ATOM     55  N   UNL     1       2.395  -4.553 -14.685  1.00  0.00    -0.248 NA
ATOM     56  C   UNL     1       4.715  -4.275 -14.707  1.00  0.00     0.031 C 
ATOM     57  C   UNL     1       0.167  -7.221 -17.448  1.00  0.00     0.029 A 
ATOM     58  C   UNL     1       0.889  -6.424 -16.575  1.00  0.00     0.049 A 
ATOM     59  H   UNL     1       0.198  -5.262 -14.955  1.00  0.00     0.167 HD
ATOM     60  C   UNL     1       2.940  -5.347 -15.688  1.00  0.00     0.074 A 
ATOM     61  C   UNL     1       4.370  -5.119 -15.671  1.00  0.00     0.031 C 
ATOM     62  C   UNL     1       2.311  -6.189 -16.543  1.00  0.00     0.037 A 
BRANCH  49  63
ATOM     63  C   UNL     1      -3.786  -6.629 -15.652  1.00  0.00     0.058 A 
ATOM     64  C   UNL     1      -4.788  -5.918 -16.330  1.00  0.00     0.135 A 
ATOM     65  C   UNL     1      -4.011  -7.989 -15.386  1.00  0.00     0.135 A 
ATOM     66  F   UNL     1      -4.629  -4.612 -16.595  1.00  0.00    -0.206 F 
ATOM     67  C   UNL     1      -5.981  -6.526 -16.708  1.00  0.00     0.059 A 
ATOM     68  C   UNL     1      -5.187  -8.624 -15.776  1.00  0.00     0.059 A 
ATOM     69  F   UNL     1      -3.084  -8.714 -14.740  1.00  0.00    -0.206 F 
ATOM     70  C   UNL     1      -6.172  -7.879 -16.425  1.00  0.00     0.060 A 
BRANCH  70  71
ATOM     71  S   UNL     1      -7.722  -8.656 -16.927  1.00  0.00     0.124 S 
ATOM     72  O   UNL     1      -8.647  -8.129 -15.928  1.00  0.00    -0.237 OA
ATOM     73  O   UNL     1      -7.901  -8.150 -18.284  1.00  0.00    -0.237 OA
ATOM     74  O   UNL     1      -7.436 -10.083 -16.826  1.00  0.00    -0.744 OA
ENDBRANCH  70  71
ENDBRANCH  49  63
BRANCH  50  75
ATOM     75  C   UNL     1       4.670  -2.360 -12.489  1.00  0.00     0.058 A 
ATOM     76  C   UNL     1       5.367  -1.402 -13.239  1.00  0.00     0.135 A 
ATOM     77  C   UNL     1       5.198  -2.728 -11.242  1.00  0.00     0.135 A 
ATOM     78  F   UNL     1       4.904  -1.024 -14.440  1.00  0.00    -0.206 F 
ATOM     79  C   UNL     1       6.550  -0.836 -12.776  1.00  0.00     0.059 A 
ATOM     80  C   UNL     1       6.369  -2.160 -10.748  1.00  0.00     0.059 A 
ATOM     81  F   UNL     1       4.559  -3.629 -10.480  1.00  0.00    -0.206 F 
ATOM     82  C   UNL     1       7.043  -1.221 -11.528  1.00  0.00     0.060 A 
BRANCH  82  83
ATOM     83  S   UNL     1       8.550  -0.439 -10.910  1.00  0.00     0.124 S 
ATOM     84  O   UNL     1       9.574  -1.122 -11.691  1.00  0.00    -0.237 OA
ATOM     85  O   UNL     1       8.326   0.965 -11.239  1.00  0.00    -0.237 OA
ATOM     86  O   UNL     1       8.527  -0.751  -9.484  1.00  0.00    -0.744 OA
ENDBRANCH  82  83
ENDBRANCH  50  75
BRANCH  62  87
ATOM     87  C   UNL     1       3.161  -6.925 -17.539  1.00  0.00     0.058 A 
ATOM     88  C   UNL     1       3.942  -8.027 -17.158  1.00  0.00     0.135 A 
ATOM     89  C   UNL     1       3.142  -6.568 -18.896  1.00  0.00     0.135 A 
ATOM     90  F   UNL     1       4.001  -8.400 -15.870  1.00  0.00    -0.206 F 
ATOM     91  C   UNL     1       4.683  -8.746 -18.090  1.00  0.00     0.059 A 
ATOM     92  C   UNL     1       3.858  -7.287 -19.848  1.00  0.00     0.059 A 
ATOM     93  F   UNL     1       2.404  -5.526 -19.311  1.00  0.00    -0.206 F 
ATOM     94  C   UNL     1       4.630  -8.371 -19.434  1.00  0.00     0.060 A 
BRANCH  94  95
ATOM     95  S   UNL     1       5.552  -9.347 -20.642  1.00  0.00     0.124 S 
ATOM     96  O   UNL     1       6.918  -8.895 -20.404  1.00  0.00    -0.237 OA
ATOM     97  O   UNL     1       5.256 -10.716 -20.232  1.00  0.00    -0.237 OA
ATOM     98  O   UNL     1       4.969  -8.943 -21.919  1.00  0.00    -0.744 OA
ENDBRANCH  94  95
ENDBRANCH  62  87
ENDBRANCH  36  37
ENDBRANCH  28  31
ENDBRANCH  26  27
ENDBRANCH   1  26
TORSDOF 16
