REMARK SMILES CCn1cc(/C=C/c2cc(C(=O)NCCCCNC(=O)c3ccc(-c4c5nc(c(-c6c(F)cc(S(=O)(=O)[O-])cc6F)c6ccc([nH]6)c(-c6c(F)cc(S(=O)(=O)[O-])cc6F)c6nc(c(-c7c(F)cc(S(=O)(=O)[O-])cc7F)c7ccc4[nH]7)C=C6)C=C5)cc3)ncn2)cn1
REMARK SMILES IDX 15 1 14 2 13 3 11 4 12 5 10 7 8 8 9 9 89 10 88 11 87 12 7 13
REMARK SMILES IDX 6 14 5 15 3 16 4 17 91 18 90 19 2 20 1 21 16 22 17 23 18 24
REMARK SMILES IDX 19 25 20 27 21 28 22 29 86 30 23 31 85 32 24 33 25 34 26 35
REMARK SMILES IDX 79 36 27 37 84 38 78 39 80 40 28 41 83 42 77 43 76 44 29 46
REMARK SMILES IDX 63 47 42 48 62 49 43 50 46 51 61 52 81 53 44 54 45 55 60 57
REMARK SMILES IDX 82 58 47 59 30 60 31 61 40 62 32 63 33 64 39 65 41 66 34 67
REMARK SMILES IDX 35 68 36 69 37 70 38 71 64 72 65 73 74 74 66 75 67 76 73 77
REMARK SMILES IDX 75 78 68 79 69 80 70 81 71 82 72 83 48 84 49 85 58 86 50 87
REMARK SMILES IDX 51 88 57 89 59 90 52 91 53 92 54 93 55 94 56 95
REMARK H PARENT 13 6 18 26 80 45 46 56
REMARK Flexibility Score: inf
ROOT
ATOM      1  C   UNL     1      -3.019   5.842   4.726  1.00  0.00     0.023 C 
ENDROOT
BRANCH   1   2
ATOM      2  C   UNL     1      -2.244   6.851   3.862  1.00  0.00     0.116 C 
BRANCH   2   3
ATOM      3  N   UNL     1      -1.975   8.078   4.593  1.00  0.00    -0.351 N 
ATOM      4  C   UNL     1      -0.911   8.522   5.354  1.00  0.00     0.270 C 
ATOM      5  O   UNL     1      -1.029   9.637   5.865  1.00  0.00    -0.268 OA
ATOM      6  H   UNL     1      -2.707   8.733   4.533  1.00  0.00     0.163 HD
BRANCH   4   7
ATOM      7  C   UNL     1       0.361   7.745   5.559  1.00  0.00     0.132 A 
ATOM      8  C   UNL     1       1.702   5.831   5.443  1.00  0.00     0.067 A 
ATOM      9  C   UNL     1       0.441   6.386   5.406  1.00  0.00     0.062 A 
ATOM     10  N   UNL     1       2.797   6.521   5.788  1.00  0.00    -0.237 NA
ATOM     11  C   UNL     1       2.604   7.829   6.012  1.00  0.00     0.223 A 
ATOM     12  N   UNL     1       1.443   8.483   5.897  1.00  0.00    -0.231 NA
BRANCH   8  13
ATOM     13  C   UNL     1       1.887   4.421   5.085  1.00  0.00     0.029 C 
ATOM     14  C   UNL     1       1.336   3.907   3.970  1.00  0.00     0.013 C 
BRANCH  14  15
ATOM     15  C   UNL     1       1.362   2.544   3.569  1.00  0.00     0.013 A 
ATOM     16  N   UNL     1       1.003   0.705   2.430  1.00  0.00    -0.272 N 
ATOM     17  C   UNL     1       0.796   2.057   2.412  1.00  0.00     0.116 A 
ATOM     18  N   UNL     1       1.659   0.282   3.531  1.00  0.00    -0.181 NA
ATOM     19  C   UNL     1       1.879   1.408   4.218  1.00  0.00     0.143 A 
BRANCH  16  20
ATOM     20  C   UNL     1       0.522  -0.263   1.462  1.00  0.00     0.141 C 
ATOM     21  C   UNL     1       1.075  -0.042   0.065  1.00  0.00     0.029 C 
ENDBRANCH  16  20
ENDBRANCH  14  15
ENDBRANCH   8  13
ENDBRANCH   4   7
ENDBRANCH   2   3
ENDBRANCH   1   2
BRANCH   1  22
ATOM     22  C   UNL     1      -4.525   6.112   4.866  1.00  0.00     0.023 C 
BRANCH  22  23
ATOM     23  C   UNL     1      -5.332   5.926   3.587  1.00  0.00     0.116 C 
BRANCH  23  24
ATOM     24  N   UNL     1      -5.288   4.554   3.062  1.00  0.00    -0.352 N 
ATOM     25  C   UNL     1      -5.699   4.113   1.814  1.00  0.00     0.251 C 
ATOM     26  H   UNL     1      -4.926   3.868   3.668  1.00  0.00     0.163 HD
ATOM     27  O   UNL     1      -5.996   2.934   1.619  1.00  0.00    -0.269 OA
BRANCH  25  28
ATOM     28  C   UNL     1      -5.729   5.090   0.716  1.00  0.00     0.039 A 
ATOM     29  C   UNL     1      -6.778   5.195  -0.201  1.00  0.00     0.014 A 
ATOM     30  C   UNL     1      -4.671   5.989   0.700  1.00  0.00     0.014 A 
ATOM     31  C   UNL     1      -6.781   6.276  -1.083  1.00  0.00     0.010 A 
ATOM     32  C   UNL     1      -4.811   7.161   0.021  1.00  0.00     0.010 A 
ATOM     33  C   UNL     1      -5.795   7.266  -0.950  1.00  0.00    -0.014 A 
BRANCH  33  34
ATOM     34  C   UNL     1      -5.781   8.486  -1.747  1.00  0.00     0.031 A 
ATOM     35  C   UNL     1      -7.042   9.267  -1.705  1.00  0.00     0.074 A 
ATOM     36  C   UNL     1      -4.634   8.973  -2.276  1.00  0.00     0.049 A 
ATOM     37  N   UNL     1      -7.907   9.408  -2.653  1.00  0.00    -0.248 NA
ATOM     38  C   UNL     1      -7.485   9.819  -0.414  1.00  0.00     0.031 C 
ATOM     39  C   UNL     1      -3.265   8.441  -2.156  1.00  0.00     0.029 A 
ATOM     40  N   UNL     1      -4.434  10.119  -2.979  1.00  0.00    -0.354 N 
ATOM     41  C   UNL     1      -8.871  10.281  -2.161  1.00  0.00     0.074 A 
ATOM     42  C   UNL     1      -8.680  10.322  -0.735  1.00  0.00     0.031 C 
ATOM     43  C   UNL     1      -2.370   9.366  -2.563  1.00  0.00     0.029 A 
ATOM     44  C   UNL     1      -3.098  10.472  -3.151  1.00  0.00     0.049 A 
ATOM     45  H   UNL     1      -5.175  10.658  -3.338  1.00  0.00     0.167 HD
ATOM     46  C   UNL     1      -9.570  11.098  -2.999  1.00  0.00     0.037 A 
ATOM     47  C   UNL     1      -2.612  11.581  -3.763  1.00  0.00     0.037 A 
ATOM     48  C   UNL     1      -9.408  10.683  -4.372  1.00  0.00     0.049 A 
ATOM     49  C   UNL     1      -3.687  12.057  -4.668  1.00  0.00     0.074 A 
ATOM     50  C   UNL     1      -9.724   9.547  -5.091  1.00  0.00     0.029 A 
ATOM     51  N   UNL     1      -8.460  11.348  -5.114  1.00  0.00    -0.354 N 
ATOM     52  N   UNL     1      -4.123  11.366  -5.688  1.00  0.00    -0.248 NA
ATOM     53  C   UNL     1      -4.610  13.056  -4.155  1.00  0.00     0.031 C 
ATOM     54  C   UNL     1      -8.629   9.357  -5.986  1.00  0.00     0.029 A 
ATOM     55  C   UNL     1      -7.738  10.421  -5.824  1.00  0.00     0.049 A 
ATOM     56  H   UNL     1      -8.322  12.323  -5.133  1.00  0.00     0.167 HD
ATOM     57  C   UNL     1      -5.502  11.533  -5.673  1.00  0.00     0.074 A 
ATOM     58  C   UNL     1      -5.731  12.658  -4.766  1.00  0.00     0.031 C 
ATOM     59  C   UNL     1      -6.336  10.570  -6.169  1.00  0.00     0.037 A 
BRANCH  46  60
ATOM     60  C   UNL     1     -10.068  12.476  -2.634  1.00  0.00     0.058 A 
ATOM     61  C   UNL     1     -10.938  13.152  -3.515  1.00  0.00     0.135 A 
ATOM     62  C   UNL     1      -9.514  13.268  -1.602  1.00  0.00     0.135 A 
ATOM     63  F   UNL     1     -11.515  12.501  -4.538  1.00  0.00    -0.206 F 
ATOM     64  C   UNL     1     -11.184  14.523  -3.419  1.00  0.00     0.059 A 
ATOM     65  C   UNL     1      -9.788  14.623  -1.456  1.00  0.00     0.059 A 
ATOM     66  F   UNL     1      -8.604  12.791  -0.746  1.00  0.00    -0.206 F 
ATOM     67  C   UNL     1     -10.591  15.252  -2.392  1.00  0.00     0.060 A 
BRANCH  67  68
ATOM     68  S   UNL     1     -10.822  17.037  -2.324  1.00  0.00     0.124 S 
ATOM     69  O   UNL     1     -10.091  17.469  -3.510  1.00  0.00    -0.237 OA
ATOM     70  O   UNL     1     -12.275  17.155  -2.388  1.00  0.00    -0.237 OA
ATOM     71  O   UNL     1     -10.224  17.404  -1.044  1.00  0.00    -0.744 OA
ENDBRANCH  67  68
ENDBRANCH  46  60
BRANCH  47  72
ATOM     72  C   UNL     1      -1.463  12.418  -3.324  1.00  0.00     0.058 A 
ATOM     73  C   UNL     1      -0.865  13.369  -4.169  1.00  0.00     0.135 A 
ATOM     74  C   UNL     1      -1.097  12.484  -1.963  1.00  0.00     0.135 A 
ATOM     75  F   UNL     1      -1.178  13.401  -5.473  1.00  0.00    -0.206 F 
ATOM     76  C   UNL     1       0.024  14.343  -3.689  1.00  0.00     0.059 A 
ATOM     77  C   UNL     1      -0.215  13.442  -1.462  1.00  0.00     0.059 A 
ATOM     78  F   UNL     1      -1.658  11.663  -1.061  1.00  0.00    -0.206 F 
ATOM     79  C   UNL     1       0.332  14.380  -2.329  1.00  0.00     0.060 A 
BRANCH  79  80
ATOM     80  S   UNL     1       1.373  15.713  -1.682  1.00  0.00     0.124 S 
ATOM     81  O   UNL     1       2.669  15.396  -2.271  1.00  0.00    -0.237 OA
ATOM     82  O   UNL     1       0.711  16.904  -2.203  1.00  0.00    -0.237 OA
ATOM     83  O   UNL     1       1.287  15.539  -0.234  1.00  0.00    -0.744 OA
ENDBRANCH  79  80
ENDBRANCH  47  72
BRANCH  59  84
ATOM     84  C   UNL     1      -5.720   9.449  -6.978  1.00  0.00     0.058 A 
ATOM     85  C   UNL     1      -4.894   8.442  -6.444  1.00  0.00     0.135 A 
ATOM     86  C   UNL     1      -6.115   9.295  -8.314  1.00  0.00     0.135 A 
ATOM     87  F   UNL     1      -4.543   8.453  -5.154  1.00  0.00    -0.206 F 
ATOM     88  C   UNL     1      -4.460   7.353  -7.204  1.00  0.00     0.059 A 
ATOM     89  C   UNL     1      -5.717   8.203  -9.085  1.00  0.00     0.059 A 
ATOM     90  F   UNL     1      -6.952  10.185  -8.871  1.00  0.00    -0.206 F 
ATOM     91  C   UNL     1      -4.881   7.239  -8.526  1.00  0.00     0.060 A 
BRANCH  91  92
ATOM     92  S   UNL     1      -4.397   5.783  -9.481  1.00  0.00     0.124 S 
ATOM     93  O   UNL     1      -2.977   6.026  -9.713  1.00  0.00    -0.237 OA
ATOM     94  O   UNL     1      -4.710   4.685  -8.570  1.00  0.00    -0.237 OA
ATOM     95  O   UNL     1      -5.245   5.857 -10.668  1.00  0.00    -0.744 OA
ENDBRANCH  91  92
ENDBRANCH  59  84
ENDBRANCH  33  34
ENDBRANCH  25  28
ENDBRANCH  23  24
ENDBRANCH  22  23
ENDBRANCH   1  22
TORSDOF 17
