REMARK SMILES COCC[C@@]1(C(=O)NCCCCNC(=O)c2ccc(-c3c4nc(c(-c5c(F)cc(S(=O)(=O)[O-])cc5F)c5ccc([nH]5)c(-c5c(F)cc(S(=O)(=O)[O-])cc5F)c5nc(c(-c6c(F)cc(S(=O)(=O)[O-])cc6F)c6ccc3[nH]6)C=C5)C=C4)cc2)CCCN(C(=O)c2scc3c2OCCO3)C1
REMARK SMILES IDX 10 1 9 2 8 3 6 4 7 5 5 7 82 8 97 9 83 10 85 11 84 12 4 13
REMARK SMILES IDX 3 14 2 15 1 16 86 17 87 18 88 19 89 20 92 21 90 22 91 23
REMARK SMILES IDX 93 24 96 25 94 26 95 27 11 28 12 29 13 30 14 31 15 33 16 34
REMARK SMILES IDX 17 35 81 36 18 37 80 38 19 39 20 40 21 41 74 42 22 43 79 44
REMARK SMILES IDX 73 45 75 46 23 47 78 48 72 49 71 50 24 52 58 53 37 54 57 55
REMARK SMILES IDX 38 56 41 57 56 58 76 59 39 60 40 61 55 63 77 64 42 65 25 66
REMARK SMILES IDX 26 67 35 68 27 69 28 70 34 71 36 72 29 73 30 74 31 75 32 76
REMARK SMILES IDX 33 77 59 78 60 79 69 80 61 81 62 82 68 83 70 84 63 85 64 86
REMARK SMILES IDX 65 87 66 88 67 89 43 90 44 91 53 92 45 93 46 94 52 95 54 96
REMARK SMILES IDX 47 97 48 98 49 99 50 100 51 101
REMARK H PARENT 8 6 13 32 75 51 41 62
REMARK Flexibility Score: inf
ROOT
ATOM      1  C   UNL     1       1.342   1.181   5.364  1.00  0.00     0.023 C 
ENDROOT
BRANCH   1   2
ATOM      2  C   UNL     1       0.088   0.356   5.126  1.00  0.00     0.116 C 
BRANCH   2   3
ATOM      3  N   UNL     1      -0.312   0.402   3.739  1.00  0.00    -0.356 N 
ATOM      4  C   UNL     1       0.153  -0.169   2.607  1.00  0.00     0.228 C 
ATOM      5  O   UNL     1      -0.440   0.199   1.583  1.00  0.00    -0.274 OA
ATOM      6  H   UNL     1      -1.098   0.975   3.585  1.00  0.00     0.163 HD
BRANCH   4   7
ATOM      7  C   UNL     1       1.363  -1.145   2.500  1.00  0.00     0.069 C 
ATOM      8  C   UNL     1       1.447  -2.248   3.589  1.00  0.00     0.021 C 
ATOM      9  C   UNL     1       2.661  -0.328   2.364  1.00  0.00     0.136 C 
ATOM     10  C   UNL     1       2.516  -2.107   4.687  1.00  0.00     0.023 C 
ATOM     11  N   UNL     1       3.497  -0.160   3.550  1.00  0.00    -0.337 N 
ATOM     12  C   UNL     1       3.795  -1.374   4.284  1.00  0.00     0.120 C 
BRANCH   7  13
ATOM     13  C   UNL     1       1.106  -1.918   1.130  1.00  0.00     0.047 C 
BRANCH  13  14
ATOM     14  C   UNL     1       1.367  -1.147  -0.181  1.00  0.00     0.161 C 
BRANCH  14  15
ATOM     15  O   UNL     1       2.111  -1.957  -1.103  1.00  0.00    -0.385 OA
ATOM     16  C   UNL     1       3.493  -2.057  -0.777  1.00  0.00     0.194 C 
ENDBRANCH  14  15
ENDBRANCH  13  14
ENDBRANCH   7  13
BRANCH  11  17
ATOM     17  C   UNL     1       4.162   1.077   3.661  1.00  0.00     0.267 C 
ATOM     18  O   UNL     1       3.821   2.002   2.916  1.00  0.00    -0.268 OA
BRANCH  17  19
ATOM     19  C   UNL     1       5.269   1.308   4.569  1.00  0.00     0.138 A 
ATOM     20  S   UNL     1       6.780   1.709   3.815  1.00  0.00    -0.131 S 
ATOM     21  C   UNL     1       5.325   1.595   5.917  1.00  0.00     0.185 A 
ATOM     22  C   UNL     1       7.310   2.587   5.183  1.00  0.00     0.116 A 
ATOM     23  C   UNL     1       6.425   2.457   6.218  1.00  0.00     0.172 A 
ATOM     24  O   UNL     1       4.371   1.281   6.830  1.00  0.00    -0.484 OA
ATOM     25  O   UNL     1       6.597   3.116   7.391  1.00  0.00    -0.485 OA
ATOM     26  C   UNL     1       4.843   1.627   8.155  1.00  0.00     0.271 C 
ATOM     27  C   UNL     1       5.393   3.053   8.176  1.00  0.00     0.271 C 
ENDBRANCH  17  19
ENDBRANCH  11  17
ENDBRANCH   4   7
ENDBRANCH   2   3
ENDBRANCH   1   2
BRANCH   1  28
ATOM     28  C   UNL     1       1.186   2.375   6.285  1.00  0.00     0.023 C 
BRANCH  28  29
ATOM     29  C   UNL     1       0.676   2.052   7.675  1.00  0.00     0.116 C 
BRANCH  29  30
ATOM     30  N   UNL     1       1.468   1.080   8.422  1.00  0.00    -0.352 N 
ATOM     31  C   UNL     1       1.712   1.085   9.784  1.00  0.00     0.251 C 
ATOM     32  H   UNL     1       1.870   0.346   7.904  1.00  0.00     0.163 HD
ATOM     33  O   UNL     1       2.409   0.242  10.323  1.00  0.00    -0.269 OA
BRANCH  31  34
ATOM     34  C   UNL     1       1.172   2.229  10.540  1.00  0.00     0.039 A 
ATOM     35  C   UNL     1       2.055   3.183  11.057  1.00  0.00     0.014 A 
ATOM     36  C   UNL     1      -0.201   2.459  10.484  1.00  0.00     0.014 A 
ATOM     37  C   UNL     1       1.558   4.426  11.452  1.00  0.00     0.010 A 
ATOM     38  C   UNL     1      -0.671   3.725  10.782  1.00  0.00     0.010 A 
ATOM     39  C   UNL     1       0.199   4.718  11.274  1.00  0.00    -0.014 A 
BRANCH  39  40
ATOM     40  C   UNL     1      -0.415   6.005  11.676  1.00  0.00     0.031 A 
ATOM     41  C   UNL     1      -1.512   5.945  12.701  1.00  0.00     0.074 A 
ATOM     42  C   UNL     1      -0.123   7.157  11.044  1.00  0.00     0.049 A 
ATOM     43  N   UNL     1      -2.458   6.804  12.956  1.00  0.00    -0.248 NA
ATOM     44  C   UNL     1      -1.597   4.697  13.482  1.00  0.00     0.031 C 
ATOM     45  C   UNL     1       0.907   7.340  10.019  1.00  0.00     0.029 A 
ATOM     46  N   UNL     1      -0.704   8.396  11.154  1.00  0.00    -0.354 N 
ATOM     47  C   UNL     1      -3.300   6.165  13.859  1.00  0.00     0.074 A 
ATOM     48  C   UNL     1      -2.768   4.839  14.081  1.00  0.00     0.031 C 
ATOM     49  C   UNL     1       0.887   8.618   9.599  1.00  0.00     0.029 A 
ATOM     50  C   UNL     1      -0.189   9.329  10.284  1.00  0.00     0.049 A 
ATOM     51  H   UNL     1      -1.423   8.598  11.795  1.00  0.00     0.167 HD
ATOM     52  C   UNL     1      -4.412   6.649  14.455  1.00  0.00     0.037 A 
ATOM     53  C   UNL     1      -0.567  10.602  10.056  1.00  0.00     0.037 A 
ATOM     54  C   UNL     1      -4.864   8.003  14.300  1.00  0.00     0.049 A 
ATOM     55  C   UNL     1      -1.748  11.156  10.812  1.00  0.00     0.074 A 
ATOM     56  C   UNL     1      -5.932   8.632  14.911  1.00  0.00     0.029 A 
ATOM     57  N   UNL     1      -4.241   8.948  13.498  1.00  0.00    -0.354 N 
ATOM     58  N   UNL     1      -2.543  10.545  11.660  1.00  0.00    -0.248 NA
ATOM     59  C   UNL     1      -2.087  12.568  10.581  1.00  0.00     0.031 C 
ATOM     60  C   UNL     1      -5.954   9.962  14.478  1.00  0.00     0.029 A 
ATOM     61  C   UNL     1      -4.888  10.163  13.614  1.00  0.00     0.049 A 
ATOM     62  H   UNL     1      -3.454   8.778  12.931  1.00  0.00     0.167 HD
ATOM     63  C   UNL     1      -3.458  11.504  12.082  1.00  0.00     0.074 A 
ATOM     64  C   UNL     1      -3.116  12.736  11.402  1.00  0.00     0.031 C 
ATOM     65  C   UNL     1      -4.492  11.379  12.950  1.00  0.00     0.037 A 
BRANCH  52  66
ATOM     66  C   UNL     1      -5.191   5.708  15.328  1.00  0.00     0.058 A 
ATOM     67  C   UNL     1      -4.691   5.263  16.562  1.00  0.00     0.135 A 
ATOM     68  C   UNL     1      -6.442   5.226  14.913  1.00  0.00     0.135 A 
ATOM     69  F   UNL     1      -3.488   5.674  16.992  1.00  0.00    -0.206 F 
ATOM     70  C   UNL     1      -5.383   4.337  17.334  1.00  0.00     0.059 A 
ATOM     71  C   UNL     1      -7.167   4.322  15.685  1.00  0.00     0.059 A 
ATOM     72  F   UNL     1      -6.963   5.615  13.739  1.00  0.00    -0.206 F 
ATOM     73  C   UNL     1      -6.618   3.868  16.883  1.00  0.00     0.060 A 
BRANCH  73  74
ATOM     74  S   UNL     1      -7.499   2.653  17.885  1.00  0.00     0.124 S 
ATOM     75  O   UNL     1      -6.782   1.427  17.549  1.00  0.00    -0.237 OA
ATOM     76  O   UNL     1      -7.295   3.154  19.241  1.00  0.00    -0.237 OA
ATOM     77  O   UNL     1      -8.869   2.737  17.390  1.00  0.00    -0.744 OA
ENDBRANCH  73  74
ENDBRANCH  52  66
BRANCH  53  78
ATOM     78  C   UNL     1       0.179  11.450   9.088  1.00  0.00     0.058 A 
ATOM     79  C   UNL     1       1.010  12.485   9.543  1.00  0.00     0.135 A 
ATOM     80  C   UNL     1       0.076  11.258   7.702  1.00  0.00     0.135 A 
ATOM     81  F   UNL     1       1.136  12.713  10.860  1.00  0.00    -0.206 F 
ATOM     82  C   UNL     1       1.695  13.314   8.661  1.00  0.00     0.059 A 
ATOM     83  C   UNL     1       0.768  12.062   6.799  1.00  0.00     0.059 A 
ATOM     84  F   UNL     1      -0.693  10.272   7.216  1.00  0.00    -0.206 F 
ATOM     85  C   UNL     1       1.566  13.096   7.289  1.00  0.00     0.060 A 
BRANCH  85  86
ATOM     86  S   UNL     1       2.486  14.157   6.153  1.00  0.00     0.124 S 
ATOM     87  O   UNL     1       1.695  15.382   6.190  1.00  0.00    -0.237 OA
ATOM     88  O   UNL     1       3.798  14.226   6.789  1.00  0.00    -0.237 OA
ATOM     89  O   UNL     1       2.446  13.415   4.897  1.00  0.00    -0.744 OA
ENDBRANCH  85  86
ENDBRANCH  53  78
BRANCH  65  90
ATOM     90  C   UNL     1      -5.289  12.610  13.261  1.00  0.00     0.058 A 
ATOM     91  C   UNL     1      -6.272  13.087  12.383  1.00  0.00     0.135 A 
ATOM     92  C   UNL     1      -5.136  13.253  14.499  1.00  0.00     0.135 A 
ATOM     93  F   UNL     1      -6.451  12.504  11.187  1.00  0.00    -0.206 F 
ATOM     94  C   UNL     1      -7.080  14.166  12.722  1.00  0.00     0.059 A 
ATOM     95  C   UNL     1      -5.944  14.323  14.866  1.00  0.00     0.059 A 
ATOM     96  F   UNL     1      -4.213  12.823  15.375  1.00  0.00    -0.206 F 
ATOM     97  C   UNL     1      -6.912  14.774  13.969  1.00  0.00     0.060 A 
BRANCH  97  98
ATOM     98  S   UNL     1      -8.015  16.126  14.431  1.00  0.00     0.124 S 
ATOM     99  O   UNL     1      -7.447  17.238  13.678  1.00  0.00    -0.237 OA
ATOM    100  O   UNL     1      -9.314  15.644  13.970  1.00  0.00    -0.237 OA
ATOM    101  O   UNL     1      -7.864  16.205  15.881  1.00  0.00    -0.744 OA
ENDBRANCH  97  98
ENDBRANCH  65  90
ENDBRANCH  39  40
ENDBRANCH  31  34
ENDBRANCH  29  30
ENDBRANCH  28  29
ENDBRANCH   1  28
TORSDOF 19
