REMARK SMILES CNC(=O)[C@H](C)Nc1ccc(C(F)(F)F)cc1C(=O)NCCCCNC(=O)c1ccc(-c2c3nc(c(-c4c(F)cc(S(=O)(=O)[O-])cc4F)c4ccc([nH]4)c(-c4c(F)cc(S(=O)(=O)[O-])cc4F)c4nc(c(-c5c(F)cc(S(=O)(=O)[O-])cc5F)c5ccc2[nH]5)C=C4)C=C3)cc1
REMARK SMILES IDX 22 1 21 2 20 3 18 4 19 5 17 7 8 8 9 9 10 10 16 11 11 12 7 13
REMARK SMILES IDX 5 15 6 16 3 17 1 18 2 19 4 21 12 22 13 23 14 24 15 25 23 26
REMARK SMILES IDX 24 27 25 28 26 29 27 31 28 32 29 33 93 34 30 35 92 36 31 37
REMARK SMILES IDX 32 38 33 39 86 40 34 41 91 42 85 43 87 44 35 45 90 46 84 47
REMARK SMILES IDX 83 48 36 50 70 51 49 52 69 53 50 54 53 55 68 56 88 57 51 58
REMARK SMILES IDX 52 59 67 61 89 62 54 63 37 64 38 65 47 66 39 67 40 68 46 69
REMARK SMILES IDX 48 70 41 71 42 72 43 73 44 74 45 75 71 76 72 77 81 78 73 79
REMARK SMILES IDX 74 80 80 81 82 82 75 83 76 84 77 85 78 86 79 87 55 88 56 89
REMARK SMILES IDX 65 90 57 91 58 92 64 93 66 94 59 95 60 96 61 97 62 98 63 99
REMARK H PARENT 20 6 7 14 2 20 25 30 87 49 53 60
REMARK Flexibility Score: inf
ROOT
ATOM      1  C   UNL     1       0.394   1.313   0.091  1.00  0.00     0.023 C 
ENDROOT
BRANCH   1   2
ATOM      2  C   UNL     1      -0.571   2.563   0.107  1.00  0.00     0.116 C 
BRANCH   2   3
ATOM      3  N   UNL     1      -0.836   3.346   1.331  1.00  0.00    -0.352 N 
ATOM      4  C   UNL     1      -1.863   3.385   2.262  1.00  0.00     0.253 C 
ATOM      5  O   UNL     1      -1.853   4.243   3.147  1.00  0.00    -0.269 OA
ATOM      6  H   UNL     1      -0.117   3.989   1.532  1.00  0.00     0.163 HD
BRANCH   4   7
ATOM      7  C   UNL     1      -3.037   2.506   2.161  1.00  0.00     0.063 A 
ATOM      8  C   UNL     1      -2.876   1.162   1.863  1.00  0.00     0.048 A 
ATOM      9  C   UNL     1      -3.995   0.493   1.334  1.00  0.00     0.027 A 
ATOM     10  C   UNL     1      -5.254   1.115   1.244  1.00  0.00     0.015 A 
ATOM     11  C   UNL     1      -4.316   3.101   2.205  1.00  0.00     0.029 A 
ATOM     12  C   UNL     1      -5.446   2.404   1.754  1.00  0.00     0.056 A 
BRANCH   8  13
ATOM     13  N   UNL     1      -1.675   0.488   2.077  1.00  0.00    -0.373 N 
ATOM     14  H   UNL     1      -1.157   0.193   1.294  1.00  0.00     0.161 HD
BRANCH  13  15
ATOM     15  C   UNL     1      -1.139   0.193   3.431  1.00  0.00     0.165 C 
ATOM     16  C   UNL     1      -0.488  -1.204   3.326  1.00  0.00     0.041 C 
BRANCH  15  17
ATOM     17  C   UNL     1      -0.204   1.062   4.334  1.00  0.00     0.241 C 
ATOM     18  C   UNL     1       1.276   2.966   3.254  1.00  0.00     0.142 C 
ATOM     19  N   UNL     1       0.743   1.998   4.179  1.00  0.00    -0.357 N 
ATOM     20  H   UNL     1       1.273   2.039   5.007  1.00  0.00     0.163 HD
ATOM     21  O   UNL     1      -0.220   0.718   5.541  1.00  0.00    -0.273 OA
ENDBRANCH  15  17
ENDBRANCH  13  15
ENDBRANCH   8  13
BRANCH  12  22
ATOM     22  C   UNL     1      -6.806   3.064   1.741  1.00  0.00     0.416 C 
ATOM     23  F   UNL     1      -6.952   3.931   0.700  1.00  0.00    -0.166 F 
ATOM     24  F   UNL     1      -7.836   2.177   1.627  1.00  0.00    -0.166 F 
ATOM     25  F   UNL     1      -7.064   3.785   2.867  1.00  0.00    -0.166 F 
ENDBRANCH  12  22
ENDBRANCH   4   7
ENDBRANCH   2   3
ENDBRANCH   1   2
BRANCH   1  26
ATOM     26  C   UNL     1       1.925   1.440   0.319  1.00  0.00     0.023 C 
BRANCH  26  27
ATOM     27  C   UNL     1       2.514   0.504   1.427  1.00  0.00     0.116 C 
BRANCH  27  28
ATOM     28  N   UNL     1       2.882  -0.814   0.930  1.00  0.00    -0.352 N 
ATOM     29  C   UNL     1       3.969  -1.612   1.217  1.00  0.00     0.251 C 
ATOM     30  H   UNL     1       2.249  -1.200   0.282  1.00  0.00     0.163 HD
ATOM     31  O   UNL     1       4.163  -2.609   0.522  1.00  0.00    -0.269 OA
BRANCH  29  32
ATOM     32  C   UNL     1       4.920  -1.326   2.325  1.00  0.00     0.039 A 
ATOM     33  C   UNL     1       6.294  -1.336   2.046  1.00  0.00     0.014 A 
ATOM     34  C   UNL     1       4.503  -1.239   3.657  1.00  0.00     0.014 A 
ATOM     35  C   UNL     1       7.239  -1.228   3.080  1.00  0.00     0.010 A 
ATOM     36  C   UNL     1       5.453  -1.122   4.693  1.00  0.00     0.010 A 
ATOM     37  C   UNL     1       6.834  -1.116   4.420  1.00  0.00    -0.014 A 
BRANCH  37  38
ATOM     38  C   UNL     1       7.851  -0.974   5.511  1.00  0.00     0.031 A 
ATOM     39  C   UNL     1       8.118  -2.086   6.496  1.00  0.00     0.074 A 
ATOM     40  C   UNL     1       8.540   0.180   5.638  1.00  0.00     0.049 A 
ATOM     41  N   UNL     1       8.970  -2.125   7.493  1.00  0.00    -0.248 NA
ATOM     42  C   UNL     1       7.316  -3.308   6.349  1.00  0.00     0.031 C 
ATOM     43  C   UNL     1       8.369   1.357   4.787  1.00  0.00     0.029 A 
ATOM     44  N   UNL     1       9.511   0.558   6.537  1.00  0.00    -0.354 N 
ATOM     45  C   UNL     1       8.805  -3.368   8.098  1.00  0.00     0.074 A 
ATOM     46  C   UNL     1       7.743  -4.037   7.372  1.00  0.00     0.031 C 
ATOM     47  C   UNL     1       9.202   2.325   5.203  1.00  0.00     0.029 A 
ATOM     48  C   UNL     1       9.954   1.849   6.363  1.00  0.00     0.049 A 
ATOM     49  H   UNL     1       9.857  -0.039   7.239  1.00  0.00     0.167 HD
ATOM     50  C   UNL     1       9.477  -3.909   9.147  1.00  0.00     0.037 A 
ATOM     51  C   UNL     1      10.855   2.578   7.054  1.00  0.00     0.037 A 
ATOM     52  C   UNL     1      10.539  -3.253   9.870  1.00  0.00     0.049 A 
ATOM     53  C   UNL     1      11.597   1.959   8.208  1.00  0.00     0.074 A 
ATOM     54  C   UNL     1      11.313  -3.751  10.906  1.00  0.00     0.029 A 
ATOM     55  N   UNL     1      10.972  -1.954   9.646  1.00  0.00    -0.354 N 
ATOM     56  N   UNL     1      11.477   0.754   8.711  1.00  0.00    -0.248 NA
ATOM     57  C   UNL     1      12.605   2.793   8.879  1.00  0.00     0.031 C 
ATOM     58  C   UNL     1      12.184  -2.742  11.335  1.00  0.00     0.029 A 
ATOM     59  C   UNL     1      11.985  -1.627  10.537  1.00  0.00     0.049 A 
ATOM     60  H   UNL     1      10.613  -1.352   8.955  1.00  0.00     0.167 HD
ATOM     61  C   UNL     1      12.405   0.680   9.746  1.00  0.00     0.074 A 
ATOM     62  C   UNL     1      13.089   1.956   9.787  1.00  0.00     0.031 C 
ATOM     63  C   UNL     1      12.665  -0.356  10.582  1.00  0.00     0.037 A 
BRANCH  50  64
ATOM     64  C   UNL     1       9.074  -5.293   9.588  1.00  0.00     0.058 A 
ATOM     65  C   UNL     1       9.362  -6.427   8.812  1.00  0.00     0.135 A 
ATOM     66  C   UNL     1       8.414  -5.492  10.813  1.00  0.00     0.135 A 
ATOM     67  F   UNL     1       9.991  -6.297   7.633  1.00  0.00    -0.206 F 
ATOM     68  C   UNL     1       8.967  -7.702   9.208  1.00  0.00     0.059 A 
ATOM     69  C   UNL     1       8.033  -6.762  11.241  1.00  0.00     0.059 A 
ATOM     70  F   UNL     1       8.127  -4.447  11.604  1.00  0.00    -0.206 F 
ATOM     71  C   UNL     1       8.293  -7.858  10.420  1.00  0.00     0.060 A 
BRANCH  71  72
ATOM     72  S   UNL     1       7.752  -9.512  10.903  1.00  0.00     0.124 S 
ATOM     73  O   UNL     1       6.599  -9.706  10.030  1.00  0.00    -0.237 OA
ATOM     74  O   UNL     1       8.922 -10.329  10.597  1.00  0.00    -0.237 OA
ATOM     75  O   UNL     1       7.447  -9.369  12.324  1.00  0.00    -0.744 OA
ENDBRANCH  71  72
ENDBRANCH  50  64
BRANCH  51  76
ATOM     76  C   UNL     1      11.113   3.987   6.653  1.00  0.00     0.058 A 
ATOM     77  C   UNL     1      12.300   4.352   6.002  1.00  0.00     0.135 A 
ATOM     78  C   UNL     1      10.156   4.989   6.880  1.00  0.00     0.135 A 
ATOM     79  F   UNL     1      13.250   3.432   5.776  1.00  0.00    -0.206 F 
ATOM     80  C   UNL     1      12.530   5.659   5.586  1.00  0.00     0.059 A 
ATOM     81  C   UNL     1      10.353   6.298   6.453  1.00  0.00     0.059 A 
ATOM     82  F   UNL     1       8.999   4.687   7.489  1.00  0.00    -0.206 F 
ATOM     83  C   UNL     1      11.546   6.624   5.808  1.00  0.00     0.060 A 
BRANCH  83  84
ATOM     84  S   UNL     1      11.813   8.298   5.183  1.00  0.00     0.124 S 
ATOM     85  O   UNL     1      12.778   8.820   6.143  1.00  0.00    -0.237 OA
ATOM     86  O   UNL     1      12.322   8.045   3.838  1.00  0.00    -0.237 OA
ATOM     87  O   UNL     1      10.480   8.891   5.237  1.00  0.00    -0.744 OA
ENDBRANCH  83  84
ENDBRANCH  51  76
BRANCH  63  88
ATOM     88  C   UNL     1      13.749  -0.168  11.610  1.00  0.00     0.058 A 
ATOM     89  C   UNL     1      13.560   0.640  12.742  1.00  0.00     0.135 A 
ATOM     90  C   UNL     1      14.976  -0.840  11.485  1.00  0.00     0.135 A 
ATOM     91  F   UNL     1      12.410   1.312  12.908  1.00  0.00    -0.206 F 
ATOM     92  C   UNL     1      14.555   0.791  13.705  1.00  0.00     0.059 A 
ATOM     93  C   UNL     1      15.976  -0.722  12.447  1.00  0.00     0.059 A 
ATOM     94  F   UNL     1      15.208  -1.631  10.426  1.00  0.00    -0.206 F 
ATOM     95  C   UNL     1      15.761   0.105  13.548  1.00  0.00     0.060 A 
BRANCH  95  96
ATOM     96  S   UNL     1      17.032   0.280  14.819  1.00  0.00     0.124 S 
ATOM     97  O   UNL     1      17.559   1.609  14.527  1.00  0.00    -0.237 OA
ATOM     98  O   UNL     1      16.263   0.161  16.054  1.00  0.00    -0.237 OA
ATOM     99  O   UNL     1      17.941  -0.829  14.546  1.00  0.00    -0.744 OA
ENDBRANCH  95  96
ENDBRANCH  63  88
ENDBRANCH  37  38
ENDBRANCH  29  32
ENDBRANCH  27  28
ENDBRANCH  26  27
ENDBRANCH   1  26
TORSDOF 18
