REMARK SMILES O=C(CC[N@H+]1CCC[C@@H](C(=O)NCCCCNC(=O)c2ccc(-c3c4nc(c(-c5c(F)cc(S(=O)(=O)[O-])cc5F)c5ccc([nH]5)c(-c5c(F)cc(S(=O)(=O)[O-])cc5F)c5nc(c(-c6c(F)cc(S(=O)(=O)[O-])cc6F)c6ccc3[nH]6)C=C5)C=C4)cc2)C1)Nc1cccc(F)c1
REMARK SMILES IDX 14 1 13 2 12 3 10 4 11 5 9 7 5 8 6 9 86 10 7 12 8 13 4 14
REMARK SMILES IDX 3 15 2 16 1 17 87 18 88 20 89 21 94 22 90 23 92 24 91 25
REMARK SMILES IDX 93 26 15 27 16 28 17 29 18 30 19 32 20 33 21 34 85 35 22 36
REMARK SMILES IDX 84 37 23 38 24 39 25 40 78 41 26 42 83 43 77 44 79 45 27 46
REMARK SMILES IDX 82 47 76 48 75 49 28 51 62 52 41 53 61 54 42 55 45 56 60 57
REMARK SMILES IDX 80 58 43 59 44 60 59 62 81 63 46 64 29 65 30 66 39 67 31 68
REMARK SMILES IDX 32 69 38 70 40 71 33 72 34 73 35 74 36 75 37 76 63 77 64 78
REMARK SMILES IDX 73 79 65 80 66 81 72 82 74 83 67 84 68 85 69 86 70 87 71 88
REMARK SMILES IDX 47 89 48 90 57 91 49 92 50 93 56 94 58 95 51 96 52 97 53 98
REMARK SMILES IDX 54 99 55 100
REMARK H PARENT 12 6 5 11 87 19 17 31 79 50 45 61
REMARK Flexibility Score: inf
ROOT
ATOM      1  C   UNL     1       7.283   4.895   3.832  1.00  0.00     0.023 C 
ENDROOT
BRANCH   1   2
ATOM      2  C   UNL     1       6.584   5.154   2.497  1.00  0.00     0.116 C 
BRANCH   2   3
ATOM      3  N   UNL     1       7.452   4.935   1.356  1.00  0.00    -0.356 N 
ATOM      4  C   UNL     1       7.582   3.855   0.539  1.00  0.00     0.228 C 
ATOM      5  O   UNL     1       8.351   3.945  -0.419  1.00  0.00    -0.275 OA
ATOM      6  H   UNL     1       8.042   5.692   1.136  1.00  0.00     0.163 HD
BRANCH   4   7
ATOM      7  C   UNL     1       6.779   2.589   0.796  1.00  0.00     0.133 C 
ATOM      8  N   UNL     1       5.020   1.139  -0.244  1.00  0.00    -0.334 N 
ATOM      9  C   UNL     1       5.981   0.018  -0.316  1.00  0.00     0.262 C 
ATOM     10  C   UNL     1       5.763   2.421  -0.346  1.00  0.00     0.275 C 
ATOM     11  H   UNL     1       4.526   1.083   0.646  1.00  0.00     0.348 HD
ATOM     12  C   UNL     1       6.959   0.079   0.856  1.00  0.00     0.062 C 
ATOM     13  C   UNL     1       7.732   1.391   0.863  1.00  0.00     0.025 C 
BRANCH   8  14
ATOM     14  C   UNL     1       4.015   1.062  -1.333  1.00  0.00     0.272 C 
BRANCH  14  15
ATOM     15  C   UNL     1       3.059  -0.132  -1.237  1.00  0.00     0.161 C 
BRANCH  15  16
ATOM     16  C   UNL     1       2.140  -0.148  -0.026  1.00  0.00     0.230 C 
ATOM     17  O   UNL     1       0.988  -0.563  -0.140  1.00  0.00    -0.275 OA
ATOM     18  N   UNL     1       2.735   0.261   1.150  1.00  0.00    -0.326 N 
ATOM     19  H   UNL     1       3.641   0.638   1.073  1.00  0.00     0.169 HD
BRANCH  18  20
ATOM     20  C   UNL     1       2.191   0.198   2.446  1.00  0.00     0.044 A 
ATOM     21  C   UNL     1       2.824   0.941   3.453  1.00  0.00     0.026 A 
ATOM     22  C   UNL     1       1.078  -0.577   2.774  1.00  0.00     0.065 A 
ATOM     23  C   UNL     1       2.327   0.939   4.761  1.00  0.00     0.005 A 
ATOM     24  C   UNL     1       0.604  -0.589   4.083  1.00  0.00     0.125 A 
ATOM     25  C   UNL     1       1.210   0.170   5.076  1.00  0.00     0.039 A 
ATOM     26  F   UNL     1      -0.454  -1.351   4.394  1.00  0.00    -0.207 F 
ENDBRANCH  18  20
ENDBRANCH  15  16
ENDBRANCH  14  15
ENDBRANCH   8  14
ENDBRANCH   4   7
ENDBRANCH   2   3
ENDBRANCH   1   2
BRANCH   1  27
ATOM     27  C   UNL     1       8.536   5.739   4.090  1.00  0.00     0.023 C 
BRANCH  27  28
ATOM     28  C   UNL     1       8.361   7.252   3.978  1.00  0.00     0.116 C 
BRANCH  28  29
ATOM     29  N   UNL     1       7.436   7.797   4.958  1.00  0.00    -0.352 N 
ATOM     30  C   UNL     1       7.594   8.859   5.818  1.00  0.00     0.251 C 
ATOM     31  H   UNL     1       6.567   7.337   5.015  1.00  0.00     0.163 HD
ATOM     32  O   UNL     1       6.732   9.079   6.668  1.00  0.00    -0.269 OA
BRANCH  30  33
ATOM     33  C   UNL     1       8.803   9.715   5.753  1.00  0.00     0.039 A 
ATOM     34  C   UNL     1       9.428  10.089   6.947  1.00  0.00     0.014 A 
ATOM     35  C   UNL     1       9.320  10.157   4.533  1.00  0.00     0.014 A 
ATOM     36  C   UNL     1      10.609  10.838   6.912  1.00  0.00     0.010 A 
ATOM     37  C   UNL     1      10.537  10.839   4.497  1.00  0.00     0.010 A 
ATOM     38  C   UNL     1      11.199  11.184   5.685  1.00  0.00    -0.014 A 
BRANCH  38  39
ATOM     39  C   UNL     1      12.511  11.886   5.628  1.00  0.00     0.031 A 
ATOM     40  C   UNL     1      12.619  13.258   5.015  1.00  0.00     0.074 A 
ATOM     41  C   UNL     1      13.621  11.262   6.073  1.00  0.00     0.049 A 
ATOM     42  N   UNL     1      13.684  13.992   4.816  1.00  0.00    -0.248 NA
ATOM     43  C   UNL     1      11.370  13.875   4.543  1.00  0.00     0.031 C 
ATOM     44  C   UNL     1      13.661   9.916   6.649  1.00  0.00     0.029 A 
ATOM     45  N   UNL     1      14.933  11.670   6.101  1.00  0.00    -0.354 N 
ATOM     46  C   UNL     1      13.237  15.150   4.189  1.00  0.00     0.074 A 
ATOM     47  C   UNL     1      11.812  14.996   3.991  1.00  0.00     0.031 C 
ATOM     48  C   UNL     1      14.925   9.619   6.992  1.00  0.00     0.029 A 
ATOM     49  C   UNL     1      15.795  10.731   6.621  1.00  0.00     0.049 A 
ATOM     50  H   UNL     1      15.229  12.552   5.778  1.00  0.00     0.167 HD
ATOM     51  C   UNL     1      13.944  16.249   3.830  1.00  0.00     0.037 A 
ATOM     52  C   UNL     1      17.134  10.755   6.771  1.00  0.00     0.037 A 
ATOM     53  C   UNL     1      15.361  16.404   4.043  1.00  0.00     0.049 A 
ATOM     54  C   UNL     1      17.900  11.979   6.347  1.00  0.00     0.074 A 
ATOM     55  C   UNL     1      16.157  17.501   3.762  1.00  0.00     0.029 A 
ATOM     56  N   UNL     1      16.195  15.435   4.583  1.00  0.00    -0.354 N 
ATOM     57  N   UNL     1      17.450  13.090   5.813  1.00  0.00    -0.248 NA
ATOM     58  C   UNL     1      19.356  11.957   6.549  1.00  0.00     0.031 C 
ATOM     59  C   UNL     1      17.480  17.177   4.081  1.00  0.00     0.029 A 
ATOM     60  C   UNL     1      17.500  15.900   4.619  1.00  0.00     0.049 A 
ATOM     61  H   UNL     1      15.903  14.548   4.894  1.00  0.00     0.167 HD
ATOM     62  C   UNL     1      18.562  13.910   5.646  1.00  0.00     0.074 A 
ATOM     63  C   UNL     1      19.703  13.172   6.147  1.00  0.00     0.031 C 
ATOM     64  C   UNL     1      18.629  15.161   5.128  1.00  0.00     0.037 A 
BRANCH  51  65
ATOM     65  C   UNL     1      13.198  17.377   3.167  1.00  0.00     0.058 A 
ATOM     66  C   UNL     1      12.276  18.167   3.873  1.00  0.00     0.135 A 
ATOM     67  C   UNL     1      13.443  17.704   1.823  1.00  0.00     0.135 A 
ATOM     68  F   UNL     1      11.992  17.893   5.156  1.00  0.00    -0.206 F 
ATOM     69  C   UNL     1      11.602  19.220   3.263  1.00  0.00     0.059 A 
ATOM     70  C   UNL     1      12.803  18.773   1.201  1.00  0.00     0.059 A 
ATOM     71  F   UNL     1      14.316  16.985   1.100  1.00  0.00    -0.206 F 
ATOM     72  C   UNL     1      11.873  19.516   1.926  1.00  0.00     0.060 A 
BRANCH  72  73
ATOM     73  S   UNL     1      10.994  20.891   1.154  1.00  0.00     0.124 S 
ATOM     74  O   UNL     1       9.646  20.344   1.036  1.00  0.00    -0.237 OA
ATOM     75  O   UNL     1      11.161  21.958   2.135  1.00  0.00    -0.237 OA
ATOM     76  O   UNL     1      11.704  21.084  -0.107  1.00  0.00    -0.744 OA
ENDBRANCH  72  73
ENDBRANCH  51  65
BRANCH  52  77
ATOM     77  C   UNL     1      17.838   9.584   7.364  1.00  0.00     0.058 A 
ATOM     78  C   UNL     1      18.438   9.666   8.630  1.00  0.00     0.135 A 
ATOM     79  C   UNL     1      17.924   8.361   6.680  1.00  0.00     0.135 A 
ATOM     80  F   UNL     1      18.392  10.815   9.321  1.00  0.00    -0.206 F 
ATOM     81  C   UNL     1      19.115   8.586   9.188  1.00  0.00     0.059 A 
ATOM     82  C   UNL     1      18.570   7.258   7.230  1.00  0.00     0.059 A 
ATOM     83  F   UNL     1      17.354   8.224   5.473  1.00  0.00    -0.206 F 
ATOM     84  C   UNL     1      19.172   7.384   8.481  1.00  0.00     0.060 A 
BRANCH  84  85
ATOM     85  S   UNL     1      20.015   5.976   9.234  1.00  0.00     0.124 S 
ATOM     86  O   UNL     1      21.412   6.383   9.138  1.00  0.00    -0.237 OA
ATOM     87  O   UNL     1      19.445   5.962  10.578  1.00  0.00    -0.237 OA
ATOM     88  O   UNL     1      19.623   4.856   8.384  1.00  0.00    -0.744 OA
ENDBRANCH  84  85
ENDBRANCH  52  77
BRANCH  64  89
ATOM     89  C   UNL     1      19.975  15.836   5.109  1.00  0.00     0.058 A 
ATOM     90  C   UNL     1      20.998  15.430   4.238  1.00  0.00     0.135 A 
ATOM     91  C   UNL     1      20.225  16.940   5.942  1.00  0.00     0.135 A 
ATOM     92  F   UNL     1      20.815  14.377   3.425  1.00  0.00    -0.206 F 
ATOM     93  C   UNL     1      22.229  16.078   4.209  1.00  0.00     0.059 A 
ATOM     94  C   UNL     1      21.437  17.622   5.907  1.00  0.00     0.059 A 
ATOM     95  F   UNL     1      19.279  17.377   6.788  1.00  0.00    -0.206 F 
ATOM     96  C   UNL     1      22.438  17.176   5.046  1.00  0.00     0.060 A 
BRANCH  96  97
ATOM     97  S   UNL     1      24.027  18.029   4.973  1.00  0.00     0.124 S 
ATOM     98  O   UNL     1      24.909  17.066   5.624  1.00  0.00    -0.237 OA
ATOM     99  O   UNL     1      24.224  18.199   3.536  1.00  0.00    -0.237 OA
ATOM    100  O   UNL     1      23.787  19.262   5.717  1.00  0.00    -0.744 OA
ENDBRANCH  96  97
ENDBRANCH  64  89
ENDBRANCH  38  39
ENDBRANCH  30  33
ENDBRANCH  28  29
ENDBRANCH  27  28
ENDBRANCH   1  27
TORSDOF 18
