REMARK SMILES Cc1ncccc1C(=O)NCCOCC(=O)NCCCCNC(=O)c1ccc(-c2c3nc(c(-c4c(F)cc(S(=O)(=O)[O-])cc4F)c4ccc([nH]4)c(-c4c(F)cc(S(=O)(=O)[O-])cc4F)c4nc(c(-c5c(F)cc(S(=O)(=O)[O-])cc5F)c5ccc2[nH]5)C=C4)C=C3)cc1
REMARK SMILES IDX 18 1 17 2 15 3 16 4 14 6 13 7 12 8 11 9 10 10 8 11 9 12 7 14
REMARK SMILES IDX 1 15 2 16 3 17 4 18 6 19 5 20 19 21 20 22 21 23 22 24 23 25
REMARK SMILES IDX 24 27 25 28 26 29 90 30 27 31 89 32 28 33 29 34 30 35 83 36
REMARK SMILES IDX 31 37 88 38 82 39 84 40 32 41 87 42 81 43 80 44 33 46 67 47
REMARK SMILES IDX 46 48 66 49 47 50 50 51 65 52 85 53 48 54 49 55 64 57 86 58
REMARK SMILES IDX 51 59 34 60 35 61 44 62 36 63 37 64 43 65 45 66 38 67 39 68
REMARK SMILES IDX 40 69 41 70 42 71 68 72 69 73 78 74 70 75 71 76 77 77 79 78
REMARK SMILES IDX 72 79 73 80 74 81 75 82 76 83 52 84 53 85 62 86 54 87 55 88
REMARK SMILES IDX 61 89 63 90 56 91 57 92 58 93 59 94 60 95
REMARK H PARENT 17 5 10 13 22 26 84 45 50 56
REMARK Flexibility Score: inf
ROOT
ATOM      1  C   UNL     1       5.592  -3.797   4.146  1.00  0.00     0.116 C 
ENDROOT
BRANCH   1   2
ATOM      2  N   UNL     1       4.204  -4.163   3.943  1.00  0.00    -0.354 N 
ATOM      3  C   UNL     1       3.569  -4.439   2.765  1.00  0.00     0.245 C 
ATOM      4  O   UNL     1       2.387  -4.780   2.783  1.00  0.00    -0.272 OA
ATOM      5  H   UNL     1       3.650  -4.218   4.755  1.00  0.00     0.163 HD
BRANCH   3   6
ATOM      6  C   UNL     1       4.345  -4.292   1.446  1.00  0.00     0.260 C 
BRANCH   6   7
ATOM      7  O   UNL     1       4.902  -3.034   1.093  1.00  0.00    -0.370 OA
BRANCH   7   8
ATOM      8  C   UNL     1       4.143  -1.893   1.489  1.00  0.00     0.182 C 
BRANCH   8   9
ATOM      9  C   UNL     1       3.208  -1.347   0.414  1.00  0.00     0.144 C 
BRANCH   9  10
ATOM     10  N   UNL     1       2.221  -2.279  -0.090  1.00  0.00    -0.350 N 
ATOM     11  C   UNL     1       0.924  -2.101  -0.491  1.00  0.00     0.253 C 
ATOM     12  O   UNL     1       0.332  -3.066  -0.976  1.00  0.00    -0.269 OA
ATOM     13  H   UNL     1       2.540  -3.208  -0.156  1.00  0.00     0.163 HD
BRANCH  11  14
ATOM     14  C   UNL     1       0.174  -0.835  -0.316  1.00  0.00     0.061 A 
ATOM     15  C   UNL     1       1.865   0.745  -1.417  1.00  0.00     0.067 C 
ATOM     16  C   UNL     1       0.575   0.441  -0.721  1.00  0.00     0.050 A 
ATOM     17  N   UNL     1      -0.215   1.541  -0.544  1.00  0.00    -0.261 NA
ATOM     18  C   UNL     1      -1.451   1.365  -0.029  1.00  0.00     0.111 A 
ATOM     19  C   UNL     1      -1.131  -0.975   0.189  1.00  0.00     0.017 A 
ATOM     20  C   UNL     1      -1.958   0.134   0.330  1.00  0.00     0.021 A 
ENDBRANCH  11  14
ENDBRANCH   9  10
ENDBRANCH   8   9
ENDBRANCH   7   8
ENDBRANCH   6   7
ENDBRANCH   3   6
ENDBRANCH   1   2
BRANCH   1  21
ATOM     21  C   UNL     1       5.757  -2.389   4.717  1.00  0.00     0.023 C 
BRANCH  21  22
ATOM     22  C   UNL     1       5.105  -2.153   6.080  1.00  0.00     0.023 C 
BRANCH  22  23
ATOM     23  C   UNL     1       5.435  -3.187   7.149  1.00  0.00     0.116 C 
BRANCH  23  24
ATOM     24  N   UNL     1       6.864  -3.350   7.364  1.00  0.00    -0.352 N 
ATOM     25  C   UNL     1       7.542  -3.521   8.547  1.00  0.00     0.251 C 
ATOM     26  H   UNL     1       7.421  -3.336   6.552  1.00  0.00     0.163 HD
ATOM     27  O   UNL     1       8.770  -3.538   8.553  1.00  0.00    -0.269 OA
BRANCH  25  28
ATOM     28  C   UNL     1       6.784  -3.639   9.809  1.00  0.00     0.039 A 
ATOM     29  C   UNL     1       7.167  -2.856  10.900  1.00  0.00     0.014 A 
ATOM     30  C   UNL     1       5.679  -4.490   9.904  1.00  0.00     0.014 A 
ATOM     31  C   UNL     1       6.398  -2.872  12.065  1.00  0.00     0.010 A 
ATOM     32  C   UNL     1       4.873  -4.449  11.037  1.00  0.00     0.010 A 
ATOM     33  C   UNL     1       5.223  -3.639  12.128  1.00  0.00    -0.014 A 
BRANCH  33  34
ATOM     34  C   UNL     1       4.344  -3.604  13.325  1.00  0.00     0.031 A 
ATOM     35  C   UNL     1       4.133  -4.849  14.142  1.00  0.00     0.074 A 
ATOM     36  C   UNL     1       3.685  -2.470  13.635  1.00  0.00     0.049 A 
ATOM     37  N   UNL     1       3.355  -5.036  15.177  1.00  0.00    -0.248 NA
ATOM     38  C   UNL     1       4.875  -6.050  13.725  1.00  0.00     0.031 C 
ATOM     39  C   UNL     1       3.769  -1.211  12.890  1.00  0.00     0.029 A 
ATOM     40  N   UNL     1       2.807  -2.193  14.652  1.00  0.00    -0.354 N 
ATOM     41  C   UNL     1       3.502  -6.374  15.524  1.00  0.00     0.074 A 
ATOM     42  C   UNL     1       4.400  -6.965  14.557  1.00  0.00     0.031 C 
ATOM     43  C   UNL     1       2.995  -0.292  13.490  1.00  0.00     0.029 A 
ATOM     44  C   UNL     1       2.331  -0.903  14.636  1.00  0.00     0.049 A 
ATOM     45  H   UNL     1       2.542  -2.856  15.330  1.00  0.00     0.167 HD
ATOM     46  C   UNL     1       2.958  -7.042  16.569  1.00  0.00     0.037 A 
ATOM     47  C   UNL     1       1.454  -0.284  15.451  1.00  0.00     0.037 A 
ATOM     48  C   UNL     1       2.083  -6.441  17.542  1.00  0.00     0.049 A 
ATOM     49  C   UNL     1       0.858  -1.049  16.602  1.00  0.00     0.074 A 
ATOM     50  C   UNL     1       1.524  -7.017  18.669  1.00  0.00     0.029 A 
ATOM     51  N   UNL     1       1.638  -5.127  17.502  1.00  0.00    -0.354 N 
ATOM     52  N   UNL     1       1.058  -2.296  16.954  1.00  0.00    -0.248 NA
ATOM     53  C   UNL     1      -0.079  -0.321  17.469  1.00  0.00     0.031 C 
ATOM     54  C   UNL     1       0.707  -6.064  19.287  1.00  0.00     0.029 A 
ATOM     55  C   UNL     1       0.795  -4.880  18.573  1.00  0.00     0.049 A 
ATOM     56  H   UNL     1       1.884  -4.468  16.813  1.00  0.00     0.167 HD
ATOM     57  C   UNL     1       0.296  -2.495  18.100  1.00  0.00     0.074 A 
ATOM     58  C   UNL     1      -0.361  -1.236  18.387  1.00  0.00     0.031 C 
ATOM     59  C   UNL     1       0.155  -3.617  18.848  1.00  0.00     0.037 A 
BRANCH  46  60
ATOM     60  C   UNL     1       3.300  -8.500  16.714  1.00  0.00     0.058 A 
ATOM     61  C   UNL     1       4.590  -8.922  17.077  1.00  0.00     0.135 A 
ATOM     62  C   UNL     1       2.323  -9.488  16.509  1.00  0.00     0.135 A 
ATOM     63  F   UNL     1       5.566  -8.021  17.270  1.00  0.00    -0.206 F 
ATOM     64  C   UNL     1       4.909 -10.271  17.194  1.00  0.00     0.059 A 
ATOM     65  C   UNL     1       2.613 -10.843  16.651  1.00  0.00     0.059 A 
ATOM     66  F   UNL     1       1.074  -9.142  16.162  1.00  0.00    -0.206 F 
ATOM     67  C   UNL     1       3.914 -11.224  16.976  1.00  0.00     0.060 A 
BRANCH  67  68
ATOM     68  S   UNL     1       4.346 -12.970  17.125  1.00  0.00     0.124 S 
ATOM     69  O   UNL     1       5.123 -13.181  15.908  1.00  0.00    -0.237 OA
ATOM     70  O   UNL     1       5.103 -13.000  18.373  1.00  0.00    -0.237 OA
ATOM     71  O   UNL     1       3.050 -13.640  17.166  1.00  0.00    -0.744 OA
ENDBRANCH  67  68
ENDBRANCH  46  60
BRANCH  47  72
ATOM     72  C   UNL     1       1.108   1.145  15.224  1.00  0.00     0.058 A 
ATOM     73  C   UNL     1       1.551   2.141  16.107  1.00  0.00     0.135 A 
ATOM     74  C   UNL     1       0.342   1.546  14.118  1.00  0.00     0.135 A 
ATOM     75  F   UNL     1       2.281   1.807  17.181  1.00  0.00    -0.206 F 
ATOM     76  C   UNL     1       1.233   3.481  15.913  1.00  0.00     0.059 A 
ATOM     77  C   UNL     1       0.032   2.883  13.889  1.00  0.00     0.059 A 
ATOM     78  F   UNL     1      -0.092   0.634  13.234  1.00  0.00    -0.206 F 
ATOM     79  C   UNL     1       0.474   3.843  14.799  1.00  0.00     0.060 A 
BRANCH  79  80
ATOM     80  S   UNL     1       0.109   5.591  14.531  1.00  0.00     0.124 S 
ATOM     81  O   UNL     1      -0.893   5.843  15.559  1.00  0.00    -0.237 OA
ATOM     82  O   UNL     1       1.412   6.213  14.742  1.00  0.00    -0.237 OA
ATOM     83  O   UNL     1      -0.377   5.624  13.154  1.00  0.00    -0.744 OA
ENDBRANCH  79  80
ENDBRANCH  47  72
BRANCH  59  84
ATOM     84  C   UNL     1      -0.714  -3.528  20.072  1.00  0.00     0.058 A 
ATOM     85  C   UNL     1      -2.112  -3.453  19.981  1.00  0.00     0.135 A 
ATOM     86  C   UNL     1      -0.141  -3.571  21.354  1.00  0.00     0.135 A 
ATOM     87  F   UNL     1      -2.710  -3.402  18.780  1.00  0.00    -0.206 F 
ATOM     88  C   UNL     1      -2.912  -3.401  21.118  1.00  0.00     0.059 A 
ATOM     89  C   UNL     1      -0.923  -3.548  22.504  1.00  0.00     0.059 A 
ATOM     90  F   UNL     1       1.191  -3.653  21.496  1.00  0.00    -0.206 F 
ATOM     91  C   UNL     1      -2.308  -3.452  22.376  1.00  0.00     0.060 A 
BRANCH  91  92
ATOM     92  S   UNL     1      -3.358  -3.421  23.844  1.00  0.00     0.124 S 
ATOM     93  O   UNL     1      -3.769  -2.021  23.881  1.00  0.00    -0.237 OA
ATOM     94  O   UNL     1      -4.404  -4.380  23.500  1.00  0.00    -0.237 OA
ATOM     95  O   UNL     1      -2.459  -3.840  24.914  1.00  0.00    -0.744 OA
ENDBRANCH  91  92
ENDBRANCH  59  84
ENDBRANCH  33  34
ENDBRANCH  25  28
ENDBRANCH  23  24
ENDBRANCH  22  23
ENDBRANCH  21  22
ENDBRANCH   1  21
TORSDOF 19
