REMARK SMILES Cc1cc(/C=C2/C(=O)NC(=S)[NH+]=C2NCCCCNC(=O)c2ccc(-c3c4nc(c(-c5c(F)cc(S(=O)(=O)[O-])cc5F)c5ccc([nH]5)c(-c5c(F)cc(S(=O)(=O)[O-])cc5F)c5nc(c(-c6c(F)cc(S(=O)(=O)[O-])cc6F)c6ccc3[nH]6)C=C5)C=C4)cc2)c(C)n1-c1cccc(C(=O)[O-])c1
REMARK SMILES IDX 17 1 16 2 15 3 14 4 5 5 6 6 7 7 13 8 8 9 9 10 12 11 10 12
REMARK SMILES IDX 11 16 4 17 1 18 2 19 3 20 90 21 88 22 89 23 91 24 92 25
REMARK SMILES IDX 99 26 93 27 95 28 94 29 96 30 97 31 98 32 18 33 19 34 20 35
REMARK SMILES IDX 21 37 22 38 23 39 87 40 24 41 86 42 25 43 26 44 27 45 80 46
REMARK SMILES IDX 28 47 85 48 79 49 81 50 29 51 84 52 78 53 77 54 30 56 64 57
REMARK SMILES IDX 43 58 63 59 44 60 47 61 62 62 82 63 45 64 46 65 61 67 83 68
REMARK SMILES IDX 48 69 31 70 32 71 41 72 33 73 34 74 40 75 42 76 35 77 36 78
REMARK SMILES IDX 37 79 38 80 39 81 65 82 66 83 75 84 67 85 68 86 74 87 76 88
REMARK SMILES IDX 69 89 70 90 71 91 72 92 73 93 49 94 50 95 59 96 51 97 52 98
REMARK SMILES IDX 58 99 60 100 53 101 54 102 55 103 56 104 57 105
REMARK H PARENT 9 13 12 14 14 15 19 36 81 55 47 66
REMARK Flexibility Score: inf
ROOT
ATOM      1  C   UNL     1       2.185   2.784  -3.261  1.00  0.00     0.024 C 
ENDROOT
BRANCH   1   2
ATOM      2  C   UNL     1       2.209   1.369  -3.898  1.00  0.00     0.039 C 
BRANCH   2   3
ATOM      3  C   UNL     1       0.958   0.703  -4.409  1.00  0.00     0.194 C 
BRANCH   3   4
ATOM      4  N   UNL     1       0.507   0.756  -5.767  1.00  0.00    -0.305 N 
ATOM      5  C   UNL     1      -1.252  -1.653  -4.223  1.00  0.00     0.032 C 
ATOM      6  C   UNL     1      -1.062  -1.320  -5.529  1.00  0.00     0.128 C 
ATOM      7  C   UNL     1      -1.564  -2.374  -6.465  1.00  0.00     0.319 C 
ATOM      8  C   UNL     1      -0.473  -0.103  -6.253  1.00  0.00     0.234 C 
ATOM      9  O   UNL     1      -1.676  -3.561  -6.176  1.00  0.00    -0.250 OA
ATOM     10  N   UNL     1      -1.922  -1.911  -7.694  1.00  0.00    -0.229 N 
ATOM     11  N   UNL     1      -0.830   0.164  -7.485  1.00  0.00    -0.236 N 
ATOM     12  C   UNL     1      -1.672  -0.659  -8.180  1.00  0.00     0.295 C 
ATOM     13  H   UNL     1      -2.403  -2.534  -8.286  1.00  0.00     0.268 HD
ATOM     14  H   UNL     1      -0.484   0.976  -7.921  1.00  0.00     0.268 HD
ATOM     15  H   UNL     1       0.904   1.421  -6.375  1.00  0.00     0.256 HD
ATOM     16  S   UNL     1      -2.338  -0.275  -9.672  1.00  0.00    -0.005 S 
BRANCH   5  17
ATOM     17  C   UNL     1      -0.994  -0.945  -2.997  1.00  0.00    -0.003 A 
ATOM     18  C   UNL     1       0.775  -0.404   0.213  1.00  0.00     0.065 C 
ATOM     19  C   UNL     1      -0.010  -0.332  -1.052  1.00  0.00     0.020 A 
ATOM     20  C   UNL     1      -0.161  -1.380  -1.952  1.00  0.00     0.031 A 
ATOM     21  N   UNL     1      -0.707   0.785  -1.552  1.00  0.00    -0.318 N 
ATOM     22  C   UNL     1      -1.531   0.271  -2.594  1.00  0.00     0.027 A 
ATOM     23  C   UNL     1      -2.596   1.019  -3.315  1.00  0.00     0.065 C 
BRANCH  21  24
ATOM     24  C   UNL     1      -0.384   2.214  -1.360  1.00  0.00     0.046 A 
ATOM     25  C   UNL     1      -1.396   3.442  -2.238  1.00  0.00     0.026 A 
ATOM     26  C   UNL     1       1.293   2.657  -0.846  1.00  0.00     0.036 A 
ATOM     27  C   UNL     1      -0.680   5.043  -2.735  1.00  0.00     0.003 A 
ATOM     28  C   UNL     1       1.958   4.317  -1.186  1.00  0.00    -0.001 A 
ATOM     29  C   UNL     1       1.000   5.506  -2.150  1.00  0.00     0.010 A 
BRANCH  28  30
ATOM     30  C   UNL     1       3.331   4.704  -0.806  1.00  0.00     0.072 C 
ATOM     31  O   UNL     1       3.823   5.809  -0.934  1.00  0.00    -0.545 OA
ATOM     32  O   UNL     1       4.069   3.652  -0.406  1.00  0.00    -0.545 OA
ENDBRANCH  28  30
ENDBRANCH  21  24
ENDBRANCH   5  17
ENDBRANCH   3   4
ENDBRANCH   2   3
ENDBRANCH   1   2
BRANCH   1  33
ATOM     33  C   UNL     1       0.707   3.483  -2.758  1.00  0.00     0.116 C 
BRANCH  33  34
ATOM     34  N   UNL     1      -0.063   4.263  -0.956  1.00  0.00    -0.352 N 
ATOM     35  C   UNL     1      -1.002   5.307  -0.306  1.00  0.00     0.251 C 
ATOM     36  H   UNL     1       0.345   3.749  -0.223  1.00  0.00     0.163 HD
ATOM     37  O   UNL     1      -1.007   5.239   0.931  1.00  0.00    -0.269 OA
BRANCH  35  38
ATOM     38  C   UNL     1      -1.857   6.467  -1.007  1.00  0.00     0.039 A 
ATOM     39  C   UNL     1      -1.196   7.605  -1.446  1.00  0.00     0.014 A 
ATOM     40  C   UNL     1      -3.218   6.419  -1.416  1.00  0.00     0.014 A 
ATOM     41  C   UNL     1      -1.784   8.487  -2.428  1.00  0.00     0.010 A 
ATOM     42  C   UNL     1      -3.867   7.439  -2.307  1.00  0.00     0.010 A 
ATOM     43  C   UNL     1      -3.163   8.512  -2.897  1.00  0.00    -0.014 A 
BRANCH  43  44
ATOM     44  C   UNL     1      -3.714  10.010  -3.522  1.00  0.00     0.031 A 
ATOM     45  C   UNL     1      -2.999  10.913  -2.584  1.00  0.00     0.074 A 
ATOM     46  C   UNL     1      -4.639  10.731  -4.322  1.00  0.00     0.049 A 
ATOM     47  N   UNL     1      -3.221  10.643  -1.332  1.00  0.00    -0.248 NA
ATOM     48  C   UNL     1      -1.781  11.683  -2.821  1.00  0.00     0.031 C 
ATOM     49  C   UNL     1      -5.793  10.228  -5.097  1.00  0.00     0.029 A 
ATOM     50  N   UNL     1      -4.808  12.152  -4.614  1.00  0.00    -0.354 N 
ATOM     51  C   UNL     1      -2.369  11.378  -0.574  1.00  0.00     0.074 A 
ATOM     52  C   UNL     1      -1.389  11.868  -1.547  1.00  0.00     0.031 C 
ATOM     53  C   UNL     1      -6.399  11.203  -5.852  1.00  0.00     0.029 A 
ATOM     54  C   UNL     1      -5.792  12.524  -5.644  1.00  0.00     0.049 A 
ATOM     55  H   UNL     1      -4.283  12.837  -4.139  1.00  0.00     0.167 HD
ATOM     56  C   UNL     1      -3.029  11.997   0.445  1.00  0.00     0.037 A 
ATOM     57  C   UNL     1      -6.182  13.782  -6.169  1.00  0.00     0.037 A 
ATOM     58  C   UNL     1      -3.418  13.321   0.030  1.00  0.00     0.049 A 
ATOM     59  C   UNL     1      -6.123  14.654  -4.989  1.00  0.00     0.074 A 
ATOM     60  C   UNL     1      -2.743  14.297  -0.680  1.00  0.00     0.029 A 
ATOM     61  N   UNL     1      -4.764  13.551  -0.159  1.00  0.00    -0.354 N 
ATOM     62  N   UNL     1      -7.008  14.604  -4.042  1.00  0.00    -0.248 NA
ATOM     63  C   UNL     1      -5.107  15.690  -4.858  1.00  0.00     0.031 C 
ATOM     64  C   UNL     1      -3.659  14.688  -1.679  1.00  0.00     0.029 A 
ATOM     65  C   UNL     1      -4.941  14.335  -1.278  1.00  0.00     0.049 A 
ATOM     66  H   UNL     1      -5.486  13.209   0.416  1.00  0.00     0.167 HD
ATOM     67  C   UNL     1      -6.354  15.174  -2.998  1.00  0.00     0.074 A 
ATOM     68  C   UNL     1      -5.358  16.047  -3.598  1.00  0.00     0.031 C 
ATOM     69  C   UNL     1      -6.259  14.437  -1.863  1.00  0.00     0.037 A 
BRANCH  56  70
ATOM     70  C   UNL     1      -3.928  11.011   1.195  1.00  0.00     0.058 A 
ATOM     71  C   UNL     1      -3.490  10.495   2.418  1.00  0.00     0.135 A 
ATOM     72  C   UNL     1      -5.093  10.417   0.638  1.00  0.00     0.135 A 
ATOM     73  F   UNL     1      -2.403  11.013   3.013  1.00  0.00    -0.206 F 
ATOM     74  C   UNL     1      -4.146   9.431   3.043  1.00  0.00     0.059 A 
ATOM     75  C   UNL     1      -5.723   9.313   1.210  1.00  0.00     0.059 A 
ATOM     76  F   UNL     1      -5.624  10.887  -0.504  1.00  0.00    -0.206 F 
ATOM     77  C   UNL     1      -5.245   8.831   2.422  1.00  0.00     0.060 A 
BRANCH  77  78
ATOM     78  S   UNL     1      -6.024   7.404   3.211  1.00  0.00     0.124 S 
ATOM     79  O   UNL     1      -4.875   6.594   3.607  1.00  0.00    -0.237 OA
ATOM     80  O   UNL     1      -6.748   8.035   4.309  1.00  0.00    -0.237 OA
ATOM     81  O   UNL     1      -6.843   6.823   2.151  1.00  0.00    -0.744 OA
ENDBRANCH  77  78
ENDBRANCH  56  70
BRANCH  57  82
ATOM     82  C   UNL     1      -6.894  14.637  -7.338  1.00  0.00     0.058 A 
ATOM     83  C   UNL     1      -7.437  15.962  -7.096  1.00  0.00     0.135 A 
ATOM     84  C   UNL     1      -6.657  14.424  -8.708  1.00  0.00     0.135 A 
ATOM     85  F   UNL     1      -7.815  16.346  -5.868  1.00  0.00    -0.206 F 
ATOM     86  C   UNL     1      -7.551  16.996  -8.059  1.00  0.00     0.059 A 
ATOM     87  C   UNL     1      -6.801  15.447  -9.707  1.00  0.00     0.059 A 
ATOM     88  F   UNL     1      -6.199  13.236  -9.124  1.00  0.00    -0.206 F 
ATOM     89  C   UNL     1      -7.183  16.748  -9.366  1.00  0.00     0.060 A 
BRANCH  89  90
ATOM     90  S   UNL     1      -7.055  18.154 -10.533  1.00  0.00     0.124 S 
ATOM     91  O   UNL     1      -8.445  18.557 -10.717  1.00  0.00    -0.237 OA
ATOM     92  O   UNL     1      -6.221  19.101  -9.796  1.00  0.00    -0.237 OA
ATOM     93  O   UNL     1      -6.416  17.564 -11.706  1.00  0.00    -0.744 OA
ENDBRANCH  89  90
ENDBRANCH  57  82
BRANCH  69  94
ATOM     94  C   UNL     1      -7.503  13.703  -1.380  1.00  0.00     0.058 A 
ATOM     95  C   UNL     1      -8.369  12.883  -2.141  1.00  0.00     0.135 A 
ATOM     96  C   UNL     1      -7.883  13.905  -0.040  1.00  0.00     0.135 A 
ATOM     97  F   UNL     1      -8.085  12.513  -3.398  1.00  0.00    -0.206 F 
ATOM     98  C   UNL     1      -9.571  12.383  -1.626  1.00  0.00     0.059 A 
ATOM     99  C   UNL     1      -9.042  13.364   0.512  1.00  0.00     0.059 A 
ATOM    100  F   UNL     1      -7.112  14.650   0.769  1.00  0.00    -0.206 F 
ATOM    101  C   UNL     1      -9.904  12.638  -0.300  1.00  0.00     0.060 A 
BRANCH 101 102
ATOM    102  S   UNL     1     -11.467  12.015   0.353  1.00  0.00     0.124 S 
ATOM    103  O   UNL     1     -12.435  12.889  -0.304  1.00  0.00    -0.237 OA
ATOM    104  O   UNL     1     -11.471  10.627  -0.093  1.00  0.00    -0.237 OA
ATOM    105  O   UNL     1     -11.335  12.216   1.793  1.00  0.00    -0.744 OA
ENDBRANCH 101 102
ENDBRANCH  69  94
ENDBRANCH  43  44
ENDBRANCH  35  38
ENDBRANCH  33  34
ENDBRANCH   1  33
TORSDOF 16
