REMARK SMILES Cc1ccc(-c2cncc(C#N)c2)cc1C(=O)NCCCCNC(=O)c1ccc(-c2c3nc(c(-c4c(F)cc(S(=O)(=O)[O-])cc4F)c4ccc([nH]4)c(-c4c(F)cc(S(=O)(=O)[O-])cc4F)c4nc(c(-c5c(F)cc(S(=O)(=O)[O-])cc5F)c5ccc2[nH]5)C=C4)C=C3)cc1
REMARK SMILES IDX 21 1 20 2 19 3 18 4 16 5 17 6 15 8 1 9 2 10 3 11 4 12 14 13
REMARK SMILES IDX 5 14 6 15 7 16 13 17 8 18 10 19 9 20 11 21 12 22 22 23 23 24
REMARK SMILES IDX 24 25 25 27 26 28 27 29 91 30 28 31 90 32 29 33 30 34 31 35
REMARK SMILES IDX 84 36 32 37 89 38 83 39 85 40 33 41 88 42 82 43 81 44 34 46
REMARK SMILES IDX 68 47 47 48 67 49 48 50 51 51 66 52 86 53 49 54 50 55 65 57
REMARK SMILES IDX 87 58 52 59 35 60 36 61 45 62 37 63 38 64 44 65 46 66 39 67
REMARK SMILES IDX 40 68 41 69 42 70 43 71 69 72 70 73 79 74 71 75 72 76 78 77
REMARK SMILES IDX 80 78 73 79 74 80 75 81 76 82 77 83 53 84 54 85 63 86 55 87
REMARK SMILES IDX 56 88 62 89 64 90 57 91 58 92 59 93 60 94 61 95
REMARK H PARENT 18 7 23 26 85 45 51 56
REMARK Flexibility Score: inf
ROOT
ATOM      1  C   UNL     1       4.961   2.392  -1.737  1.00  0.00     0.023 C 
ENDROOT
BRANCH   1   2
ATOM      2  C   UNL     1       4.093   1.318  -1.100  1.00  0.00     0.023 C 
BRANCH   2   3
ATOM      3  C   UNL     1       3.422   1.683   0.236  1.00  0.00     0.116 C 
BRANCH   3   4
ATOM      4  N   UNL     1       2.230   2.460  -0.004  1.00  0.00    -0.352 N 
ATOM      5  C   UNL     1       0.922   2.154  -0.250  1.00  0.00     0.251 C 
ATOM      6  O   UNL     1       0.222   3.132  -0.546  1.00  0.00    -0.269 OA
ATOM      7  H   UNL     1       2.397   3.430   0.014  1.00  0.00     0.163 HD
BRANCH   5   8
ATOM      8  C   UNL     1       0.239   0.808  -0.123  1.00  0.00     0.043 A 
ATOM      9  C   UNL     1       2.063  -0.971  -0.730  1.00  0.00     0.045 C 
ATOM     10  C   UNL     1       0.723  -0.515  -0.243  1.00  0.00    -0.038 A 
ATOM     11  C   UNL     1      -0.154  -1.596  -0.004  1.00  0.00     0.005 A 
ATOM     12  C   UNL     1      -1.514  -1.411   0.176  1.00  0.00     0.009 A 
ATOM     13  C   UNL     1      -1.165   0.954   0.065  1.00  0.00     0.023 A 
ATOM     14  C   UNL     1      -2.053  -0.130   0.155  1.00  0.00    -0.016 A 
BRANCH  14  15
ATOM     15  C   UNL     1      -3.506   0.039   0.124  1.00  0.00     0.001 A 
ATOM     16  C   UNL     1      -4.332  -0.538   1.090  1.00  0.00     0.119 A 
ATOM     17  C   UNL     1      -4.140   0.669  -0.958  1.00  0.00     0.031 A 
ATOM     18  N   UNL     1      -5.685  -0.558   1.032  1.00  0.00    -0.263 NA
ATOM     19  C   UNL     1      -5.533   0.660  -1.053  1.00  0.00     0.071 A 
ATOM     20  C   UNL     1      -6.251   0.033  -0.044  1.00  0.00     0.130 A 
BRANCH  19  21
ATOM     21  C   UNL     1      -6.208   1.230  -2.167  1.00  0.00     0.101 C 
ATOM     22  N   UNL     1      -6.781   1.678  -3.082  1.00  0.00    -0.192 NA
ENDBRANCH  19  21
ENDBRANCH  14  15
ENDBRANCH   5   8
ENDBRANCH   3   4
ENDBRANCH   2   3
ENDBRANCH   1   2
BRANCH   1  23
ATOM     23  C   UNL     1       6.223   2.664  -0.960  1.00  0.00     0.116 C 
BRANCH  23  24
ATOM     24  N   UNL     1       7.403   1.918  -1.358  1.00  0.00    -0.352 N 
ATOM     25  C   UNL     1       8.713   2.324  -1.101  1.00  0.00     0.251 C 
ATOM     26  H   UNL     1       7.271   1.070  -1.841  1.00  0.00     0.163 HD
ATOM     27  O   UNL     1       9.625   2.201  -1.907  1.00  0.00    -0.269 OA
BRANCH  25  28
ATOM     28  C   UNL     1       8.991   2.777   0.285  1.00  0.00     0.039 A 
ATOM     29  C   UNL     1       9.847   1.994   1.073  1.00  0.00     0.014 A 
ATOM     30  C   UNL     1       8.099   3.662   0.869  1.00  0.00     0.014 A 
ATOM     31  C   UNL     1       9.611   1.903   2.436  1.00  0.00     0.010 A 
ATOM     32  C   UNL     1       7.696   3.380   2.137  1.00  0.00     0.010 A 
ATOM     33  C   UNL     1       8.451   2.492   2.907  1.00  0.00    -0.014 A 
BRANCH  33  34
ATOM     34  C   UNL     1       7.963   2.432   4.260  1.00  0.00     0.031 A 
ATOM     35  C   UNL     1       8.324   3.611   5.069  1.00  0.00     0.074 A 
ATOM     36  C   UNL     1       6.985   1.521   4.467  1.00  0.00     0.049 A 
ATOM     37  N   UNL     1       8.232   3.694   6.340  1.00  0.00    -0.248 NA
ATOM     38  C   UNL     1       8.889   4.837   4.481  1.00  0.00     0.031 C 
ATOM     39  C   UNL     1       5.954   1.452   5.492  1.00  0.00     0.029 A 
ATOM     40  N   UNL     1       6.865   0.294   3.799  1.00  0.00    -0.354 N 
ATOM     41  C   UNL     1       8.272   5.042   6.654  1.00  0.00     0.074 A 
ATOM     42  C   UNL     1       8.870   5.677   5.516  1.00  0.00     0.031 C 
ATOM     43  C   UNL     1       5.553   0.170   5.617  1.00  0.00     0.029 A 
ATOM     44  C   UNL     1       6.407  -0.635   4.751  1.00  0.00     0.049 A 
ATOM     45  H   UNL     1       7.063   0.118   2.851  1.00  0.00     0.167 HD
ATOM     46  C   UNL     1       7.571   5.449   7.750  1.00  0.00     0.037 A 
ATOM     47  C   UNL     1       7.288  -1.585   5.194  1.00  0.00     0.037 A 
ATOM     48  C   UNL     1       7.016   4.259   8.403  1.00  0.00     0.049 A 
ATOM     49  C   UNL     1       7.720  -1.294   6.618  1.00  0.00     0.074 A 
ATOM     50  C   UNL     1       5.762   3.674   8.351  1.00  0.00     0.029 A 
ATOM     51  N   UNL     1       7.891   3.280   8.862  1.00  0.00    -0.354 N 
ATOM     52  N   UNL     1       7.751  -0.098   7.146  1.00  0.00    -0.248 NA
ATOM     53  C   UNL     1       8.015  -2.342   7.591  1.00  0.00     0.031 C 
ATOM     54  C   UNL     1       5.916   2.298   8.683  1.00  0.00     0.029 A 
ATOM     55  C   UNL     1       7.258   2.052   8.925  1.00  0.00     0.049 A 
ATOM     56  H   UNL     1       8.831   3.439   9.107  1.00  0.00     0.167 HD
ATOM     57  C   UNL     1       7.997  -0.196   8.491  1.00  0.00     0.074 A 
ATOM     58  C   UNL     1       8.168  -1.622   8.716  1.00  0.00     0.031 C 
ATOM     59  C   UNL     1       8.002   0.873   9.345  1.00  0.00     0.037 A 
BRANCH  46  60
ATOM     60  C   UNL     1       7.115   6.860   8.084  1.00  0.00     0.058 A 
ATOM     61  C   UNL     1       6.139   7.043   9.093  1.00  0.00     0.135 A 
ATOM     62  C   UNL     1       7.526   8.057   7.460  1.00  0.00     0.135 A 
ATOM     63  F   UNL     1       5.677   6.014   9.817  1.00  0.00    -0.206 F 
ATOM     64  C   UNL     1       5.585   8.282   9.414  1.00  0.00     0.059 A 
ATOM     65  C   UNL     1       6.982   9.313   7.762  1.00  0.00     0.059 A 
ATOM     66  F   UNL     1       8.492   8.089   6.539  1.00  0.00    -0.206 F 
ATOM     67  C   UNL     1       6.006   9.415   8.738  1.00  0.00     0.060 A 
BRANCH  67  68
ATOM     68  S   UNL     1       5.285  11.003   9.185  1.00  0.00     0.124 S 
ATOM     69  O   UNL     1       3.878  10.800   8.857  1.00  0.00    -0.237 OA
ATOM     70  O   UNL     1       5.601  11.091  10.607  1.00  0.00    -0.237 OA
ATOM     71  O   UNL     1       5.993  11.952   8.329  1.00  0.00    -0.744 OA
ENDBRANCH  67  68
ENDBRANCH  46  60
BRANCH  47  72
ATOM     72  C   UNL     1       8.121  -2.119   4.063  1.00  0.00     0.058 A 
ATOM     73  C   UNL     1       7.424  -2.821   3.052  1.00  0.00     0.135 A 
ATOM     74  C   UNL     1       9.350  -1.547   3.702  1.00  0.00     0.135 A 
ATOM     75  F   UNL     1       6.254  -3.417   3.338  1.00  0.00    -0.206 F 
ATOM     76  C   UNL     1       7.813  -2.776   1.715  1.00  0.00     0.059 A 
ATOM     77  C   UNL     1       9.771  -1.512   2.365  1.00  0.00     0.059 A 
ATOM     78  F   UNL     1      10.077  -0.879   4.610  1.00  0.00    -0.206 F 
ATOM     79  C   UNL     1       8.953  -2.058   1.373  1.00  0.00     0.060 A 
BRANCH  79  80
ATOM     80  S   UNL     1       9.233  -1.710  -0.384  1.00  0.00     0.124 S 
ATOM     81  O   UNL     1       9.420  -3.050  -0.927  1.00  0.00    -0.237 OA
ATOM     82  O   UNL     1       7.985  -1.039  -0.761  1.00  0.00    -0.237 OA
ATOM     83  O   UNL     1      10.421  -0.867  -0.369  1.00  0.00    -0.744 OA
ENDBRANCH  79  80
ENDBRANCH  47  72
BRANCH  59  84
ATOM     84  C   UNL     1       8.638   0.887  10.717  1.00  0.00     0.058 A 
ATOM     85  C   UNL     1       9.659   0.006  11.109  1.00  0.00     0.135 A 
ATOM     86  C   UNL     1       8.343   1.924  11.640  1.00  0.00     0.135 A 
ATOM     87  F   UNL     1      10.142  -0.929  10.280  1.00  0.00    -0.206 F 
ATOM     88  C   UNL     1      10.258   0.076  12.364  1.00  0.00     0.059 A 
ATOM     89  C   UNL     1       8.998   2.069  12.855  1.00  0.00     0.059 A 
ATOM     90  F   UNL     1       7.409   2.854  11.395  1.00  0.00    -0.206 F 
ATOM     91  C   UNL     1       9.919   1.108  13.230  1.00  0.00     0.060 A 
BRANCH  91  92
ATOM     92  S   UNL     1      10.690   1.187  14.849  1.00  0.00     0.124 S 
ATOM     93  O   UNL     1       9.912   0.192  15.581  1.00  0.00    -0.237 OA
ATOM     94  O   UNL     1      12.073   0.820  14.558  1.00  0.00    -0.237 OA
ATOM     95  O   UNL     1      10.487   2.573  15.257  1.00  0.00    -0.744 OA
ENDBRANCH  91  92
ENDBRANCH  59  84
ENDBRANCH  33  34
ENDBRANCH  25  28
ENDBRANCH  23  24
ENDBRANCH   1  23
TORSDOF 16
