REMARK SMILES C[C@@H](Oc1ccc(-c2ccccc2)cc1)C(=O)N1CCC[C@H](C(=O)NCCCCNC(=O)c2ccc(-c3c4nc(c(-c5c(F)cc(S(=O)(=O)[O-])cc5F)c5ccc([nH]5)c(-c5c(F)cc(S(=O)(=O)[O-])cc5F)c5nc(c(-c6c(F)cc(S(=O)(=O)[O-])cc6F)c6ccc3[nH]6)C=C5)C=C4)cc2)C1
REMARK SMILES IDX 26 1 25 2 23 3 24 4 22 6 18 7 19 8 99 9 20 10 21 11 16 12
REMARK SMILES IDX 17 13 2 14 1 15 3 16 4 17 5 18 15 19 6 20 14 21 7 22 8 23
REMARK SMILES IDX 9 24 13 25 10 26 12 27 11 28 27 29 28 30 29 31 30 32 31 33
REMARK SMILES IDX 32 35 33 36 34 37 98 38 35 39 97 40 36 41 37 42 38 43 91 44
REMARK SMILES IDX 39 45 96 46 90 47 92 48 40 49 95 50 89 51 88 52 41 54 75 55
REMARK SMILES IDX 54 56 74 57 55 58 58 59 73 60 93 61 56 62 57 63 72 65 94 66
REMARK SMILES IDX 59 67 42 68 43 69 52 70 44 71 45 72 51 73 53 74 46 75 47 76
REMARK SMILES IDX 48 77 49 78 50 79 76 80 77 81 86 82 78 83 79 84 85 85 87 86
REMARK SMILES IDX 80 87 81 88 82 89 83 90 84 91 60 92 61 93 70 94 62 95 63 96
REMARK SMILES IDX 69 97 71 98 64 99 65 100 66 101 67 102 68 103
REMARK H PARENT 25 5 30 34 92 53 58 64
REMARK Flexibility Score: inf
ROOT
ATOM      1  C   UNL     1      -3.591   0.680  -0.609  1.00  0.00     0.116 C 
ENDROOT
BRANCH   1   2
ATOM      2  N   UNL     1      -3.502   0.819   0.828  1.00  0.00    -0.356 N 
ATOM      3  C   UNL     1      -3.037  -0.015   1.790  1.00  0.00     0.224 C 
ATOM      4  O   UNL     1      -2.927   0.468   2.924  1.00  0.00    -0.275 OA
ATOM      5  H   UNL     1      -3.843   1.677   1.170  1.00  0.00     0.163 HD
BRANCH   3   6
ATOM      6  C   UNL     1      -2.656  -1.486   1.574  1.00  0.00     0.098 C 
ATOM      7  N   UNL     1      -1.567  -1.923  -0.629  1.00  0.00    -0.339 N 
ATOM      8  C   UNL     1      -2.559  -2.934  -0.986  1.00  0.00     0.119 C 
ATOM      9  C   UNL     1      -1.357  -1.720   0.797  1.00  0.00     0.133 C 
ATOM     10  C   UNL     1      -3.909  -2.726  -0.312  1.00  0.00     0.022 C 
ATOM     11  C   UNL     1      -3.813  -2.405   1.174  1.00  0.00     0.017 C 
BRANCH   7  12
ATOM     12  C   UNL     1      -0.862  -1.288  -1.651  1.00  0.00     0.263 C 
ATOM     13  O   UNL     1      -1.373  -1.153  -2.769  1.00  0.00    -0.271 OA
BRANCH  12  14
ATOM     14  C   UNL     1       0.592  -0.823  -1.429  1.00  0.00     0.259 C 
ATOM     15  C   UNL     1       0.779   0.375  -0.505  1.00  0.00     0.064 C 
BRANCH  14  16
ATOM     16  O   UNL     1       1.291  -1.970  -0.928  1.00  0.00    -0.481 OA
BRANCH  16  17
ATOM     17  C   UNL     1       2.591  -2.024  -1.342  1.00  0.00     0.120 A 
ATOM     18  C   UNL     1       2.936  -2.539  -2.590  1.00  0.00     0.047 A 
ATOM     19  C   UNL     1       3.571  -1.696  -0.416  1.00  0.00     0.047 A 
ATOM     20  C   UNL     1       4.287  -2.749  -2.901  1.00  0.00     0.012 A 
ATOM     21  C   UNL     1       4.912  -1.899  -0.732  1.00  0.00     0.012 A 
ATOM     22  C   UNL     1       5.294  -2.462  -1.963  1.00  0.00    -0.018 A 
BRANCH  22  23
ATOM     23  C   UNL     1       6.705  -2.807  -2.200  1.00  0.00    -0.018 A 
ATOM     24  C   UNL     1       7.401  -2.374  -3.338  1.00  0.00     0.009 A 
ATOM     25  C   UNL     1       7.403  -3.585  -1.257  1.00  0.00     0.009 A 
ATOM     26  C   UNL     1       8.753  -2.693  -3.513  1.00  0.00     0.001 A 
ATOM     27  C   UNL     1       8.751  -3.903  -1.429  1.00  0.00     0.001 A 
ATOM     28  C   UNL     1       9.427  -3.452  -2.558  1.00  0.00     0.000 A 
ENDBRANCH  22  23
ENDBRANCH  16  17
ENDBRANCH  14  16
ENDBRANCH  12  14
ENDBRANCH   7  12
ENDBRANCH   3   6
ENDBRANCH   1   2
BRANCH   1  29
ATOM     29  C   UNL     1      -5.024   0.675  -1.134  1.00  0.00     0.023 C 
BRANCH  29  30
ATOM     30  C   UNL     1      -5.497   2.006  -1.707  1.00  0.00     0.023 C 
BRANCH  30  31
ATOM     31  C   UNL     1      -4.653   2.568  -2.848  1.00  0.00     0.116 C 
BRANCH  31  32
ATOM     32  N   UNL     1      -4.500   1.677  -3.991  1.00  0.00    -0.352 N 
ATOM     33  C   UNL     1      -4.450   2.025  -5.327  1.00  0.00     0.251 C 
ATOM     34  H   UNL     1      -4.423   0.717  -3.788  1.00  0.00     0.163 HD
ATOM     35  O   UNL     1      -4.395   1.176  -6.204  1.00  0.00    -0.269 OA
BRANCH  33  36
ATOM     36  C   UNL     1      -4.514   3.461  -5.674  1.00  0.00     0.039 A 
ATOM     37  C   UNL     1      -5.532   3.911  -6.517  1.00  0.00     0.014 A 
ATOM     38  C   UNL     1      -3.644   4.365  -5.061  1.00  0.00     0.014 A 
ATOM     39  C   UNL     1      -5.741   5.284  -6.664  1.00  0.00     0.010 A 
ATOM     40  C   UNL     1      -3.905   5.728  -5.144  1.00  0.00     0.010 A 
ATOM     41  C   UNL     1      -4.966   6.201  -5.934  1.00  0.00    -0.014 A 
BRANCH  41  42
ATOM     42  C   UNL     1      -5.259   7.657  -5.956  1.00  0.00     0.031 A 
ATOM     43  C   UNL     1      -4.227   8.623  -6.468  1.00  0.00     0.074 A 
ATOM     44  C   UNL     1      -6.412   8.116  -5.427  1.00  0.00     0.049 A 
ATOM     45  N   UNL     1      -4.248   9.930  -6.469  1.00  0.00    -0.248 NA
ATOM     46  C   UNL     1      -2.991   8.041  -7.018  1.00  0.00     0.031 C 
ATOM     47  C   UNL     1      -7.465   7.286  -4.835  1.00  0.00     0.029 A 
ATOM     48  N   UNL     1      -6.887   9.397  -5.288  1.00  0.00    -0.354 N 
ATOM     49  C   UNL     1      -3.023  10.327  -6.992  1.00  0.00     0.074 A 
ATOM     50  C   UNL     1      -2.263   9.123  -7.251  1.00  0.00     0.031 C 
ATOM     51  C   UNL     1      -8.469   8.076  -4.420  1.00  0.00     0.029 A 
ATOM     52  C   UNL     1      -8.121   9.469  -4.684  1.00  0.00     0.049 A 
ATOM     53  H   UNL     1      -6.390  10.190  -5.593  1.00  0.00     0.167 HD
ATOM     54  C   UNL     1      -2.580  11.579  -7.256  1.00  0.00     0.037 A 
ATOM     55  C   UNL     1      -8.884  10.536  -4.377  1.00  0.00     0.037 A 
ATOM     56  C   UNL     1      -3.358  12.771  -7.041  1.00  0.00     0.049 A 
ATOM     57  C   UNL     1      -8.391  11.914  -4.724  1.00  0.00     0.074 A 
ATOM     58  C   UNL     1      -3.026  14.080  -7.339  1.00  0.00     0.029 A 
ATOM     59  N   UNL     1      -4.627  12.796  -6.483  1.00  0.00    -0.354 N 
ATOM     60  N   UNL     1      -7.255  12.267  -5.275  1.00  0.00    -0.248 NA
ATOM     61  C   UNL     1      -9.286  13.039  -4.416  1.00  0.00     0.031 C 
ATOM     62  C   UNL     1      -4.086  14.901  -6.940  1.00  0.00     0.029 A 
ATOM     63  C   UNL     1      -5.091  14.099  -6.424  1.00  0.00     0.049 A 
ATOM     64  H   UNL     1      -5.125  12.005  -6.175  1.00  0.00     0.167 HD
ATOM     65  C   UNL     1      -7.309  13.650  -5.406  1.00  0.00     0.074 A 
ATOM     66  C   UNL     1      -8.593  14.069  -4.882  1.00  0.00     0.031 C 
ATOM     67  C   UNL     1      -6.381  14.495  -5.916  1.00  0.00     0.037 A 
BRANCH  54  68
ATOM     68  C   UNL     1      -1.196  11.718  -7.823  1.00  0.00     0.058 A 
ATOM     69  C   UNL     1      -0.901  11.329  -9.140  1.00  0.00     0.135 A 
ATOM     70  C   UNL     1      -0.157  12.261  -7.051  1.00  0.00     0.135 A 
ATOM     71  F   UNL     1      -1.855  10.789  -9.915  1.00  0.00    -0.206 F 
ATOM     72  C   UNL     1       0.384  11.441  -9.660  1.00  0.00     0.059 A 
ATOM     73  C   UNL     1       1.130  12.407  -7.560  1.00  0.00     0.059 A 
ATOM     74  F   UNL     1      -0.385  12.648  -5.786  1.00  0.00    -0.206 F 
ATOM     75  C   UNL     1       1.394  11.978  -8.861  1.00  0.00     0.060 A 
BRANCH  75  76
ATOM     76  S   UNL     1       3.058  12.114  -9.547  1.00  0.00     0.124 S 
ATOM     77  O   UNL     1       3.515  10.730  -9.473  1.00  0.00    -0.237 OA
ATOM     78  O   UNL     1       2.804  12.625 -10.890  1.00  0.00    -0.237 OA
ATOM     79  O   UNL     1       3.723  13.045  -8.641  1.00  0.00    -0.744 OA
ENDBRANCH  75  76
ENDBRANCH  54  68
BRANCH  55  80
ATOM     80  C   UNL     1     -10.212  10.341  -3.738  1.00  0.00     0.058 A 
ATOM     81  C   UNL     1     -11.394  10.537  -4.467  1.00  0.00     0.135 A 
ATOM     82  C   UNL     1     -10.329   9.944  -2.397  1.00  0.00     0.135 A 
ATOM     83  F   UNL     1     -11.333  10.922  -5.751  1.00  0.00    -0.206 F 
ATOM     84  C   UNL     1     -12.646  10.363  -3.888  1.00  0.00     0.059 A 
ATOM     85  C   UNL     1     -11.570   9.743  -1.801  1.00  0.00     0.059 A 
ATOM     86  F   UNL     1      -9.227   9.726  -1.662  1.00  0.00    -0.206 F 
ATOM     87  C   UNL     1     -12.724   9.965  -2.552  1.00  0.00     0.060 A 
BRANCH  87  88
ATOM     88  S   UNL     1     -14.353   9.693  -1.821  1.00  0.00     0.124 S 
ATOM     89  O   UNL     1     -14.807  11.060  -1.599  1.00  0.00    -0.237 OA
ATOM     90  O   UNL     1     -15.044   8.953  -2.873  1.00  0.00    -0.237 OA
ATOM     91  O   UNL     1     -14.054   8.922  -0.618  1.00  0.00    -0.744 OA
ENDBRANCH  87  88
ENDBRANCH  55  80
BRANCH  67  92
ATOM     92  C   UNL     1      -6.729  15.954  -5.973  1.00  0.00     0.058 A 
ATOM     93  C   UNL     1      -6.710  16.761  -4.826  1.00  0.00     0.135 A 
ATOM     94  C   UNL     1      -7.021  16.565  -7.204  1.00  0.00     0.135 A 
ATOM     95  F   UNL     1      -6.443  16.223  -3.626  1.00  0.00    -0.206 F 
ATOM     96  C   UNL     1      -6.981  18.124  -4.894  1.00  0.00     0.059 A 
ATOM     97  C   UNL     1      -7.274  17.929  -7.299  1.00  0.00     0.059 A 
ATOM     98  F   UNL     1      -7.043  15.836  -8.331  1.00  0.00    -0.206 F 
ATOM     99  C   UNL     1      -7.259  18.699  -6.136  1.00  0.00     0.060 A 
BRANCH  99 100
ATOM    100  S   UNL     1      -7.561  20.477  -6.221  1.00  0.00     0.124 S 
ATOM    101  O   UNL     1      -8.927  20.567  -5.717  1.00  0.00    -0.237 OA
ATOM    102  O   UNL     1      -6.525  21.015  -5.345  1.00  0.00    -0.237 OA
ATOM    103  O   UNL     1      -7.393  20.782  -7.639  1.00  0.00    -0.744 OA
ENDBRANCH  99 100
ENDBRANCH  67  92
ENDBRANCH  41  42
ENDBRANCH  33  36
ENDBRANCH  31  32
ENDBRANCH  30  31
ENDBRANCH  29  30
ENDBRANCH   1  29
TORSDOF 19
