REMARK SMILES Nc1ccc(C(=O)N2Cc3nc[nH]c3C[C@H]2C(=O)NCCCCNC(=O)c2ccc(-c3c4nc(c(-c5c(F)cc(S(=O)(=O)[O-])cc5F)c5ccc([nH]5)c(-c5c(F)cc(S(=O)(=O)[O-])cc5F)c5nc(c(-c6c(F)cc(S(=O)(=O)[O-])cc6F)c6ccc3[nH]6)C=C5)C=C4)cc2)cc1
REMARK SMILES IDX 21 1 20 2 19 3 17 4 18 5 16 7 8 8 9 9 10 10 15 11 11 12
REMARK SMILES IDX 14 13 12 14 13 15 6 17 7 18 5 19 2 20 3 21 94 22 4 23 93 24
REMARK SMILES IDX 1 25 22 28 23 29 24 30 25 31 26 33 27 34 28 35 92 36 29 37
REMARK SMILES IDX 91 38 30 39 31 40 32 41 85 42 33 43 90 44 84 45 86 46 34 47
REMARK SMILES IDX 89 48 83 49 82 50 35 52 69 53 48 54 68 55 49 56 52 57 67 58
REMARK SMILES IDX 87 59 50 60 51 61 66 63 88 64 53 65 36 66 37 67 46 68 38 69
REMARK SMILES IDX 39 70 45 71 47 72 40 73 41 74 42 75 43 76 44 77 70 78 71 79
REMARK SMILES IDX 80 80 72 81 73 82 79 83 81 84 74 85 75 86 76 87 77 88 78 89
REMARK SMILES IDX 54 90 55 91 64 92 56 93 57 94 63 95 65 96 58 97 59 98 60 99
REMARK SMILES IDX 61 100 62 101
REMARK H PARENT 19 6 13 16 1 26 1 27 24 32 86 51 52 62
REMARK Flexibility Score: inf
ROOT
ATOM      1  C   UNL     1      -4.610   4.299   2.126  1.00  0.00     0.023 C 
ENDROOT
BRANCH   1   2
ATOM      2  C   UNL     1      -4.542   4.622   0.634  1.00  0.00     0.116 C 
BRANCH   2   3
ATOM      3  N   UNL     1      -3.294   4.276  -0.012  1.00  0.00    -0.354 N 
ATOM      4  C   UNL     1      -2.996   3.337  -0.952  1.00  0.00     0.243 C 
ATOM      5  O   UNL     1      -1.998   3.586  -1.643  1.00  0.00    -0.273 OA
ATOM      6  H   UNL     1      -2.524   4.814   0.280  1.00  0.00     0.163 HD
BRANCH   4   7
ATOM      7  C   UNL     1      -3.804   2.040  -1.250  1.00  0.00     0.181 C 
ATOM      8  N   UNL     1      -4.116   1.104  -0.110  1.00  0.00    -0.320 N 
ATOM      9  C   UNL     1      -5.431   1.148   0.569  1.00  0.00     0.178 C 
ATOM     10  C   UNL     1      -6.432   1.953  -0.172  1.00  0.00     0.081 A 
ATOM     11  C   UNL     1      -4.998   2.326  -2.213  1.00  0.00     0.091 C 
ATOM     12  N   UNL     1      -7.577   2.462   0.384  1.00  0.00    -0.240 NA
ATOM     13  C   UNL     1      -6.239   2.476  -1.427  1.00  0.00     0.042 A 
ATOM     14  C   UNL     1      -8.075   3.270  -0.529  1.00  0.00     0.197 A 
ATOM     15  N   UNL     1      -7.314   3.282  -1.671  1.00  0.00    -0.348 N 
ATOM     16  H   UNL     1      -7.504   3.775  -2.501  1.00  0.00     0.167 HD
BRANCH   8  17
ATOM     17  C   UNL     1      -3.291   0.047   0.305  1.00  0.00     0.254 C 
ATOM     18  O   UNL     1      -3.739  -0.918   0.930  1.00  0.00    -0.269 OA
BRANCH  17  19
ATOM     19  C   UNL     1      -1.821   0.046   0.079  1.00  0.00     0.040 A 
ATOM     20  C   UNL     1       1.001  -0.080  -0.037  1.00  0.00     0.031 A 
ATOM     21  C   UNL     1       0.233  -1.238  -0.168  1.00  0.00     0.026 A 
ATOM     22  C   UNL     1       0.347   1.125   0.218  1.00  0.00     0.026 A 
ATOM     23  C   UNL     1      -1.168  -1.176  -0.131  1.00  0.00     0.016 A 
ATOM     24  C   UNL     1      -1.048   1.183   0.301  1.00  0.00     0.016 A 
BRANCH  20  25
ATOM     25  N   UNL     1       2.386  -0.147   0.023  1.00  0.00    -0.399 N 
ATOM     26  H   UNL     1       2.845  -0.999  -0.157  1.00  0.00     0.156 HD
ATOM     27  H   UNL     1       2.908   0.657   0.245  1.00  0.00     0.156 HD
ENDBRANCH  20  25
ENDBRANCH  17  19
ENDBRANCH   8  17
ENDBRANCH   4   7
ENDBRANCH   2   3
ENDBRANCH   1   2
BRANCH   1  28
ATOM     28  C   UNL     1      -4.252   5.450   3.076  1.00  0.00     0.023 C 
BRANCH  28  29
ATOM     29  C   UNL     1      -5.119   6.703   2.965  1.00  0.00     0.116 C 
BRANCH  29  30
ATOM     30  N   UNL     1      -6.528   6.499   3.308  1.00  0.00    -0.352 N 
ATOM     31  C   UNL     1      -7.567   7.402   3.108  1.00  0.00     0.251 C 
ATOM     32  H   UNL     1      -6.763   5.637   3.720  1.00  0.00     0.163 HD
ATOM     33  O   UNL     1      -8.582   7.376   3.775  1.00  0.00    -0.269 OA
BRANCH  31  34
ATOM     34  C   UNL     1      -7.397   8.385   2.021  1.00  0.00     0.039 A 
ATOM     35  C   UNL     1      -7.603   9.752   2.212  1.00  0.00     0.014 A 
ATOM     36  C   UNL     1      -6.903   7.888   0.818  1.00  0.00     0.014 A 
ATOM     37  C   UNL     1      -7.203  10.629   1.205  1.00  0.00     0.010 A 
ATOM     38  C   UNL     1      -6.363   8.759  -0.092  1.00  0.00     0.010 A 
ATOM     39  C   UNL     1      -6.549  10.129   0.065  1.00  0.00    -0.014 A 
BRANCH  39  40
ATOM     40  C   UNL     1      -5.947  11.033  -0.913  1.00  0.00     0.031 A 
ATOM     41  C   UNL     1      -5.079  12.099  -0.337  1.00  0.00     0.074 A 
ATOM     42  C   UNL     1      -5.992  10.821  -2.248  1.00  0.00     0.049 A 
ATOM     43  N   UNL     1      -5.330  13.365  -0.276  1.00  0.00    -0.248 NA
ATOM     44  C   UNL     1      -3.858  11.707   0.387  1.00  0.00     0.031 C 
ATOM     45  C   UNL     1      -6.534   9.673  -2.985  1.00  0.00     0.029 A 
ATOM     46  N   UNL     1      -5.459  11.577  -3.244  1.00  0.00    -0.354 N 
ATOM     47  C   UNL     1      -4.199  13.961   0.276  1.00  0.00     0.074 A 
ATOM     48  C   UNL     1      -3.421  12.886   0.837  1.00  0.00     0.031 C 
ATOM     49  C   UNL     1      -6.085   9.694  -4.259  1.00  0.00     0.029 A 
ATOM     50  C   UNL     1      -5.387  10.945  -4.481  1.00  0.00     0.049 A 
ATOM     51  H   UNL     1      -5.148  12.500  -3.102  1.00  0.00     0.167 HD
ATOM     52  C   UNL     1      -3.890  15.264   0.016  1.00  0.00     0.037 A 
ATOM     53  C   UNL     1      -4.788  11.414  -5.605  1.00  0.00     0.037 A 
ATOM     54  C   UNL     1      -5.021  15.960  -0.549  1.00  0.00     0.049 A 
ATOM     55  C   UNL     1      -4.703  12.891  -5.454  1.00  0.00     0.074 A 
ATOM     56  C   UNL     1      -6.320  16.187  -0.133  1.00  0.00     0.029 A 
ATOM     57  N   UNL     1      -5.025  16.191  -1.905  1.00  0.00    -0.354 N 
ATOM     58  N   UNL     1      -5.750  13.673  -5.410  1.00  0.00    -0.248 NA
ATOM     59  C   UNL     1      -3.495  13.436  -4.851  1.00  0.00     0.031 C 
ATOM     60  C   UNL     1      -7.113  16.012  -1.306  1.00  0.00     0.029 A 
ATOM     61  C   UNL     1      -6.248  15.783  -2.378  1.00  0.00     0.049 A 
ATOM     62  H   UNL     1      -4.290  16.575  -2.436  1.00  0.00     0.167 HD
ATOM     63  C   UNL     1      -5.465  14.595  -4.414  1.00  0.00     0.074 A 
ATOM     64  C   UNL     1      -4.032  14.443  -4.157  1.00  0.00     0.031 C 
ATOM     65  C   UNL     1      -6.454  15.194  -3.684  1.00  0.00     0.037 A 
BRANCH  52  66
ATOM     66  C   UNL     1      -2.485  15.818  -0.074  1.00  0.00     0.058 A 
ATOM     67  C   UNL     1      -2.299  17.210  -0.211  1.00  0.00     0.135 A 
ATOM     68  C   UNL     1      -1.340  15.028  -0.315  1.00  0.00     0.135 A 
ATOM     69  F   UNL     1      -3.319  18.060  -0.008  1.00  0.00    -0.206 F 
ATOM     70  C   UNL     1      -1.093  17.767  -0.638  1.00  0.00     0.059 A 
ATOM     71  C   UNL     1      -0.113  15.566  -0.689  1.00  0.00     0.059 A 
ATOM     72  F   UNL     1      -1.375  13.690  -0.299  1.00  0.00    -0.206 F 
ATOM     73  C   UNL     1      -0.010  16.932  -0.891  1.00  0.00     0.060 A 
BRANCH  73  74
ATOM     74  S   UNL     1       1.515  17.633  -1.544  1.00  0.00     0.124 S 
ATOM     75  O   UNL     1       1.099  18.034  -2.883  1.00  0.00    -0.237 OA
ATOM     76  O   UNL     1       1.776  18.717  -0.603  1.00  0.00    -0.237 OA
ATOM     77  O   UNL     1       2.452  16.515  -1.481  1.00  0.00    -0.744 OA
ENDBRANCH  73  74
ENDBRANCH  52  66
BRANCH  53  78
ATOM     78  C   UNL     1      -3.979  10.642  -6.589  1.00  0.00     0.058 A 
ATOM     79  C   UNL     1      -3.562  11.215  -7.804  1.00  0.00     0.135 A 
ATOM     80  C   UNL     1      -3.360   9.423  -6.238  1.00  0.00     0.135 A 
ATOM     81  F   UNL     1      -4.085  12.381  -8.212  1.00  0.00    -0.206 F 
ATOM     82  C   UNL     1      -2.555  10.645  -8.595  1.00  0.00     0.059 A 
ATOM     83  C   UNL     1      -2.362   8.833  -7.012  1.00  0.00     0.059 A 
ATOM     84  F   UNL     1      -3.644   8.810  -5.079  1.00  0.00    -0.206 F 
ATOM     85  C   UNL     1      -1.944   9.463  -8.178  1.00  0.00     0.060 A 
BRANCH  85  86
ATOM     86  S   UNL     1      -0.524   8.816  -9.095  1.00  0.00     0.124 S 
ATOM     87  O   UNL     1      -1.147   8.362 -10.333  1.00  0.00    -0.237 OA
ATOM     88  O   UNL     1       0.333   9.992  -9.205  1.00  0.00    -0.237 OA
ATOM     89  O   UNL     1      -0.015   7.757  -8.227  1.00  0.00    -0.744 OA
ENDBRANCH  85  86
ENDBRANCH  53  78
BRANCH  65  90
ATOM     90  C   UNL     1      -7.887  15.056  -4.140  1.00  0.00     0.058 A 
ATOM     91  C   UNL     1      -8.589  13.839  -4.228  1.00  0.00     0.135 A 
ATOM     92  C   UNL     1      -8.632  16.232  -4.326  1.00  0.00     0.135 A 
ATOM     93  F   UNL     1      -7.986  12.672  -3.964  1.00  0.00    -0.206 F 
ATOM     94  C   UNL     1      -9.954  13.794  -4.524  1.00  0.00     0.059 A 
ATOM     95  C   UNL     1      -9.999  16.212  -4.589  1.00  0.00     0.059 A 
ATOM     96  F   UNL     1      -8.039  17.430  -4.196  1.00  0.00    -0.206 F 
ATOM     97  C   UNL     1     -10.653  14.988  -4.700  1.00  0.00     0.060 A 
BRANCH  97  98
ATOM     98  S   UNL     1     -12.431  14.933  -5.012  1.00  0.00     0.124 S 
ATOM     99  O   UNL     1     -12.488  14.390  -6.365  1.00  0.00    -0.237 OA
ATOM    100  O   UNL     1     -12.912  14.049  -3.954  1.00  0.00    -0.237 OA
ATOM    101  O   UNL     1     -12.844  16.328  -4.881  1.00  0.00    -0.744 OA
ENDBRANCH  97  98
ENDBRANCH  65  90
ENDBRANCH  39  40
ENDBRANCH  31  34
ENDBRANCH  29  30
ENDBRANCH  28  29
ENDBRANCH   1  28
TORSDOF 17
