REMARK SMILES CC(C)OC(=O)c1c(NC(=O)[C@H]2[C@@H](C(=O)NCCCCNC(=O)c3ccc(-c4c5nc(c(-c6c(F)cc(S(=O)(=O)[O-])cc6F)c6ccc([nH]6)c(-c6c(F)cc(S(=O)(=O)[O-])cc6F)c6nc(c(-c7c(F)cc(S(=O)(=O)[O-])cc7F)c7ccc4[nH]7)C=C6)C=C5)cc3)[C@@H]3C=C[C@H]2CC3)sc2c1CCC2
REMARK SMILES IDX 17 1 16 2 14 3 15 4 13 6 12 7 93 8 90 9 92 10 94 11 91 12
REMARK SMILES IDX 95 13 10 14 9 15 11 17 8 18 7 19 98 20 96 21 97 22 99 23
REMARK SMILES IDX 101 24 100 25 5 26 6 27 4 28 2 29 1 30 3 31 18 32 19 33
REMARK SMILES IDX 20 34 21 35 22 36 23 38 24 39 25 40 89 41 26 42 88 43 27 44
REMARK SMILES IDX 28 45 29 46 82 47 30 48 87 49 81 50 83 51 31 52 86 53 80 54
REMARK SMILES IDX 79 55 32 57 66 58 45 59 65 60 46 61 49 62 64 63 84 64 47 65
REMARK SMILES IDX 48 66 63 68 85 69 50 70 33 71 34 72 43 73 35 74 36 75 42 76
REMARK SMILES IDX 44 77 37 78 38 79 39 80 40 81 41 82 67 83 68 84 77 85 69 86
REMARK SMILES IDX 70 87 76 88 78 89 71 90 72 91 73 92 74 93 75 94 51 95 52 96
REMARK SMILES IDX 61 97 53 98 54 99 60 100 62 101 55 102 56 103 57 104 58 105
REMARK SMILES IDX 59 106
REMARK H PARENT 16 5 9 16 21 37 83 56 49 67
REMARK Flexibility Score: inf
ROOT
ATOM      1  C   UNL     1      -8.734   6.022   2.755  1.00  0.00     0.116 C 
ENDROOT
BRANCH   1   2
ATOM      2  N   UNL     1      -8.771   5.118   1.621  1.00  0.00    -0.356 N 
ATOM      3  C   UNL     1      -8.228   3.873   1.467  1.00  0.00     0.224 C 
ATOM      4  O   UNL     1      -8.585   3.226   0.484  1.00  0.00    -0.275 OA
ATOM      5  H   UNL     1      -9.266   5.455   0.838  1.00  0.00     0.163 HD
BRANCH   3   6
ATOM      6  C   UNL     1      -7.246   3.329   2.503  1.00  0.00     0.098 C 
ATOM      7  C   UNL     1      -6.251   2.207   2.011  1.00  0.00     0.099 C 
ATOM      8  C   UNL     1      -6.511   0.911   2.842  1.00  0.00     0.025 C 
ATOM      9  C   UNL     1      -8.011   2.821   3.761  1.00  0.00     0.025 C 
ATOM     10  C   UNL     1      -6.221   1.299   4.287  1.00  0.00    -0.027 C 
ATOM     11  C   UNL     1      -8.000   0.505   2.768  1.00  0.00     0.009 C 
ATOM     12  C   UNL     1      -6.976   2.309   4.751  1.00  0.00    -0.027 C 
ATOM     13  C   UNL     1      -8.885   1.610   3.376  1.00  0.00     0.009 C 
BRANCH   7  14
ATOM     14  C   UNL     1      -6.143   1.922   0.509  1.00  0.00     0.229 C 
ATOM     15  N   UNL     1      -5.822   2.885  -0.409  1.00  0.00    -0.317 N 
ATOM     16  H   UNL     1      -5.926   2.596  -1.344  1.00  0.00     0.170 HD
ATOM     17  O   UNL     1      -6.311   0.776   0.075  1.00  0.00    -0.274 OA
BRANCH  15  18
ATOM     18  C   UNL     1      -5.380   4.187  -0.272  1.00  0.00     0.110 A 
ATOM     19  C   UNL     1      -5.436   5.202  -1.231  1.00  0.00     0.098 A 
ATOM     20  C   UNL     1      -5.087   6.440  -0.615  1.00  0.00    -0.017 A 
ATOM     21  S   UNL     1      -4.510   4.687   1.120  1.00  0.00    -0.122 S 
ATOM     22  C   UNL     1      -4.634   6.275   0.662  1.00  0.00     0.011 A 
ATOM     23  C   UNL     1      -5.142   7.880  -0.969  1.00  0.00     0.038 C 
ATOM     24  C   UNL     1      -4.332   7.524   1.385  1.00  0.00     0.047 C 
ATOM     25  C   UNL     1      -4.376   8.553   0.219  1.00  0.00     0.010 C 
BRANCH  19  26
ATOM     26  C   UNL     1      -5.868   4.991  -2.604  1.00  0.00     0.341 C 
ATOM     27  O   UNL     1      -6.671   4.119  -2.928  1.00  0.00    -0.246 OA
BRANCH  26  28
ATOM     28  O   UNL     1      -5.194   5.790  -3.475  1.00  0.00    -0.459 OA
BRANCH  28  29
ATOM     29  C   UNL     1      -5.347   5.603  -4.901  1.00  0.00     0.170 C 
ATOM     30  C   UNL     1      -5.115   4.168  -5.371  1.00  0.00     0.052 C 
ATOM     31  C   UNL     1      -6.666   6.186  -5.386  1.00  0.00     0.052 C 
ENDBRANCH  28  29
ENDBRANCH  26  28
ENDBRANCH  19  26
ENDBRANCH  15  18
ENDBRANCH   7  14
ENDBRANCH   3   6
ENDBRANCH   1   2
BRANCH   1  32
ATOM     32  C   UNL     1      -8.423   7.473   2.380  1.00  0.00     0.023 C 
BRANCH  32  33
ATOM     33  C   UNL     1      -9.340   8.149   1.353  1.00  0.00     0.023 C 
BRANCH  33  34
ATOM     34  C   UNL     1     -10.824   8.132   1.691  1.00  0.00     0.116 C 
BRANCH  34  35
ATOM     35  N   UNL     1     -11.144   8.856   2.917  1.00  0.00    -0.352 N 
ATOM     36  C   UNL     1     -12.379   8.964   3.530  1.00  0.00     0.251 C 
ATOM     37  H   UNL     1     -10.397   9.322   3.357  1.00  0.00     0.163 HD
ATOM     38  O   UNL     1     -12.595   9.855   4.343  1.00  0.00    -0.269 OA
BRANCH  36  39
ATOM     39  C   UNL     1     -13.438   8.003   3.165  1.00  0.00     0.039 A 
ATOM     40  C   UNL     1     -14.724   8.447   2.849  1.00  0.00     0.014 A 
ATOM     41  C   UNL     1     -13.112   6.652   3.076  1.00  0.00     0.014 A 
ATOM     42  C   UNL     1     -15.652   7.534   2.344  1.00  0.00     0.010 A 
ATOM     43  C   UNL     1     -13.991   5.776   2.473  1.00  0.00     0.010 A 
ATOM     44  C   UNL     1     -15.274   6.200   2.125  1.00  0.00    -0.014 A 
BRANCH  44  45
ATOM     45  C   UNL     1     -16.186   5.283   1.429  1.00  0.00     0.031 A 
ATOM     46  C   UNL     1     -16.704   5.739   0.101  1.00  0.00     0.074 A 
ATOM     47  C   UNL     1     -16.378   3.997   1.796  1.00  0.00     0.049 A 
ATOM     48  N   UNL     1     -17.931   5.937  -0.258  1.00  0.00    -0.248 NA
ATOM     49  C   UNL     1     -15.723   6.082  -0.940  1.00  0.00     0.031 C 
ATOM     50  C   UNL     1     -15.706   3.247   2.863  1.00  0.00     0.029 A 
ATOM     51  N   UNL     1     -17.132   3.040   1.185  1.00  0.00    -0.354 N 
ATOM     52  C   UNL     1     -17.901   6.239  -1.621  1.00  0.00     0.074 A 
ATOM     53  C   UNL     1     -16.515   6.456  -1.948  1.00  0.00     0.031 C 
ATOM     54  C   UNL     1     -15.885   1.925   2.662  1.00  0.00     0.029 A 
ATOM     55  C   UNL     1     -16.820   1.742   1.568  1.00  0.00     0.049 A 
ATOM     56  H   UNL     1     -17.836   3.250   0.530  1.00  0.00     0.167 HD
ATOM     57  C   UNL     1     -18.997   6.101  -2.423  1.00  0.00     0.037 A 
ATOM     58  C   UNL     1     -17.264   0.594   1.001  1.00  0.00     0.037 A 
ATOM     59  C   UNL     1     -20.204   5.966  -1.648  1.00  0.00     0.049 A 
ATOM     60  C   UNL     1     -18.504   0.921   0.253  1.00  0.00     0.074 A 
ATOM     61  C   UNL     1     -20.841   6.732  -0.689  1.00  0.00     0.029 A 
ATOM     62  N   UNL     1     -20.788   4.725  -1.569  1.00  0.00    -0.354 N 
ATOM     63  N   UNL     1     -19.625   1.283   0.813  1.00  0.00    -0.248 NA
ATOM     64  C   UNL     1     -18.390   1.228  -1.165  1.00  0.00     0.031 C 
ATOM     65  C   UNL     1     -21.384   5.789   0.234  1.00  0.00     0.029 A 
ATOM     66  C   UNL     1     -21.089   4.514  -0.249  1.00  0.00     0.049 A 
ATOM     67  H   UNL     1     -20.958   4.107  -2.317  1.00  0.00     0.167 HD
ATOM     68  C   UNL     1     -20.163   2.225  -0.049  1.00  0.00     0.074 A 
ATOM     69  C   UNL     1     -19.424   2.061  -1.297  1.00  0.00     0.031 C 
ATOM     70  C   UNL     1     -20.962   3.234   0.411  1.00  0.00     0.037 A 
BRANCH  57  71
ATOM     71  C   UNL     1     -18.966   5.759  -3.899  1.00  0.00     0.058 A 
ATOM     72  C   UNL     1     -20.160   5.817  -4.653  1.00  0.00     0.135 A 
ATOM     73  C   UNL     1     -17.886   5.104  -4.530  1.00  0.00     0.135 A 
ATOM     74  F   UNL     1     -21.254   6.417  -4.157  1.00  0.00    -0.206 F 
ATOM     75  C   UNL     1     -20.297   5.192  -5.894  1.00  0.00     0.059 A 
ATOM     76  C   UNL     1     -17.984   4.524  -5.792  1.00  0.00     0.059 A 
ATOM     77  F   UNL     1     -16.715   4.908  -3.914  1.00  0.00    -0.206 F 
ATOM     78  C   UNL     1     -19.207   4.527  -6.444  1.00  0.00     0.060 A 
BRANCH  78  79
ATOM     79  S   UNL     1     -19.412   3.604  -7.978  1.00  0.00     0.124 S 
ATOM     80  O   UNL     1     -20.190   2.457  -7.522  1.00  0.00    -0.237 OA
ATOM     81  O   UNL     1     -20.121   4.562  -8.821  1.00  0.00    -0.237 OA
ATOM     82  O   UNL     1     -18.039   3.319  -8.383  1.00  0.00    -0.744 OA
ENDBRANCH  78  79
ENDBRANCH  57  71
BRANCH  58  83
ATOM     83  C   UNL     1     -16.553  -0.700   0.847  1.00  0.00     0.058 A 
ATOM     84  C   UNL     1     -17.247  -1.860   0.463  1.00  0.00     0.135 A 
ATOM     85  C   UNL     1     -15.146  -0.770   0.796  1.00  0.00     0.135 A 
ATOM     86  F   UNL     1     -18.589  -1.879   0.469  1.00  0.00    -0.206 F 
ATOM     87  C   UNL     1     -16.589  -2.998  -0.009  1.00  0.00     0.059 A 
ATOM     88  C   UNL     1     -14.467  -1.900   0.344  1.00  0.00     0.059 A 
ATOM     89  F   UNL     1     -14.387   0.296   1.094  1.00  0.00    -0.206 F 
ATOM     90  C   UNL     1     -15.197  -2.999  -0.089  1.00  0.00     0.060 A 
BRANCH  90  91
ATOM     91  S   UNL     1     -14.362  -4.386  -0.893  1.00  0.00     0.124 S 
ATOM     92  O   UNL     1     -14.547  -5.455   0.082  1.00  0.00    -0.237 OA
ATOM     93  O   UNL     1     -15.116  -4.520  -2.136  1.00  0.00    -0.237 OA
ATOM     94  O   UNL     1     -12.990  -3.912  -1.049  1.00  0.00    -0.744 OA
ENDBRANCH  90  91
ENDBRANCH  58  83
BRANCH  70  95
ATOM     95  C   UNL     1     -21.539   3.122   1.798  1.00  0.00     0.058 A 
ATOM     96  C   UNL     1     -20.776   3.052   2.977  1.00  0.00     0.135 A 
ATOM     97  C   UNL     1     -22.931   3.230   1.944  1.00  0.00     0.135 A 
ATOM     98  F   UNL     1     -19.437   3.063   2.937  1.00  0.00    -0.206 F 
ATOM     99  C   UNL     1     -21.373   3.034   4.239  1.00  0.00     0.059 A 
ATOM    100  C   UNL     1     -23.546   3.249   3.193  1.00  0.00     0.059 A 
ATOM    101  F   UNL     1     -23.713   3.367   0.860  1.00  0.00    -0.206 F 
ATOM    102  C   UNL     1     -22.761   3.133   4.337  1.00  0.00     0.060 A 
BRANCH 102 103
ATOM    103  S   UNL     1     -23.525   3.180   5.972  1.00  0.00     0.124 S 
ATOM    104  O   UNL     1     -23.399   1.794   6.410  1.00  0.00    -0.237 OA
ATOM    105  O   UNL     1     -22.697   4.148   6.685  1.00  0.00    -0.237 OA
ATOM    106  O   UNL     1     -24.890   3.626   5.698  1.00  0.00    -0.744 OA
ENDBRANCH 102 103
ENDBRANCH  70  95
ENDBRANCH  44  45
ENDBRANCH  36  39
ENDBRANCH  34  35
ENDBRANCH  33  34
ENDBRANCH  32  33
ENDBRANCH   1  32
TORSDOF 19
