REMARK SMILES O=C(NCCCCNC(=O)c1ccc(-c2c3nc(c(-c4c(F)cc(S(=O)(=O)[O-])cc4F)c4ccc([nH]4)c(-c4c(F)cc(S(=O)(=O)[O-])cc4F)c4nc(c(-c5c(F)cc(S(=O)(=O)[O-])cc5F)c5ccc2[nH]5)C=C4)C=C3)cc1)C1=NN(c2ccccc2-c2ccccc2)[C@@H](c2ccccc2)C1
REMARK SMILES IDX 6 1 5 2 4 3 3 4 1 5 2 6 77 8 78 9 99 10 79 11 92 12 80 13
REMARK SMILES IDX 81 14 85 15 82 16 84 17 83 18 86 19 87 20 91 21 88 22 90 23
REMARK SMILES IDX 89 24 93 25 94 26 98 27 95 28 97 29 96 30 7 31 8 32 9 33
REMARK SMILES IDX 10 35 11 36 12 37 76 38 13 39 75 40 14 41 15 42 16 43 69 44
REMARK SMILES IDX 17 45 74 46 68 47 70 48 18 49 73 50 67 51 66 52 19 54 53 55
REMARK SMILES IDX 32 56 52 57 33 58 36 59 51 60 71 61 34 62 35 63 50 65 72 66
REMARK SMILES IDX 37 67 20 68 21 69 30 70 22 71 23 72 29 73 31 74 24 75 25 76
REMARK SMILES IDX 26 77 27 78 28 79 54 80 55 81 64 82 56 83 57 84 63 85 65 86
REMARK SMILES IDX 58 87 59 88 60 89 61 90 62 91 38 92 39 93 48 94 40 95 41 96
REMARK SMILES IDX 47 97 49 98 42 99 43 100 44 101 45 102 46 103
REMARK H PARENT 3 7 8 34 70 53 36 64
REMARK Flexibility Score: inf
ROOT
ATOM      1  C   UNL     1       4.450  -2.038   2.999  1.00  0.00     0.023 C 
ENDROOT
BRANCH   1   2
ATOM      2  C   UNL     1       4.915  -0.926   2.054  1.00  0.00     0.023 C 
BRANCH   2   3
ATOM      3  C   UNL     1       4.455  -1.063   0.605  1.00  0.00     0.116 C 
BRANCH   3   4
ATOM      4  N   UNL     1       3.019  -0.886   0.458  1.00  0.00    -0.351 N 
ATOM      5  O   UNL     1       1.131   0.141  -0.301  1.00  0.00    -0.268 OA
ATOM      6  C   UNL     1       2.350   0.085  -0.251  1.00  0.00     0.267 C 
ATOM      7  H   UNL     1       2.454  -1.544   0.925  1.00  0.00     0.163 HD
BRANCH   6   8
ATOM      8  C   UNL     1       3.145   1.161  -0.936  1.00  0.00     0.128 C 
ATOM      9  N   UNL     1       4.119   0.915  -1.754  1.00  0.00    -0.171 NA
ATOM     10  C   UNL     1       2.826   2.593  -0.666  1.00  0.00     0.096 C 
ATOM     11  N   UNL     1       4.684   2.123  -2.030  1.00  0.00    -0.257 N 
ATOM     12  C   UNL     1       3.984   3.257  -1.418  1.00  0.00     0.144 C 
BRANCH  11  13
ATOM     13  C   UNL     1       5.907   2.165  -2.695  1.00  0.00     0.068 A 
ATOM     14  C   UNL     1       6.010   1.466  -3.916  1.00  0.00     0.028 A 
ATOM     15  C   UNL     1       7.057   2.842  -2.214  1.00  0.00     0.007 A 
ATOM     16  C   UNL     1       7.178   1.472  -4.678  1.00  0.00     0.002 A 
ATOM     17  C   UNL     1       8.228   2.841  -3.004  1.00  0.00     0.011 A 
ATOM     18  C   UNL     1       8.287   2.171  -4.225  1.00  0.00     0.001 A 
BRANCH  15  19
ATOM     19  C   UNL     1       7.135   3.453  -0.873  1.00  0.00    -0.016 A 
ATOM     20  C   UNL     1       7.386   4.825  -0.711  1.00  0.00     0.009 A 
ATOM     21  C   UNL     1       6.973   2.666   0.282  1.00  0.00     0.009 A 
ATOM     22  C   UNL     1       7.448   5.396   0.563  1.00  0.00     0.001 A 
ATOM     23  C   UNL     1       7.032   3.236   1.555  1.00  0.00     0.001 A 
ATOM     24  C   UNL     1       7.266   4.602   1.694  1.00  0.00     0.000 A 
ENDBRANCH  15  19
ENDBRANCH  11  13
BRANCH  12  25
ATOM     25  C   UNL     1       3.537   4.263  -2.465  1.00  0.00    -0.023 A 
ATOM     26  C   UNL     1       2.742   3.884  -3.559  1.00  0.00     0.006 A 
ATOM     27  C   UNL     1       3.956   5.600  -2.373  1.00  0.00     0.006 A 
ATOM     28  C   UNL     1       2.377   4.816  -4.532  1.00  0.00     0.000 A 
ATOM     29  C   UNL     1       3.593   6.530  -3.348  1.00  0.00     0.000 A 
ATOM     30  C   UNL     1       2.804   6.138  -4.427  1.00  0.00     0.000 A 
ENDBRANCH  12  25
ENDBRANCH   6   8
ENDBRANCH   3   4
ENDBRANCH   2   3
ENDBRANCH   1   2
BRANCH   1  31
ATOM     31  C   UNL     1       4.789  -3.465   2.570  1.00  0.00     0.116 C 
BRANCH  31  32
ATOM     32  N   UNL     1       6.209  -3.678   2.353  1.00  0.00    -0.352 N 
ATOM     33  C   UNL     1       6.975  -4.789   2.615  1.00  0.00     0.251 C 
ATOM     34  H   UNL     1       6.694  -2.916   1.961  1.00  0.00     0.163 HD
ATOM     35  O   UNL     1       8.191  -4.732   2.455  1.00  0.00    -0.269 OA
BRANCH  33  36
ATOM     36  C   UNL     1       6.355  -6.037   3.120  1.00  0.00     0.039 A 
ATOM     37  C   UNL     1       6.992  -6.722   4.160  1.00  0.00     0.014 A 
ATOM     38  C   UNL     1       5.183  -6.555   2.560  1.00  0.00     0.014 A 
ATOM     39  C   UNL     1       6.426  -7.890   4.679  1.00  0.00     0.010 A 
ATOM     40  C   UNL     1       4.596  -7.698   3.105  1.00  0.00     0.010 A 
ATOM     41  C   UNL     1       5.211  -8.374   4.170  1.00  0.00    -0.014 A 
BRANCH  41  42
ATOM     42  C   UNL     1       4.573  -9.590   4.733  1.00  0.00     0.031 A 
ATOM     43  C   UNL     1       4.511 -10.853   3.920  1.00  0.00     0.074 A 
ATOM     44  C   UNL     1       4.001  -9.543   5.951  1.00  0.00     0.049 A 
ATOM     45  N   UNL     1       3.891 -11.974   4.184  1.00  0.00    -0.248 NA
ATOM     46  C   UNL     1       5.221 -10.845   2.632  1.00  0.00     0.031 C 
ATOM     47  C   UNL     1       3.963  -8.370   6.827  1.00  0.00     0.029 A 
ATOM     48  N   UNL     1       3.327 -10.507   6.659  1.00  0.00    -0.354 N 
ATOM     49  C   UNL     1       4.108 -12.795   3.085  1.00  0.00     0.074 A 
ATOM     50  C   UNL     1       4.910 -12.039   2.145  1.00  0.00     0.031 C 
ATOM     51  C   UNL     1       3.307  -8.685   7.956  1.00  0.00     0.029 A 
ATOM     52  C   UNL     1       2.861 -10.073   7.876  1.00  0.00     0.049 A 
ATOM     53  H   UNL     1       3.191 -11.423   6.325  1.00  0.00     0.167 HD
ATOM     54  C   UNL     1       3.679 -14.063   2.877  1.00  0.00     0.037 A 
ATOM     55  C   UNL     1       2.150 -10.720   8.819  1.00  0.00     0.037 A 
ATOM     56  C   UNL     1       2.908 -14.827   3.821  1.00  0.00     0.049 A 
ATOM     57  C   UNL     1       1.769 -12.157   8.603  1.00  0.00     0.074 A 
ATOM     58  C   UNL     1       2.404 -16.110   3.690  1.00  0.00     0.029 A 
ATOM     59  N   UNL     1       2.550 -14.385   5.085  1.00  0.00    -0.354 N 
ATOM     60  N   UNL     1       1.965 -12.910   7.548  1.00  0.00    -0.248 NA
ATOM     61  C   UNL     1       1.079 -12.836   9.710  1.00  0.00     0.031 C 
ATOM     62  C   UNL     1       1.749 -16.448   4.881  1.00  0.00     0.029 A 
ATOM     63  C   UNL     1       1.857 -15.378   5.755  1.00  0.00     0.049 A 
ATOM     64  H   UNL     1       2.759 -13.496   5.452  1.00  0.00     0.167 HD
ATOM     65  C   UNL     1       1.437 -14.154   7.868  1.00  0.00     0.074 A 
ATOM     66  C   UNL     1       0.922 -14.058   9.218  1.00  0.00     0.031 C 
ATOM     67  C   UNL     1       1.378 -15.274   7.107  1.00  0.00     0.037 A 
BRANCH  54  68
ATOM     68  C   UNL     1       4.038 -14.699   1.567  1.00  0.00     0.058 A 
ATOM     69  C   UNL     1       5.321 -15.217   1.336  1.00  0.00     0.135 A 
ATOM     70  C   UNL     1       3.089 -14.802   0.538  1.00  0.00     0.135 A 
ATOM     71  F   UNL     1       6.267 -15.124   2.284  1.00  0.00    -0.206 F 
ATOM     72  C   UNL     1       5.660 -15.797   0.118  1.00  0.00     0.059 A 
ATOM     73  C   UNL     1       3.402 -15.391  -0.683  1.00  0.00     0.059 A 
ATOM     74  F   UNL     1       1.849 -14.317   0.711  1.00  0.00    -0.206 F 
ATOM     75  C   UNL     1       4.696 -15.871  -0.888  1.00  0.00     0.060 A 
BRANCH  75  76
ATOM     76  S   UNL     1       5.139 -16.616  -2.473  1.00  0.00     0.124 S 
ATOM     77  O   UNL     1       5.769 -15.489  -3.154  1.00  0.00    -0.237 OA
ATOM     78  O   UNL     1       6.035 -17.699  -2.080  1.00  0.00    -0.237 OA
ATOM     79  O   UNL     1       3.851 -17.040  -3.014  1.00  0.00    -0.744 OA
ENDBRANCH  75  76
ENDBRANCH  54  68
BRANCH  55  80
ATOM     80  C   UNL     1       1.773 -10.021  10.071  1.00  0.00     0.058 A 
ATOM     81  C   UNL     1       2.479 -10.250  11.260  1.00  0.00     0.135 A 
ATOM     82  C   UNL     1       0.705  -9.114  10.101  1.00  0.00     0.135 A 
ATOM     83  F   UNL     1       3.505 -11.114  11.274  1.00  0.00    -0.206 F 
ATOM     84  C   UNL     1       2.130  -9.615  12.446  1.00  0.00     0.059 A 
ATOM     85  C   UNL     1       0.345  -8.455  11.272  1.00  0.00     0.059 A 
ATOM     86  F   UNL     1       0.012  -8.852   8.982  1.00  0.00    -0.206 F 
ATOM     87  C   UNL     1       1.057  -8.722  12.443  1.00  0.00     0.060 A 
BRANCH  87  88
ATOM     88  S   UNL     1       0.625  -7.857  13.969  1.00  0.00     0.124 S 
ATOM     89  O   UNL     1      -0.278  -8.812  14.599  1.00  0.00    -0.237 OA
ATOM     90  O   UNL     1       1.922  -7.683  14.615  1.00  0.00    -0.237 OA
ATOM     91  O   UNL     1       0.010  -6.625  13.482  1.00  0.00    -0.744 OA
ENDBRANCH  87  88
ENDBRANCH  55  80
BRANCH  67  92
ATOM     92  C   UNL     1       0.772 -16.493   7.733  1.00  0.00     0.058 A 
ATOM     93  C   UNL     1      -0.618 -16.670   7.790  1.00  0.00     0.135 A 
ATOM     94  C   UNL     1       1.591 -17.508   8.249  1.00  0.00     0.135 A 
ATOM     95  F   UNL     1      -1.440 -15.722   7.313  1.00  0.00    -0.206 F 
ATOM     96  C   UNL     1      -1.179 -17.811   8.354  1.00  0.00     0.059 A 
ATOM     97  C   UNL     1       1.052 -18.661   8.809  1.00  0.00     0.059 A 
ATOM     98  F   UNL     1       2.927 -17.381   8.214  1.00  0.00    -0.206 F 
ATOM     99  C   UNL     1      -0.336 -18.799   8.866  1.00  0.00     0.060 A 
BRANCH  99 100
ATOM    100  S   UNL     1      -1.061 -20.294   9.573  1.00  0.00     0.124 S 
ATOM    101  O   UNL     1      -1.336 -19.867  10.940  1.00  0.00    -0.237 OA
ATOM    102  O   UNL     1      -2.233 -20.513   8.730  1.00  0.00    -0.237 OA
ATOM    103  O   UNL     1       0.002 -21.283   9.422  1.00  0.00    -0.744 OA
ENDBRANCH  99 100
ENDBRANCH  67  92
ENDBRANCH  41  42
ENDBRANCH  33  36
ENDBRANCH  31  32
ENDBRANCH   1  31
TORSDOF 17
