REMARK SMILES Cc1ccc(C)n1-c1ccc(O)cc1C(=O)NCCCCNC(=O)c1ccc(-c2c3nc(c(-c4c(F)cc(S(=O)(=O)[O-])cc4F)c4ccc([nH]4)c(-c4c(F)cc(S(=O)(=O)[O-])cc4F)c4nc(c(-c5c(F)cc(S(=O)(=O)[O-])cc5F)c5ccc2[nH]5)C=C4)C=C3)cc1
REMARK SMILES IDX 20 1 19 2 18 3 17 4 15 5 16 6 14 8 8 9 9 10 10 11 13 12
REMARK SMILES IDX 11 13 7 14 1 15 2 16 3 17 4 18 5 19 6 20 12 21 21 23 22 24
REMARK SMILES IDX 23 25 24 27 25 28 26 29 90 30 27 31 89 32 28 33 29 34 30 35
REMARK SMILES IDX 83 36 31 37 88 38 82 39 84 40 32 41 87 42 81 43 80 44 33 46
REMARK SMILES IDX 67 47 46 48 66 49 47 50 50 51 65 52 85 53 48 54 49 55 64 57
REMARK SMILES IDX 86 58 51 59 34 60 35 61 44 62 36 63 37 64 43 65 45 66 38 67
REMARK SMILES IDX 39 68 40 69 41 70 42 71 68 72 69 73 78 74 70 75 71 76 77 77
REMARK SMILES IDX 79 78 72 79 73 80 74 81 75 82 76 83 52 84 53 85 62 86 54 87
REMARK SMILES IDX 55 88 61 89 63 90 56 91 57 92 58 93 59 94 60 95
REMARK H PARENT 17 7 12 22 22 26 84 45 50 56
REMARK Flexibility Score: inf
ROOT
ATOM      1  C   UNL     1       0.408   2.900   4.666  1.00  0.00     0.023 C 
ENDROOT
BRANCH   1   2
ATOM      2  C   UNL     1       0.931   1.944   3.578  1.00  0.00     0.023 C 
BRANCH   2   3
ATOM      3  C   UNL     1       1.459   2.498   2.266  1.00  0.00     0.116 C 
BRANCH   3   4
ATOM      4  N   UNL     1       2.598   3.371   2.271  1.00  0.00    -0.352 N 
ATOM      5  C   UNL     1       3.366   3.808   1.211  1.00  0.00     0.253 C 
ATOM      6  O   UNL     1       4.166   4.715   1.462  1.00  0.00    -0.269 OA
ATOM      7  H   UNL     1       2.870   3.705   3.156  1.00  0.00     0.163 HD
BRANCH   5   8
ATOM      8  C   UNL     1       3.397   3.213  -0.176  1.00  0.00     0.067 A 
ATOM      9  C   UNL     1       2.373   2.664  -0.972  1.00  0.00     0.058 A 
ATOM     10  C   UNL     1       2.654   2.103  -2.242  1.00  0.00     0.031 A 
ATOM     11  C   UNL     1       3.942   2.112  -2.762  1.00  0.00     0.048 A 
ATOM     12  C   UNL     1       4.695   3.214  -0.747  1.00  0.00     0.062 A 
ATOM     13  C   UNL     1       4.953   2.683  -2.012  1.00  0.00     0.116 A 
BRANCH   9  14
ATOM     14  N   UNL     1       0.998   2.679  -0.645  1.00  0.00    -0.318 N 
ATOM     15  C   UNL     1       0.749   0.141  -0.510  1.00  0.00     0.065 C 
ATOM     16  C   UNL     1       0.206   1.534  -0.518  1.00  0.00     0.020 A 
ATOM     17  C   UNL     1      -1.089   1.941  -0.267  1.00  0.00     0.023 A 
ATOM     18  C   UNL     1      -1.099   3.351  -0.244  1.00  0.00     0.023 A 
ATOM     19  C   UNL     1       0.192   3.795  -0.475  1.00  0.00     0.020 A 
ATOM     20  C   UNL     1       0.678   5.203  -0.509  1.00  0.00     0.065 C 
ENDBRANCH   9  14
BRANCH  13  21
ATOM     21  O   UNL     1       6.229   2.745  -2.490  1.00  0.00    -0.508 OA
ATOM     22  H   UNL     1       6.430   2.397  -3.336  1.00  0.00     0.293 HD
ENDBRANCH  13  21
ENDBRANCH   5   8
ENDBRANCH   3   4
ENDBRANCH   2   3
ENDBRANCH   1   2
BRANCH   1  23
ATOM     23  C   UNL     1       0.070   4.356   4.309  1.00  0.00     0.116 C 
BRANCH  23  24
ATOM     24  N   UNL     1      -1.321   4.692   4.534  1.00  0.00    -0.352 N 
ATOM     25  C   UNL     1      -1.850   5.874   5.018  1.00  0.00     0.251 C 
ATOM     26  H   UNL     1      -1.974   3.989   4.313  1.00  0.00     0.163 HD
ATOM     27  O   UNL     1      -3.072   5.997   5.034  1.00  0.00    -0.269 OA
BRANCH  25  28
ATOM     28  C   UNL     1      -0.967   6.924   5.627  1.00  0.00     0.039 A 
ATOM     29  C   UNL     1      -0.684   6.817   6.980  1.00  0.00     0.014 A 
ATOM     30  C   UNL     1      -0.544   8.092   4.971  1.00  0.00     0.014 A 
ATOM     31  C   UNL     1       0.039   7.840   7.645  1.00  0.00     0.010 A 
ATOM     32  C   UNL     1       0.120   9.172   5.676  1.00  0.00     0.010 A 
ATOM     33  C   UNL     1       0.417   9.097   7.051  1.00  0.00    -0.014 A 
BRANCH  33  34
ATOM     34  C   UNL     1       0.508  10.325   8.062  1.00  0.00     0.031 A 
ATOM     35  C   UNL     1      -0.758  10.188   8.848  1.00  0.00     0.074 A 
ATOM     36  C   UNL     1       1.286  11.431   8.389  1.00  0.00     0.049 A 
ATOM     37  N   UNL     1      -1.917  10.122   8.249  1.00  0.00    -0.248 NA
ATOM     38  C   UNL     1      -0.755   9.692  10.227  1.00  0.00     0.031 C 
ATOM     39  C   UNL     1       2.489  11.935   7.710  1.00  0.00     0.029 A 
ATOM     40  N   UNL     1       1.181  12.391   9.441  1.00  0.00    -0.354 N 
ATOM     41  C   UNL     1      -2.838   9.886   9.235  1.00  0.00     0.074 A 
ATOM     42  C   UNL     1      -2.050   9.381  10.352  1.00  0.00     0.031 C 
ATOM     43  C   UNL     1       3.059  12.974   8.393  1.00  0.00     0.029 A 
ATOM     44  C   UNL     1       2.268  13.334   9.571  1.00  0.00     0.049 A 
ATOM     45  H   UNL     1       0.406  12.410  10.048  1.00  0.00     0.167 HD
ATOM     46  C   UNL     1      -3.908  10.729   9.283  1.00  0.00     0.037 A 
ATOM     47  C   UNL     1       2.477  14.364  10.489  1.00  0.00     0.037 A 
ATOM     48  C   UNL     1      -3.791  11.698  10.340  1.00  0.00     0.049 A 
ATOM     49  C   UNL     1       1.145  14.713  11.005  1.00  0.00     0.074 A 
ATOM     50  C   UNL     1      -3.385  11.623  11.658  1.00  0.00     0.029 A 
ATOM     51  N   UNL     1      -3.628  13.014   9.953  1.00  0.00    -0.354 N 
ATOM     52  N   UNL     1       0.287  15.386  10.303  1.00  0.00    -0.248 NA
ATOM     53  C   UNL     1       0.748  14.415  12.379  1.00  0.00     0.031 C 
ATOM     54  C   UNL     1      -2.478  12.699  11.801  1.00  0.00     0.029 A 
ATOM     55  C   UNL     1      -2.641  13.574  10.733  1.00  0.00     0.049 A 
ATOM     56  H   UNL     1      -4.131  13.472   9.242  1.00  0.00     0.167 HD
ATOM     57  C   UNL     1      -0.884  15.164  10.954  1.00  0.00     0.074 A 
ATOM     58  C   UNL     1      -0.518  14.830  12.318  1.00  0.00     0.031 C 
ATOM     59  C   UNL     1      -1.920  14.709  10.213  1.00  0.00     0.037 A 
BRANCH  46  60
ATOM     60  C   UNL     1      -4.547  11.044   7.961  1.00  0.00     0.058 A 
ATOM     61  C   UNL     1      -5.847  10.591   7.719  1.00  0.00     0.135 A 
ATOM     62  C   UNL     1      -3.901  11.754   6.927  1.00  0.00     0.135 A 
ATOM     63  F   UNL     1      -6.532   9.955   8.684  1.00  0.00    -0.206 F 
ATOM     64  C   UNL     1      -6.466  10.793   6.489  1.00  0.00     0.059 A 
ATOM     65  C   UNL     1      -4.481  11.930   5.676  1.00  0.00     0.059 A 
ATOM     66  F   UNL     1      -2.705  12.327   7.138  1.00  0.00    -0.206 F 
ATOM     67  C   UNL     1      -5.769  11.444   5.468  1.00  0.00     0.060 A 
BRANCH  67  68
ATOM     68  S   UNL     1      -6.560  11.624   3.857  1.00  0.00     0.124 S 
ATOM     69  O   UNL     1      -7.163  10.300   3.659  1.00  0.00    -0.237 OA
ATOM     70  O   UNL     1      -7.524  12.697   4.126  1.00  0.00    -0.237 OA
ATOM     71  O   UNL     1      -5.473  11.942   2.962  1.00  0.00    -0.744 OA
ENDBRANCH  67  68
ENDBRANCH  46  60
BRANCH  47  72
ATOM     72  C   UNL     1       3.513  15.379  11.064  1.00  0.00     0.058 A 
ATOM     73  C   UNL     1       3.079  16.635  11.621  1.00  0.00     0.135 A 
ATOM     74  C   UNL     1       4.804  15.017  11.477  1.00  0.00     0.135 A 
ATOM     75  F   UNL     1       1.891  17.165  11.296  1.00  0.00    -0.206 F 
ATOM     76  C   UNL     1       3.776  17.365  12.600  1.00  0.00     0.059 A 
ATOM     77  C   UNL     1       5.548  15.764  12.438  1.00  0.00     0.059 A 
ATOM     78  F   UNL     1       5.349  13.874  11.035  1.00  0.00    -0.206 F 
ATOM     79  C   UNL     1       5.003  16.904  13.036  1.00  0.00     0.060 A 
BRANCH  79  80
ATOM     80  S   UNL     1       5.780  17.731  14.462  1.00  0.00     0.124 S 
ATOM     81  O   UNL     1       6.078  19.060  13.939  1.00  0.00    -0.237 OA
ATOM     82  O   UNL     1       4.724  17.674  15.470  1.00  0.00    -0.237 OA
ATOM     83  O   UNL     1       6.944  16.896  14.746  1.00  0.00    -0.744 OA
ENDBRANCH  79  80
ENDBRANCH  47  72
BRANCH  59  84
ATOM     84  C   UNL     1      -2.076  15.297   8.819  1.00  0.00     0.058 A 
ATOM     85  C   UNL     1      -1.094  15.311   7.801  1.00  0.00     0.135 A 
ATOM     86  C   UNL     1      -3.274  15.966   8.527  1.00  0.00     0.135 A 
ATOM     87  F   UNL     1       0.050  14.623   7.919  1.00  0.00    -0.206 F 
ATOM     88  C   UNL     1      -1.256  16.032   6.615  1.00  0.00     0.059 A 
ATOM     89  C   UNL     1      -3.478  16.651   7.328  1.00  0.00     0.059 A 
ATOM     90  F   UNL     1      -4.273  15.958   9.424  1.00  0.00    -0.206 F 
ATOM     91  C   UNL     1      -2.446  16.717   6.395  1.00  0.00     0.060 A 
BRANCH  91  92
ATOM     92  S   UNL     1      -2.639  17.683   4.880  1.00  0.00     0.124 S 
ATOM     93  O   UNL     1      -1.865  18.882   5.188  1.00  0.00    -0.237 OA
ATOM     94  O   UNL     1      -2.062  16.811   3.862  1.00  0.00    -0.237 OA
ATOM     95  O   UNL     1      -4.082  17.887   4.792  1.00  0.00    -0.744 OA
ENDBRANCH  91  92
ENDBRANCH  59  84
ENDBRANCH  33  34
ENDBRANCH  25  28
ENDBRANCH  23  24
ENDBRANCH   1  23
TORSDOF 16
