REMARK SMILES CC(=O)N1CCCN(S(=O)(=O)c2ccc(C)c(C(=O)NCCCCNC(=O)c3ccc(-c4c5nc(c(-c6c(F)cc(S(=O)(=O)[O-])cc6F)c6ccc([nH]6)c(-c6c(F)cc(S(=O)(=O)[O-])cc6F)c6nc(c(-c7c(F)cc(S(=O)(=O)[O-])cc7F)c7ccc4[nH]7)C=C6)C=C5)cc3)c2)CC1
REMARK SMILES IDX 21 1 20 2 18 3 19 4 17 6 12 7 13 8 94 9 14 10 15 11 16 12
REMARK SMILES IDX 9 13 10 14 11 15 8 16 95 17 96 18 4 19 2 20 1 21 3 22 5 23
REMARK SMILES IDX 7 25 6 26 22 28 23 29 24 30 25 31 26 32 27 34 28 35 29 36
REMARK SMILES IDX 93 37 30 38 92 39 31 40 32 41 33 42 86 43 34 44 91 45 85 46
REMARK SMILES IDX 87 47 35 48 90 49 84 50 83 51 36 53 70 54 49 55 69 56 50 57
REMARK SMILES IDX 53 58 68 59 88 60 51 61 52 62 67 64 89 65 54 66 37 67 38 68
REMARK SMILES IDX 47 69 39 70 40 71 46 72 48 73 41 74 42 75 43 76 44 77 45 78
REMARK SMILES IDX 71 79 72 80 81 81 73 82 74 83 80 84 82 85 75 86 76 87 77 88
REMARK SMILES IDX 78 89 79 90 55 91 56 92 65 93 57 94 58 95 64 96 66 97 59 98
REMARK SMILES IDX 60 99 61 100 62 101 63 102
REMARK H PARENT 20 5 25 33 87 52 53 63
REMARK Flexibility Score: 90.00
ROOT
ATOM      1  C   UNL     1      -2.651   3.883  11.095  1.00  0.00     0.116 C 
ENDROOT
BRANCH   1   2
ATOM      2  N   UNL     1      -1.259   3.984  10.720  1.00  0.00    -0.352 N 
ATOM      3  C   UNL     1      -0.535   4.137   9.574  1.00  0.00     0.251 C 
ATOM      4  O   UNL     1       0.629   4.502   9.793  1.00  0.00    -0.269 OA
ATOM      5  H   UNL     1      -0.672   3.926  11.509  1.00  0.00     0.163 HD
BRANCH   3   6
ATOM      6  C   UNL     1      -0.909   3.820   8.143  1.00  0.00     0.044 A 
ATOM      7  C   UNL     1       0.187   3.363   5.966  1.00  0.00     0.083 A 
ATOM      8  C   UNL     1      -0.998   2.833   5.491  1.00  0.00     0.022 A 
ATOM      9  C   UNL     1       0.234   3.828   7.284  1.00  0.00     0.035 A 
ATOM     10  C   UNL     1      -2.149   2.923   6.252  1.00  0.00     0.005 A 
ATOM     11  C   UNL     1      -2.140   3.448   7.560  1.00  0.00    -0.038 A 
ATOM     12  C   UNL     1      -3.509   3.551   8.152  1.00  0.00     0.045 C 
BRANCH   7  13
ATOM     13  S   UNL     1       1.681   3.211   5.012  1.00  0.00     0.243 S 
ATOM     14  O   UNL     1       1.802   1.790   4.708  1.00  0.00    -0.207 OA
ATOM     15  O   UNL     1       2.743   3.883   5.705  1.00  0.00    -0.207 OA
BRANCH  13  16
ATOM     16  N   UNL     1       1.454   4.051   3.546  1.00  0.00    -0.196 NA
BRANCH  16  17
ATOM     17  C   UNL     1       0.241   3.910   2.711  1.00  0.00     0.124 C 
BRANCH  17  18
ATOM     18  C   UNL     1       0.024   2.516   2.141  1.00  0.00     0.136 C 
BRANCH  18  19
ATOM     19  N   UNL     1       1.031   2.015   1.208  1.00  0.00    -0.342 N 
BRANCH  19  20
ATOM     20  C   UNL     1       0.514   1.398   0.070  1.00  0.00     0.219 C 
ATOM     21  C   UNL     1       1.221   0.164  -0.429  1.00  0.00     0.114 C 
ATOM     22  O   UNL     1      -0.536   1.761  -0.461  1.00  0.00    -0.275 OA
ENDBRANCH  19  20
BRANCH  19  23
ATOM     23  C   UNL     1       2.369   1.755   1.739  1.00  0.00     0.121 CG0
ATOM     24  G   UNL     1       3.244   2.962   2.096  1.00  0.00     0.000 G0
ENDBRANCH  19  23
ENDBRANCH  18  19
ENDBRANCH  17  18
ENDBRANCH  16  17
BRANCH  16  25
ATOM     25  C   UNL     1       2.655   4.232   2.701  1.00  0.00     0.104 C 
BRANCH  25  26
ATOM     26  C   UNL     1       3.244   2.962   2.096  1.00  0.00     0.038 CG0
ATOM     27  G   UNL     1       2.369   1.755   1.739  1.00  0.00     0.000 G0
ENDBRANCH  25  26
ENDBRANCH  16  25
ENDBRANCH  13  16
ENDBRANCH   7  13
ENDBRANCH   3   6
ENDBRANCH   1   2
BRANCH   1  28
ATOM     28  C   UNL     1      -3.139   2.446  11.346  1.00  0.00     0.023 C 
BRANCH  28  29
ATOM     29  C   UNL     1      -3.038   1.983  12.803  1.00  0.00     0.023 C 
BRANCH  29  30
ATOM     30  C   UNL     1      -3.856   2.849  13.756  1.00  0.00     0.116 C 
BRANCH  30  31
ATOM     31  N   UNL     1      -5.150   2.353  14.177  1.00  0.00    -0.352 N 
ATOM     32  C   UNL     1      -5.960   2.955  15.136  1.00  0.00     0.251 C 
ATOM     33  H   UNL     1      -5.481   1.528  13.754  1.00  0.00     0.163 HD
ATOM     34  O   UNL     1      -6.749   2.317  15.824  1.00  0.00    -0.269 OA
BRANCH  32  35
ATOM     35  C   UNL     1      -5.958   4.441  15.183  1.00  0.00     0.039 A 
ATOM     36  C   UNL     1      -7.141   5.110  14.840  1.00  0.00     0.014 A 
ATOM     37  C   UNL     1      -4.760   5.141  15.284  1.00  0.00     0.014 A 
ATOM     38  C   UNL     1      -7.087   6.437  14.410  1.00  0.00     0.010 A 
ATOM     39  C   UNL     1      -4.685   6.405  14.741  1.00  0.00     0.010 A 
ATOM     40  C   UNL     1      -5.841   7.045  14.279  1.00  0.00    -0.014 A 
BRANCH  40  41
ATOM     41  C   UNL     1      -5.607   8.330  13.638  1.00  0.00     0.031 A 
ATOM     42  C   UNL     1      -5.263   9.509  14.463  1.00  0.00     0.074 A 
ATOM     43  C   UNL     1      -5.519   8.391  12.291  1.00  0.00     0.049 A 
ATOM     44  N   UNL     1      -5.405  10.730  14.074  1.00  0.00    -0.248 NA
ATOM     45  C   UNL     1      -4.737   9.399  15.821  1.00  0.00     0.031 C 
ATOM     46  C   UNL     1      -4.923   9.456  11.491  1.00  0.00     0.029 A 
ATOM     47  N   UNL     1      -6.105   7.545  11.351  1.00  0.00    -0.354 N 
ATOM     48  C   UNL     1      -4.723  11.528  14.965  1.00  0.00     0.074 A 
ATOM     49  C   UNL     1      -4.388  10.665  16.073  1.00  0.00     0.031 C 
ATOM     50  C   UNL     1      -5.359   9.351  10.225  1.00  0.00     0.029 A 
ATOM     51  C   UNL     1      -6.376   8.313  10.205  1.00  0.00     0.049 A 
ATOM     52  H   UNL     1      -6.294   6.585  11.469  1.00  0.00     0.167 HD
ATOM     53  C   UNL     1      -4.373  12.794  14.603  1.00  0.00     0.037 A 
ATOM     54  C   UNL     1      -7.664   8.504   9.786  1.00  0.00     0.037 A 
ATOM     55  C   UNL     1      -4.847  13.103  13.258  1.00  0.00     0.049 A 
ATOM     56  C   UNL     1      -8.118   9.946   9.852  1.00  0.00     0.074 A 
ATOM     57  C   UNL     1      -4.226  13.041  12.021  1.00  0.00     0.029 A 
ATOM     58  N   UNL     1      -6.212  13.197  13.008  1.00  0.00    -0.354 N 
ATOM     59  N   UNL     1      -7.515  10.870  10.547  1.00  0.00    -0.248 NA
ATOM     60  C   UNL     1      -9.287  10.462   9.145  1.00  0.00     0.031 C 
ATOM     61  C   UNL     1      -5.227  13.047  11.023  1.00  0.00     0.029 A 
ATOM     62  C   UNL     1      -6.458  13.120  11.650  1.00  0.00     0.049 A 
ATOM     63  H   UNL     1      -6.904  13.304  13.700  1.00  0.00     0.167 HD
ATOM     64  C   UNL     1      -8.201  12.055  10.440  1.00  0.00     0.074 A 
ATOM     65  C   UNL     1      -9.285  11.752   9.526  1.00  0.00     0.031 C 
ATOM     66  C   UNL     1      -7.815  13.175  11.124  1.00  0.00     0.037 A 
BRANCH  53  67
ATOM     67  C   UNL     1      -3.333  13.605  15.343  1.00  0.00     0.058 A 
ATOM     68  C   UNL     1      -2.411  14.413  14.642  1.00  0.00     0.135 A 
ATOM     69  C   UNL     1      -3.169  13.596  16.743  1.00  0.00     0.135 A 
ATOM     70  F   UNL     1      -2.482  14.575  13.315  1.00  0.00    -0.206 F 
ATOM     71  C   UNL     1      -1.359  15.083  15.264  1.00  0.00     0.059 A 
ATOM     72  C   UNL     1      -2.094  14.223  17.387  1.00  0.00     0.059 A 
ATOM     73  F   UNL     1      -4.067  12.995  17.538  1.00  0.00    -0.206 F 
ATOM     74  C   UNL     1      -1.189  14.961  16.635  1.00  0.00     0.060 A 
BRANCH  74  75
ATOM     75  S   UNL     1       0.220  15.787  17.397  1.00  0.00     0.124 S 
ATOM     76  O   UNL     1       1.340  15.274  16.613  1.00  0.00    -0.237 OA
ATOM     77  O   UNL     1      -0.106  17.194  17.190  1.00  0.00    -0.237 OA
ATOM     78  O   UNL     1       0.174  15.329  18.783  1.00  0.00    -0.744 OA
ENDBRANCH  74  75
ENDBRANCH  53  67
BRANCH  54  79
ATOM     79  C   UNL     1      -8.526   7.312  10.033  1.00  0.00     0.058 A 
ATOM     80  C   UNL     1      -8.238   6.142   9.303  1.00  0.00     0.135 A 
ATOM     81  C   UNL     1      -9.241   7.169  11.232  1.00  0.00     0.135 A 
ATOM     82  F   UNL     1      -7.566   6.223   8.143  1.00  0.00    -0.206 F 
ATOM     83  C   UNL     1      -8.484   4.877   9.824  1.00  0.00     0.059 A 
ATOM     84  C   UNL     1      -9.507   5.906  11.768  1.00  0.00     0.059 A 
ATOM     85  F   UNL     1      -9.550   8.247  11.967  1.00  0.00    -0.206 F 
ATOM     86  C   UNL     1      -9.054   4.773  11.091  1.00  0.00     0.060 A 
BRANCH  86  87
ATOM     87  S   UNL     1      -9.013   3.153  11.897  1.00  0.00     0.124 S 
ATOM     88  O   UNL     1      -9.783   2.334  10.967  1.00  0.00    -0.237 OA
ATOM     89  O   UNL     1      -7.576   2.877  11.938  1.00  0.00    -0.237 OA
ATOM     90  O   UNL     1      -9.643   3.406  13.187  1.00  0.00    -0.744 OA
ENDBRANCH  86  87
ENDBRANCH  54  79
BRANCH  66  91
ATOM     91  C   UNL     1      -8.603  14.459  11.280  1.00  0.00     0.058 A 
ATOM     92  C   UNL     1     -10.002  14.546  11.190  1.00  0.00     0.135 A 
ATOM     93  C   UNL     1      -7.949  15.657  11.670  1.00  0.00     0.135 A 
ATOM     94  F   UNL     1     -10.757  13.466  10.950  1.00  0.00    -0.206 F 
ATOM     95  C   UNL     1     -10.694  15.743  11.390  1.00  0.00     0.059 A 
ATOM     96  C   UNL     1      -8.625  16.845  11.936  1.00  0.00     0.059 A 
ATOM     97  F   UNL     1      -6.617  15.716  11.822  1.00  0.00    -0.206 F 
ATOM     98  C   UNL     1      -9.998  16.889  11.759  1.00  0.00     0.060 A 
BRANCH  98  99
ATOM     99  S   UNL     1     -10.889  18.425  12.056  1.00  0.00     0.124 S 
ATOM    100  O   UNL     1     -10.922  19.003  10.716  1.00  0.00    -0.237 OA
ATOM    101  O   UNL     1     -12.172  17.959  12.573  1.00  0.00    -0.237 OA
ATOM    102  O   UNL     1     -10.047  19.120  13.024  1.00  0.00    -0.744 OA
ENDBRANCH  98  99
ENDBRANCH  66  91
ENDBRANCH  40  41
ENDBRANCH  32  35
ENDBRANCH  30  31
ENDBRANCH  29  30
ENDBRANCH  28  29
ENDBRANCH   1  28
TORSDOF 17
