REMARK SMILES O=C(CNC(=O)[C@@H](CC1=c2ccccc2=NC1)N1C(=O)N=C2C=CC=C[C@H]2C1=O)NCCCCNC(=O)c1ccc(-c2c3nc(c(-c4c(F)cc(S(=O)(=O)[O-])cc4F)c4ccc([nH]4)c(-c4c(F)cc(S(=O)(=O)[O-])cc4F)c4nc(c(-c5c(F)cc(S(=O)(=O)[O-])cc5F)c5ccc2[nH]5)C=C4)C=C3)cc1
REMARK SMILES IDX 32 1 31 2 30 3 1 4 2 5 3 7 4 8 5 9 6 11 7 12 8 13 9 14 10 15
REMARK SMILES IDX 17 16 11 17 15 18 16 19 12 20 14 21 13 22 18 23 19 24 28 25
REMARK SMILES IDX 21 26 20 27 27 28 29 29 22 30 26 31 23 32 25 33 24 34 33 35
REMARK SMILES IDX 34 36 35 37 36 38 37 40 38 41 39 42 103 43 40 44 102 45
REMARK SMILES IDX 41 46 42 47 43 48 96 49 44 50 101 51 95 52 97 53 45 54
REMARK SMILES IDX 100 55 94 56 93 57 46 59 80 60 59 61 79 62 60 63 63 64 78 65
REMARK SMILES IDX 98 66 61 67 62 68 77 70 99 71 64 72 47 73 48 74 57 75 49 76
REMARK SMILES IDX 50 77 56 78 58 79 51 80 52 81 53 82 54 83 55 84 81 85 82 86
REMARK SMILES IDX 91 87 83 88 84 89 90 90 92 91 85 92 86 93 87 94 88 95 89 96
REMARK SMILES IDX 65 97 66 98 75 99 67 100 68 101 74 102 76 103 69 104 70 105
REMARK SMILES IDX 71 106 72 107 73 108
REMARK H PARENT 30 6 4 10 35 39 97 58 63 69
REMARK Flexibility Score: inf
ROOT
ATOM      1  C   UNL     1       2.202   3.035   0.994  1.00  0.00     0.023 C 
ENDROOT
BRANCH   1   2
ATOM      2  C   UNL     1       2.190   2.565  -0.462  1.00  0.00     0.116 C 
BRANCH   2   3
ATOM      3  N   UNL     1       2.818   1.272  -0.683  1.00  0.00    -0.355 N 
ATOM      4  O   UNL     1       0.883   0.187  -1.268  1.00  0.00    -0.273 OA
ATOM      5  C   UNL     1       2.104   0.174  -1.119  1.00  0.00     0.239 C 
ATOM      6  H   UNL     1       3.784   1.176  -0.517  1.00  0.00     0.163 HD
BRANCH   5   7
ATOM      7  C   UNL     1       2.931  -1.057  -1.531  1.00  0.00     0.216 C 
BRANCH   7   8
ATOM      8  N   UNL     1       4.354  -1.039  -1.199  1.00  0.00    -0.345 N 
ATOM      9  C   UNL     1       4.918  -2.180  -0.638  1.00  0.00     0.244 C 
ATOM     10  H   UNL     1       4.900  -0.238  -1.367  1.00  0.00     0.164 HD
ATOM     11  O   UNL     1       5.111  -3.164  -1.345  1.00  0.00    -0.273 OA
BRANCH   9  12
ATOM     12  C   UNL     1       5.528  -1.975   0.763  1.00  0.00     0.188 C 
BRANCH  12  13
ATOM     13  C   UNL     1       4.794  -0.925   1.640  1.00  0.00     0.069 C 
BRANCH  13  14
ATOM     14  C   UNL     1       3.436  -1.118   2.268  1.00  0.00    -0.037 C 
ATOM     15  C   UNL     1       2.399  -1.941   2.095  1.00  0.00     0.001 A 
ATOM     16  C   UNL     1       3.113  -0.127   3.365  1.00  0.00     0.174 C 
ATOM     17  C   UNL     1       2.059  -3.050   1.264  1.00  0.00     0.010 A 
ATOM     18  C   UNL     1       1.398  -1.413   3.050  1.00  0.00     0.065 A 
ATOM     19  N   UNL     1       1.730  -0.401   3.788  1.00  0.00    -0.280 NA
ATOM     20  C   UNL     1       0.852  -3.628   1.371  1.00  0.00     0.001 A 
ATOM     21  C   UNL     1       0.075  -2.071   3.086  1.00  0.00     0.028 A 
ATOM     22  C   UNL     1      -0.151  -3.123   2.285  1.00  0.00     0.002 A 
ENDBRANCH  13  14
ENDBRANCH  12  13
BRANCH  12  23
ATOM     23  N   UNL     1       5.945  -3.112   1.587  1.00  0.00    -0.249 N 
ATOM     24  C   UNL     1       7.062  -2.918   2.373  1.00  0.00     0.351 C 
ATOM     25  C   UNL     1       5.174  -4.221   1.823  1.00  0.00     0.244 C 
ATOM     26  N   UNL     1       6.816  -2.923   3.719  1.00  0.00    -0.197 NA
ATOM     27  O   UNL     1       8.153  -2.634   1.894  1.00  0.00    -0.246 OA
ATOM     28  C   UNL     1       5.332  -4.815   3.218  1.00  0.00     0.151 C 
ATOM     29  O   UNL     1       4.478  -4.767   0.969  1.00  0.00    -0.273 OA
ATOM     30  C   UNL     1       5.912  -3.750   4.141  1.00  0.00     0.062 C 
ATOM     31  C   UNL     1       4.007  -5.333   3.718  1.00  0.00    -0.007 C 
ATOM     32  C   UNL     1       5.409  -3.615   5.527  1.00  0.00     0.025 C 
ATOM     33  C   UNL     1       3.513  -5.028   4.925  1.00  0.00    -0.003 C 
ATOM     34  C   UNL     1       4.255  -4.210   5.851  1.00  0.00     0.002 C 
ENDBRANCH  12  23
ENDBRANCH   9  12
ENDBRANCH   7   8
ENDBRANCH   5   7
ENDBRANCH   2   3
ENDBRANCH   1   2
BRANCH   1  35
ATOM     35  C   UNL     1       3.582   3.316   1.592  1.00  0.00     0.023 C 
BRANCH  35  36
ATOM     36  C   UNL     1       4.429   4.359   0.875  1.00  0.00     0.116 C 
BRANCH  36  37
ATOM     37  N   UNL     1       3.902   5.712   0.941  1.00  0.00    -0.352 N 
ATOM     38  C   UNL     1       4.599   6.899   1.054  1.00  0.00     0.251 C 
ATOM     39  H   UNL     1       2.922   5.792   0.900  1.00  0.00     0.163 HD
ATOM     40  O   UNL     1       3.989   7.957   1.173  1.00  0.00    -0.269 OA
BRANCH  38  41
ATOM     41  C   UNL     1       6.083   6.888   1.082  1.00  0.00     0.039 A 
ATOM     42  C   UNL     1       6.816   6.101   0.191  1.00  0.00     0.014 A 
ATOM     43  C   UNL     1       6.753   7.650   2.046  1.00  0.00     0.014 A 
ATOM     44  C   UNL     1       8.186   5.938   0.376  1.00  0.00     0.010 A 
ATOM     45  C   UNL     1       8.144   7.547   2.177  1.00  0.00     0.010 A 
ATOM     46  C   UNL     1       8.867   6.649   1.377  1.00  0.00    -0.014 A 
BRANCH  46  47
ATOM     47  C   UNL     1      10.325   6.419   1.575  1.00  0.00     0.031 A 
ATOM     48  C   UNL     1      10.842   5.798   2.849  1.00  0.00     0.074 A 
ATOM     49  C   UNL     1      11.181   6.700   0.572  1.00  0.00     0.049 A 
ATOM     50  N   UNL     1      12.075   5.513   3.184  1.00  0.00    -0.248 NA
ATOM     51  C   UNL     1       9.850   5.452   3.881  1.00  0.00     0.031 C 
ATOM     52  C   UNL     1      10.806   7.289  -0.716  1.00  0.00     0.029 A 
ATOM     53  N   UNL     1      12.534   6.499   0.462  1.00  0.00    -0.354 N 
ATOM     54  C   UNL     1      12.011   4.973   4.464  1.00  0.00     0.074 A 
ATOM     55  C   UNL     1      10.619   4.989   4.857  1.00  0.00     0.031 C 
ATOM     56  C   UNL     1      11.889   7.342  -1.507  1.00  0.00     0.029 A 
ATOM     57  C   UNL     1      13.045   6.849  -0.765  1.00  0.00     0.049 A 
ATOM     58  H   UNL     1      13.086   6.138   1.193  1.00  0.00     0.167 HD
ATOM     59  C   UNL     1      13.018   4.498   5.236  1.00  0.00     0.037 A 
ATOM     60  C   UNL     1      14.303   6.788  -1.242  1.00  0.00     0.037 A 
ATOM     61  C   UNL     1      14.400   4.452   4.835  1.00  0.00     0.049 A 
ATOM     62  C   UNL     1      15.403   6.279  -0.356  1.00  0.00     0.074 A 
ATOM     63  C   UNL     1      15.490   3.990   5.553  1.00  0.00     0.029 A 
ATOM     64  N   UNL     1      14.882   4.865   3.603  1.00  0.00    -0.354 N 
ATOM     65  N   UNL     1      15.323   5.809   0.865  1.00  0.00    -0.248 NA
ATOM     66  C   UNL     1      16.766   6.309  -0.904  1.00  0.00     0.031 C 
ATOM     67  C   UNL     1      16.634   4.144   4.763  1.00  0.00     0.029 A 
ATOM     68  C   UNL     1      16.252   4.675   3.543  1.00  0.00     0.049 A 
ATOM     69  H   UNL     1      14.331   5.239   2.877  1.00  0.00     0.167 HD
ATOM     70  C   UNL     1      16.624   5.486   1.231  1.00  0.00     0.074 A 
ATOM     71  C   UNL     1      17.469   5.793   0.095  1.00  0.00     0.031 C 
ATOM     72  C   UNL     1      17.078   4.989   2.406  1.00  0.00     0.037 A 
BRANCH  59  73
ATOM     73  C   UNL     1      12.672   3.981   6.605  1.00  0.00     0.058 A 
ATOM     74  C   UNL     1      12.089   2.718   6.783  1.00  0.00     0.135 A 
ATOM     75  C   UNL     1      13.000   4.722   7.752  1.00  0.00     0.135 A 
ATOM     76  F   UNL     1      11.740   1.979   5.719  1.00  0.00    -0.206 F 
ATOM     77  C   UNL     1      11.838   2.208   8.053  1.00  0.00     0.059 A 
ATOM     78  C   UNL     1      12.774   4.224   9.032  1.00  0.00     0.059 A 
ATOM     79  F   UNL     1      13.558   5.937   7.634  1.00  0.00    -0.206 F 
ATOM     80  C   UNL     1      12.187   2.967   9.172  1.00  0.00     0.060 A 
BRANCH  80  81
ATOM     81  S   UNL     1      11.880   2.277  10.813  1.00  0.00     0.124 S 
ATOM     82  O   UNL     1      10.428   2.391  10.909  1.00  0.00    -0.237 OA
ATOM     83  O   UNL     1      12.401   0.920  10.685  1.00  0.00    -0.237 OA
ATOM     84  O   UNL     1      12.637   3.156  11.699  1.00  0.00    -0.744 OA
ENDBRANCH  80  81
ENDBRANCH  59  73
BRANCH  60  85
ATOM     85  C   UNL     1      14.591   7.231  -2.630  1.00  0.00     0.058 A 
ATOM     86  C   UNL     1      14.903   6.301  -3.631  1.00  0.00     0.135 A 
ATOM     87  C   UNL     1      14.542   8.587  -2.985  1.00  0.00     0.135 A 
ATOM     88  F   UNL     1      14.967   4.993  -3.336  1.00  0.00    -0.206 F 
ATOM     89  C   UNL     1      15.166   6.699  -4.937  1.00  0.00     0.059 A 
ATOM     90  C   UNL     1      14.780   9.009  -4.288  1.00  0.00     0.059 A 
ATOM     91  F   UNL     1      14.233   9.513  -2.063  1.00  0.00    -0.206 F 
ATOM     92  C   UNL     1      15.100   8.057  -5.256  1.00  0.00     0.060 A 
BRANCH  92  93
ATOM     93  S   UNL     1      15.386   8.566  -6.965  1.00  0.00     0.124 S 
ATOM     94  O   UNL     1      16.841   8.507  -7.048  1.00  0.00    -0.237 OA
ATOM     95  O   UNL     1      14.662   7.546  -7.717  1.00  0.00    -0.237 OA
ATOM     96  O   UNL     1      14.802   9.902  -7.016  1.00  0.00    -0.744 OA
ENDBRANCH  92  93
ENDBRANCH  60  85
BRANCH  72  97
ATOM     97  C   UNL     1      18.554   4.743   2.525  1.00  0.00     0.058 A 
ATOM     98  C   UNL     1      19.450   5.800   2.747  1.00  0.00     0.135 A 
ATOM     99  C   UNL     1      19.069   3.439   2.472  1.00  0.00     0.135 A 
ATOM    100  F   UNL     1      19.003   7.065   2.798  1.00  0.00    -0.206 F 
ATOM    101  C   UNL     1      20.813   5.573   2.900  1.00  0.00     0.059 A 
ATOM    102  C   UNL     1      20.427   3.188   2.639  1.00  0.00     0.059 A 
ATOM    103  F   UNL     1      18.250   2.396   2.268  1.00  0.00    -0.206 F 
ATOM    104  C   UNL     1      21.292   4.262   2.846  1.00  0.00     0.060 A 
BRANCH 104 105
ATOM    105  S   UNL     1      23.059   3.976   3.086  1.00  0.00     0.124 S 
ATOM    106  O   UNL     1      23.601   4.392   1.797  1.00  0.00    -0.237 OA
ATOM    107  O   UNL     1      23.368   4.849   4.215  1.00  0.00    -0.237 OA
ATOM    108  O   UNL     1      23.135   2.546   3.368  1.00  0.00    -0.744 OA
ENDBRANCH 104 105
ENDBRANCH  72  97
ENDBRANCH  46  47
ENDBRANCH  38  41
ENDBRANCH  36  37
ENDBRANCH  35  36
ENDBRANCH   1  35
TORSDOF 19
