REMARK SMILES Cc1cc(F)c([C@@](C)(C(=O)NCCCCNC(=O)c2ccc(-c3c4nc(c(-c5c(F)cc(S(=O)(=O)[O-])cc5F)c5ccc([nH]5)c(-c5c(F)cc(S(=O)(=O)[O-])cc5F)c5nc(c(-c6c(F)cc(S(=O)(=O)[O-])cc6F)c6ccc3[nH]6)C=C5)C=C4)cc2)[NH+]2CC[NH2+]CC2)cc1F
REMARK SMILES IDX 14 1 13 2 12 3 11 4 9 5 10 6 7 8 8 9 6 10 1 11 2 12 3 13
REMARK SMILES IDX 92 14 4 15 91 16 93 17 5 18 85 19 86 20 90 21 87 23 89 24
REMARK SMILES IDX 88 25 15 28 16 29 17 30 18 32 19 33 20 34 84 35 21 36 83 37
REMARK SMILES IDX 22 38 23 39 24 40 77 41 25 42 82 43 76 44 78 45 26 46 81 47
REMARK SMILES IDX 75 48 74 49 27 51 61 52 40 53 60 54 41 55 44 56 59 57 79 58
REMARK SMILES IDX 42 59 43 60 58 62 80 63 45 64 28 65 29 66 38 67 30 68 31 69
REMARK SMILES IDX 37 70 39 71 32 72 33 73 34 74 35 75 36 76 62 77 63 78 72 79
REMARK SMILES IDX 64 80 65 81 71 82 73 83 66 84 67 85 68 86 69 87 70 88 46 89
REMARK SMILES IDX 47 90 56 91 48 92 49 93 55 94 57 95 50 96 51 97 52 98 53 99
REMARK SMILES IDX 54 100
REMARK H PARENT 11 7 85 22 88 26 88 27 16 31 78 50 44 61
REMARK Flexibility Score: inf
ROOT
ATOM      1  C   UNL     1       3.347  -5.438   3.089  1.00  0.00     0.023 C 
ENDROOT
BRANCH   1   2
ATOM      2  C   UNL     1       2.756  -4.988   1.755  1.00  0.00     0.023 C 
BRANCH   2   3
ATOM      3  C   UNL     1       2.194  -6.114   0.896  1.00  0.00     0.116 C 
BRANCH   3   4
ATOM      4  N   UNL     1       0.841  -6.468   1.268  1.00  0.00    -0.350 N 
ATOM      5  C   UNL     1      -0.380  -6.162   0.742  1.00  0.00     0.286 C 
ATOM      6  O   UNL     1      -1.300  -6.823   1.248  1.00  0.00    -0.267 OA
ATOM      7  H   UNL     1       0.792  -7.047   2.062  1.00  0.00     0.163 HD
BRANCH   5   8
ATOM      8  C   UNL     1      -0.619  -5.147  -0.474  1.00  0.00     0.203 C 
ATOM      9  C   UNL     1      -0.095  -5.927  -1.718  1.00  0.00     0.096 C 
BRANCH   8  10
ATOM     10  C   UNL     1       0.063  -3.769  -0.263  1.00  0.00     0.060 A 
ATOM     11  C   UNL     1       1.714   0.255   0.169  1.00  0.00     0.047 C 
ATOM     12  C   UNL     1       1.179  -1.139   0.058  1.00  0.00    -0.012 A 
ATOM     13  C   UNL     1       1.837  -2.113  -0.693  1.00  0.00     0.046 A 
ATOM     14  C   UNL     1      -0.030  -1.486   0.645  1.00  0.00     0.126 A 
ATOM     15  C   UNL     1       1.273  -3.387  -0.867  1.00  0.00     0.133 A 
ATOM     16  C   UNL     1      -0.550  -2.777   0.529  1.00  0.00     0.053 A 
ATOM     17  F   UNL     1      -0.734  -0.569   1.324  1.00  0.00    -0.207 F 
ATOM     18  F   UNL     1       1.958  -4.237  -1.642  1.00  0.00    -0.206 F 
ENDBRANCH   8  10
BRANCH   8  19
ATOM     19  N   UNL     1      -2.095  -4.953  -0.704  1.00  0.00    -0.309 N 
ATOM     20  C   UNL     1      -3.064  -4.909   0.395  1.00  0.00     0.325 C 
ATOM     21  C   UNL     1      -2.594  -4.452  -1.977  1.00  0.00     0.325 C 
ATOM     22  H   UNL     1      -1.993  -5.962  -0.821  1.00  0.00     0.349 HD
ATOM     23  C   UNL     1      -4.070  -3.721   0.386  1.00  0.00     0.322 C 
ATOM     24  C   UNL     1      -3.392  -3.143  -1.838  1.00  0.00     0.322 C 
ATOM     25  N   UNL     1      -4.542  -3.281  -0.935  1.00  0.00    -0.337 N 
ATOM     26  H   UNL     1      -5.015  -2.381  -0.845  1.00  0.00     0.346 HD
ATOM     27  H   UNL     1      -5.193  -3.969  -1.312  1.00  0.00     0.346 HD
ENDBRANCH   8  19
ENDBRANCH   5   8
ENDBRANCH   3   4
ENDBRANCH   2   3
ENDBRANCH   1   2
BRANCH   1  28
ATOM     28  C   UNL     1       4.489  -6.445   2.997  1.00  0.00     0.116 C 
BRANCH  28  29
ATOM     29  N   UNL     1       5.585  -6.040   2.125  1.00  0.00    -0.352 N 
ATOM     30  C   UNL     1       6.921  -6.361   2.240  1.00  0.00     0.251 C 
ATOM     31  H   UNL     1       5.342  -5.467   1.362  1.00  0.00     0.163 HD
ATOM     32  O   UNL     1       7.747  -5.890   1.466  1.00  0.00    -0.269 OA
BRANCH  30  33
ATOM     33  C   UNL     1       7.341  -7.244   3.349  1.00  0.00     0.039 A 
ATOM     34  C   UNL     1       6.656  -8.436   3.583  1.00  0.00     0.014 A 
ATOM     35  C   UNL     1       8.347  -6.820   4.220  1.00  0.00     0.014 A 
ATOM     36  C   UNL     1       6.837  -9.098   4.789  1.00  0.00     0.010 A 
ATOM     37  C   UNL     1       8.595  -7.546   5.389  1.00  0.00     0.010 A 
ATOM     38  C   UNL     1       7.801  -8.656   5.714  1.00  0.00    -0.014 A 
BRANCH  38  39
ATOM     39  C   UNL     1       7.932  -9.373   7.010  1.00  0.00     0.031 A 
ATOM     40  C   UNL     1       7.638  -8.678   8.316  1.00  0.00     0.074 A 
ATOM     41  C   UNL     1       8.240 -10.686   6.997  1.00  0.00     0.049 A 
ATOM     42  N   UNL     1       7.663  -9.168   9.530  1.00  0.00    -0.248 NA
ATOM     43  C   UNL     1       7.275  -7.252   8.260  1.00  0.00     0.031 C 
ATOM     44  C   UNL     1       8.548 -11.466   5.795  1.00  0.00     0.029 A 
ATOM     45  N   UNL     1       8.310 -11.606   8.012  1.00  0.00    -0.354 N 
ATOM     46  C   UNL     1       7.348  -8.113  10.378  1.00  0.00     0.074 A 
ATOM     47  C   UNL     1       7.153  -6.947   9.546  1.00  0.00     0.031 C 
ATOM     48  C   UNL     1       8.708 -12.753   6.132  1.00  0.00     0.029 A 
ATOM     49  C   UNL     1       8.584 -12.882   7.580  1.00  0.00     0.049 A 
ATOM     50  H   UNL     1       8.177 -11.374   8.960  1.00  0.00     0.167 HD
ATOM     51  C   UNL     1       7.221  -8.121  11.727  1.00  0.00     0.037 A 
ATOM     52  C   UNL     1       8.733 -14.029   8.268  1.00  0.00     0.037 A 
ATOM     53  C   UNL     1       7.368  -9.297  12.545  1.00  0.00     0.049 A 
ATOM     54  C   UNL     1       8.588 -14.007   9.763  1.00  0.00     0.074 A 
ATOM     55  C   UNL     1       7.218  -9.411  13.917  1.00  0.00     0.029 A 
ATOM     56  N   UNL     1       7.684 -10.561  12.072  1.00  0.00    -0.354 N 
ATOM     57  N   UNL     1       8.281 -12.998  10.542  1.00  0.00    -0.248 NA
ATOM     58  C   UNL     1       8.822 -15.271  10.474  1.00  0.00     0.031 C 
ATOM     59  C   UNL     1       7.480 -10.736  14.278  1.00  0.00     0.029 A 
ATOM     60  C   UNL     1       7.753 -11.456  13.127  1.00  0.00     0.049 A 
ATOM     61  H   UNL     1       7.838 -10.789  11.127  1.00  0.00     0.167 HD
ATOM     62  C   UNL     1       8.285 -13.505  11.835  1.00  0.00     0.074 A 
ATOM     63  C   UNL     1       8.596 -14.916  11.732  1.00  0.00     0.031 C 
ATOM     64  C   UNL     1       8.062 -12.858  13.004  1.00  0.00     0.037 A 
BRANCH  51  65
ATOM     65  C   UNL     1       6.902  -6.829  12.426  1.00  0.00     0.058 A 
ATOM     66  C   UNL     1       5.609  -6.287  12.414  1.00  0.00     0.135 A 
ATOM     67  C   UNL     1       7.874  -6.189  13.214  1.00  0.00     0.135 A 
ATOM     68  F   UNL     1       4.647  -6.849  11.665  1.00  0.00    -0.206 F 
ATOM     69  C   UNL     1       5.287  -5.160  13.164  1.00  0.00     0.059 A 
ATOM     70  C   UNL     1       7.570  -5.072  13.987  1.00  0.00     0.059 A 
ATOM     71  F   UNL     1       9.128  -6.666  13.258  1.00  0.00    -0.206 F 
ATOM     72  C   UNL     1       6.272  -4.565  13.956  1.00  0.00     0.060 A 
BRANCH  72  73
ATOM     73  S   UNL     1       5.819  -3.140  14.968  1.00  0.00     0.124 S 
ATOM     74  O   UNL     1       5.628  -2.109  13.952  1.00  0.00    -0.237 OA
ATOM     75  O   UNL     1       4.606  -3.605  15.633  1.00  0.00    -0.237 OA
ATOM     76  O   UNL     1       6.977  -2.956  15.837  1.00  0.00    -0.744 OA
ENDBRANCH  72  73
ENDBRANCH  51  65
BRANCH  52  77
ATOM     77  C   UNL     1       9.059 -15.288   7.549  1.00  0.00     0.058 A 
ATOM     78  C   UNL     1       8.130 -16.333   7.455  1.00  0.00     0.135 A 
ATOM     79  C   UNL     1      10.305 -15.461   6.925  1.00  0.00     0.135 A 
ATOM     80  F   UNL     1       6.927 -16.215   8.039  1.00  0.00    -0.206 F 
ATOM     81  C   UNL     1       8.428 -17.513   6.782  1.00  0.00     0.059 A 
ATOM     82  C   UNL     1      10.617 -16.619   6.223  1.00  0.00     0.059 A 
ATOM     83  F   UNL     1      11.223 -14.482   6.971  1.00  0.00    -0.206 F 
ATOM     84  C   UNL     1       9.675 -17.645   6.168  1.00  0.00     0.060 A 
BRANCH  84  85
ATOM     85  S   UNL     1      10.041 -19.163   5.261  1.00  0.00     0.124 S 
ATOM     86  O   UNL     1      10.277 -20.104   6.350  1.00  0.00    -0.237 OA
ATOM     87  O   UNL     1       8.815 -19.367   4.495  1.00  0.00    -0.237 OA
ATOM     88  O   UNL     1      11.213 -18.805   4.468  1.00  0.00    -0.744 OA
ENDBRANCH  84  85
ENDBRANCH  52  77
BRANCH  64  89
ATOM     89  C   UNL     1       8.143 -13.664  14.267  1.00  0.00     0.058 A 
ATOM     90  C   UNL     1       9.379 -14.054  14.803  1.00  0.00     0.135 A 
ATOM     91  C   UNL     1       6.981 -13.986  14.986  1.00  0.00     0.135 A 
ATOM     92  F   UNL     1      10.517 -13.777  14.148  1.00  0.00    -0.206 F 
ATOM     93  C   UNL     1       9.461 -14.744  16.007  1.00  0.00     0.059 A 
ATOM     94  C   UNL     1       7.040 -14.656  16.203  1.00  0.00     0.059 A 
ATOM     95  F   UNL     1       5.775 -13.627  14.517  1.00  0.00    -0.206 F 
ATOM     96  C   UNL     1       8.286 -15.036  16.702  1.00  0.00     0.060 A 
BRANCH  96  97
ATOM     97  S   UNL     1       8.412 -15.886  18.290  1.00  0.00     0.124 S 
ATOM     98  O   UNL     1       8.761 -17.240  17.871  1.00  0.00    -0.237 OA
ATOM     99  O   UNL     1       9.471 -15.137  18.961  1.00  0.00    -0.237 OA
ATOM    100  O   UNL     1       7.080 -15.730  18.866  1.00  0.00    -0.744 OA
ENDBRANCH  96  97
ENDBRANCH  64  89
ENDBRANCH  38  39
ENDBRANCH  30  33
ENDBRANCH  28  29
ENDBRANCH   1  28
TORSDOF 16
