REMARK SMILES Cc1nc(-c2ccccc2)sc1C(=O)N[C@@H](CC1=c2ccccc2=NC1)C(=O)NCCCCNC(=O)c1ccc(-c2c3nc(c(-c4c(F)cc(S(=O)(=O)[O-])cc4F)c4ccc([nH]4)c(-c4c(F)cc(S(=O)(=O)[O-])cc4F)c4nc(c(-c5c(F)cc(S(=O)(=O)[O-])cc5F)c5ccc2[nH]5)C=C4)C=C3)cc1
REMARK SMILES IDX 31 1 30 2 29 3 27 4 28 5 16 7 15 8 13 9 14 10 12 12 1 13
REMARK SMILES IDX 2 14 3 15 4 16 11 17 5 18 6 19 10 20 7 21 9 22 8 23 17 24
REMARK SMILES IDX 18 25 19 26 26 27 20 28 24 29 25 30 21 31 23 32 22 33 32 34
REMARK SMILES IDX 33 35 34 36 35 37 36 39 37 40 38 41 102 42 39 43 101 44
REMARK SMILES IDX 40 45 41 46 42 47 95 48 43 49 100 50 94 51 96 52 44 53 99 54
REMARK SMILES IDX 93 55 92 56 45 58 79 59 58 60 78 61 59 62 62 63 77 64 97 65
REMARK SMILES IDX 60 66 61 67 76 69 98 70 63 71 46 72 47 73 56 74 48 75 49 76
REMARK SMILES IDX 55 77 57 78 50 79 51 80 52 81 53 82 54 83 80 84 81 85 90 86
REMARK SMILES IDX 82 87 83 88 89 89 91 90 84 91 85 92 86 93 87 94 88 95 64 96
REMARK SMILES IDX 65 97 74 98 66 99 67 100 73 101 75 102 68 103 69 104 70 105
REMARK SMILES IDX 71 106 72 107
REMARK H PARENT 29 6 15 11 34 38 96 57 62 68
REMARK Flexibility Score: inf
ROOT
ATOM      1  C   UNL     1      -3.013  -6.399   2.250  1.00  0.00     0.023 C 
ENDROOT
BRANCH   1   2
ATOM      2  C   UNL     1      -3.467  -5.284   1.324  1.00  0.00     0.116 C 
BRANCH   2   3
ATOM      3  N   UNL     1      -3.880  -4.069   1.985  1.00  0.00    -0.354 N 
ATOM      4  C   UNL     1      -3.942  -2.803   1.491  1.00  0.00     0.242 C 
ATOM      5  O   UNL     1      -4.753  -2.036   2.025  1.00  0.00    -0.273 OA
ATOM      6  H   UNL     1      -4.155  -4.171   2.925  1.00  0.00     0.163 HD
BRANCH   4   7
ATOM      7  C   UNL     1      -3.131  -2.311   0.270  1.00  0.00     0.175 C 
BRANCH   7   8
ATOM      8  N   UNL     1      -1.720  -2.658   0.268  1.00  0.00    -0.339 N 
ATOM      9  C   UNL     1      -0.560  -1.958   0.079  1.00  0.00     0.263 C 
ATOM     10  O   UNL     1       0.424  -2.712   0.043  1.00  0.00    -0.268 OA
ATOM     11  H   UNL     1      -1.563  -3.614   0.442  1.00  0.00     0.164 HD
BRANCH   9  12
ATOM     12  C   UNL     1      -0.430  -0.507  -0.049  1.00  0.00     0.115 A 
ATOM     13  C   UNL     1      -2.675   0.788  -0.585  1.00  0.00     0.068 C 
ATOM     14  C   UNL     1      -1.232   0.612  -0.284  1.00  0.00     0.062 A 
ATOM     15  N   UNL     1      -0.567   1.830  -0.248  1.00  0.00    -0.241 NA
ATOM     16  C   UNL     1       0.719   1.675  -0.079  1.00  0.00     0.124 A 
ATOM     17  S   UNL     1       1.230   0.068   0.100  1.00  0.00    -0.108 S 
BRANCH  16  18
ATOM     18  C   UNL     1       1.645   2.799  -0.028  1.00  0.00     0.010 A 
ATOM     19  C   UNL     1       1.474   3.772   0.966  1.00  0.00     0.011 A 
ATOM     20  C   UNL     1       2.604   3.001  -1.029  1.00  0.00     0.011 A 
ATOM     21  C   UNL     1       2.240   4.936   0.956  1.00  0.00     0.001 A 
ATOM     22  C   UNL     1       3.365   4.172  -1.043  1.00  0.00     0.001 A 
ATOM     23  C   UNL     1       3.178   5.140  -0.055  1.00  0.00     0.000 A 
ENDBRANCH  16  18
ENDBRANCH   9  12
ENDBRANCH   7   8
BRANCH   7  24
ATOM     24  C   UNL     1      -3.801  -2.536  -1.111  1.00  0.00     0.068 C 
BRANCH  24  25
ATOM     25  C   UNL     1      -4.009  -3.944  -1.580  1.00  0.00    -0.037 C 
ATOM     26  C   UNL     1      -3.113  -4.863  -1.939  1.00  0.00     0.001 A 
ATOM     27  C   UNL     1      -5.397  -4.516  -1.643  1.00  0.00     0.174 C 
ATOM     28  C   UNL     1      -1.692  -4.905  -2.069  1.00  0.00     0.010 A 
ATOM     29  C   UNL     1      -3.929  -6.089  -2.015  1.00  0.00     0.065 A 
ATOM     30  N   UNL     1      -5.212  -5.966  -1.873  1.00  0.00    -0.280 NA
ATOM     31  C   UNL     1      -1.087  -6.101  -2.168  1.00  0.00     0.001 A 
ATOM     32  C   UNL     1      -3.193  -7.366  -2.132  1.00  0.00     0.028 A 
ATOM     33  C   UNL     1      -1.850  -7.338  -2.168  1.00  0.00     0.002 A 
ENDBRANCH  24  25
ENDBRANCH   7  24
ENDBRANCH   4   7
ENDBRANCH   2   3
ENDBRANCH   1   2
BRANCH   1  34
ATOM     34  C   UNL     1      -4.080  -6.930   3.201  1.00  0.00     0.023 C 
BRANCH  34  35
ATOM     35  C   UNL     1      -5.448  -7.202   2.582  1.00  0.00     0.116 C 
BRANCH  35  36
ATOM     36  N   UNL     1      -5.410  -8.129   1.459  1.00  0.00    -0.352 N 
ATOM     37  C   UNL     1      -6.092  -9.315   1.294  1.00  0.00     0.251 C 
ATOM     38  H   UNL     1      -4.816  -7.874   0.717  1.00  0.00     0.163 HD
ATOM     39  O   UNL     1      -5.856 -10.045   0.340  1.00  0.00    -0.269 OA
BRANCH  37  40
ATOM     40  C   UNL     1      -7.088  -9.706   2.314  1.00  0.00     0.039 A 
ATOM     41  C   UNL     1      -6.979 -10.954   2.928  1.00  0.00     0.014 A 
ATOM     42  C   UNL     1      -8.066  -8.795   2.721  1.00  0.00     0.014 A 
ATOM     43  C   UNL     1      -7.792 -11.251   4.024  1.00  0.00     0.010 A 
ATOM     44  C   UNL     1      -8.812  -9.058   3.864  1.00  0.00     0.010 A 
ATOM     45  C   UNL     1      -8.677 -10.284   4.533  1.00  0.00    -0.014 A 
BRANCH  45  46
ATOM     46  C   UNL     1      -9.458 -10.526   5.774  1.00  0.00     0.031 A 
ATOM     47  C   UNL     1     -10.961 -10.525   5.727  1.00  0.00     0.074 A 
ATOM     48  C   UNL     1      -8.817 -10.660   6.953  1.00  0.00     0.049 A 
ATOM     49  N   UNL     1     -11.818 -10.627   6.710  1.00  0.00    -0.248 NA
ATOM     50  C   UNL     1     -11.583 -10.350   4.405  1.00  0.00     0.031 C 
ATOM     51  C   UNL     1      -7.365 -10.610   7.142  1.00  0.00     0.029 A 
ATOM     52  N   UNL     1      -9.306 -10.854   8.221  1.00  0.00    -0.354 N 
ATOM     53  C   UNL     1     -13.075 -10.505   6.130  1.00  0.00     0.074 A 
ATOM     54  C   UNL     1     -12.868 -10.268   4.718  1.00  0.00     0.031 C 
ATOM     55  C   UNL     1      -7.081 -10.794   8.441  1.00  0.00     0.029 A 
ATOM     56  C   UNL     1      -8.328 -10.943   9.185  1.00  0.00     0.049 A 
ATOM     57  H   UNL     1     -10.267 -10.923   8.422  1.00  0.00     0.167 HD
ATOM     58  C   UNL     1     -14.292 -10.609   6.714  1.00  0.00     0.037 A 
ATOM     59  C   UNL     1      -8.426 -11.123  10.516  1.00  0.00     0.037 A 
ATOM     60  C   UNL     1     -14.493 -10.888   8.111  1.00  0.00     0.049 A 
ATOM     61  C   UNL     1      -9.788 -11.275  11.137  1.00  0.00     0.074 A 
ATOM     62  C   UNL     1     -15.685 -11.081   8.787  1.00  0.00     0.029 A 
ATOM     63  N   UNL     1     -13.477 -11.021   9.045  1.00  0.00    -0.354 N 
ATOM     64  N   UNL     1     -10.966 -11.223  10.562  1.00  0.00    -0.248 NA
ATOM     65  C   UNL     1      -9.836 -11.519  12.585  1.00  0.00     0.031 C 
ATOM     66  C   UNL     1     -15.390 -11.303  10.137  1.00  0.00     0.029 A 
ATOM     67  C   UNL     1     -14.013 -11.285  10.294  1.00  0.00     0.049 A 
ATOM     68  H   UNL     1     -12.515 -10.940   8.849  1.00  0.00     0.167 HD
ATOM     69  C   UNL     1     -11.893 -11.454  11.572  1.00  0.00     0.074 A 
ATOM     70  C   UNL     1     -11.139 -11.656  12.792  1.00  0.00     0.031 C 
ATOM     71  C   UNL     1     -13.246 -11.495  11.496  1.00  0.00     0.037 A 
BRANCH  58  72
ATOM     72  C   UNL     1     -15.499 -10.437   5.834  1.00  0.00     0.058 A 
ATOM     73  C   UNL     1     -15.857 -11.405   4.882  1.00  0.00     0.135 A 
ATOM     74  C   UNL     1     -16.316  -9.302   5.954  1.00  0.00     0.135 A 
ATOM     75  F   UNL     1     -15.100 -12.501   4.714  1.00  0.00    -0.206 F 
ATOM     76  C   UNL     1     -16.963 -11.238   4.056  1.00  0.00     0.059 A 
ATOM     77  C   UNL     1     -17.444  -9.127   5.157  1.00  0.00     0.059 A 
ATOM     78  F   UNL     1     -16.019  -8.345   6.848  1.00  0.00    -0.206 F 
ATOM     79  C   UNL     1     -17.749 -10.094   4.199  1.00  0.00     0.060 A 
BRANCH  79  80
ATOM     80  S   UNL     1     -19.182  -9.891   3.120  1.00  0.00     0.124 S 
ATOM     81  O   UNL     1     -18.546  -9.510   1.863  1.00  0.00    -0.237 OA
ATOM     82  O   UNL     1     -19.786 -11.219   3.147  1.00  0.00    -0.237 OA
ATOM     83  O   UNL     1     -19.955  -8.841   3.776  1.00  0.00    -0.744 OA
ENDBRANCH  79  80
ENDBRANCH  58  72
BRANCH  59  84
ATOM     84  C   UNL     1      -7.197 -11.207  11.348  1.00  0.00     0.058 A 
ATOM     85  C   UNL     1      -6.779 -12.432  11.890  1.00  0.00     0.135 A 
ATOM     86  C   UNL     1      -6.410 -10.075  11.609  1.00  0.00     0.135 A 
ATOM     87  F   UNL     1      -7.501 -13.542  11.672  1.00  0.00    -0.206 F 
ATOM     88  C   UNL     1      -5.634 -12.531  12.674  1.00  0.00     0.059 A 
ATOM     89  C   UNL     1      -5.249 -10.152  12.373  1.00  0.00     0.059 A 
ATOM     90  F   UNL     1      -6.757  -8.883  11.099  1.00  0.00    -0.206 F 
ATOM     91  C   UNL     1      -4.875 -11.383  12.909  1.00  0.00     0.060 A 
BRANCH  91  92
ATOM     92  S   UNL     1      -3.362 -11.530  13.887  1.00  0.00     0.124 S 
ATOM     93  O   UNL     1      -3.897 -11.653  15.238  1.00  0.00    -0.237 OA
ATOM     94  O   UNL     1      -2.750 -12.732  13.329  1.00  0.00    -0.237 OA
ATOM     95  O   UNL     1      -2.656 -10.286  13.597  1.00  0.00    -0.744 OA
ENDBRANCH  91  92
ENDBRANCH  59  84
BRANCH  71  96
ATOM     96  C   UNL     1     -13.998 -11.804  12.758  1.00  0.00     0.058 A 
ATOM     97  C   UNL     1     -14.143 -10.854  13.780  1.00  0.00     0.135 A 
ATOM     98  C   UNL     1     -14.624 -13.050  12.924  1.00  0.00     0.135 A 
ATOM     99  F   UNL     1     -13.559  -9.650  13.672  1.00  0.00    -0.206 F 
ATOM    100  C   UNL     1     -14.866 -11.135  14.935  1.00  0.00     0.059 A 
ATOM    101  C   UNL     1     -15.371 -13.345  14.060  1.00  0.00     0.059 A 
ATOM    102  F   UNL     1     -14.523 -13.989  11.970  1.00  0.00    -0.206 F 
ATOM    103  C   UNL     1     -15.476 -12.384  15.065  1.00  0.00     0.060 A 
BRANCH 103 104
ATOM    104  S   UNL     1     -16.440 -12.729  16.553  1.00  0.00     0.124 S 
ATOM    105  O   UNL     1     -15.388 -12.977  17.532  1.00  0.00    -0.237 OA
ATOM    106  O   UNL     1     -17.194 -11.492  16.732  1.00  0.00    -0.237 OA
ATOM    107  O   UNL     1     -17.238 -13.892  16.178  1.00  0.00    -0.744 OA
ENDBRANCH 103 104
ENDBRANCH  71  96
ENDBRANCH  45  46
ENDBRANCH  37  40
ENDBRANCH  35  36
ENDBRANCH  34  35
ENDBRANCH   1  34
TORSDOF 19
