REMARK SMILES COc1ccc(-n2c(=O)[nH]c3cc(C(=O)NCCCCNC(=O)c4ccc(-c5c6nc(c(-c7c(F)cc(S(=O)(=O)[O-])cc7F)c7ccc([nH]7)c(-c7c(F)cc(S(=O)(=O)[O-])cc7F)c7nc(c(-c8c(F)cc(S(=O)(=O)[O-])cc8F)c8ccc5[nH]8)C=C7)C=C6)cc4)ccc3c2=O)cc1
REMARK SMILES IDX 19 1 18 2 17 3 16 4 14 5 15 6 13 8 7 9 8 10 93 11 9 12 10 13
REMARK SMILES IDX 92 14 94 15 11 16 91 18 12 19 90 20 6 21 3 22 4 23 96 24
REMARK SMILES IDX 5 25 95 26 2 27 1 28 20 29 21 30 22 31 23 33 24 34 25 35
REMARK SMILES IDX 89 36 26 37 88 38 27 39 28 40 29 41 82 42 30 43 87 44 81 45
REMARK SMILES IDX 83 46 31 47 86 48 80 49 79 50 32 52 66 53 45 54 65 55 46 56
REMARK SMILES IDX 49 57 64 58 84 59 47 60 48 61 63 63 85 64 50 65 33 66 34 67
REMARK SMILES IDX 43 68 35 69 36 70 42 71 44 72 37 73 38 74 39 75 40 76 41 77
REMARK SMILES IDX 67 78 68 79 77 80 69 81 70 82 76 83 78 84 71 85 72 86 73 87
REMARK SMILES IDX 74 88 75 89 51 90 52 91 61 92 53 93 54 94 60 95 62 96 55 97
REMARK SMILES IDX 56 98 57 99 58 100 59 101
REMARK H PARENT 16 7 10 17 21 32 83 51 49 62
REMARK Flexibility Score: inf
ROOT
ATOM      1  C   UNL     1       0.928  15.178   6.116  1.00  0.00     0.023 C 
ENDROOT
BRANCH   1   2
ATOM      2  C   UNL     1       0.732  13.664   6.113  1.00  0.00     0.023 C 
BRANCH   2   3
ATOM      3  C   UNL     1       0.790  12.983   4.750  1.00  0.00     0.116 C 
BRANCH   3   4
ATOM      4  N   UNL     1       2.059  13.161   4.065  1.00  0.00    -0.352 N 
ATOM      5  C   UNL     1       2.818  12.266   3.354  1.00  0.00     0.251 C 
ATOM      6  O   UNL     1       3.917  12.610   2.925  1.00  0.00    -0.269 OA
ATOM      7  H   UNL     1       2.434  14.069   4.119  1.00  0.00     0.163 HD
BRANCH   5   8
ATOM      8  C   UNL     1       2.362  10.875   3.109  1.00  0.00     0.041 A 
ATOM      9  N   UNL     1       2.260   5.942   2.081  1.00  0.00    -0.228 N 
ATOM     10  C   UNL     1       3.603   6.242   2.349  1.00  0.00     0.333 A 
ATOM     11  C   UNL     1       1.244   6.823   2.483  1.00  0.00     0.268 A 
ATOM     12  O   UNL     1       4.573   5.491   2.239  1.00  0.00    -0.247 OA
ATOM     13  N   UNL     1       3.885   7.524   2.761  1.00  0.00    -0.306 N 
ATOM     14  C   UNL     1       1.612   8.232   2.663  1.00  0.00     0.064 A 
ATOM     15  O   UNL     1       0.081   6.527   2.756  1.00  0.00    -0.268 OA
ATOM     16  C   UNL     1       2.946   8.541   2.850  1.00  0.00     0.056 A 
ATOM     17  H   UNL     1       4.814   7.733   3.009  1.00  0.00     0.171 HD
ATOM     18  C   UNL     1       0.643   9.237   2.641  1.00  0.00     0.017 A 
ATOM     19  C   UNL     1       3.331   9.857   3.100  1.00  0.00     0.040 A 
ATOM     20  C   UNL     1       1.028  10.565   2.819  1.00  0.00     0.015 A 
BRANCH   9  21
ATOM     21  C   UNL     1       1.867   4.682   1.463  1.00  0.00     0.054 A 
ATOM     22  C   UNL     1       1.032   2.267   0.189  1.00  0.00     0.119 A 
ATOM     23  C   UNL     1       0.187   3.366   0.237  1.00  0.00     0.048 A 
ATOM     24  C   UNL     1       2.303   2.374   0.739  1.00  0.00     0.048 A 
ATOM     25  C   UNL     1       0.599   4.549   0.861  1.00  0.00     0.031 A 
ATOM     26  C   UNL     1       2.712   3.565   1.369  1.00  0.00     0.031 A 
BRANCH  22  27
ATOM     27  O   UNL     1       0.525   1.169  -0.447  1.00  0.00    -0.497 OA
ATOM     28  C   UNL     1       1.083  -0.079  -0.053  1.00  0.00     0.278 C 
ENDBRANCH  22  27
ENDBRANCH   9  21
ENDBRANCH   5   8
ENDBRANCH   3   4
ENDBRANCH   2   3
ENDBRANCH   1   2
BRANCH   1  29
ATOM     29  C   UNL     1       0.059  15.966   5.143  1.00  0.00     0.116 C 
BRANCH  29  30
ATOM     30  N   UNL     1      -1.368  15.765   5.346  1.00  0.00    -0.352 N 
ATOM     31  C   UNL     1      -2.363  16.683   5.601  1.00  0.00     0.251 C 
ATOM     32  H   UNL     1      -1.668  14.829   5.293  1.00  0.00     0.163 HD
ATOM     33  O   UNL     1      -3.497  16.297   5.846  1.00  0.00    -0.269 OA
BRANCH  31  34
ATOM     34  C   UNL     1      -2.047  18.130   5.619  1.00  0.00     0.039 A 
ATOM     35  C   UNL     1      -2.505  18.905   6.687  1.00  0.00     0.014 A 
ATOM     36  C   UNL     1      -1.283  18.713   4.606  1.00  0.00     0.014 A 
ATOM     37  C   UNL     1      -2.117  20.244   6.787  1.00  0.00     0.010 A 
ATOM     38  C   UNL     1      -0.832  20.023   4.748  1.00  0.00     0.010 A 
ATOM     39  C   UNL     1      -1.236  20.800   5.845  1.00  0.00    -0.014 A 
BRANCH  39  40
ATOM     40  C   UNL     1      -0.714  22.184   5.993  1.00  0.00     0.031 A 
ATOM     41  C   UNL     1      -1.022  23.223   4.948  1.00  0.00     0.074 A 
ATOM     42  C   UNL     1       0.099  22.485   7.026  1.00  0.00     0.049 A 
ATOM     43  N   UNL     1      -0.579  24.450   4.848  1.00  0.00    -0.248 NA
ATOM     44  C   UNL     1      -1.921  22.820   3.855  1.00  0.00     0.031 C 
ATOM     45  C   UNL     1       0.516  21.553   8.077  1.00  0.00     0.029 A 
ATOM     46  N   UNL     1       0.733  23.657   7.357  1.00  0.00    -0.354 N 
ATOM     47  C   UNL     1      -1.130  24.958   3.678  1.00  0.00     0.074 A 
ATOM     48  C   UNL     1      -1.899  23.891   3.075  1.00  0.00     0.031 C 
ATOM     49  C   UNL     1       1.318  22.194   8.943  1.00  0.00     0.029 A 
ATOM     50  C   UNL     1       1.504  23.569   8.493  1.00  0.00     0.049 A 
ATOM     51  H   UNL     1       0.645  24.484   6.830  1.00  0.00     0.167 HD
ATOM     52  C   UNL     1      -1.027  26.207   3.165  1.00  0.00     0.037 A 
ATOM     53  C   UNL     1       2.279  24.490   9.099  1.00  0.00     0.037 A 
ATOM     54  C   UNL     1      -0.292  27.277   3.786  1.00  0.00     0.049 A 
ATOM     55  C   UNL     1       2.367  25.874   8.515  1.00  0.00     0.074 A 
ATOM     56  C   UNL     1      -0.174  28.593   3.374  1.00  0.00     0.029 A 
ATOM     57  N   UNL     1       0.446  27.157   4.954  1.00  0.00    -0.354 N 
ATOM     58  N   UNL     1       1.793  26.351   7.437  1.00  0.00    -0.248 NA
ATOM     59  C   UNL     1       3.205  26.846   9.232  1.00  0.00     0.031 C 
ATOM     60  C   UNL     1       0.661  29.261   4.276  1.00  0.00     0.029 A 
ATOM     61  C   UNL     1       1.031  28.371   5.271  1.00  0.00     0.049 A 
ATOM     62  H   UNL     1       0.541  26.330   5.481  1.00  0.00     0.167 HD
ATOM     63  C   UNL     1       2.178  27.685   7.361  1.00  0.00     0.074 A 
ATOM     64  C   UNL     1       3.024  27.943   8.508  1.00  0.00     0.031 C 
ATOM     65  C   UNL     1       1.860  28.613   6.425  1.00  0.00     0.037 A 
BRANCH  52  66
ATOM     66  C   UNL     1      -1.743  26.492   1.874  1.00  0.00     0.058 A 
ATOM     67  C   UNL     1      -3.143  26.584   1.817  1.00  0.00     0.135 A 
ATOM     68  C   UNL     1      -1.024  26.716   0.689  1.00  0.00     0.135 A 
ATOM     69  F   UNL     1      -3.880  26.363   2.917  1.00  0.00    -0.206 F 
ATOM     70  C   UNL     1      -3.806  26.864   0.627  1.00  0.00     0.059 A 
ATOM     71  C   UNL     1      -1.665  27.023  -0.508  1.00  0.00     0.059 A 
ATOM     72  F   UNL     1       0.317  26.638   0.687  1.00  0.00    -0.206 F 
ATOM     73  C   UNL     1      -3.058  27.082  -0.530  1.00  0.00     0.060 A 
BRANCH  73  74
ATOM     74  S   UNL     1      -3.934  27.456  -2.064  1.00  0.00     0.124 S 
ATOM     75  O   UNL     1      -4.479  26.148  -2.413  1.00  0.00    -0.237 OA
ATOM     76  O   UNL     1      -4.908  28.453  -1.632  1.00  0.00    -0.237 OA
ATOM     77  O   UNL     1      -2.881  27.953  -2.944  1.00  0.00    -0.744 OA
ENDBRANCH  73  74
ENDBRANCH  52  66
BRANCH  53  78
ATOM     78  C   UNL     1       3.020  24.143  10.341  1.00  0.00     0.058 A 
ATOM     79  C   UNL     1       2.639  24.680  11.580  1.00  0.00     0.135 A 
ATOM     80  C   UNL     1       4.124  23.277  10.316  1.00  0.00     0.135 A 
ATOM     81  F   UNL     1       1.594  25.518  11.654  1.00  0.00    -0.206 F 
ATOM     82  C   UNL     1       3.340  24.392  12.747  1.00  0.00     0.059 A 
ATOM     83  C   UNL     1       4.826  22.954  11.474  1.00  0.00     0.059 A 
ATOM     84  F   UNL     1       4.518  22.722   9.159  1.00  0.00    -0.206 F 
ATOM     85  C   UNL     1       4.434  23.528  12.683  1.00  0.00     0.060 A 
BRANCH  85  86
ATOM     86  S   UNL     1       5.319  23.133  14.207  1.00  0.00     0.124 S 
ATOM     87  O   UNL     1       6.081  24.357  14.429  1.00  0.00    -0.237 OA
ATOM     88  O   UNL     1       4.226  22.883  15.142  1.00  0.00    -0.237 OA
ATOM     89  O   UNL     1       6.102  21.956  13.843  1.00  0.00    -0.744 OA
ENDBRANCH  85  86
ENDBRANCH  53  78
BRANCH  65  90
ATOM     90  C   UNL     1       2.397  30.003   6.619  1.00  0.00     0.058 A 
ATOM     91  C   UNL     1       3.747  30.309   6.388  1.00  0.00     0.135 A 
ATOM     92  C   UNL     1       1.539  31.051   6.990  1.00  0.00     0.135 A 
ATOM     93  F   UNL     1       4.609  29.342   6.039  1.00  0.00    -0.206 F 
ATOM     94  C   UNL     1       4.232  31.605   6.536  1.00  0.00     0.059 A 
ATOM     95  C   UNL     1       1.997  32.358   7.120  1.00  0.00     0.059 A 
ATOM     96  F   UNL     1       0.237  30.811   7.213  1.00  0.00    -0.206 F 
ATOM     97  C   UNL     1       3.349  32.623   6.901  1.00  0.00     0.060 A 
BRANCH  97  98
ATOM     98  S   UNL     1       3.982  34.306   7.054  1.00  0.00     0.124 S 
ATOM     99  O   UNL     1       4.693  34.238   8.326  1.00  0.00    -0.237 OA
ATOM    100  O   UNL     1       4.820  34.435   5.866  1.00  0.00    -0.237 OA
ATOM    101  O   UNL     1       2.773  35.125   7.052  1.00  0.00    -0.744 OA
ENDBRANCH  97  98
ENDBRANCH  65  90
ENDBRANCH  39  40
ENDBRANCH  31  34
ENDBRANCH  29  30
ENDBRANCH   1  29
TORSDOF 16
