REMARK SMILES Cc1cnn([C@H]2CC[C@@]([NH3+])(C(=O)NCCCCNC(=O)c3ccc(-c4c5nc(c(-c6c(F)cc(S(=O)(=O)[O-])cc6F)c6ccc([nH]6)c(-c6c(F)cc(S(=O)(=O)[O-])cc6F)c6nc(c(-c7c(F)cc(S(=O)(=O)[O-])cc7F)c7ccc4[nH]7)C=C6)C=C5)cc3)C2)c1
REMARK SMILES IDX 16 1 15 2 14 3 13 4 11 5 12 6 9 8 6 9 7 10 87 11 8 12 5 13
REMARK SMILES IDX 1 14 2 15 3 16 88 17 4 18 10 19 17 23 18 24 19 25 20 27
REMARK SMILES IDX 21 28 22 29 86 30 23 31 85 32 24 33 25 34 26 35 79 36 27 37
REMARK SMILES IDX 84 38 78 39 80 40 28 41 83 42 77 43 76 44 29 46 63 47 42 48
REMARK SMILES IDX 62 49 43 50 46 51 61 52 81 53 44 54 45 55 60 57 82 58 47 59
REMARK SMILES IDX 30 60 31 61 40 62 32 63 33 64 39 65 41 66 34 67 35 68 36 69
REMARK SMILES IDX 37 70 38 71 64 72 65 73 74 74 66 75 67 76 73 77 75 78 68 79
REMARK SMILES IDX 69 80 70 81 71 82 72 83 48 84 49 85 58 86 50 87 51 88 57 89
REMARK SMILES IDX 59 90 52 91 53 92 54 93 55 94 56 95
REMARK H PARENT 13 7 10 20 10 21 10 22 18 26 80 45 46 56
REMARK Flexibility Score: inf
ROOT
ATOM      1  C   UNL     1      -4.614   0.518   9.716  1.00  0.00     0.023 C 
ENDROOT
BRANCH   1   2
ATOM      2  C   UNL     1      -4.205   1.332   8.481  1.00  0.00     0.023 C 
BRANCH   2   3
ATOM      3  C   UNL     1      -2.763   1.850   8.441  1.00  0.00     0.116 C 
BRANCH   3   4
ATOM      4  N   UNL     1      -1.772   0.791   8.490  1.00  0.00    -0.351 N 
ATOM      5  C   UNL     1      -0.786   0.471   7.600  1.00  0.00     0.281 C 
ATOM      6  O   UNL     1       0.124  -0.243   8.027  1.00  0.00    -0.268 OA
ATOM      7  H   UNL     1      -1.817   0.215   9.287  1.00  0.00     0.163 HD
BRANCH   5   8
ATOM      8  C   UNL     1      -0.742   1.076   6.155  1.00  0.00     0.176 C 
ATOM      9  C   UNL     1      -0.463  -0.806   4.597  1.00  0.00     0.114 C 
ATOM     10  C   UNL     1      -1.873  -0.231   4.384  1.00  0.00     0.034 C 
ATOM     11  C   UNL     1       0.285   0.374   5.240  1.00  0.00     0.106 C 
ATOM     12  C   UNL     1      -2.057   0.914   5.384  1.00  0.00     0.081 C 
BRANCH   9  13
ATOM     13  N   UNL     1      -0.453  -2.066   5.324  1.00  0.00    -0.269 N 
ATOM     14  C   UNL     1       0.411  -4.387   7.982  1.00  0.00     0.048 C 
ATOM     15  C   UNL     1      -0.071  -3.656   6.790  1.00  0.00    -0.013 A 
ATOM     16  C   UNL     1      -1.166  -3.953   5.956  1.00  0.00     0.138 A 
ATOM     17  C   UNL     1       0.448  -2.500   6.252  1.00  0.00     0.112 A 
ATOM     18  N   UNL     1      -1.370  -3.015   5.026  1.00  0.00    -0.181 NA
ENDBRANCH   9  13
BRANCH   8  19
ATOM     19  N   UNL     1      -0.363   2.500   6.307  1.00  0.00    -0.345 N 
ATOM     20  H   UNL     1      -1.039   2.969   6.911  1.00  0.00     0.345 HD
ATOM     21  H   UNL     1      -0.356   2.950   5.392  1.00  0.00     0.345 HD
ATOM     22  H   UNL     1       0.566   2.563   6.724  1.00  0.00     0.345 HD
ENDBRANCH   8  19
ENDBRANCH   5   8
ENDBRANCH   3   4
ENDBRANCH   2   3
ENDBRANCH   1   2
BRANCH   1  23
ATOM     23  C   UNL     1      -4.465   1.253  11.037  1.00  0.00     0.116 C 
BRANCH  23  24
ATOM     24  N   UNL     1      -5.308   2.447  11.132  1.00  0.00    -0.352 N 
ATOM     25  C   UNL     1      -5.392   3.349  12.183  1.00  0.00     0.251 C 
ATOM     26  H   UNL     1      -5.884   2.631  10.355  1.00  0.00     0.163 HD
ATOM     27  O   UNL     1      -6.365   4.069  12.316  1.00  0.00    -0.269 OA
BRANCH  25  28
ATOM     28  C   UNL     1      -4.263   3.418  13.130  1.00  0.00     0.039 A 
ATOM     29  C   UNL     1      -4.452   3.549  14.508  1.00  0.00     0.014 A 
ATOM     30  C   UNL     1      -2.984   3.308  12.595  1.00  0.00     0.014 A 
ATOM     31  C   UNL     1      -3.339   3.486  15.346  1.00  0.00     0.010 A 
ATOM     32  C   UNL     1      -1.925   3.054  13.421  1.00  0.00     0.010 A 
ATOM     33  C   UNL     1      -2.078   3.222  14.790  1.00  0.00    -0.014 A 
BRANCH  33  34
ATOM     34  C   UNL     1      -0.896   3.016  15.619  1.00  0.00     0.031 A 
ATOM     35  C   UNL     1      -1.013   1.891  16.588  1.00  0.00     0.074 A 
ATOM     36  C   UNL     1       0.287   3.604  15.329  1.00  0.00     0.049 A 
ATOM     37  N   UNL     1      -1.073   1.954  17.877  1.00  0.00    -0.248 NA
ATOM     38  C   UNL     1      -1.259   0.539  16.055  1.00  0.00     0.031 C 
ATOM     39  C   UNL     1       0.627   4.459  14.181  1.00  0.00     0.029 A 
ATOM     40  N   UNL     1       1.491   3.457  15.940  1.00  0.00    -0.354 N 
ATOM     41  C   UNL     1      -1.103   0.634  18.323  1.00  0.00     0.074 A 
ATOM     42  C   UNL     1      -1.448  -0.161  17.176  1.00  0.00     0.031 C 
ATOM     43  C   UNL     1       1.970   4.532  14.048  1.00  0.00     0.029 A 
ATOM     44  C   UNL     1       2.585   3.889  15.193  1.00  0.00     0.049 A 
ATOM     45  H   UNL     1       1.583   3.074  16.842  1.00  0.00     0.167 HD
ATOM     46  C   UNL     1      -0.582   0.284  19.535  1.00  0.00     0.037 A 
ATOM     47  C   UNL     1       3.895   3.689  15.492  1.00  0.00     0.037 A 
ATOM     48  C   UNL     1      -0.357   1.455  20.350  1.00  0.00     0.049 A 
ATOM     49  C   UNL     1       3.951   3.353  16.942  1.00  0.00     0.074 A 
ATOM     50  C   UNL     1      -1.157   2.479  20.820  1.00  0.00     0.029 A 
ATOM     51  N   UNL     1       0.935   1.912  20.462  1.00  0.00    -0.354 N 
ATOM     52  N   UNL     1       3.639   4.192  17.893  1.00  0.00    -0.248 NA
ATOM     53  C   UNL     1       3.879   1.945  17.303  1.00  0.00     0.031 C 
ATOM     54  C   UNL     1      -0.356   3.653  20.697  1.00  0.00     0.029 A 
ATOM     55  C   UNL     1       0.907   3.266  20.247  1.00  0.00     0.049 A 
ATOM     56  H   UNL     1       1.732   1.369  20.660  1.00  0.00     0.167 HD
ATOM     57  C   UNL     1       2.932   3.436  18.817  1.00  0.00     0.074 A 
ATOM     58  C   UNL     1       3.172   2.045  18.432  1.00  0.00     0.031 C 
ATOM     59  C   UNL     1       1.983   4.002  19.621  1.00  0.00     0.037 A 
BRANCH  46  60
ATOM     60  C   UNL     1       0.086  -1.040  19.847  1.00  0.00     0.058 A 
ATOM     61  C   UNL     1       0.501  -1.297  21.173  1.00  0.00     0.135 A 
ATOM     62  C   UNL     1       0.592  -1.932  18.875  1.00  0.00     0.135 A 
ATOM     63  F   UNL     1       0.077  -0.525  22.186  1.00  0.00    -0.206 F 
ATOM     64  C   UNL     1       1.425  -2.294  21.491  1.00  0.00     0.059 A 
ATOM     65  C   UNL     1       1.470  -2.967  19.180  1.00  0.00     0.059 A 
ATOM     66  F   UNL     1       0.343  -1.794  17.569  1.00  0.00    -0.206 F 
ATOM     67  C   UNL     1       1.919  -3.111  20.481  1.00  0.00     0.060 A 
BRANCH  67  68
ATOM     68  S   UNL     1       3.192  -4.324  20.867  1.00  0.00     0.124 S 
ATOM     69  O   UNL     1       4.330  -3.463  21.164  1.00  0.00    -0.237 OA
ATOM     70  O   UNL     1       2.604  -5.026  22.003  1.00  0.00    -0.237 OA
ATOM     71  O   UNL     1       3.293  -5.106  19.638  1.00  0.00    -0.744 OA
ENDBRANCH  67  68
ENDBRANCH  46  60
BRANCH  47  72
ATOM     72  C   UNL     1       5.037   3.421  14.573  1.00  0.00     0.058 A 
ATOM     73  C   UNL     1       6.362   3.434  15.046  1.00  0.00     0.135 A 
ATOM     74  C   UNL     1       4.843   2.850  13.299  1.00  0.00     0.135 A 
ATOM     75  F   UNL     1       6.641   3.953  16.252  1.00  0.00    -0.206 F 
ATOM     76  C   UNL     1       7.418   2.851  14.336  1.00  0.00     0.059 A 
ATOM     77  C   UNL     1       5.881   2.270  12.568  1.00  0.00     0.059 A 
ATOM     78  F   UNL     1       3.616   2.752  12.764  1.00  0.00    -0.206 F 
ATOM     79  C   UNL     1       7.162   2.244  13.108  1.00  0.00     0.060 A 
BRANCH  79  80
ATOM     80  S   UNL     1       8.476   1.308  12.286  1.00  0.00     0.124 S 
ATOM     81  O   UNL     1       9.382   2.369  11.860  1.00  0.00    -0.237 OA
ATOM     82  O   UNL     1       8.961   0.449  13.361  1.00  0.00    -0.237 OA
ATOM     83  O   UNL     1       7.775   0.617  11.207  1.00  0.00    -0.744 OA
ENDBRANCH  79  80
ENDBRANCH  47  72
BRANCH  59  84
ATOM     84  C   UNL     1       1.908   5.505  19.706  1.00  0.00     0.058 A 
ATOM     85  C   UNL     1       1.591   6.359  18.634  1.00  0.00     0.135 A 
ATOM     86  C   UNL     1       2.002   6.088  20.979  1.00  0.00     0.135 A 
ATOM     87  F   UNL     1       1.381   5.874  17.402  1.00  0.00    -0.206 F 
ATOM     88  C   UNL     1       1.416   7.734  18.814  1.00  0.00     0.059 A 
ATOM     89  C   UNL     1       1.799   7.449  21.187  1.00  0.00     0.059 A 
ATOM     90  F   UNL     1       2.241   5.319  22.054  1.00  0.00    -0.206 F 
ATOM     91  C   UNL     1       1.520   8.270  20.098  1.00  0.00     0.060 A 
BRANCH  91  92
ATOM     92  S   UNL     1       1.231  10.034  20.347  1.00  0.00     0.124 S 
ATOM     93  O   UNL     1       2.406  10.630  19.721  1.00  0.00    -0.237 OA
ATOM     94  O   UNL     1      -0.036  10.250  19.653  1.00  0.00    -0.237 OA
ATOM     95  O   UNL     1       1.165  10.168  21.801  1.00  0.00    -0.744 OA
ENDBRANCH  91  92
ENDBRANCH  59  84
ENDBRANCH  33  34
ENDBRANCH  25  28
ENDBRANCH  23  24
ENDBRANCH   1  23
TORSDOF 16
