REMARK SMILES CC[C@@H](COC)NC(=O)NC[C@@H]1CC[C@H](C(=O)NCCCCNC(=O)c2ccc(-c3c4nc(c(-c5c(F)cc(S(=O)(=O)[O-])cc5F)c5ccc([nH]5)c(-c5c(F)cc(S(=O)(=O)[O-])cc5F)c5nc(c(-c6c(F)cc(S(=O)(=O)[O-])cc6F)c6ccc3[nH]6)C=C5)C=C4)cc2)O1
REMARK SMILES IDX 19 1 18 2 16 3 17 4 15 6 12 7 13 8 92 9 14 10 11 11 10 12
REMARK SMILES IDX 7 13 8 14 9 16 3 18 2 19 1 20 4 21 5 22 6 23 20 24 21 25
REMARK SMILES IDX 22 26 23 27 24 28 25 30 26 31 27 32 91 33 28 34 90 35 29 36
REMARK SMILES IDX 30 37 31 38 84 39 32 40 89 41 83 42 85 43 33 44 88 45 82 46
REMARK SMILES IDX 81 47 34 49 68 50 47 51 67 52 48 53 51 54 66 55 86 56 49 57
REMARK SMILES IDX 50 58 65 60 87 61 52 62 35 63 36 64 45 65 37 66 38 67 44 68
REMARK SMILES IDX 46 69 39 70 40 71 41 72 42 73 43 74 69 75 70 76 79 77 71 78
REMARK SMILES IDX 72 79 78 80 80 81 73 82 74 83 75 84 76 85 77 86 53 87 54 88
REMARK SMILES IDX 63 89 55 90 56 91 62 92 64 93 57 94 58 95 59 96 60 97 61 98
REMARK H PARENT 18 5 7 15 10 17 23 29 85 48 51 59
REMARK Flexibility Score: inf
ROOT
ATOM      1  C   UNL     1       1.296   0.903  -5.432  1.00  0.00     0.116 C 
ENDROOT
BRANCH   1   2
ATOM      2  N   UNL     1       1.487  -0.506  -5.699  1.00  0.00    -0.354 N 
ATOM      3  C   UNL     1       2.552  -1.287  -5.342  1.00  0.00     0.249 C 
ATOM      4  O   UNL     1       2.483  -2.503  -5.542  1.00  0.00    -0.272 OA
ATOM      5  H   UNL     1       0.765  -0.956  -6.196  1.00  0.00     0.163 HD
BRANCH   3   6
ATOM      6  C   UNL     1       3.819  -0.669  -4.718  1.00  0.00     0.207 C 
ATOM      7  C   UNL     1       4.517   1.096  -3.395  1.00  0.00     0.138 C 
ATOM      8  C   UNL     1       4.834   1.523  -4.822  1.00  0.00     0.037 C 
ATOM      9  O   UNL     1       3.548   0.048  -3.510  1.00  0.00    -0.363 OA
ATOM     10  C   UNL     1       4.607   0.260  -5.636  1.00  0.00     0.045 C 
BRANCH   7  11
ATOM     11  C   UNL     1       4.020   2.197  -2.441  1.00  0.00     0.149 C 
BRANCH  11  12
ATOM     12  N   UNL     1       2.945   3.007  -2.983  1.00  0.00    -0.336 N 
ATOM     13  N   UNL     1       0.866   2.184  -2.191  1.00  0.00    -0.333 N 
ATOM     14  C   UNL     1       1.618   3.033  -2.889  1.00  0.00     0.315 C 
ATOM     15  H   UNL     1      -0.082   2.453  -2.189  1.00  0.00     0.165 HD
ATOM     16  O   UNL     1       1.051   3.905  -3.553  1.00  0.00    -0.249 OA
ATOM     17  H   UNL     1       3.284   3.721  -3.570  1.00  0.00     0.165 HD
BRANCH  13  18
ATOM     18  C   UNL     1       1.083   0.951  -1.424  1.00  0.00     0.109 C 
BRANCH  18  19
ATOM     19  C   UNL     1       0.972   1.265   0.074  1.00  0.00     0.024 C 
ATOM     20  C   UNL     1       1.314   0.075   0.960  1.00  0.00     0.006 C 
ENDBRANCH  18  19
BRANCH  18  21
ATOM     21  C   UNL     1       0.088  -0.145  -1.886  1.00  0.00     0.184 C 
BRANCH  21  22
ATOM     22  O   UNL     1      -1.270   0.305  -1.873  1.00  0.00    -0.383 OA
ATOM     23  C   UNL     1      -2.053  -0.199  -0.799  1.00  0.00     0.194 C 
ENDBRANCH  21  22
ENDBRANCH  18  21
ENDBRANCH  13  18
ENDBRANCH  11  12
ENDBRANCH   7  11
ENDBRANCH   3   6
ENDBRANCH   1   2
BRANCH   1  24
ATOM     24  C   UNL     1       0.474   1.635  -6.482  1.00  0.00     0.023 C 
BRANCH  24  25
ATOM     25  C   UNL     1      -1.038   1.448  -6.366  1.00  0.00     0.023 C 
BRANCH  25  26
ATOM     26  C   UNL     1      -1.680   1.873  -5.044  1.00  0.00     0.116 C 
BRANCH  26  27
ATOM     27  N   UNL     1      -1.454   3.260  -4.666  1.00  0.00    -0.352 N 
ATOM     28  C   UNL     1      -2.341   4.162  -4.120  1.00  0.00     0.251 C 
ATOM     29  H   UNL     1      -0.543   3.601  -4.822  1.00  0.00     0.163 HD
ATOM     30  O   UNL     1      -2.019   5.330  -3.917  1.00  0.00    -0.269 OA
BRANCH  28  31
ATOM     31  C   UNL     1      -3.714   3.728  -3.796  1.00  0.00     0.039 A 
ATOM     32  C   UNL     1      -4.786   4.485  -4.271  1.00  0.00     0.014 A 
ATOM     33  C   UNL     1      -3.944   2.568  -3.051  1.00  0.00     0.014 A 
ATOM     34  C   UNL     1      -6.090   4.023  -4.088  1.00  0.00     0.010 A 
ATOM     35  C   UNL     1      -5.241   2.077  -2.917  1.00  0.00     0.010 A 
ATOM     36  C   UNL     1      -6.323   2.789  -3.457  1.00  0.00    -0.014 A 
BRANCH  36  37
ATOM     37  C   UNL     1      -7.684   2.200  -3.433  1.00  0.00     0.031 A 
ATOM     38  C   UNL     1      -8.429   2.030  -2.142  1.00  0.00     0.074 A 
ATOM     39  C   UNL     1      -8.222   1.762  -4.589  1.00  0.00     0.049 A 
ATOM     40  N   UNL     1      -9.621   1.529  -1.940  1.00  0.00    -0.248 NA
ATOM     41  C   UNL     1      -7.740   2.458  -0.915  1.00  0.00     0.031 C 
ATOM     42  C   UNL     1      -7.567   1.818  -5.899  1.00  0.00     0.029 A 
ATOM     43  N   UNL     1      -9.437   1.182  -4.852  1.00  0.00    -0.354 N 
ATOM     44  C   UNL     1      -9.826   1.579  -0.567  1.00  0.00     0.074 A 
ATOM     45  C   UNL     1      -8.616   2.115   0.020  1.00  0.00     0.031 C 
ATOM     46  C   UNL     1      -8.396   1.319  -6.828  1.00  0.00     0.029 A 
ATOM     47  C   UNL     1      -9.628   0.880  -6.180  1.00  0.00     0.049 A 
ATOM     48  H   UNL     1     -10.108   0.999  -4.156  1.00  0.00     0.167 HD
ATOM     49  C   UNL     1     -10.930   1.228   0.136  1.00  0.00     0.037 A 
ATOM     50  C   UNL     1     -10.678   0.314  -6.806  1.00  0.00     0.037 A 
ATOM     51  C   UNL     1     -12.135   0.706  -0.458  1.00  0.00     0.049 A 
ATOM     52  C   UNL     1     -11.893  -0.062  -6.005  1.00  0.00     0.074 A 
ATOM     53  C   UNL     1     -13.328   0.379   0.162  1.00  0.00     0.029 A 
ATOM     54  N   UNL     1     -12.297   0.426  -1.808  1.00  0.00    -0.354 N 
ATOM     55  N   UNL     1     -12.101   0.067  -4.717  1.00  0.00    -0.248 NA
ATOM     56  C   UNL     1     -13.018  -0.652  -6.743  1.00  0.00     0.031 C 
ATOM     57  C   UNL     1     -14.198  -0.137  -0.806  1.00  0.00     0.029 A 
ATOM     58  C   UNL     1     -13.563  -0.091  -2.036  1.00  0.00     0.049 A 
ATOM     59  H   UNL     1     -11.614   0.573  -2.501  1.00  0.00     0.167 HD
ATOM     60  C   UNL     1     -13.389  -0.405  -4.492  1.00  0.00     0.074 A 
ATOM     61  C   UNL     1     -13.916  -0.811  -5.779  1.00  0.00     0.031 C 
ATOM     62  C   UNL     1     -14.074  -0.491  -3.324  1.00  0.00     0.037 A 
BRANCH  49  63
ATOM     63  C   UNL     1     -10.885   1.400   1.629  1.00  0.00     0.058 A 
ATOM     64  C   UNL     1     -10.902   2.671   2.224  1.00  0.00     0.135 A 
ATOM     65  C   UNL     1     -10.848   0.281   2.477  1.00  0.00     0.135 A 
ATOM     66  F   UNL     1     -10.925   3.775   1.460  1.00  0.00    -0.206 F 
ATOM     67  C   UNL     1     -10.849   2.830   3.605  1.00  0.00     0.059 A 
ATOM     68  C   UNL     1     -10.820   0.415   3.862  1.00  0.00     0.059 A 
ATOM     69  F   UNL     1     -10.831  -0.958   1.962  1.00  0.00    -0.206 F 
ATOM     70  C   UNL     1     -10.803   1.695   4.416  1.00  0.00     0.060 A 
BRANCH  70  71
ATOM     71  S   UNL     1     -10.720   1.915   6.206  1.00  0.00     0.124 S 
ATOM     72  O   UNL     1      -9.333   2.333   6.383  1.00  0.00    -0.237 OA
ATOM     73  O   UNL     1     -11.727   2.945   6.443  1.00  0.00    -0.237 OA
ATOM     74  O   UNL     1     -11.047   0.591   6.727  1.00  0.00    -0.744 OA
ENDBRANCH  70  71
ENDBRANCH  49  63
BRANCH  50  75
ATOM     75  C   UNL     1     -10.633   0.103  -8.277  1.00  0.00     0.058 A 
ATOM     76  C   UNL     1     -11.405   0.893  -9.141  1.00  0.00     0.135 A 
ATOM     77  C   UNL     1      -9.800  -0.871  -8.849  1.00  0.00     0.135 A 
ATOM     78  F   UNL     1     -12.221   1.834  -8.640  1.00  0.00    -0.206 F 
ATOM     79  C   UNL     1     -11.363   0.719 -10.520  1.00  0.00     0.059 A 
ATOM     80  C   UNL     1      -9.724  -1.048 -10.226  1.00  0.00     0.059 A 
ATOM     81  F   UNL     1      -9.029  -1.640  -8.065  1.00  0.00    -0.206 F 
ATOM     82  C   UNL     1     -10.516  -0.253 -11.054  1.00  0.00     0.060 A 
BRANCH  82  83
ATOM     83  S   UNL     1     -10.426  -0.434 -12.849  1.00  0.00     0.124 S 
ATOM     84  O   UNL     1     -11.687  -1.106 -13.139  1.00  0.00    -0.237 OA
ATOM     85  O   UNL     1     -10.325   0.953 -13.293  1.00  0.00    -0.237 OA
ATOM     86  O   UNL     1      -9.222  -1.236 -13.044  1.00  0.00    -0.744 OA
ENDBRANCH  82  83
ENDBRANCH  50  75
BRANCH  62  87
ATOM     87  C   UNL     1     -15.478  -1.024  -3.387  1.00  0.00     0.058 A 
ATOM     88  C   UNL     1     -15.740  -2.388  -3.589  1.00  0.00     0.135 A 
ATOM     89  C   UNL     1     -16.573  -0.167  -3.194  1.00  0.00     0.135 A 
ATOM     90  F   UNL     1     -14.728  -3.248  -3.787  1.00  0.00    -0.206 F 
ATOM     91  C   UNL     1     -17.040  -2.881  -3.618  1.00  0.00     0.059 A 
ATOM     92  C   UNL     1     -17.881  -0.642  -3.195  1.00  0.00     0.059 A 
ATOM     93  F   UNL     1     -16.377   1.145  -2.988  1.00  0.00    -0.206 F 
ATOM     94  C   UNL     1     -18.105  -2.000  -3.419  1.00  0.00     0.060 A 
BRANCH  94  95
ATOM     95  S   UNL     1     -19.787  -2.657  -3.422  1.00  0.00     0.124 S 
ATOM     96  O   UNL     1     -20.015  -2.873  -4.846  1.00  0.00    -0.237 OA
ATOM     97  O   UNL     1     -19.654  -3.864  -2.611  1.00  0.00    -0.237 OA
ATOM     98  O   UNL     1     -20.571  -1.585  -2.814  1.00  0.00    -0.744 OA
ENDBRANCH  94  95
ENDBRANCH  62  87
ENDBRANCH  36  37
ENDBRANCH  28  31
ENDBRANCH  26  27
ENDBRANCH  25  26
ENDBRANCH  24  25
ENDBRANCH   1  24
TORSDOF 20
