REMARK SMILES Cc1ccc(Nc2c(F)cccc2I)c(CC(=O)NCCCCNC(=O)c2ccc(-c3c4nc(c(-c5c(F)cc(S(=O)(=O)[O-])cc5F)c5ccc([nH]5)c(-c5c(F)cc(S(=O)(=O)[O-])cc5F)c5nc(c(-c6c(F)cc(S(=O)(=O)[O-])cc6F)c6ccc3[nH]6)C=C5)C=C4)cc2)c1
REMARK SMILES IDX 21 1 20 2 19 3 17 4 18 5 16 7 15 8 1 9 2 10 3 11 93 12 4 13
REMARK SMILES IDX 5 14 6 15 7 17 8 18 13 19 9 20 10 21 12 22 14 23 11 24 22 25
REMARK SMILES IDX 23 26 24 27 25 28 26 30 27 31 28 32 92 33 29 34 91 35 30 36
REMARK SMILES IDX 31 37 32 38 85 39 33 40 90 41 84 42 86 43 34 44 89 45 83 46
REMARK SMILES IDX 82 47 35 49 69 50 48 51 68 52 49 53 52 54 67 55 87 56 50 57
REMARK SMILES IDX 51 58 66 60 88 61 53 62 36 63 37 64 46 65 38 66 39 67 45 68
REMARK SMILES IDX 47 69 40 70 41 71 42 72 43 73 44 74 70 75 71 76 80 77 72 78
REMARK SMILES IDX 73 79 79 80 81 81 74 82 75 83 76 84 77 85 78 86 54 87 55 88
REMARK SMILES IDX 64 89 56 90 57 91 63 92 65 93 58 94 59 95 60 96 61 97 62 98
REMARK H PARENT 19 6 6 16 24 29 86 48 52 59
REMARK Flexibility Score: inf
ROOT
ATOM      1  C   UNL     1      -0.102   1.170  -3.232  1.00  0.00     0.023 C 
ENDROOT
BRANCH   1   2
ATOM      2  C   UNL     1      -0.513   2.582  -2.787  1.00  0.00     0.116 C 
BRANCH   2   3
ATOM      3  N   UNL     1      -1.920   2.699  -2.434  1.00  0.00    -0.356 N 
ATOM      4  C   UNL     1      -2.525   2.625  -1.217  1.00  0.00     0.224 C 
ATOM      5  O   UNL     1      -3.756   2.696  -1.160  1.00  0.00    -0.275 OA
ATOM      6  H   UNL     1      -2.528   2.855  -3.193  1.00  0.00     0.163 HD
BRANCH   4   7
ATOM      7  C   UNL     1      -1.722   2.432   0.053  1.00  0.00     0.137 C 
BRANCH   7   8
ATOM      8  C   UNL     1      -1.053   1.080   0.156  1.00  0.00    -0.015 A 
ATOM      9  C   UNL     1       2.583  -0.097   0.259  1.00  0.00     0.044 C 
ATOM     10  C   UNL     1       1.084  -0.114   0.265  1.00  0.00    -0.051 A 
ATOM     11  C   UNL     1       0.391  -1.318   0.174  1.00  0.00     0.005 A 
ATOM     12  C   UNL     1       0.354   1.075   0.293  1.00  0.00     0.009 A 
ATOM     13  C   UNL     1      -1.006  -1.328   0.091  1.00  0.00     0.026 A 
ATOM     14  C   UNL     1      -1.758  -0.142   0.057  1.00  0.00     0.042 A 
BRANCH  14  15
ATOM     15  N   UNL     1      -3.165  -0.175  -0.068  1.00  0.00    -0.352 N 
ATOM     16  H   UNL     1      -3.586   0.701  -0.222  1.00  0.00     0.167 HD
BRANCH  15  17
ATOM     17  C   UNL     1      -4.066  -1.264  -0.007  1.00  0.00     0.088 A 
ATOM     18  C   UNL     1      -4.020  -2.210   1.031  1.00  0.00     0.147 A 
ATOM     19  C   UNL     1      -5.006  -1.491  -1.032  1.00  0.00     0.040 A 
ATOM     20  F   UNL     1      -3.168  -2.054   2.057  1.00  0.00    -0.205 F 
ATOM     21  C   UNL     1      -4.864  -3.321   1.061  1.00  0.00     0.041 A 
ATOM     22  C   UNL     1      -5.857  -2.607  -1.008  1.00  0.00     0.017 A 
ATOM     23  I   UNL     1      -5.176  -0.224  -2.700  1.00  0.00    -0.042 I 
ATOM     24  C   UNL     1      -5.784  -3.523   0.038  1.00  0.00     0.004 A 
ENDBRANCH  15  17
ENDBRANCH  14  15
ENDBRANCH   7   8
ENDBRANCH   4   7
ENDBRANCH   2   3
ENDBRANCH   1   2
BRANCH   1  25
ATOM     25  C   UNL     1      -0.891   0.586  -4.405  1.00  0.00     0.023 C 
BRANCH  25  26
ATOM     26  C   UNL     1      -0.673   1.334  -5.712  1.00  0.00     0.116 C 
BRANCH  26  27
ATOM     27  N   UNL     1       0.060   0.579  -6.715  1.00  0.00    -0.352 N 
ATOM     28  C   UNL     1       0.317   0.949  -8.030  1.00  0.00     0.251 C 
ATOM     29  H   UNL     1       0.415  -0.294  -6.430  1.00  0.00     0.163 HD
ATOM     30  O   UNL     1       0.737   0.173  -8.854  1.00  0.00    -0.269 OA
BRANCH  28  31
ATOM     31  C   UNL     1       0.166   2.390  -8.347  1.00  0.00     0.039 A 
ATOM     32  C   UNL     1       1.343   3.109  -8.581  1.00  0.00     0.014 A 
ATOM     33  C   UNL     1      -1.043   3.040  -8.117  1.00  0.00     0.014 A 
ATOM     34  C   UNL     1       1.350   4.488  -8.388  1.00  0.00     0.010 A 
ATOM     35  C   UNL     1      -1.017   4.396  -7.850  1.00  0.00     0.010 A 
ATOM     36  C   UNL     1       0.192   5.107  -7.926  1.00  0.00    -0.014 A 
BRANCH  36  37
ATOM     37  C   UNL     1       0.156   6.468  -7.401  1.00  0.00     0.031 A 
ATOM     38  C   UNL     1      -0.527   7.538  -8.160  1.00  0.00     0.074 A 
ATOM     39  C   UNL     1       0.630   6.721  -6.159  1.00  0.00     0.049 A 
ATOM     40  N   UNL     1      -0.525   8.780  -7.815  1.00  0.00    -0.248 NA
ATOM     41  C   UNL     1      -1.219   7.298  -9.426  1.00  0.00     0.031 C 
ATOM     42  C   UNL     1       0.328   7.871  -5.310  1.00  0.00     0.029 A 
ATOM     43  N   UNL     1       1.700   6.090  -5.517  1.00  0.00    -0.354 N 
ATOM     44  C   UNL     1      -1.439   9.429  -8.604  1.00  0.00     0.074 A 
ATOM     45  C   UNL     1      -1.738   8.506  -9.668  1.00  0.00     0.031 C 
ATOM     46  C   UNL     1       1.322   8.031  -4.425  1.00  0.00     0.029 A 
ATOM     47  C   UNL     1       2.370   7.094  -4.780  1.00  0.00     0.049 A 
ATOM     48  H   UNL     1       1.938   5.136  -5.567  1.00  0.00     0.167 HD
ATOM     49  C   UNL     1      -1.936  10.623  -8.182  1.00  0.00     0.037 A 
ATOM     50  C   UNL     1       3.649   7.450  -5.109  1.00  0.00     0.037 A 
ATOM     51  C   UNL     1      -1.062  11.232  -7.179  1.00  0.00     0.049 A 
ATOM     52  C   UNL     1       3.803   8.869  -5.626  1.00  0.00     0.074 A 
ATOM     53  C   UNL     1      -1.117  11.485  -5.820  1.00  0.00     0.029 A 
ATOM     54  N   UNL     1       0.248  11.486  -7.554  1.00  0.00    -0.354 N 
ATOM     55  N   UNL     1       2.836   9.742  -5.711  1.00  0.00    -0.248 NA
ATOM     56  C   UNL     1       5.065   9.390  -6.158  1.00  0.00     0.031 C 
ATOM     57  C   UNL     1       0.212  11.791  -5.377  1.00  0.00     0.029 A 
ATOM     58  C   UNL     1       1.057  11.765  -6.473  1.00  0.00     0.049 A 
ATOM     59  H   UNL     1       0.565  11.469  -8.486  1.00  0.00     0.167 HD
ATOM     60  C   UNL     1       3.290  10.864  -6.355  1.00  0.00     0.074 A 
ATOM     61  C   UNL     1       4.700  10.609  -6.589  1.00  0.00     0.031 C 
ATOM     62  C   UNL     1       2.486  11.909  -6.707  1.00  0.00     0.037 A 
BRANCH  49  63
ATOM     63  C   UNL     1      -3.277  11.181  -8.609  1.00  0.00     0.058 A 
ATOM     64  C   UNL     1      -3.661  12.488  -8.247  1.00  0.00     0.135 A 
ATOM     65  C   UNL     1      -4.288  10.427  -9.253  1.00  0.00     0.135 A 
ATOM     66  F   UNL     1      -2.814  13.300  -7.596  1.00  0.00    -0.206 F 
ATOM     67  C   UNL     1      -4.940  13.002  -8.501  1.00  0.00     0.059 A 
ATOM     68  C   UNL     1      -5.547  10.937  -9.567  1.00  0.00     0.059 A 
ATOM     69  F   UNL     1      -4.139   9.129  -9.543  1.00  0.00    -0.206 F 
ATOM     70  C   UNL     1      -5.878  12.217  -9.161  1.00  0.00     0.060 A 
BRANCH  70  71
ATOM     71  S   UNL     1      -7.542  12.847  -9.449  1.00  0.00     0.124 S 
ATOM     72  O   UNL     1      -8.123  12.771  -8.113  1.00  0.00    -0.237 OA
ATOM     73  O   UNL     1      -7.289  14.189  -9.961  1.00  0.00    -0.237 OA
ATOM     74  O   UNL     1      -8.095  11.908 -10.423  1.00  0.00    -0.744 OA
ENDBRANCH  70  71
ENDBRANCH  49  63
BRANCH  50  75
ATOM     75  C   UNL     1       4.471   6.273  -5.507  1.00  0.00     0.058 A 
ATOM     76  C   UNL     1       4.711   5.294  -4.521  1.00  0.00     0.135 A 
ATOM     77  C   UNL     1       4.600   5.890  -6.848  1.00  0.00     0.135 A 
ATOM     78  F   UNL     1       4.619   5.614  -3.219  1.00  0.00    -0.206 F 
ATOM     79  C   UNL     1       4.878   3.955  -4.849  1.00  0.00     0.059 A 
ATOM     80  C   UNL     1       4.785   4.552  -7.200  1.00  0.00     0.059 A 
ATOM     81  F   UNL     1       4.390   6.780  -7.829  1.00  0.00    -0.206 F 
ATOM     82  C   UNL     1       4.838   3.588  -6.191  1.00  0.00     0.060 A 
BRANCH  82  83
ATOM     83  S   UNL     1       4.645   1.831  -6.573  1.00  0.00     0.124 S 
ATOM     84  O   UNL     1       5.824   1.251  -5.939  1.00  0.00    -0.237 OA
ATOM     85  O   UNL     1       3.368   1.533  -5.927  1.00  0.00    -0.237 OA
ATOM     86  O   UNL     1       4.636   1.806  -8.031  1.00  0.00    -0.744 OA
ENDBRANCH  82  83
ENDBRANCH  50  75
BRANCH  62  87
ATOM     87  C   UNL     1       3.026  13.148  -7.365  1.00  0.00     0.058 A 
ATOM     88  C   UNL     1       4.115  13.854  -6.826  1.00  0.00     0.135 A 
ATOM     89  C   UNL     1       2.401  13.726  -8.489  1.00  0.00     0.135 A 
ATOM     90  F   UNL     1       4.750  13.399  -5.733  1.00  0.00    -0.206 F 
ATOM     91  C   UNL     1       4.579  15.044  -7.386  1.00  0.00     0.059 A 
ATOM     92  C   UNL     1       2.817  14.937  -9.037  1.00  0.00     0.059 A 
ATOM     93  F   UNL     1       1.382  13.113  -9.109  1.00  0.00    -0.206 F 
ATOM     94  C   UNL     1       3.922  15.580  -8.492  1.00  0.00     0.060 A 
BRANCH  94  95
ATOM     95  S   UNL     1       4.495  17.136  -9.201  1.00  0.00     0.124 S 
ATOM     96  O   UNL     1       4.991  17.860  -8.034  1.00  0.00    -0.237 OA
ATOM     97  O   UNL     1       5.516  16.671 -10.134  1.00  0.00    -0.237 OA
ATOM     98  O   UNL     1       3.289  17.692  -9.808  1.00  0.00    -0.744 OA
ENDBRANCH  94  95
ENDBRANCH  62  87
ENDBRANCH  36  37
ENDBRANCH  28  31
ENDBRANCH  26  27
ENDBRANCH  25  26
ENDBRANCH   1  25
TORSDOF 17
