REMARK SMILES C[NH2+][C@]1(C(=O)NCCCCNC(=O)c2ccc(-c3c4nc(c(-c5c(F)cc(S(=O)(=O)[O-])cc5F)c5ccc([nH]5)c(-c5c(F)cc(S(=O)(=O)[O-])cc5F)c5nc(c(-c6c(F)cc(S(=O)(=O)[O-])cc6F)c6ccc3[nH]6)C=C5)C=C4)cc2)CCC[C@@H]1CC[N@H+]1CCC[C@H]([NH+](C)C)C1
REMARK SMILES IDX 8 1 7 2 6 3 4 4 5 5 3 7 80 8 83 9 81 10 82 11 2 12 1 13
REMARK SMILES IDX 84 16 85 17 86 18 87 19 94 20 88 22 90 23 89 24 91 25 92 26
REMARK SMILES IDX 93 27 9 29 10 30 11 31 12 32 13 34 14 35 15 36 79 37 16 38
REMARK SMILES IDX 78 39 17 40 18 41 19 42 72 43 20 44 77 45 71 46 73 47 21 48
REMARK SMILES IDX 76 49 70 50 69 51 22 53 56 54 35 55 55 56 36 57 39 58 54 59
REMARK SMILES IDX 74 60 37 61 38 62 53 64 75 65 40 66 23 67 24 68 33 69 25 70
REMARK SMILES IDX 26 71 32 72 34 73 27 74 28 75 29 76 30 77 31 78 57 79 58 80
REMARK SMILES IDX 67 81 59 82 60 83 66 84 68 85 61 86 62 87 63 88 64 89 65 90
REMARK SMILES IDX 41 91 42 92 51 93 43 94 44 95 50 96 52 97 45 98 46 99 47 100
REMARK SMILES IDX 48 101 49 102
REMARK H PARENT 6 6 2 14 2 15 86 21 91 28 11 33 73 52 39 63
REMARK Flexibility Score: inf
ROOT
ATOM      1  C   UNL     1       0.824   3.947  -1.695  1.00  0.00     0.023 C 
ENDROOT
BRANCH   1   2
ATOM      2  C   UNL     1       0.823   2.423  -1.571  1.00  0.00     0.116 C 
BRANCH   2   3
ATOM      3  N   UNL     1       1.076   2.032  -0.200  1.00  0.00    -0.351 N 
ATOM      4  C   UNL     1       0.247   1.788   0.849  1.00  0.00     0.281 C 
ATOM      5  O   UNL     1       0.814   1.548   1.927  1.00  0.00    -0.268 OA
ATOM      6  H   UNL     1       2.031   1.923   0.014  1.00  0.00     0.163 HD
BRANCH   4   7
ATOM      7  C   UNL     1      -1.317   1.671   0.745  1.00  0.00     0.178 C 
ATOM      8  C   UNL     1      -2.067   2.738  -0.066  1.00  0.00     0.079 C 
ATOM      9  C   UNL     1      -1.688   0.366  -0.031  1.00  0.00     0.066 C 
ATOM     10  C   UNL     1      -3.410   2.096  -0.387  1.00  0.00     0.008 C 
ATOM     11  C   UNL     1      -3.123   0.602  -0.547  1.00  0.00     0.011 C 
BRANCH   7  12
ATOM     12  N   UNL     1      -1.873   1.564   2.140  1.00  0.00    -0.336 N 
ATOM     13  C   UNL     1      -1.936   2.828   2.865  1.00  0.00     0.331 C 
ATOM     14  H   UNL     1      -2.817   1.185   2.078  1.00  0.00     0.346 HD
ATOM     15  H   UNL     1      -1.234   0.963   2.661  1.00  0.00     0.346 HD
ENDBRANCH   7  12
BRANCH   9  16
ATOM     16  C   UNL     1      -1.551  -0.930   0.798  1.00  0.00     0.072 C 
BRANCH  16  17
ATOM     17  C   UNL     1      -1.297  -2.213  -0.007  1.00  0.00     0.262 C 
BRANCH  17  18
ATOM     18  N   UNL     1      -0.074  -2.258  -0.829  1.00  0.00    -0.330 N 
ATOM     19  C   UNL     1       1.130  -1.750  -0.161  1.00  0.00     0.262 C 
ATOM     20  C   UNL     1       0.175  -3.651  -1.261  1.00  0.00     0.327 C 
ATOM     21  H   UNL     1      -0.249  -1.638  -1.619  1.00  0.00     0.348 HD
ATOM     22  C   UNL     1       2.301  -1.690  -1.138  1.00  0.00     0.068 C 
ATOM     23  C   UNL     1       1.350  -3.807  -2.268  1.00  0.00     0.239 C 
ATOM     24  C   UNL     1       2.598  -3.046  -1.771  1.00  0.00     0.077 C 
BRANCH  23  25
ATOM     25  N   UNL     1       1.040  -3.567  -3.700  1.00  0.00    -0.333 N 
ATOM     26  C   UNL     1       0.095  -4.553  -4.225  1.00  0.00     0.332 C 
ATOM     27  C   UNL     1       0.573  -2.220  -4.011  1.00  0.00     0.332 C 
ATOM     28  H   UNL     1       1.941  -3.671  -4.167  1.00  0.00     0.348 HD
ENDBRANCH  23  25
ENDBRANCH  17  18
ENDBRANCH  16  17
ENDBRANCH   9  16
ENDBRANCH   4   7
ENDBRANCH   2   3
ENDBRANCH   1   2
BRANCH   1  29
ATOM     29  C   UNL     1       2.226   4.563  -1.742  1.00  0.00     0.023 C 
BRANCH  29  30
ATOM     30  C   UNL     1       3.025   4.232  -2.999  1.00  0.00     0.116 C 
BRANCH  30  31
ATOM     31  N   UNL     1       2.372   4.679  -4.220  1.00  0.00    -0.352 N 
ATOM     32  C   UNL     1       2.948   5.128  -5.383  1.00  0.00     0.251 C 
ATOM     33  H   UNL     1       1.388   4.656  -4.212  1.00  0.00     0.163 HD
ATOM     34  O   UNL     1       2.245   5.578  -6.284  1.00  0.00    -0.269 OA
BRANCH  32  35
ATOM     35  C   UNL     1       4.418   5.103  -5.523  1.00  0.00     0.039 A 
ATOM     36  C   UNL     1       5.072   6.259  -5.955  1.00  0.00     0.014 A 
ATOM     37  C   UNL     1       5.148   3.955  -5.200  1.00  0.00     0.014 A 
ATOM     38  C   UNL     1       6.466   6.285  -6.003  1.00  0.00     0.010 A 
ATOM     39  C   UNL     1       6.539   4.005  -5.186  1.00  0.00     0.010 A 
ATOM     40  C   UNL     1       7.211   5.170  -5.585  1.00  0.00    -0.014 A 
BRANCH  40  41
ATOM     41  C   UNL     1       8.695   5.208  -5.550  1.00  0.00     0.031 A 
ATOM     42  C   UNL     1       9.495   4.304  -6.446  1.00  0.00     0.074 A 
ATOM     43  C   UNL     1       9.316   6.005  -4.659  1.00  0.00     0.049 A 
ATOM     44  N   UNL     1      10.791   4.144  -6.510  1.00  0.00    -0.248 NA
ATOM     45  C   UNL     1       8.738   3.447  -7.372  1.00  0.00     0.031 C 
ATOM     46  C   UNL     1       8.646   6.884  -3.698  1.00  0.00     0.029 A 
ATOM     47  N   UNL     1      10.651   6.197  -4.406  1.00  0.00    -0.354 N 
ATOM     48  C   UNL     1      11.005   3.160  -7.467  1.00  0.00     0.074 A 
ATOM     49  C   UNL     1       9.703   2.725  -7.924  1.00  0.00     0.031 C 
ATOM     50  C   UNL     1       9.572   7.532  -2.973  1.00  0.00     0.029 A 
ATOM     51  C   UNL     1      10.899   7.092  -3.392  1.00  0.00     0.049 A 
ATOM     52  H   UNL     1      11.365   5.737  -4.904  1.00  0.00     0.167 HD
ATOM     53  C   UNL     1      12.180   2.677  -7.937  1.00  0.00     0.037 A 
ATOM     54  C   UNL     1      12.063   7.507  -2.856  1.00  0.00     0.037 A 
ATOM     55  C   UNL     1      13.472   3.138  -7.500  1.00  0.00     0.049 A 
ATOM     56  C   UNL     1      13.356   6.974  -3.410  1.00  0.00     0.074 A 
ATOM     57  C   UNL     1      14.721   2.764  -7.964  1.00  0.00     0.029 A 
ATOM     58  N   UNL     1      13.682   4.073  -6.496  1.00  0.00    -0.354 N 
ATOM     59  N   UNL     1      13.541   6.094  -4.365  1.00  0.00    -0.248 NA
ATOM     60  C   UNL     1      14.597   7.495  -2.822  1.00  0.00     0.031 C 
ATOM     61  C   UNL     1      15.687   3.443  -7.215  1.00  0.00     0.029 A 
ATOM     62  C   UNL     1      15.040   4.274  -6.314  1.00  0.00     0.049 A 
ATOM     63  H   UNL     1      12.971   4.526  -5.988  1.00  0.00     0.167 HD
ATOM     64  C   UNL     1      14.918   5.973  -4.509  1.00  0.00     0.074 A 
ATOM     65  C   UNL     1      15.518   6.879  -3.551  1.00  0.00     0.031 C 
ATOM     66  C   UNL     1      15.622   5.184  -5.358  1.00  0.00     0.037 A 
BRANCH  53  67
ATOM     67  C   UNL     1      12.123   1.599  -8.984  1.00  0.00     0.058 A 
ATOM     68  C   UNL     1      11.702   1.868 -10.296  1.00  0.00     0.135 A 
ATOM     69  C   UNL     1      12.529   0.289  -8.682  1.00  0.00     0.135 A 
ATOM     70  F   UNL     1      11.288   3.100 -10.634  1.00  0.00    -0.206 F 
ATOM     71  C   UNL     1      11.658   0.871 -11.265  1.00  0.00     0.059 A 
ATOM     72  C   UNL     1      12.519  -0.718  -9.643  1.00  0.00     0.059 A 
ATOM     73  F   UNL     1      12.940  -0.023  -7.443  1.00  0.00    -0.206 F 
ATOM     74  C   UNL     1      12.068  -0.420 -10.928  1.00  0.00     0.060 A 
BRANCH  74  75
ATOM     75  S   UNL     1      12.014  -1.700 -12.200  1.00  0.00     0.124 S 
ATOM     76  O   UNL     1      10.580  -1.955 -12.295  1.00  0.00    -0.237 OA
ATOM     77  O   UNL     1      12.616  -1.028 -13.347  1.00  0.00    -0.237 OA
ATOM     78  O   UNL     1      12.807  -2.783 -11.626  1.00  0.00    -0.744 OA
ENDBRANCH  74  75
ENDBRANCH  53  67
BRANCH  54  79
ATOM     79  C   UNL     1      12.056   8.499  -1.748  1.00  0.00     0.058 A 
ATOM     80  C   UNL     1      12.469   9.822  -1.962  1.00  0.00     0.135 A 
ATOM     81  C   UNL     1      11.612   8.152  -0.463  1.00  0.00     0.135 A 
ATOM     82  F   UNL     1      12.907  10.200  -3.172  1.00  0.00    -0.206 F 
ATOM     83  C   UNL     1      12.456  10.764  -0.938  1.00  0.00     0.059 A 
ATOM     84  C   UNL     1      11.567   9.082   0.571  1.00  0.00     0.059 A 
ATOM     85  F   UNL     1      11.189   6.903  -0.212  1.00  0.00    -0.206 F 
ATOM     86  C   UNL     1      11.999  10.384   0.325  1.00  0.00     0.060 A 
BRANCH  86  87
ATOM     87  S   UNL     1      11.931  11.630   1.632  1.00  0.00     0.124 S 
ATOM     88  O   UNL     1      13.341  11.775   1.972  1.00  0.00    -0.237 OA
ATOM     89  O   UNL     1      11.319  12.762   0.944  1.00  0.00    -0.237 OA
ATOM     90  O   UNL     1      11.096  11.000   2.650  1.00  0.00    -0.744 OA
ENDBRANCH  86  87
ENDBRANCH  54  79
BRANCH  66  91
ATOM     91  C   UNL     1      17.121   5.284  -5.313  1.00  0.00     0.058 A 
ATOM     92  C   UNL     1      17.864   4.734  -4.258  1.00  0.00     0.135 A 
ATOM     93  C   UNL     1      17.824   5.888  -6.368  1.00  0.00     0.135 A 
ATOM     94  F   UNL     1      17.239   4.151  -3.223  1.00  0.00    -0.206 F 
ATOM     95  C   UNL     1      19.254   4.797  -4.239  1.00  0.00     0.059 A 
ATOM     96  C   UNL     1      19.214   5.940  -6.383  1.00  0.00     0.059 A 
ATOM     97  F   UNL     1      17.160   6.420  -7.407  1.00  0.00    -0.206 F 
ATOM     98  C   UNL     1      19.920   5.401  -5.308  1.00  0.00     0.060 A 
BRANCH  98  99
ATOM     99  S   UNL     1      21.725   5.445  -5.290  1.00  0.00     0.124 S 
ATOM    100  O   UNL     1      21.983   6.490  -4.305  1.00  0.00    -0.237 OA
ATOM    101  O   UNL     1      22.068   4.087  -4.879  1.00  0.00    -0.237 OA
ATOM    102  O   UNL     1      22.070   5.781  -6.668  1.00  0.00    -0.744 OA
ENDBRANCH  98  99
ENDBRANCH  66  91
ENDBRANCH  40  41
ENDBRANCH  32  35
ENDBRANCH  30  31
ENDBRANCH  29  30
ENDBRANCH   1  29
TORSDOF 19
