REMARK SMILES O=C(NCCCCNC(=O)[C@@H]1C[C@@H]1C(=O)Nc1cc(F)ccc1F)c1ccc(-c2c3nc(c(-c4c(F)cc(S(=O)(=O)[O-])cc4F)c4ccc([nH]4)c(-c4c(F)cc(S(=O)(=O)[O-])cc4F)c4nc(c(-c5c(F)cc(S(=O)(=O)[O-])cc5F)c5ccc2[nH]5)C=C4)C=C3)cc1
REMARK SMILES IDX 5 1 4 2 3 3 1 4 2 5 25 7 26 8 90 9 27 10 89 11 28 12 29 13
REMARK SMILES IDX 30 14 83 15 31 16 88 17 82 18 84 19 32 20 87 21 81 22 80 23
REMARK SMILES IDX 33 25 67 26 46 27 66 28 47 29 50 30 65 31 85 32 48 33 49 34
REMARK SMILES IDX 64 36 86 37 51 38 34 39 35 40 44 41 36 42 37 43 43 44 45 45
REMARK SMILES IDX 38 46 39 47 40 48 41 49 42 50 68 51 69 52 78 53 70 54 71 55
REMARK SMILES IDX 77 56 79 57 72 58 73 59 74 60 75 61 76 62 52 63 53 64 62 65
REMARK SMILES IDX 54 66 55 67 61 68 63 69 56 70 57 71 58 72 59 73 60 74 6 75
REMARK SMILES IDX 7 76 8 77 9 78 10 80 11 81 12 82 13 83 14 84 15 85 16 86
REMARK SMILES IDX 17 88 18 89 23 90 19 91 22 92 24 93 20 94 21 95
REMARK H PARENT 3 6 84 24 50 35 8 79 16 87
REMARK Flexibility Score: inf
ROOT
ATOM      1  C   UNL     1       4.955  -1.807  -2.025  1.00  0.00     0.023 C 
ENDROOT
BRANCH   1   2
ATOM      2  C   UNL     1       4.629  -0.543  -1.239  1.00  0.00     0.116 C 
BRANCH   2   3
ATOM      3  N   UNL     1       3.200  -0.300  -1.115  1.00  0.00    -0.352 N 
ATOM      4  O   UNL     1       1.234  -0.005  -0.050  1.00  0.00    -0.269 OA
ATOM      5  C   UNL     1       2.458  -0.055   0.018  1.00  0.00     0.251 C 
ATOM      6  H   UNL     1       2.692  -0.314  -1.959  1.00  0.00     0.163 HD
BRANCH   5   7
ATOM      7  C   UNL     1       3.143   0.118   1.319  1.00  0.00     0.039 A 
ATOM      8  C   UNL     1       4.277   0.926   1.421  1.00  0.00     0.014 A 
ATOM      9  C   UNL     1       2.652  -0.549   2.445  1.00  0.00     0.014 A 
ATOM     10  C   UNL     1       5.005   0.945   2.604  1.00  0.00     0.010 A 
ATOM     11  C   UNL     1       3.337  -0.455   3.660  1.00  0.00     0.010 A 
ATOM     12  C   UNL     1       4.537   0.268   3.743  1.00  0.00    -0.014 A 
BRANCH  12  13
ATOM     13  C   UNL     1       5.287   0.391   5.019  1.00  0.00     0.031 A 
ATOM     14  C   UNL     1       5.931  -0.802   5.671  1.00  0.00     0.074 A 
ATOM     15  C   UNL     1       5.403   1.613   5.578  1.00  0.00     0.049 A 
ATOM     16  N   UNL     1       6.629  -0.857   6.776  1.00  0.00    -0.248 NA
ATOM     17  C   UNL     1       5.765  -2.103   5.004  1.00  0.00     0.031 C 
ATOM     18  C   UNL     1       4.804   2.840   5.045  1.00  0.00     0.029 A 
ATOM     19  N   UNL     1       6.068   2.031   6.702  1.00  0.00    -0.354 N 
ATOM     20  C   UNL     1       6.970  -2.194   6.951  1.00  0.00     0.074 A 
ATOM     21  C   UNL     1       6.381  -2.922   5.847  1.00  0.00     0.031 C 
ATOM     22  C   UNL     1       5.162   3.876   5.816  1.00  0.00     0.029 A 
ATOM     23  C   UNL     1       5.959   3.381   6.932  1.00  0.00     0.049 A 
ATOM     24  H   UNL     1       6.574   1.422   7.287  1.00  0.00     0.167 HD
ATOM     25  C   UNL     1       7.709  -2.756   7.938  1.00  0.00     0.037 A 
ATOM     26  C   UNL     1       6.428   4.140   7.940  1.00  0.00     0.037 A 
ATOM     27  C   UNL     1       8.304  -2.016   9.024  1.00  0.00     0.049 A 
ATOM     28  C   UNL     1       7.237   3.491   9.024  1.00  0.00     0.074 A 
ATOM     29  C   UNL     1       9.107  -2.489  10.048  1.00  0.00     0.029 A 
ATOM     30  N   UNL     1       8.158  -0.651   9.232  1.00  0.00    -0.354 N 
ATOM     31  N   UNL     1       7.578   2.231   9.152  1.00  0.00    -0.248 NA
ATOM     32  C   UNL     1       7.724   4.362  10.101  1.00  0.00     0.031 C 
ATOM     33  C   UNL     1       9.406  -1.421  10.901  1.00  0.00     0.029 A 
ATOM     34  C   UNL     1       8.835  -0.270  10.380  1.00  0.00     0.049 A 
ATOM     35  H   UNL     1       7.649  -0.043   8.649  1.00  0.00     0.167 HD
ATOM     36  C   UNL     1       8.332   2.159  10.316  1.00  0.00     0.074 A 
ATOM     37  C   UNL     1       8.413   3.506  10.844  1.00  0.00     0.031 C 
ATOM     38  C   UNL     1       8.903   1.075  10.896  1.00  0.00     0.037 A 
BRANCH  25  39
ATOM     39  C   UNL     1       7.908  -4.248   7.910  1.00  0.00     0.058 A 
ATOM     40  C   UNL     1       8.746  -4.868   6.970  1.00  0.00     0.135 A 
ATOM     41  C   UNL     1       7.298  -5.064   8.878  1.00  0.00     0.135 A 
ATOM     42  F   UNL     1       9.345  -4.139   6.014  1.00  0.00    -0.206 F 
ATOM     43  C   UNL     1       8.957  -6.244   6.977  1.00  0.00     0.059 A 
ATOM     44  C   UNL     1       7.514  -6.439   8.919  1.00  0.00     0.059 A 
ATOM     45  F   UNL     1       6.488  -4.526   9.802  1.00  0.00    -0.206 F 
ATOM     46  C   UNL     1       8.337  -7.022   7.957  1.00  0.00     0.060 A 
BRANCH  46  47
ATOM     47  S   UNL     1       8.630  -8.804   7.959  1.00  0.00     0.124 S 
ATOM     48  O   UNL     1       7.857  -9.227   6.795  1.00  0.00    -0.237 OA
ATOM     49  O   UNL     1      10.080  -8.882   7.819  1.00  0.00    -0.237 OA
ATOM     50  O   UNL     1       8.103  -9.234   9.250  1.00  0.00    -0.744 OA
ENDBRANCH  46  47
ENDBRANCH  25  39
BRANCH  26  51
ATOM     51  C   UNL     1       6.126   5.595   7.963  1.00  0.00     0.058 A 
ATOM     52  C   UNL     1       7.127   6.549   7.733  1.00  0.00     0.135 A 
ATOM     53  C   UNL     1       4.816   6.057   8.173  1.00  0.00     0.135 A 
ATOM     54  F   UNL     1       8.394   6.156   7.531  1.00  0.00    -0.206 F 
ATOM     55  C   UNL     1       6.844   7.910   7.718  1.00  0.00     0.059 A 
ATOM     56  C   UNL     1       4.503   7.411   8.134  1.00  0.00     0.059 A 
ATOM     57  F   UNL     1       3.819   5.182   8.378  1.00  0.00    -0.206 F 
ATOM     58  C   UNL     1       5.527   8.331   7.914  1.00  0.00     0.060 A 
BRANCH  58  59
ATOM     59  S   UNL     1       5.158  10.096   7.830  1.00  0.00     0.124 S 
ATOM     60  O   UNL     1       5.702  10.570   9.097  1.00  0.00    -0.237 OA
ATOM     61  O   UNL     1       5.882  10.505   6.630  1.00  0.00    -0.237 OA
ATOM     62  O   UNL     1       3.703  10.129   7.715  1.00  0.00    -0.744 OA
ENDBRANCH  58  59
ENDBRANCH  26  51
BRANCH  38  63
ATOM     63  C   UNL     1       9.687   1.306  12.158  1.00  0.00     0.058 A 
ATOM     64  C   UNL     1       9.054   1.597  13.377  1.00  0.00     0.135 A 
ATOM     65  C   UNL     1      11.087   1.199  12.155  1.00  0.00     0.135 A 
ATOM     66  F   UNL     1       7.718   1.719  13.432  1.00  0.00    -0.206 F 
ATOM     67  C   UNL     1       9.784   1.800  14.543  1.00  0.00     0.059 A 
ATOM     68  C   UNL     1      11.835   1.370  13.315  1.00  0.00     0.059 A 
ATOM     69  F   UNL     1      11.741   0.914  11.018  1.00  0.00    -0.206 F 
ATOM     70  C   UNL     1      11.174   1.684  14.503  1.00  0.00     0.060 A 
BRANCH  70  71
ATOM     71  S   UNL     1      12.108   1.923  16.029  1.00  0.00     0.124 S 
ATOM     72  O   UNL     1      12.039   3.372  16.191  1.00  0.00    -0.237 OA
ATOM     73  O   UNL     1      11.341   1.140  16.992  1.00  0.00    -0.237 OA
ATOM     74  O   UNL     1      13.428   1.390  15.707  1.00  0.00    -0.744 OA
ENDBRANCH  70  71
ENDBRANCH  38  63
ENDBRANCH  12  13
ENDBRANCH   5   7
ENDBRANCH   2   3
ENDBRANCH   1   2
BRANCH   1  75
ATOM     75  C   UNL     1       4.470  -1.822  -3.475  1.00  0.00     0.023 C 
BRANCH  75  76
ATOM     76  C   UNL     1       4.892  -0.619  -4.314  1.00  0.00     0.116 C 
BRANCH  76  77
ATOM     77  N   UNL     1       6.333  -0.486  -4.417  1.00  0.00    -0.356 N 
ATOM     78  C   UNL     1       7.153  -0.496  -5.511  1.00  0.00     0.223 C 
ATOM     79  H   UNL     1       6.797  -0.370  -3.557  1.00  0.00     0.163 HD
ATOM     80  O   UNL     1       8.353  -0.305  -5.355  1.00  0.00    -0.275 OA
BRANCH  78  81
ATOM     81  C   UNL     1       6.576  -0.748  -6.856  1.00  0.00     0.091 C 
ATOM     82  C   UNL     1       7.144  -1.859  -7.701  1.00  0.00     0.028 C 
ATOM     83  C   UNL     1       7.298  -0.422  -8.146  1.00  0.00     0.092 C 
BRANCH  83  84
ATOM     84  C   UNL     1       8.648   0.200  -8.213  1.00  0.00     0.228 C 
ATOM     85  O   UNL     1       9.658  -0.480  -8.058  1.00  0.00    -0.274 OA
ATOM     86  N   UNL     1       8.765   1.492  -8.670  1.00  0.00    -0.323 N 
ATOM     87  H   UNL     1       9.691   1.792  -8.814  1.00  0.00     0.170 HD
BRANCH  86  88
ATOM     88  C   UNL     1       7.787   2.457  -8.968  1.00  0.00     0.080 A 
ATOM     89  C   UNL     1       6.564   2.557  -8.309  1.00  0.00     0.068 A 
ATOM     90  C   UNL     1       8.077   3.374  -9.989  1.00  0.00     0.146 A 
ATOM     91  C   UNL     1       5.637   3.515  -8.718  1.00  0.00     0.125 A 
ATOM     92  C   UNL     1       7.142   4.318 -10.410  1.00  0.00     0.044 A 
ATOM     93  F   UNL     1       9.257   3.309 -10.626  1.00  0.00    -0.205 F 
ATOM     94  F   UNL     1       4.460   3.600  -8.085  1.00  0.00    -0.207 F 
ATOM     95  C   UNL     1       5.905   4.383  -9.773  1.00  0.00     0.042 A 
ENDBRANCH  86  88
ENDBRANCH  83  84
ENDBRANCH  78  81
ENDBRANCH  76  77
ENDBRANCH  75  76
ENDBRANCH   1  75
TORSDOF 16
