REMARK SMILES O=C(CCc1cccnc1)Nc1cccc(F)c1C(=O)NCCCCNC(=O)c1ccc(-c2c3nc(c(-c4c(F)cc(S(=O)(=O)[O-])cc4F)c4ccc([nH]4)c(-c4c(F)cc(S(=O)(=O)[O-])cc4F)c4nc(c(-c5c(F)cc(S(=O)(=O)[O-])cc5F)c5ccc2[nH]5)C=C4)C=C3)cc1
REMARK SMILES IDX 23 1 22 2 21 3 19 4 20 5 18 7 12 8 13 9 14 10 16 11 15 12
REMARK SMILES IDX 17 13 11 14 1 15 2 16 3 18 4 19 5 20 6 21 10 22 7 23 9 24
REMARK SMILES IDX 8 25 24 26 25 27 26 28 27 29 28 31 29 32 30 33 94 34 31 35
REMARK SMILES IDX 93 36 32 37 33 38 34 39 87 40 35 41 92 42 86 43 88 44 36 45
REMARK SMILES IDX 91 46 85 47 84 48 37 50 71 51 50 52 70 53 51 54 54 55 69 56
REMARK SMILES IDX 89 57 52 58 53 59 68 61 90 62 55 63 38 64 39 65 48 66 40 67
REMARK SMILES IDX 41 68 47 69 49 70 42 71 43 72 44 73 45 74 46 75 72 76 73 77
REMARK SMILES IDX 82 78 74 79 75 80 81 81 83 82 76 83 77 84 78 85 79 86 80 87
REMARK SMILES IDX 56 88 57 89 66 90 58 91 59 92 65 93 67 94 60 95 61 96 62 97
REMARK SMILES IDX 63 98 64 99
REMARK H PARENT 21 6 11 17 26 30 88 49 54 60
REMARK Flexibility Score: inf
ROOT
ATOM      1  C   UNL     1       3.830  -7.117  -1.370  1.00  0.00     0.023 C 
ENDROOT
BRANCH   1   2
ATOM      2  C   UNL     1       3.192  -6.162  -0.354  1.00  0.00     0.116 C 
BRANCH   2   3
ATOM      3  N   UNL     1       3.888  -4.887  -0.377  1.00  0.00    -0.352 N 
ATOM      4  C   UNL     1       3.620  -3.703  -1.011  1.00  0.00     0.256 C 
ATOM      5  O   UNL     1       4.505  -2.844  -1.034  1.00  0.00    -0.269 OA
ATOM      6  H   UNL     1       4.708  -4.871   0.167  1.00  0.00     0.163 HD
BRANCH   4   7
ATOM      7  C   UNL     1       2.309  -3.322  -1.587  1.00  0.00     0.099 A 
ATOM      8  C   UNL     1       1.833  -2.001  -1.368  1.00  0.00     0.056 A 
ATOM      9  C   UNL     1       0.631  -1.599  -1.972  1.00  0.00     0.027 A 
ATOM     10  C   UNL     1      -0.102  -2.477  -2.770  1.00  0.00     0.005 A 
ATOM     11  C   UNL     1       1.569  -4.175  -2.408  1.00  0.00     0.138 A 
ATOM     12  C   UNL     1       0.363  -3.769  -2.979  1.00  0.00     0.040 A 
ATOM     13  F   UNL     1       2.009  -5.397  -2.733  1.00  0.00    -0.206 F 
BRANCH   8  14
ATOM     14  N   UNL     1       2.604  -1.074  -0.611  1.00  0.00    -0.325 N 
ATOM     15  O   UNL     1       0.987   0.450   0.049  1.00  0.00    -0.275 OA
ATOM     16  C   UNL     1       2.163   0.106  -0.050  1.00  0.00     0.224 C 
ATOM     17  H   UNL     1       3.553  -1.299  -0.474  1.00  0.00     0.169 HD
BRANCH  16  18
ATOM     18  C   UNL     1       3.263   1.031   0.439  1.00  0.00     0.105 C 
BRANCH  18  19
ATOM     19  C   UNL     1       3.998   0.534   1.684  1.00  0.00     0.047 C 
BRANCH  19  20
ATOM     20  C   UNL     1       5.148  -0.392   1.392  1.00  0.00    -0.029 A 
ATOM     21  C   UNL     1       6.192  -0.019   0.540  1.00  0.00     0.007 A 
ATOM     22  C   UNL     1       5.218  -1.658   1.968  1.00  0.00     0.114 A 
ATOM     23  C   UNL     1       7.209  -0.924   0.255  1.00  0.00     0.020 A 
ATOM     24  N   UNL     1       6.200  -2.553   1.722  1.00  0.00    -0.264 NA
ATOM     25  C   UNL     1       7.164  -2.170   0.857  1.00  0.00     0.111 A 
ENDBRANCH  19  20
ENDBRANCH  18  19
ENDBRANCH  16  18
ENDBRANCH   8  14
ENDBRANCH   4   7
ENDBRANCH   2   3
ENDBRANCH   1   2
BRANCH   1  26
ATOM     26  C   UNL     1       5.086  -7.835  -0.860  1.00  0.00     0.023 C 
BRANCH  26  27
ATOM     27  C   UNL     1       4.848  -8.844   0.261  1.00  0.00     0.116 C 
BRANCH  27  28
ATOM     28  N   UNL     1       3.893  -9.883  -0.095  1.00  0.00    -0.352 N 
ATOM     29  C   UNL     1       3.893 -11.217   0.240  1.00  0.00     0.251 C 
ATOM     30  H   UNL     1       3.139  -9.589  -0.655  1.00  0.00     0.163 HD
ATOM     31  O   UNL     1       3.056 -11.969  -0.241  1.00  0.00    -0.269 OA
BRANCH  29  32
ATOM     32  C   UNL     1       4.932 -11.742   1.152  1.00  0.00     0.039 A 
ATOM     33  C   UNL     1       5.608 -12.911   0.796  1.00  0.00     0.014 A 
ATOM     34  C   UNL     1       5.251 -11.078   2.339  1.00  0.00     0.014 A 
ATOM     35  C   UNL     1       6.654 -13.375   1.596  1.00  0.00     0.010 A 
ATOM     36  C   UNL     1       6.338 -11.502   3.099  1.00  0.00     0.010 A 
ATOM     37  C   UNL     1       7.053 -12.652   2.732  1.00  0.00    -0.014 A 
BRANCH  37  38
ATOM     38  C   UNL     1       8.229 -13.075   3.535  1.00  0.00     0.031 A 
ATOM     39  C   UNL     1       8.058 -13.502   4.967  1.00  0.00     0.074 A 
ATOM     40  C   UNL     1       9.460 -13.020   2.988  1.00  0.00     0.049 A 
ATOM     41  N   UNL     1       8.969 -13.857   5.835  1.00  0.00    -0.248 NA
ATOM     42  C   UNL     1       6.686 -13.509   5.500  1.00  0.00     0.031 C 
ATOM     43  C   UNL     1       9.758 -12.575   1.624  1.00  0.00     0.029 A 
ATOM     44  N   UNL     1      10.690 -13.337   3.508  1.00  0.00    -0.354 N 
ATOM     45  C   UNL     1       8.285 -14.122   7.016  1.00  0.00     0.074 A 
ATOM     46  C   UNL     1       6.890 -13.832   6.770  1.00  0.00     0.031 C 
ATOM     47  C   UNL     1      11.078 -12.680   1.405  1.00  0.00     0.029 A 
ATOM     48  C   UNL     1      11.726 -13.162   2.621  1.00  0.00     0.049 A 
ATOM     49  H   UNL     1      10.818 -13.659   4.429  1.00  0.00     0.167 HD
ATOM     50  C   UNL     1       8.773 -14.591   8.188  1.00  0.00     0.037 A 
ATOM     51  C   UNL     1      13.050 -13.366   2.769  1.00  0.00     0.037 A 
ATOM     52  C   UNL     1      10.160 -14.901   8.418  1.00  0.00     0.049 A 
ATOM     53  C   UNL     1      13.569 -13.882   4.082  1.00  0.00     0.074 A 
ATOM     54  C   UNL     1      10.745 -15.431   9.554  1.00  0.00     0.029 A 
ATOM     55  N   UNL     1      11.179 -14.712   7.495  1.00  0.00    -0.354 N 
ATOM     56  N   UNL     1      12.901 -14.177   5.172  1.00  0.00    -0.248 NA
ATOM     57  C   UNL     1      15.019 -14.097   4.188  1.00  0.00     0.031 C 
ATOM     58  C   UNL     1      12.123 -15.523   9.335  1.00  0.00     0.029 A 
ATOM     59  C   UNL     1      12.392 -15.096   8.044  1.00  0.00     0.049 A 
ATOM     60  H   UNL     1      11.058 -14.357   6.585  1.00  0.00     0.167 HD
ATOM     61  C   UNL     1      13.845 -14.628   6.087  1.00  0.00     0.074 A 
ATOM     62  C   UNL     1      15.130 -14.582   5.418  1.00  0.00     0.031 C 
ATOM     63  C   UNL     1      13.664 -15.042   7.366  1.00  0.00     0.037 A 
BRANCH  50  64
ATOM     64  C   UNL     1       7.798 -14.816   9.312  1.00  0.00     0.058 A 
ATOM     65  C   UNL     1       7.833 -14.013  10.463  1.00  0.00     0.135 A 
ATOM     66  C   UNL     1       6.861 -15.862   9.272  1.00  0.00     0.135 A 
ATOM     67  F   UNL     1       8.704 -12.996  10.554  1.00  0.00    -0.206 F 
ATOM     68  C   UNL     1       6.981 -14.246  11.539  1.00  0.00     0.059 A 
ATOM     69  C   UNL     1       5.981 -16.096  10.324  1.00  0.00     0.059 A 
ATOM     70  F   UNL     1       6.771 -16.646   8.186  1.00  0.00    -0.206 F 
ATOM     71  C   UNL     1       6.058 -15.290  11.460  1.00  0.00     0.060 A 
BRANCH  71  72
ATOM     72  S   UNL     1       4.934 -15.556  12.847  1.00  0.00     0.124 S 
ATOM     73  O   UNL     1       5.835 -16.081  13.867  1.00  0.00    -0.237 OA
ATOM     74  O   UNL     1       4.416 -14.212  13.084  1.00  0.00    -0.237 OA
ATOM     75  O   UNL     1       3.961 -16.507  12.316  1.00  0.00    -0.744 OA
ENDBRANCH  71  72
ENDBRANCH  50  64
BRANCH  51  76
ATOM     76  C   UNL     1      13.964 -13.117   1.623  1.00  0.00     0.058 A 
ATOM     77  C   UNL     1      14.225 -11.817   1.163  1.00  0.00     0.135 A 
ATOM     78  C   UNL     1      14.556 -14.185   0.932  1.00  0.00     0.135 A 
ATOM     79  F   UNL     1      13.675 -10.761   1.783  1.00  0.00    -0.206 F 
ATOM     80  C   UNL     1      15.015 -11.586   0.043  1.00  0.00     0.059 A 
ATOM     81  C   UNL     1      15.371 -13.979  -0.178  1.00  0.00     0.059 A 
ATOM     82  F   UNL     1      14.346 -15.446   1.342  1.00  0.00    -0.206 F 
ATOM     83  C   UNL     1      15.578 -12.675  -0.626  1.00  0.00     0.060 A 
BRANCH  83  84
ATOM     84  S   UNL     1      16.576 -12.355  -2.097  1.00  0.00     0.124 S 
ATOM     85  O   UNL     1      15.562 -11.896  -3.042  1.00  0.00    -0.237 OA
ATOM     86  O   UNL     1      17.506 -11.336  -1.619  1.00  0.00    -0.237 OA
ATOM     87  O   UNL     1      17.169 -13.655  -2.393  1.00  0.00    -0.744 OA
ENDBRANCH  83  84
ENDBRANCH  51  76
BRANCH  63  88
ATOM     88  C   UNL     1      14.877 -15.491   8.132  1.00  0.00     0.058 A 
ATOM     89  C   UNL     1      15.054 -16.845   8.457  1.00  0.00     0.135 A 
ATOM     90  C   UNL     1      15.825 -14.572   8.610  1.00  0.00     0.135 A 
ATOM     91  F   UNL     1      14.174 -17.765   8.030  1.00  0.00    -0.206 F 
ATOM     92  C   UNL     1      16.117 -17.271   9.245  1.00  0.00     0.059 A 
ATOM     93  C   UNL     1      16.912 -14.979   9.377  1.00  0.00     0.059 A 
ATOM     94  F   UNL     1      15.707 -13.267   8.316  1.00  0.00    -0.206 F 
ATOM     95  C   UNL     1      17.040 -16.329   9.704  1.00  0.00     0.060 A 
BRANCH  95  96
ATOM     96  S   UNL     1      18.421 -16.901  10.715  1.00  0.00     0.124 S 
ATOM     97  O   UNL     1      17.755 -17.237  11.969  1.00  0.00    -0.237 OA
ATOM     98  O   UNL     1      18.924 -18.032   9.941  1.00  0.00    -0.237 OA
ATOM     99  O   UNL     1      19.307 -15.742  10.765  1.00  0.00    -0.744 OA
ENDBRANCH  95  96
ENDBRANCH  63  88
ENDBRANCH  37  38
ENDBRANCH  29  32
ENDBRANCH  27  28
ENDBRANCH  26  27
ENDBRANCH   1  26
TORSDOF 18
