REMARK SMILES CC1(C)CCC(CCCO)(C(=O)NCCCCNC(=O)c2ccc(-c3c4nc(c(-c5c(F)cc(S(=O)(=O)[O-])cc5F)c5ccc([nH]5)c(-c5c(F)cc(S(=O)(=O)[O-])cc5F)c5nc(c(-c6c(F)cc(S(=O)(=O)[O-])cc6F)c6ccc3[nH]6)C=C5)C=C4)cc2)CC1
REMARK SMILES IDX 15 1 14 2 13 3 11 4 12 5 6 7 1 8 2 9 3 10 4 11 88 12 5 13
REMARK SMILES IDX 87 14 7 15 8 16 9 17 10 18 16 20 17 21 18 22 19 23 20 25
REMARK SMILES IDX 21 26 22 27 86 28 23 29 85 30 24 31 25 32 26 33 79 34 27 35
REMARK SMILES IDX 84 36 78 37 80 38 28 39 83 40 77 41 76 42 29 44 63 45 42 46
REMARK SMILES IDX 62 47 43 48 46 49 61 50 81 51 44 52 45 53 60 55 82 56 47 57
REMARK SMILES IDX 30 58 31 59 40 60 32 61 33 62 39 63 41 64 34 65 35 66 36 67
REMARK SMILES IDX 37 68 38 69 64 70 65 71 74 72 66 73 67 74 73 75 75 76 68 77
REMARK SMILES IDX 69 78 70 79 71 80 72 81 48 82 49 83 58 84 50 85 51 86 57 87
REMARK SMILES IDX 59 88 52 89 53 90 54 91 55 92 56 93
REMARK H PARENT 13 6 10 19 18 24 80 43 46 54
REMARK Flexibility Score: inf
ROOT
ATOM      1  C   UNL     1       2.043   6.854  -0.481  1.00  0.00     0.023 C 
ENDROOT
BRANCH   1   2
ATOM      2  C   UNL     1       1.624   6.013   0.719  1.00  0.00     0.116 C 
BRANCH   2   3
ATOM      3  N   UNL     1       0.301   5.433   0.587  1.00  0.00    -0.356 N 
ATOM      4  C   UNL     1      -0.280   4.304   1.072  1.00  0.00     0.226 C 
ATOM      5  O   UNL     1      -1.518   4.316   1.058  1.00  0.00    -0.274 OA
ATOM      6  H   UNL     1      -0.305   5.971   0.028  1.00  0.00     0.163 HD
BRANCH   4   7
ATOM      7  C   UNL     1       0.481   3.097   1.679  1.00  0.00     0.049 C 
ATOM      8  C   UNL     1       1.320  -0.134  -0.300  1.00  0.00     0.011 C 
ATOM      9  C   UNL     1       0.631   1.179  -0.724  1.00  0.00    -0.035 C 
ATOM     10  C   UNL     1       0.280   1.063  -2.219  1.00  0.00     0.011 C 
ATOM     11  C   UNL     1      -0.670   1.391   0.078  1.00  0.00     0.007 C 
ATOM     12  C   UNL     1       1.586   2.375  -0.512  1.00  0.00     0.007 C 
ATOM     13  C   UNL     1      -0.445   1.834   1.529  1.00  0.00     0.017 C 
ATOM     14  C   UNL     1       1.796   2.704   0.970  1.00  0.00     0.017 C 
BRANCH   7  15
ATOM     15  C   UNL     1       0.684   3.270   3.216  1.00  0.00     0.019 C 
BRANCH  15  16
ATOM     16  C   UNL     1       1.253   4.582   3.770  1.00  0.00     0.029 C 
BRANCH  16  17
ATOM     17  C   UNL     1       0.227   5.692   4.010  1.00  0.00     0.156 C 
BRANCH  17  18
ATOM     18  O   UNL     1      -0.828   5.234   4.843  1.00  0.00    -0.396 OA
ATOM     19  H   UNL     1      -1.280   4.492   4.413  1.00  0.00     0.210 HD
ENDBRANCH  17  18
ENDBRANCH  16  17
ENDBRANCH  15  16
ENDBRANCH   7  15
ENDBRANCH   4   7
ENDBRANCH   2   3
ENDBRANCH   1   2
BRANCH   1  20
ATOM     20  C   UNL     1       1.206   8.110  -0.725  1.00  0.00     0.023 C 
BRANCH  20  21
ATOM     21  C   UNL     1       0.954   8.989   0.497  1.00  0.00     0.116 C 
BRANCH  21  22
ATOM     22  N   UNL     1       2.177   9.427   1.155  1.00  0.00    -0.352 N 
ATOM     23  C   UNL     1       2.623  10.702   1.418  1.00  0.00     0.251 C 
ATOM     24  H   UNL     1       2.773   8.704   1.456  1.00  0.00     0.163 HD
ATOM     25  O   UNL     1       3.741  10.876   1.887  1.00  0.00    -0.269 OA
BRANCH  23  26
ATOM     26  C   UNL     1       1.762  11.858   1.088  1.00  0.00     0.039 A 
ATOM     27  C   UNL     1       2.295  12.895   0.319  1.00  0.00     0.014 A 
ATOM     28  C   UNL     1       0.424  11.889   1.488  1.00  0.00     0.014 A 
ATOM     29  C   UNL     1       1.457  13.914  -0.136  1.00  0.00     0.010 A 
ATOM     30  C   UNL     1      -0.424  12.864   0.973  1.00  0.00     0.010 A 
ATOM     31  C   UNL     1       0.080  13.876   0.141  1.00  0.00    -0.014 A 
BRANCH  31  32
ATOM     32  C   UNL     1      -0.856  14.853  -0.472  1.00  0.00     0.031 A 
ATOM     33  C   UNL     1      -1.639  15.803   0.389  1.00  0.00     0.074 A 
ATOM     34  C   UNL     1      -1.061  14.823  -1.804  1.00  0.00     0.049 A 
ATOM     35  N   UNL     1      -2.545  16.678   0.037  1.00  0.00    -0.248 NA
ATOM     36  C   UNL     1      -1.390  15.742   1.837  1.00  0.00     0.031 C 
ATOM     37  C   UNL     1      -0.404  13.909  -2.741  1.00  0.00     0.029 A 
ATOM     38  N   UNL     1      -1.888  15.574  -2.601  1.00  0.00    -0.354 N 
ATOM     39  C   UNL     1      -2.987  17.260   1.218  1.00  0.00     0.074 A 
ATOM     40  C   UNL     1      -2.284  16.603   2.300  1.00  0.00     0.031 C 
ATOM     41  C   UNL     1      -0.830  14.173  -3.986  1.00  0.00     0.029 A 
ATOM     42  C   UNL     1      -1.819  15.245  -3.934  1.00  0.00     0.049 A 
ATOM     43  H   UNL     1      -2.477  16.282  -2.251  1.00  0.00     0.167 HD
ATOM     44  C   UNL     1      -3.882  18.264   1.385  1.00  0.00     0.037 A 
ATOM     45  C   UNL     1      -2.479  15.746  -4.996  1.00  0.00     0.037 A 
ATOM     46  C   UNL     1      -4.563  18.927   0.304  1.00  0.00     0.049 A 
ATOM     47  C   UNL     1      -3.473  16.854  -4.788  1.00  0.00     0.074 A 
ATOM     48  C   UNL     1      -5.426  20.007   0.363  1.00  0.00     0.029 A 
ATOM     49  N   UNL     1      -4.468  18.565  -1.032  1.00  0.00    -0.354 N 
ATOM     50  N   UNL     1      -3.821  17.447  -3.671  1.00  0.00    -0.248 NA
ATOM     51  C   UNL     1      -4.163  17.360  -5.981  1.00  0.00     0.031 C 
ATOM     52  C   UNL     1      -5.886  20.271  -0.932  1.00  0.00     0.029 A 
ATOM     53  C   UNL     1      -5.279  19.381  -1.804  1.00  0.00     0.049 A 
ATOM     54  H   UNL     1      -3.906  17.835  -1.381  1.00  0.00     0.167 HD
ATOM     55  C   UNL     1      -4.761  18.407  -4.028  1.00  0.00     0.074 A 
ATOM     56  C   UNL     1      -4.916  18.324  -5.467  1.00  0.00     0.031 C 
ATOM     57  C   UNL     1      -5.433  19.279  -3.235  1.00  0.00     0.037 A 
BRANCH  44  58
ATOM     58  C   UNL     1      -4.173  18.697   2.796  1.00  0.00     0.058 A 
ATOM     59  C   UNL     1      -3.220  19.380   3.569  1.00  0.00     0.135 A 
ATOM     60  C   UNL     1      -5.417  18.421   3.386  1.00  0.00     0.135 A 
ATOM     61  F   UNL     1      -2.009  19.658   3.058  1.00  0.00    -0.206 F 
ATOM     62  C   UNL     1      -3.471  19.731   4.891  1.00  0.00     0.059 A 
ATOM     63  C   UNL     1      -5.700  18.787   4.699  1.00  0.00     0.059 A 
ATOM     64  F   UNL     1      -6.366  17.773   2.692  1.00  0.00    -0.206 F 
ATOM     65  C   UNL     1      -4.711  19.421   5.450  1.00  0.00     0.060 A 
BRANCH  65  66
ATOM     66  S   UNL     1      -5.012  19.851   7.178  1.00  0.00     0.124 S 
ATOM     67  O   UNL     1      -4.249  18.817   7.870  1.00  0.00    -0.237 OA
ATOM     68  O   UNL     1      -4.469  21.203   7.265  1.00  0.00    -0.237 OA
ATOM     69  O   UNL     1      -6.463  19.752   7.304  1.00  0.00    -0.744 OA
ENDBRANCH  65  66
ENDBRANCH  44  58
BRANCH  45  70
ATOM     70  C   UNL     1      -2.187  15.222  -6.356  1.00  0.00     0.058 A 
ATOM     71  C   UNL     1      -1.443  15.982  -7.269  1.00  0.00     0.135 A 
ATOM     72  C   UNL     1      -2.598  13.940  -6.750  1.00  0.00     0.135 A 
ATOM     73  F   UNL     1      -1.035  17.217  -6.939  1.00  0.00    -0.206 F 
ATOM     74  C   UNL     1      -1.111  15.489  -8.526  1.00  0.00     0.059 A 
ATOM     75  C   UNL     1      -2.261  13.417  -7.995  1.00  0.00     0.059 A 
ATOM     76  F   UNL     1      -3.300  13.168  -5.906  1.00  0.00    -0.206 F 
ATOM     77  C   UNL     1      -1.518  14.200  -8.877  1.00  0.00     0.060 A 
BRANCH  77  78
ATOM     78  S   UNL     1      -1.006  13.538 -10.478  1.00  0.00     0.124 S 
ATOM     79  O   UNL     1      -1.870  14.274 -11.392  1.00  0.00    -0.237 OA
ATOM     80  O   UNL     1       0.411  13.888 -10.515  1.00  0.00    -0.237 OA
ATOM     81  O   UNL     1      -1.286  12.110 -10.354  1.00  0.00    -0.744 OA
ENDBRANCH  77  78
ENDBRANCH  45  70
BRANCH  57  82
ATOM     82  C   UNL     1      -6.394  20.219  -3.906  1.00  0.00     0.058 A 
ATOM     83  C   UNL     1      -7.636  19.777  -4.389  1.00  0.00     0.135 A 
ATOM     84  C   UNL     1      -6.093  21.585  -4.024  1.00  0.00     0.135 A 
ATOM     85  F   UNL     1      -7.968  18.478  -4.309  1.00  0.00    -0.206 F 
ATOM     86  C   UNL     1      -8.539  20.654  -4.981  1.00  0.00     0.059 A 
ATOM     87  C   UNL     1      -6.991  22.484  -4.590  1.00  0.00     0.059 A 
ATOM     88  F   UNL     1      -4.922  22.061  -3.571  1.00  0.00    -0.206 F 
ATOM     89  C   UNL     1      -8.208  22.007  -5.075  1.00  0.00     0.060 A 
BRANCH  89  90
ATOM     90  S   UNL     1      -9.404  23.142  -5.811  1.00  0.00     0.124 S 
ATOM     91  O   UNL     1      -9.269  22.831  -7.230  1.00  0.00    -0.237 OA
ATOM     92  O   UNL     1     -10.656  22.727  -5.187  1.00  0.00    -0.237 OA
ATOM     93  O   UNL     1      -8.916  24.457  -5.407  1.00  0.00    -0.744 OA
ENDBRANCH  89  90
ENDBRANCH  57  82
ENDBRANCH  31  32
ENDBRANCH  23  26
ENDBRANCH  21  22
ENDBRANCH  20  21
ENDBRANCH   1  20
TORSDOF 18
