REMARK SMILES O=C(NCCCCNC(=O)C1CCN(c2ccnnc2)CC1)c1ccc(-c2c3nc(c(-c4c(F)cc(S(=O)(=O)[O-])cc4F)c4ccc([nH]4)c(-c4c(F)cc(S(=O)(=O)[O-])cc4F)c4nc(c(-c5c(F)cc(S(=O)(=O)[O-])cc5F)c5ccc2[nH]5)C=C4)C=C3)cc1
REMARK SMILES IDX 4 1 3 2 1 3 2 4 23 6 24 7 88 8 25 9 87 10 26 11 27 12 28 13
REMARK SMILES IDX 81 14 29 15 86 16 80 17 82 18 30 19 85 20 79 21 78 22 31 24
REMARK SMILES IDX 65 25 44 26 64 27 45 28 48 29 63 30 83 31 46 32 47 33 62 35
REMARK SMILES IDX 84 36 49 37 32 38 33 39 42 40 34 41 35 42 41 43 43 44 36 45
REMARK SMILES IDX 37 46 38 47 39 48 40 49 66 50 67 51 76 52 68 53 69 54 75 55
REMARK SMILES IDX 77 56 70 57 71 58 72 59 73 60 74 61 50 62 51 63 60 64 52 65
REMARK SMILES IDX 53 66 59 67 61 68 54 69 55 70 56 71 57 72 58 73 5 74 6 75
REMARK SMILES IDX 7 76 8 77 9 78 10 80 11 81 12 82 22 83 13 84 21 85 14 86
REMARK SMILES IDX 15 87 16 88 20 89 17 90 19 91 18 92
REMARK H PARENT 3 5 82 23 48 34 8 79
REMARK Flexibility Score: inf
ROOT
ATOM      1  C   UNL     1       4.612  -0.514  -1.329  1.00  0.00     0.116 C 
ENDROOT
BRANCH   1   2
ATOM      2  N   UNL     1       3.192  -0.235  -1.189  1.00  0.00    -0.352 N 
ATOM      3  O   UNL     1       1.238   0.067  -0.108  1.00  0.00    -0.269 OA
ATOM      4  C   UNL     1       2.461  -0.024  -0.044  1.00  0.00     0.251 C 
ATOM      5  H   UNL     1       2.684  -0.190  -2.031  1.00  0.00     0.163 HD
BRANCH   4   6
ATOM      6  C   UNL     1       3.149   0.063   1.263  1.00  0.00     0.039 A 
ATOM      7  C   UNL     1       4.298   0.842   1.415  1.00  0.00     0.014 A 
ATOM      8  C   UNL     1       2.635  -0.649   2.351  1.00  0.00     0.014 A 
ATOM      9  C   UNL     1       5.006   0.803   2.612  1.00  0.00     0.010 A 
ATOM     10  C   UNL     1       3.307  -0.627   3.577  1.00  0.00     0.010 A 
ATOM     11  C   UNL     1       4.514   0.076   3.709  1.00  0.00    -0.014 A 
BRANCH  11  12
ATOM     12  C   UNL     1       5.249   0.119   4.999  1.00  0.00     0.031 A 
ATOM     13  C   UNL     1       5.900  -1.111   5.568  1.00  0.00     0.074 A 
ATOM     14  C   UNL     1       5.341   1.296   5.648  1.00  0.00     0.049 A 
ATOM     15  N   UNL     1       6.593  -1.238   6.671  1.00  0.00    -0.248 NA
ATOM     16  C   UNL     1       5.752  -2.361   4.808  1.00  0.00     0.031 C 
ATOM     17  C   UNL     1       4.731   2.552   5.201  1.00  0.00     0.029 A 
ATOM     18  N   UNL     1       5.989   1.637   6.806  1.00  0.00    -0.354 N 
ATOM     19  C   UNL     1       6.946  -2.579   6.751  1.00  0.00     0.074 A 
ATOM     20  C   UNL     1       6.375  -3.232   5.592  1.00  0.00     0.031 C 
ATOM     21  C   UNL     1       5.065   3.531   6.053  1.00  0.00     0.029 A 
ATOM     22  C   UNL     1       5.867   2.966   7.133  1.00  0.00     0.049 A 
ATOM     23  H   UNL     1       6.494   0.991   7.352  1.00  0.00     0.167 HD
ATOM     24  C   UNL     1       7.682  -3.205   7.701  1.00  0.00     0.037 A 
ATOM     25  C   UNL     1       6.335   3.655   8.190  1.00  0.00     0.037 A 
ATOM     26  C   UNL     1       8.264  -2.543   8.842  1.00  0.00     0.049 A 
ATOM     27  C   UNL     1       7.152   2.940   9.225  1.00  0.00     0.074 A 
ATOM     28  C   UNL     1       9.064  -3.082   9.835  1.00  0.00     0.029 A 
ATOM     29  N   UNL     1       8.108  -1.198   9.145  1.00  0.00    -0.354 N 
ATOM     30  N   UNL     1       7.503   1.677   9.264  1.00  0.00    -0.248 NA
ATOM     31  C   UNL     1       7.633   3.738  10.359  1.00  0.00     0.031 C 
ATOM     32  C   UNL     1       9.360  -2.072  10.758  1.00  0.00     0.029 A 
ATOM     33  C   UNL     1       8.778  -0.894  10.319  1.00  0.00     0.049 A 
ATOM     34  H   UNL     1       7.595  -0.553   8.605  1.00  0.00     0.167 HD
ATOM     35  C   UNL     1       8.254   1.530  10.424  1.00  0.00     0.074 A 
ATOM     36  C   UNL     1       8.322   2.837  11.046  1.00  0.00     0.031 C 
ATOM     37  C   UNL     1       8.831   0.411  10.928  1.00  0.00     0.037 A 
BRANCH  24  38
ATOM     38  C   UNL     1       7.894  -4.687   7.561  1.00  0.00     0.058 A 
ATOM     39  C   UNL     1       8.773  -5.221   6.606  1.00  0.00     0.135 A 
ATOM     40  C   UNL     1       7.247  -5.583   8.429  1.00  0.00     0.135 A 
ATOM     41  F   UNL     1       9.406  -4.412   5.744  1.00  0.00    -0.206 F 
ATOM     42  C   UNL     1       8.987  -6.593   6.501  1.00  0.00     0.059 A 
ATOM     43  C   UNL     1       7.462  -6.957   8.356  1.00  0.00     0.059 A 
ATOM     44  F   UNL     1       6.397  -5.126   9.361  1.00  0.00    -0.206 F 
ATOM     45  C   UNL     1       8.325  -7.453   7.380  1.00  0.00     0.060 A 
BRANCH  45  46
ATOM     46  S   UNL     1       8.615  -9.229   7.234  1.00  0.00     0.124 S 
ATOM     47  O   UNL     1       7.844  -9.552   6.038  1.00  0.00    -0.237 OA
ATOM     48  O   UNL     1      10.066  -9.300   7.090  1.00  0.00    -0.237 OA
ATOM     49  O   UNL     1       8.087  -9.764   8.486  1.00  0.00    -0.744 OA
ENDBRANCH  45  46
ENDBRANCH  24  38
BRANCH  25  50
ATOM     50  C   UNL     1       6.032   5.104   8.308  1.00  0.00     0.058 A 
ATOM     51  C   UNL     1       7.025   6.070   8.094  1.00  0.00     0.135 A 
ATOM     52  C   UNL     1       4.730   5.550   8.586  1.00  0.00     0.135 A 
ATOM     53  F   UNL     1       8.284   5.691   7.829  1.00  0.00    -0.206 F 
ATOM     54  C   UNL     1       6.739   7.430   8.153  1.00  0.00     0.059 A 
ATOM     55  C   UNL     1       4.415   6.903   8.626  1.00  0.00     0.059 A 
ATOM     56  F   UNL     1       3.743   4.662   8.779  1.00  0.00    -0.206 F 
ATOM     57  C   UNL     1       5.429   7.837   8.414  1.00  0.00     0.060 A 
BRANCH  57  58
ATOM     58  S   UNL     1       5.049   9.602   8.413  1.00  0.00     0.124 S 
ATOM     59  O   UNL     1       5.571  10.014   9.710  1.00  0.00    -0.237 OA
ATOM     60  O   UNL     1       5.787  10.076   7.246  1.00  0.00    -0.237 OA
ATOM     61  O   UNL     1       3.596   9.630   8.277  1.00  0.00    -0.744 OA
ENDBRANCH  57  58
ENDBRANCH  25  50
BRANCH  37  62
ATOM     62  C   UNL     1       9.596   0.558  12.212  1.00  0.00     0.058 A 
ATOM     63  C   UNL     1       8.940   0.707  13.443  1.00  0.00     0.135 A 
ATOM     64  C   UNL     1      10.999   0.516  12.214  1.00  0.00     0.135 A 
ATOM     65  F   UNL     1       7.600   0.762  13.492  1.00  0.00    -0.206 F 
ATOM     66  C   UNL     1       9.650   0.832  14.632  1.00  0.00     0.059 A 
ATOM     67  C   UNL     1      11.729   0.616  13.394  1.00  0.00     0.059 A 
ATOM     68  F   UNL     1      11.673   0.368  11.062  1.00  0.00    -0.206 F 
ATOM     69  C   UNL     1      11.045   0.787  14.597  1.00  0.00     0.060 A 
BRANCH  69  70
ATOM     70  S   UNL     1      11.957   0.924  16.149  1.00  0.00     0.124 S 
ATOM     71  O   UNL     1      11.873   2.356  16.413  1.00  0.00    -0.237 OA
ATOM     72  O   UNL     1      11.186   0.068  17.045  1.00  0.00    -0.237 OA
ATOM     73  O   UNL     1      13.286   0.424  15.805  1.00  0.00    -0.744 OA
ENDBRANCH  69  70
ENDBRANCH  37  62
ENDBRANCH  11  12
ENDBRANCH   4   6
ENDBRANCH   1   2
BRANCH   1  74
ATOM     74  C   UNL     1       4.898  -1.712  -2.228  1.00  0.00     0.023 C 
BRANCH  74  75
ATOM     75  C   UNL     1       4.404  -1.587  -3.670  1.00  0.00     0.023 C 
BRANCH  75  76
ATOM     76  C   UNL     1       4.857  -0.329  -4.405  1.00  0.00     0.116 C 
BRANCH  76  77
ATOM     77  N   UNL     1       6.304  -0.233  -4.486  1.00  0.00    -0.356 N 
ATOM     78  C   UNL     1       7.131  -0.125  -5.560  1.00  0.00     0.223 C 
ATOM     79  H   UNL     1       6.764  -0.249  -3.616  1.00  0.00     0.163 HD
ATOM     80  O   UNL     1       8.339  -0.012  -5.347  1.00  0.00    -0.275 OA
BRANCH  78  81
ATOM     81  C   UNL     1       6.567  -0.180  -6.972  1.00  0.00     0.082 C 
ATOM     82  C   UNL     1       6.746  -1.588  -7.561  1.00  0.00     0.035 C 
ATOM     83  C   UNL     1       7.189   0.922  -7.843  1.00  0.00     0.035 C 
ATOM     84  C   UNL     1       8.158  -1.837  -8.087  1.00  0.00     0.117 C 
ATOM     85  C   UNL     1       8.589   0.586  -8.354  1.00  0.00     0.117 C 
ATOM     86  N   UNL     1       8.544  -0.737  -8.966  1.00  0.00    -0.370 N 
BRANCH  86  87
ATOM     87  C   UNL     1       8.986  -0.958 -10.251  1.00  0.00     0.059 A 
ATOM     88  C   UNL     1      10.131  -0.350 -10.755  1.00  0.00     0.049 A 
ATOM     89  C   UNL     1       8.314  -1.786 -11.145  1.00  0.00     0.161 A 
ATOM     90  C   UNL     1      10.512  -0.601 -12.061  1.00  0.00     0.138 A 
ATOM     91  N   UNL     1       8.698  -2.007 -12.426  1.00  0.00    -0.157 NA
ATOM     92  N   UNL     1       9.815  -1.405 -12.889  1.00  0.00    -0.159 NA
ENDBRANCH  86  87
ENDBRANCH  78  81
ENDBRANCH  76  77
ENDBRANCH  75  76
ENDBRANCH  74  75
ENDBRANCH   1  74
TORSDOF 15
