REMARK SMILES Cc1cccc(N2CCN(c3ncc(NC(=O)c4ccccc4F)cc3C(=O)NCCCCNC(=O)c3ccc(-c4c5nc(c(-c6c(F)cc(S(=O)(=O)[O-])cc6F)c6ccc([nH]6)c(-c6c(F)cc(S(=O)(=O)[O-])cc6F)c6nc(c(-c7c(F)cc(S(=O)(=O)[O-])cc7F)c7ccc4[nH]7)C=C6)C=C5)cc3)C[C@@H]2C)c1
REMARK SMILES IDX 32 1 31 2 30 3 29 4 27 5 28 6 26 8 11 9 12 10 13 11 25 12
REMARK SMILES IDX 14 13 10 14 7 15 8 16 104 17 9 18 103 19 105 20 6 21 1 22
REMARK SMILES IDX 2 23 3 24 106 25 4 26 5 27 15 28 16 29 17 31 18 32 19 33
REMARK SMILES IDX 23 34 20 35 22 36 24 37 21 38 33 39 34 40 35 41 36 43 37 44
REMARK SMILES IDX 38 45 102 46 39 47 101 48 40 49 41 50 42 51 95 52 43 53
REMARK SMILES IDX 100 54 94 55 96 56 44 57 99 58 93 59 92 60 45 62 79 63 58 64
REMARK SMILES IDX 78 65 59 66 62 67 77 68 97 69 60 70 61 71 76 73 98 74 63 75
REMARK SMILES IDX 46 76 47 77 56 78 48 79 49 80 55 81 57 82 50 83 51 84 52 85
REMARK SMILES IDX 53 86 54 87 80 88 81 89 90 90 82 91 83 92 89 93 91 94 84 95
REMARK SMILES IDX 85 96 86 97 87 98 88 99 64 100 65 101 74 102 66 103 67 104
REMARK SMILES IDX 73 105 75 106 68 107 69 108 70 109 71 110 72 111
REMARK H PARENT 29 7 15 30 34 42 96 61 62 72
REMARK Flexibility Score: inf
ROOT
ATOM      1  C   UNL     1      -6.120   7.473  -4.605  1.00  0.00     0.023 C 
ENDROOT
BRANCH   1   2
ATOM      2  C   UNL     1      -6.806   7.663  -3.245  1.00  0.00     0.023 C 
BRANCH   2   3
ATOM      3  C   UNL     1      -7.032   6.364  -2.442  1.00  0.00     0.116 C 
BRANCH   3   4
ATOM      4  N   UNL     1      -5.785   5.649  -2.222  1.00  0.00    -0.352 N 
ATOM      5  C   UNL     1      -4.700   6.060  -1.481  1.00  0.00     0.255 C 
ATOM      6  O   UNL     1      -3.607   6.065  -2.041  1.00  0.00    -0.269 OA
ATOM      7  H   UNL     1      -5.707   4.767  -2.653  1.00  0.00     0.163 HD
BRANCH   5   8
ATOM      8  C   UNL     1      -4.836   6.473  -0.063  1.00  0.00     0.084 A 
ATOM      9  C   UNL     1      -4.098   5.865   0.976  1.00  0.00     0.141 A 
ATOM     10  N   UNL     1      -4.255   6.285   2.265  1.00  0.00    -0.236 NA
ATOM     11  C   UNL     1      -5.133   7.283   2.535  1.00  0.00     0.139 A 
ATOM     12  C   UNL     1      -5.736   7.495   0.260  1.00  0.00     0.045 A 
ATOM     13  C   UNL     1      -5.904   7.909   1.572  1.00  0.00     0.060 A 
BRANCH   9  14
ATOM     14  N   UNL     1      -3.306   4.746   0.797  1.00  0.00    -0.352 N 
ATOM     15  N   UNL     1      -1.752   2.366   0.464  1.00  0.00    -0.365 N 
ATOM     16  C   UNL     1      -2.958   2.357   1.318  1.00  0.00     0.138 C 
ATOM     17  C   UNL     1      -1.692   3.433  -0.576  1.00  0.00     0.098 C 
ATOM     18  C   UNL     1      -3.260   3.760   1.890  1.00  0.00     0.139 C 
ATOM     19  C   UNL     1      -2.028   4.817   0.064  1.00  0.00     0.142 C 
ATOM     20  C   UNL     1      -2.635   3.099  -1.740  1.00  0.00     0.033 C 
BRANCH  15  21
ATOM     21  C   UNL     1      -1.080   1.173   0.230  1.00  0.00     0.037 A 
ATOM     22  C   UNL     1       2.537  -0.016  -0.135  1.00  0.00     0.044 C 
ATOM     23  C   UNL     1       1.039  -0.025  -0.073  1.00  0.00    -0.049 A 
ATOM     24  C   UNL     1       0.346  -1.236  -0.148  1.00  0.00     0.003 A 
ATOM     25  C   UNL     1       0.318   1.166   0.103  1.00  0.00     0.029 A 
ATOM     26  C   UNL     1      -1.043  -1.251  -0.051  1.00  0.00     0.002 A 
ATOM     27  C   UNL     1      -1.744  -0.058   0.143  1.00  0.00     0.026 A 
ENDBRANCH  15  21
ENDBRANCH   9  14
BRANCH  13  28
ATOM     28  N   UNL     1      -6.871   8.895   1.825  1.00  0.00    -0.320 N 
ATOM     29  C   UNL     1      -6.928   9.849   2.810  1.00  0.00     0.258 C 
ATOM     30  H   UNL     1      -7.628   8.903   1.195  1.00  0.00     0.170 HD
ATOM     31  O   UNL     1      -8.002  10.371   3.103  1.00  0.00    -0.269 OA
BRANCH  29  32
ATOM     32  C   UNL     1      -5.700  10.352   3.461  1.00  0.00     0.075 A 
ATOM     33  C   UNL     1      -5.776  10.766   4.797  1.00  0.00     0.017 A 
ATOM     34  C   UNL     1      -4.509  10.541   2.757  1.00  0.00     0.135 A 
ATOM     35  C   UNL     1      -4.653  11.306   5.428  1.00  0.00     0.001 A 
ATOM     36  C   UNL     1      -3.381  11.055   3.389  1.00  0.00     0.040 A 
ATOM     37  F   UNL     1      -4.421  10.276   1.446  1.00  0.00    -0.206 F 
ATOM     38  C   UNL     1      -3.452  11.435   4.728  1.00  0.00     0.003 A 
ENDBRANCH  29  32
ENDBRANCH  13  28
ENDBRANCH   5   8
ENDBRANCH   3   4
ENDBRANCH   2   3
ENDBRANCH   1   2
BRANCH   1  39
ATOM     39  C   UNL     1      -6.982   6.729  -5.611  1.00  0.00     0.116 C 
BRANCH  39  40
ATOM     40  N   UNL     1      -7.640   7.576  -6.588  1.00  0.00    -0.352 N 
ATOM     41  C   UNL     1      -8.247   7.107  -7.759  1.00  0.00     0.251 C 
ATOM     42  H   UNL     1      -7.660   8.545  -6.417  1.00  0.00     0.163 HD
ATOM     43  O   UNL     1      -8.227   7.684  -8.808  1.00  0.00    -0.269 OA
BRANCH  41  44
ATOM     44  C   UNL     1      -9.087   5.897  -7.562  1.00  0.00     0.039 A 
ATOM     45  C   UNL     1     -10.473   6.086  -7.490  1.00  0.00     0.014 A 
ATOM     46  C   UNL     1      -8.493   4.715  -7.133  1.00  0.00     0.014 A 
ATOM     47  C   UNL     1     -11.250   5.163  -6.798  1.00  0.00     0.010 A 
ATOM     48  C   UNL     1      -9.246   3.855  -6.365  1.00  0.00     0.010 A 
ATOM     49  C   UNL     1     -10.610   4.110  -6.154  1.00  0.00    -0.014 A 
BRANCH  49  50
ATOM     50  C   UNL     1     -11.249   3.213  -5.204  1.00  0.00     0.031 A 
ATOM     51  C   UNL     1     -11.518   1.823  -5.621  1.00  0.00     0.074 A 
ATOM     52  C   UNL     1     -11.387   3.606  -3.920  1.00  0.00     0.049 A 
ATOM     53  N   UNL     1     -12.129   0.946  -4.904  1.00  0.00    -0.248 NA
ATOM     54  C   UNL     1     -11.159   1.326  -6.947  1.00  0.00     0.031 C 
ATOM     55  C   UNL     1     -11.582   2.764  -2.743  1.00  0.00     0.029 A 
ATOM     56  N   UNL     1     -11.610   4.907  -3.455  1.00  0.00    -0.354 N 
ATOM     57  C   UNL     1     -11.989  -0.275  -5.525  1.00  0.00     0.074 A 
ATOM     58  C   UNL     1     -11.492   0.038  -6.838  1.00  0.00     0.031 C 
ATOM     59  C   UNL     1     -12.141   3.499  -1.769  1.00  0.00     0.029 A 
ATOM     60  C   UNL     1     -12.482   4.785  -2.353  1.00  0.00     0.049 A 
ATOM     61  H   UNL     1     -11.233   5.739  -3.823  1.00  0.00     0.167 HD
ATOM     62  C   UNL     1     -12.186  -1.399  -4.778  1.00  0.00     0.037 A 
ATOM     63  C   UNL     1     -13.756   5.277  -2.424  1.00  0.00     0.037 A 
ATOM     64  C   UNL     1     -12.931  -1.051  -3.561  1.00  0.00     0.049 A 
ATOM     65  C   UNL     1     -14.823   4.208  -2.314  1.00  0.00     0.074 A 
ATOM     66  C   UNL     1     -12.576  -0.882  -2.233  1.00  0.00     0.029 A 
ATOM     67  N   UNL     1     -14.203  -0.492  -3.697  1.00  0.00    -0.354 N 
ATOM     68  N   UNL     1     -14.616   2.934  -2.525  1.00  0.00    -0.248 NA
ATOM     69  C   UNL     1     -16.201   4.486  -1.920  1.00  0.00     0.031 C 
ATOM     70  C   UNL     1     -13.587  -0.095  -1.610  1.00  0.00     0.029 A 
ATOM     71  C   UNL     1     -14.578   0.168  -2.542  1.00  0.00     0.049 A 
ATOM     72  H   UNL     1     -14.758  -0.558  -4.508  1.00  0.00     0.167 HD
ATOM     73  C   UNL     1     -15.775   2.231  -2.310  1.00  0.00     0.074 A 
ATOM     74  C   UNL     1     -16.732   3.250  -1.913  1.00  0.00     0.031 C 
ATOM     75  C   UNL     1     -15.856   0.874  -2.469  1.00  0.00     0.037 A 
BRANCH  62  76
ATOM     76  C   UNL     1     -11.505  -2.743  -5.023  1.00  0.00     0.058 A 
ATOM     77  C   UNL     1     -11.538  -3.751  -4.030  1.00  0.00     0.135 A 
ATOM     78  C   UNL     1     -10.693  -3.070  -6.134  1.00  0.00     0.135 A 
ATOM     79  F   UNL     1     -12.270  -3.606  -2.916  1.00  0.00    -0.206 F 
ATOM     80  C   UNL     1     -10.798  -4.941  -4.112  1.00  0.00     0.059 A 
ATOM     81  C   UNL     1      -9.957  -4.254  -6.245  1.00  0.00     0.059 A 
ATOM     82  F   UNL     1     -10.530  -2.258  -7.178  1.00  0.00    -0.206 F 
ATOM     83  C   UNL     1      -9.997  -5.179  -5.221  1.00  0.00     0.060 A 
BRANCH  83  84
ATOM     84  S   UNL     1      -9.005  -6.680  -5.313  1.00  0.00     0.124 S 
ATOM     85  O   UNL     1      -8.075  -6.498  -4.204  1.00  0.00    -0.237 OA
ATOM     86  O   UNL     1     -10.009  -7.725  -5.141  1.00  0.00    -0.237 OA
ATOM     87  O   UNL     1      -8.404  -6.611  -6.643  1.00  0.00    -0.744 OA
ENDBRANCH  83  84
ENDBRANCH  62  76
BRANCH  63  88
ATOM     88  C   UNL     1     -13.832   6.552  -3.197  1.00  0.00     0.058 A 
ATOM     89  C   UNL     1     -13.151   7.664  -2.657  1.00  0.00     0.135 A 
ATOM     90  C   UNL     1     -14.087   6.564  -4.576  1.00  0.00     0.135 A 
ATOM     91  F   UNL     1     -12.901   7.718  -1.338  1.00  0.00    -0.206 F 
ATOM     92  C   UNL     1     -12.569   8.634  -3.466  1.00  0.00     0.059 A 
ATOM     93  C   UNL     1     -13.528   7.543  -5.407  1.00  0.00     0.059 A 
ATOM     94  F   UNL     1     -14.742   5.545  -5.151  1.00  0.00    -0.206 F 
ATOM     95  C   UNL     1     -12.696   8.515  -4.847  1.00  0.00     0.060 A 
BRANCH  95  96
ATOM     96  S   UNL     1     -11.603   9.525  -5.881  1.00  0.00     0.124 S 
ATOM     97  O   UNL     1     -11.929  10.876  -5.441  1.00  0.00    -0.237 OA
ATOM     98  O   UNL     1     -10.280   9.034  -5.489  1.00  0.00    -0.237 OA
ATOM     99  O   UNL     1     -12.020   9.185  -7.237  1.00  0.00    -0.744 OA
ENDBRANCH  95  96
ENDBRANCH  63  88
BRANCH  75 100
ATOM    100  C   UNL     1     -17.136   0.057  -2.490  1.00  0.00     0.058 A 
ATOM    101  C   UNL     1     -18.394   0.562  -2.864  1.00  0.00     0.135 A 
ATOM    102  C   UNL     1     -17.096  -1.343  -2.262  1.00  0.00     0.135 A 
ATOM    103  F   UNL     1     -18.555   1.840  -3.234  1.00  0.00    -0.206 F 
ATOM    104  C   UNL     1     -19.539  -0.237  -2.927  1.00  0.00     0.059 A 
ATOM    105  C   UNL     1     -18.212  -2.169  -2.384  1.00  0.00     0.059 A 
ATOM    106  F   UNL     1     -15.957  -1.967  -1.927  1.00  0.00    -0.206 F 
ATOM    107  C   UNL     1     -19.439  -1.602  -2.687  1.00  0.00     0.060 A 
BRANCH 107 108
ATOM    108  S   UNL     1     -20.896  -2.651  -2.838  1.00  0.00     0.124 S 
ATOM    109  O   UNL     1     -21.423  -2.614  -1.478  1.00  0.00    -0.237 OA
ATOM    110  O   UNL     1     -21.695  -1.953  -3.842  1.00  0.00    -0.237 OA
ATOM    111  O   UNL     1     -20.343  -3.930  -3.270  1.00  0.00    -0.744 OA
ENDBRANCH 107 108
ENDBRANCH  75 100
ENDBRANCH  49  50
ENDBRANCH  41  44
ENDBRANCH  39  40
ENDBRANCH   1  39
TORSDOF 18
