REMARK SMILES CN(C(=O)CC(=O)NCCCCNC(=O)c1ccc(-c2c3nc(c(-c4c(F)cc(S(=O)(=O)[O-])cc4F)c4ccc([nH]4)c(-c4c(F)cc(S(=O)(=O)[O-])cc4F)c4nc(c(-c5c(F)cc(S(=O)(=O)[O-])cc5F)c5ccc2[nH]5)C=C4)C=C3)cc1)C1CCC(C)(C)CC1
REMARK SMILES IDX 10 1 9 2 8 3 6 4 7 5 5 7 3 8 4 9 2 10 1 11 82 12 83 13 89 14
REMARK SMILES IDX 84 15 88 16 85 17 86 18 87 19 11 20 12 21 13 22 14 23 15 25
REMARK SMILES IDX 16 26 17 27 81 28 18 29 80 30 19 31 20 32 21 33 74 34 22 35
REMARK SMILES IDX 79 36 73 37 75 38 23 39 78 40 72 41 71 42 24 44 58 45 37 46
REMARK SMILES IDX 57 47 38 48 41 49 56 50 76 51 39 52 40 53 55 55 77 56 42 57
REMARK SMILES IDX 25 58 26 59 35 60 27 61 28 62 34 63 36 64 29 65 30 66 31 67
REMARK SMILES IDX 32 68 33 69 59 70 60 71 69 72 61 73 62 74 68 75 70 76 63 77
REMARK SMILES IDX 64 78 65 79 66 80 67 81 43 82 44 83 53 84 45 85 46 86 52 87
REMARK SMILES IDX 54 88 47 89 48 90 49 91 50 92 51 93
REMARK H PARENT 8 6 13 24 75 43 41 54
REMARK Flexibility Score: inf
ROOT
ATOM      1  C   UNL     1       2.337  -3.190   3.145  1.00  0.00     0.023 C 
ENDROOT
BRANCH   1   2
ATOM      2  C   UNL     1       1.232  -2.484   3.924  1.00  0.00     0.116 C 
BRANCH   2   3
ATOM      3  N   UNL     1       1.377  -1.045   3.810  1.00  0.00    -0.356 N 
ATOM      4  C   UNL     1       0.711  -0.176   3.000  1.00  0.00     0.229 C 
ATOM      5  O   UNL     1       1.114   0.988   2.946  1.00  0.00    -0.275 OA
ATOM      6  H   UNL     1       2.053  -0.640   4.400  1.00  0.00     0.163 HD
BRANCH   4   7
ATOM      7  C   UNL     1      -0.537  -0.592   2.266  1.00  0.00     0.200 C 
BRANCH   7   8
ATOM      8  C   UNL     1      -0.384  -1.596   1.146  1.00  0.00     0.231 C 
ATOM      9  O   UNL     1      -0.911  -2.698   1.308  1.00  0.00    -0.274 OA
BRANCH   8  10
ATOM     10  N   UNL     1       0.275  -1.248  -0.028  1.00  0.00    -0.342 N 
ATOM     11  C   UNL     1       0.916   0.058  -0.191  1.00  0.00     0.147 C 
BRANCH  10  12
ATOM     12  C   UNL     1       0.574  -2.236  -1.110  1.00  0.00     0.084 C 
ATOM     13  C   UNL     1       1.844  -3.045  -0.842  1.00  0.00     0.025 C 
ATOM     14  C   UNL     1      -0.576  -3.140  -1.598  1.00  0.00     0.025 C 
ATOM     15  C   UNL     1       1.580  -4.235   0.062  1.00  0.00     0.008 C 
ATOM     16  C   UNL     1      -0.750  -4.513  -0.928  1.00  0.00     0.008 C 
ATOM     17  C   UNL     1       0.539  -5.230  -0.463  1.00  0.00    -0.035 C 
ATOM     18  C   UNL     1       0.187  -6.190   0.697  1.00  0.00     0.011 C 
ATOM     19  C   UNL     1       1.142  -6.062  -1.605  1.00  0.00     0.011 C 
ENDBRANCH  10  12
ENDBRANCH   8  10
ENDBRANCH   7   8
ENDBRANCH   4   7
ENDBRANCH   2   3
ENDBRANCH   1   2
BRANCH   1  20
ATOM     20  C   UNL     1       3.721  -3.173   3.776  1.00  0.00     0.023 C 
BRANCH  20  21
ATOM     21  C   UNL     1       3.820  -3.884   5.114  1.00  0.00     0.116 C 
BRANCH  21  22
ATOM     22  N   UNL     1       3.465  -5.296   5.058  1.00  0.00    -0.352 N 
ATOM     23  C   UNL     1       4.108  -6.372   5.631  1.00  0.00     0.251 C 
ATOM     24  H   UNL     1       2.655  -5.510   4.541  1.00  0.00     0.163 HD
ATOM     25  O   UNL     1       3.720  -7.512   5.411  1.00  0.00    -0.269 OA
BRANCH  23  26
ATOM     26  C   UNL     1       5.302  -6.135   6.473  1.00  0.00     0.039 A 
ATOM     27  C   UNL     1       6.447  -6.906   6.260  1.00  0.00     0.014 A 
ATOM     28  C   UNL     1       5.310  -5.110   7.420  1.00  0.00     0.014 A 
ATOM     29  C   UNL     1       7.629  -6.583   6.932  1.00  0.00     0.010 A 
ATOM     30  C   UNL     1       6.509  -4.726   8.007  1.00  0.00     0.010 A 
ATOM     31  C   UNL     1       7.682  -5.460   7.772  1.00  0.00    -0.014 A 
BRANCH  31  32
ATOM     32  C   UNL     1       8.944  -5.031   8.429  1.00  0.00     0.031 A 
ATOM     33  C   UNL     1       9.018  -4.967   9.931  1.00  0.00     0.074 A 
ATOM     34  C   UNL     1       9.984  -4.612   7.681  1.00  0.00     0.049 A 
ATOM     35  N   UNL     1       9.976  -4.506  10.693  1.00  0.00    -0.248 NA
ATOM     36  C   UNL     1       7.840  -5.445  10.674  1.00  0.00     0.031 C 
ATOM     37  C   UNL     1      10.012  -4.558   6.217  1.00  0.00     0.029 A 
ATOM     38  N   UNL     1      11.217  -4.136   8.052  1.00  0.00    -0.354 N 
ATOM     39  C   UNL     1       9.502  -4.606  11.996  1.00  0.00     0.074 A 
ATOM     40  C   UNL     1       8.152  -5.119  11.919  1.00  0.00     0.031 C 
ATOM     41  C   UNL     1      11.211  -4.104   5.815  1.00  0.00     0.029 A 
ATOM     42  C   UNL     1      12.023  -3.801   6.989  1.00  0.00     0.049 A 
ATOM     43  H   UNL     1      11.498  -4.043   8.990  1.00  0.00     0.167 HD
ATOM     44  C   UNL     1      10.142  -4.323  13.155  1.00  0.00     0.037 A 
ATOM     45  C   UNL     1      13.276  -3.305   6.965  1.00  0.00     0.037 A 
ATOM     46  C   UNL     1      11.505  -3.869  13.230  1.00  0.00     0.049 A 
ATOM     47  C   UNL     1      13.989  -3.054   8.264  1.00  0.00     0.074 A 
ATOM     48  C   UNL     1      12.272  -3.626  14.355  1.00  0.00     0.029 A 
ATOM     49  N   UNL     1      12.309  -3.602  12.131  1.00  0.00    -0.354 N 
ATOM     50  N   UNL     1      13.546  -3.209   9.490  1.00  0.00    -0.248 NA
ATOM     51  C   UNL     1      15.374  -2.571   8.181  1.00  0.00     0.031 C 
ATOM     52  C   UNL     1      13.534  -3.190  13.937  1.00  0.00     0.029 A 
ATOM     53  C   UNL     1      13.563  -3.193  12.552  1.00  0.00     0.049 A 
ATOM     54  H   UNL     1      12.029  -3.691  11.192  1.00  0.00     0.167 HD
ATOM     55  C   UNL     1      14.605  -2.865  10.322  1.00  0.00     0.074 A 
ATOM     56  C   UNL     1      15.713  -2.504   9.461  1.00  0.00     0.031 C 
ATOM     57  C   UNL     1      14.656  -2.850  11.677  1.00  0.00     0.037 A 
BRANCH  44  58
ATOM     58  C   UNL     1       9.374  -4.515  14.433  1.00  0.00     0.058 A 
ATOM     59  C   UNL     1       9.043  -5.796  14.906  1.00  0.00     0.135 A 
ATOM     60  C   UNL     1       8.966  -3.410  15.196  1.00  0.00     0.135 A 
ATOM     61  F   UNL     1       9.393  -6.886  14.206  1.00  0.00    -0.206 F 
ATOM     62  C   UNL     1       8.300  -5.973  16.068  1.00  0.00     0.059 A 
ATOM     63  C   UNL     1       8.246  -3.564  16.377  1.00  0.00     0.059 A 
ATOM     64  F   UNL     1       9.255  -2.164  14.790  1.00  0.00    -0.206 F 
ATOM     65  C   UNL     1       7.901  -4.850  16.794  1.00  0.00     0.060 A 
BRANCH  65  66
ATOM     66  S   UNL     1       6.925  -5.092  18.293  1.00  0.00     0.124 S 
ATOM     67  O   UNL     1       5.608  -5.387  17.737  1.00  0.00    -0.237 OA
ATOM     68  O   UNL     1       7.607  -6.212  18.935  1.00  0.00    -0.237 OA
ATOM     69  O   UNL     1       7.043  -3.812  18.984  1.00  0.00    -0.744 OA
ENDBRANCH  65  66
ENDBRANCH  44  58
BRANCH  45  70
ATOM     70  C   UNL     1      13.949  -3.054   5.663  1.00  0.00     0.058 A 
ATOM     71  C   UNL     1      14.971  -3.902   5.211  1.00  0.00     0.135 A 
ATOM     72  C   UNL     1      13.573  -1.984   4.838  1.00  0.00     0.135 A 
ATOM     73  F   UNL     1      15.368  -4.936   5.968  1.00  0.00    -0.206 F 
ATOM     74  C   UNL     1      15.607  -3.691   3.992  1.00  0.00     0.059 A 
ATOM     75  C   UNL     1      14.180  -1.764   3.605  1.00  0.00     0.059 A 
ATOM     76  F   UNL     1      12.588  -1.156   5.218  1.00  0.00    -0.206 F 
ATOM     77  C   UNL     1      15.203  -2.620   3.194  1.00  0.00     0.060 A 
BRANCH  77  78
ATOM     78  S   UNL     1      15.994  -2.388   1.587  1.00  0.00     0.124 S 
ATOM     79  O   UNL     1      17.280  -1.819   1.972  1.00  0.00    -0.237 OA
ATOM     80  O   UNL     1      16.029  -3.749   1.061  1.00  0.00    -0.237 OA
ATOM     81  O   UNL     1      15.083  -1.481   0.894  1.00  0.00    -0.744 OA
ENDBRANCH  77  78
ENDBRANCH  45  70
BRANCH  57  82
ATOM     82  C   UNL     1      15.960  -2.465  12.313  1.00  0.00     0.058 A 
ATOM     83  C   UNL     1      16.391  -1.131  12.355  1.00  0.00     0.135 A 
ATOM     84  C   UNL     1      16.759  -3.436  12.936  1.00  0.00     0.135 A 
ATOM     85  F   UNL     1      15.664  -0.167  11.769  1.00  0.00    -0.206 F 
ATOM     86  C   UNL     1      17.583  -0.774  12.977  1.00  0.00     0.059 A 
ATOM     87  C   UNL     1      17.944  -3.099  13.583  1.00  0.00     0.059 A 
ATOM     88  F   UNL     1      16.384  -4.725  12.932  1.00  0.00    -0.206 F 
ATOM     89  C   UNL     1      18.353  -1.766  13.588  1.00  0.00     0.060 A 
BRANCH  89  90
ATOM     90  S   UNL     1      19.880  -1.288  14.424  1.00  0.00     0.124 S 
ATOM     91  O   UNL     1      20.784  -1.095  13.296  1.00  0.00    -0.237 OA
ATOM     92  O   UNL     1      19.484  -0.076  15.134  1.00  0.00    -0.237 OA
ATOM     93  O   UNL     1      20.173  -2.437  15.276  1.00  0.00    -0.744 OA
ENDBRANCH  89  90
ENDBRANCH  57  82
ENDBRANCH  31  32
ENDBRANCH  23  26
ENDBRANCH  21  22
ENDBRANCH  20  21
ENDBRANCH   1  20
TORSDOF 17
