REMARK SMILES Cc1ccc(C(F)(F)F)cc1/C=C/C(=O)NCCCCNC(=O)c1ccc(-c2c3nc(c(-c4c(F)cc(S(=O)(=O)[O-])cc4F)c4ccc([nH]4)c(-c4c(F)cc(S(=O)(=O)[O-])cc4F)c4nc(c(-c5c(F)cc(S(=O)(=O)[O-])cc5F)c5ccc2[nH]5)C=C4)C=C3)cc1
REMARK SMILES IDX 19 1 18 2 17 3 16 4 14 5 15 6 13 8 12 9 11 10 1 11 2 12 3 13
REMARK SMILES IDX 4 14 10 15 5 16 6 17 7 18 8 19 9 20 20 21 21 22 22 23 23 25
REMARK SMILES IDX 24 26 25 27 89 28 26 29 88 30 27 31 28 32 29 33 82 34 30 35
REMARK SMILES IDX 87 36 81 37 83 38 31 39 86 40 80 41 79 42 32 44 66 45 45 46
REMARK SMILES IDX 65 47 46 48 49 49 64 50 84 51 47 52 48 53 63 55 85 56 50 57
REMARK SMILES IDX 33 58 34 59 43 60 35 61 36 62 42 63 44 64 37 65 38 66 39 67
REMARK SMILES IDX 40 68 41 69 67 70 68 71 77 72 69 73 70 74 76 75 78 76 71 77
REMARK SMILES IDX 72 78 73 79 74 80 75 81 51 82 52 83 61 84 53 85 54 86 60 87
REMARK SMILES IDX 62 88 55 89 56 90 57 91 58 92 59 93
REMARK H PARENT 16 7 21 24 83 43 49 54
REMARK Flexibility Score: inf
ROOT
ATOM      1  C   UNL     1       4.945   4.358  -2.044  1.00  0.00     0.023 C 
ENDROOT
BRANCH   1   2
ATOM      2  C   UNL     1       4.157   3.325  -1.231  1.00  0.00     0.023 C 
BRANCH   2   3
ATOM      3  C   UNL     1       3.513   3.872   0.052  1.00  0.00     0.116 C 
BRANCH   3   4
ATOM      4  N   UNL     1       2.473   4.854  -0.218  1.00  0.00    -0.353 N 
ATOM      5  C   UNL     1       1.121   4.755  -0.107  1.00  0.00     0.243 C 
ATOM      6  O   UNL     1       0.412   5.750  -0.241  1.00  0.00    -0.270 OA
ATOM      7  H   UNL     1       2.800   5.728  -0.531  1.00  0.00     0.163 HD
BRANCH   5   8
ATOM      8  C   UNL     1       0.490   3.462   0.231  1.00  0.00     0.072 C 
ATOM      9  C   UNL     1       0.694   2.354  -0.496  1.00  0.00     0.014 C 
BRANCH   9  10
ATOM     10  C   UNL     1       0.025   1.075  -0.228  1.00  0.00    -0.022 A 
ATOM     11  C   UNL     1       2.260  -0.173  -0.075  1.00  0.00     0.045 C 
ATOM     12  C   UNL     1       0.755  -0.117  -0.055  1.00  0.00    -0.044 A 
ATOM     13  C   UNL     1       0.058  -1.327   0.103  1.00  0.00     0.004 A 
ATOM     14  C   UNL     1      -1.337  -1.356   0.115  1.00  0.00     0.013 A 
ATOM     15  C   UNL     1      -1.379   1.034  -0.212  1.00  0.00     0.021 A 
ATOM     16  C   UNL     1      -2.071  -0.174  -0.034  1.00  0.00     0.056 A 
BRANCH  16  17
ATOM     17  C   UNL     1      -3.577  -0.217  -0.037  1.00  0.00     0.416 C 
ATOM     18  F   UNL     1      -4.076  -0.844  -1.140  1.00  0.00    -0.166 F 
ATOM     19  F   UNL     1      -4.087  -0.892   1.032  1.00  0.00    -0.166 F 
ATOM     20  F   UNL     1      -4.165   1.012  -0.013  1.00  0.00    -0.166 F 
ENDBRANCH  16  17
ENDBRANCH   9  10
ENDBRANCH   5   8
ENDBRANCH   3   4
ENDBRANCH   2   3
ENDBRANCH   1   2
BRANCH   1  21
ATOM     21  C   UNL     1       6.202   4.838  -1.329  1.00  0.00     0.116 C 
BRANCH  21  22
ATOM     22  N   UNL     1       7.449   4.507  -2.005  1.00  0.00    -0.352 N 
ATOM     23  C   UNL     1       8.736   4.819  -1.600  1.00  0.00     0.251 C 
ATOM     24  H   UNL     1       7.367   4.004  -2.847  1.00  0.00     0.163 HD
ATOM     25  O   UNL     1       9.699   4.672  -2.335  1.00  0.00    -0.269 OA
BRANCH  23  26
ATOM     26  C   UNL     1       8.917   5.246  -0.193  1.00  0.00     0.039 A 
ATOM     27  C   UNL     1       9.608   4.377   0.659  1.00  0.00     0.014 A 
ATOM     28  C   UNL     1       8.176   6.309   0.314  1.00  0.00     0.014 A 
ATOM     29  C   UNL     1       9.394   4.453   2.034  1.00  0.00     0.010 A 
ATOM     30  C   UNL     1       7.894   6.324   1.667  1.00  0.00     0.010 A 
ATOM     31  C   UNL     1       8.459   5.364   2.522  1.00  0.00    -0.014 A 
BRANCH  31  32
ATOM     32  C   UNL     1       7.911   5.321   3.876  1.00  0.00     0.031 A 
ATOM     33  C   UNL     1       8.192   6.413   4.839  1.00  0.00     0.074 A 
ATOM     34  C   UNL     1       7.036   4.349   4.214  1.00  0.00     0.049 A 
ATOM     35  N   UNL     1       7.973   6.355   6.111  1.00  0.00    -0.248 NA
ATOM     36  C   UNL     1       8.812   7.666   4.430  1.00  0.00     0.031 C 
ATOM     37  C   UNL     1       6.086   4.369   5.322  1.00  0.00     0.029 A 
ATOM     38  N   UNL     1       6.944   3.055   3.720  1.00  0.00    -0.354 N 
ATOM     39  C   UNL     1       8.123   7.625   6.629  1.00  0.00     0.074 A 
ATOM     40  C   UNL     1       8.732   8.377   5.558  1.00  0.00     0.031 C 
ATOM     41  C   UNL     1       5.674   3.117   5.570  1.00  0.00     0.029 A 
ATOM     42  C   UNL     1       6.467   2.224   4.744  1.00  0.00     0.049 A 
ATOM     43  H   UNL     1       7.175   2.768   2.807  1.00  0.00     0.167 HD
ATOM     44  C   UNL     1       7.578   7.916   7.850  1.00  0.00     0.037 A 
ATOM     45  C   UNL     1       7.224   1.198   5.237  1.00  0.00     0.037 A 
ATOM     46  C   UNL     1       7.081   6.699   8.502  1.00  0.00     0.049 A 
ATOM     47  C   UNL     1       7.613   1.352   6.692  1.00  0.00     0.074 A 
ATOM     48  C   UNL     1       5.816   6.151   8.639  1.00  0.00     0.029 A 
ATOM     49  N   UNL     1       7.979   5.705   8.884  1.00  0.00    -0.354 N 
ATOM     50  N   UNL     1       7.481   2.459   7.370  1.00  0.00    -0.248 NA
ATOM     51  C   UNL     1       8.203   0.282   7.495  1.00  0.00     0.031 C 
ATOM     52  C   UNL     1       5.960   4.797   9.032  1.00  0.00     0.029 A 
ATOM     53  C   UNL     1       7.311   4.524   9.155  1.00  0.00     0.049 A 
ATOM     54  H   UNL     1       8.953   5.826   8.952  1.00  0.00     0.167 HD
ATOM     55  C   UNL     1       7.987   2.294   8.632  1.00  0.00     0.074 A 
ATOM     56  C   UNL     1       8.395   0.902   8.674  1.00  0.00     0.031 C 
ATOM     57  C   UNL     1       8.044   3.322   9.530  1.00  0.00     0.037 A 
BRANCH  44  58
ATOM     58  C   UNL     1       7.203   9.325   8.309  1.00  0.00     0.058 A 
ATOM     59  C   UNL     1       6.161   9.526   9.246  1.00  0.00     0.135 A 
ATOM     60  C   UNL     1       7.751  10.522   7.805  1.00  0.00     0.135 A 
ATOM     61  F   UNL     1       5.618   8.505   9.921  1.00  0.00    -0.206 F 
ATOM     62  C   UNL     1       5.620  10.784   9.537  1.00  0.00     0.059 A 
ATOM     63  C   UNL     1       7.198  11.786   8.040  1.00  0.00     0.059 A 
ATOM     64  F   UNL     1       8.894  10.536   7.114  1.00  0.00    -0.206 F 
ATOM     65  C   UNL     1       6.115  11.907   8.894  1.00  0.00     0.060 A 
BRANCH  65  66
ATOM     66  S   UNL     1       5.352  13.511   9.200  1.00  0.00     0.124 S 
ATOM     67  O   UNL     1       3.961  13.264   8.833  1.00  0.00    -0.237 OA
ATOM     68  O   UNL     1       5.610  13.705  10.623  1.00  0.00    -0.237 OA
ATOM     69  O   UNL     1       6.077  14.409   8.306  1.00  0.00    -0.744 OA
ENDBRANCH  65  66
ENDBRANCH  44  58
BRANCH  45  70
ATOM     70  C   UNL     1       8.032   0.513   4.193  1.00  0.00     0.058 A 
ATOM     71  C   UNL     1       7.330  -0.245   3.237  1.00  0.00     0.135 A 
ATOM     72  C   UNL     1       9.316   0.964   3.854  1.00  0.00     0.135 A 
ATOM     73  F   UNL     1       6.104  -0.716   3.522  1.00  0.00    -0.206 F 
ATOM     74  C   UNL     1       7.797  -0.388   1.938  1.00  0.00     0.059 A 
ATOM     75  C   UNL     1       9.809   0.824   2.555  1.00  0.00     0.059 A 
ATOM     76  F   UNL     1      10.033   1.684   4.729  1.00  0.00    -0.206 F 
ATOM     77  C   UNL     1       9.002   0.218   1.590  1.00  0.00     0.060 A 
BRANCH  77  78
ATOM     78  S   UNL     1       9.370   0.389  -0.172  1.00  0.00     0.124 S 
ATOM     79  O   UNL     1       9.353  -0.998  -0.624  1.00  0.00    -0.237 OA
ATOM     80  O   UNL     1       8.247   1.213  -0.616  1.00  0.00    -0.237 OA
ATOM     81  O   UNL     1      10.674   1.042  -0.179  1.00  0.00    -0.744 OA
ENDBRANCH  77  78
ENDBRANCH  45  70
BRANCH  57  82
ATOM     82  C   UNL     1       8.725   3.272  10.875  1.00  0.00     0.058 A 
ATOM     83  C   UNL     1       9.899   2.545  11.133  1.00  0.00     0.135 A 
ATOM     84  C   UNL     1       8.268   4.095  11.932  1.00  0.00     0.135 A 
ATOM     85  F   UNL     1      10.484   1.808  10.176  1.00  0.00    -0.206 F 
ATOM     86  C   UNL     1      10.544   2.581  12.371  1.00  0.00     0.059 A 
ATOM     87  C   UNL     1       8.924   4.185  13.157  1.00  0.00     0.059 A 
ATOM     88  F   UNL     1       7.165   4.848  11.802  1.00  0.00    -0.206 F 
ATOM     89  C   UNL     1      10.050   3.405  13.378  1.00  0.00     0.060 A 
BRANCH  89  90
ATOM     90  S   UNL     1      10.907   3.514  14.961  1.00  0.00     0.124 S 
ATOM     91  O   UNL     1      10.178   2.531  15.755  1.00  0.00    -0.237 OA
ATOM     92  O   UNL     1      12.279   3.151  14.617  1.00  0.00    -0.237 OA
ATOM     93  O   UNL     1      10.715   4.908  15.344  1.00  0.00    -0.744 OA
ENDBRANCH  89  90
ENDBRANCH  57  82
ENDBRANCH  31  32
ENDBRANCH  23  26
ENDBRANCH  21  22
ENDBRANCH   1  21
TORSDOF 16
