REMARK SMILES CC[C@H](Oc1ccc(C)nc1C[NH3+])C(=O)NCCCCNC(=O)c1ccc(-c2c3nc(c(-c4c(F)cc(S(=O)(=O)[O-])cc4F)c4ccc([nH]4)c(-c4c(F)cc(S(=O)(=O)[O-])cc4F)c4nc(c(-c5c(F)cc(S(=O)(=O)[O-])cc5F)c5ccc2[nH]5)C=C4)C=C3)cc1
REMARK SMILES IDX 18 1 17 2 16 3 14 4 15 5 3 7 2 8 1 9 4 10 5 11 6 12 11 13
REMARK SMILES IDX 7 14 10 15 8 16 9 17 12 18 13 19 19 23 20 24 21 25 22 26
REMARK SMILES IDX 23 28 24 29 25 30 89 31 26 32 88 33 27 34 28 35 29 36 82 37
REMARK SMILES IDX 30 38 87 39 81 40 83 41 31 42 86 43 80 44 79 45 32 47 66 48
REMARK SMILES IDX 45 49 65 50 46 51 49 52 64 53 84 54 47 55 48 56 63 58 85 59
REMARK SMILES IDX 50 60 33 61 34 62 43 63 35 64 36 65 42 66 44 67 37 68 38 69
REMARK SMILES IDX 39 70 40 71 41 72 67 73 68 74 77 75 69 76 70 77 76 78 78 79
REMARK SMILES IDX 71 80 72 81 73 82 74 83 75 84 51 85 52 86 61 87 53 88 54 89
REMARK SMILES IDX 60 90 62 91 55 92 56 93 57 94 58 95 59 96
REMARK H PARENT 16 6 13 20 13 21 13 22 21 27 83 46 49 57
REMARK Flexibility Score: inf
ROOT
ATOM      1  C   UNL     1      -2.712  -0.565   2.903  1.00  0.00     0.023 C 
ENDROOT
BRANCH   1   2
ATOM      2  C   UNL     1      -1.846   0.687   2.841  1.00  0.00     0.116 C 
BRANCH   2   3
ATOM      3  N   UNL     1      -0.742   0.661   3.780  1.00  0.00    -0.353 N 
ATOM      4  C   UNL     1       0.588   0.894   3.544  1.00  0.00     0.261 C 
ATOM      5  O   UNL     1       1.362   0.883   4.505  1.00  0.00    -0.271 OA
ATOM      6  H   UNL     1      -0.979   0.448   4.712  1.00  0.00     0.163 HD
BRANCH   4   7
ATOM      7  C   UNL     1       1.092   1.213   2.120  1.00  0.00     0.261 C 
BRANCH   7   8
ATOM      8  C   UNL     1       0.555   2.603   1.693  1.00  0.00     0.052 C 
ATOM      9  C   UNL     1      -0.190   2.732   0.369  1.00  0.00     0.008 C 
ENDBRANCH   7   8
BRANCH   7  10
ATOM     10  O   UNL     1       0.725   0.090   1.318  1.00  0.00    -0.478 OA
BRANCH  10  11
ATOM     11  C   UNL     1       1.272  -0.089   0.083  1.00  0.00     0.147 A 
ATOM     12  C   UNL     1       2.260   0.721  -0.474  1.00  0.00     0.050 A 
ATOM     13  C   UNL     1       0.752  -1.124  -0.707  1.00  0.00     0.136 A 
ATOM     14  C   UNL     1       2.604   0.571  -1.814  1.00  0.00     0.027 A 
ATOM     15  N   UNL     1       1.093  -1.279  -2.017  1.00  0.00    -0.248 NA
ATOM     16  C   UNL     1       1.966  -0.406  -2.564  1.00  0.00     0.038 A 
ATOM     17  C   UNL     1       2.227  -0.545  -4.031  1.00  0.00     0.067 C 
BRANCH  13  18
ATOM     18  C   UNL     1      -0.178  -2.175  -0.119  1.00  0.00     0.320 C 
BRANCH  18  19
ATOM     19  N   UNL     1      -1.450  -2.320  -0.837  1.00  0.00    -0.352 N 
ATOM     20  H   UNL     1      -1.970  -1.444  -0.788  1.00  0.00     0.344 HD
ATOM     21  H   UNL     1      -1.999  -3.065  -0.409  1.00  0.00     0.344 HD
ATOM     22  H   UNL     1      -1.265  -2.551  -1.813  1.00  0.00     0.344 HD
ENDBRANCH  18  19
ENDBRANCH  13  18
ENDBRANCH  10  11
ENDBRANCH   7  10
ENDBRANCH   4   7
ENDBRANCH   2   3
ENDBRANCH   1   2
BRANCH   1  23
ATOM     23  C   UNL     1      -3.519  -0.725   4.188  1.00  0.00     0.023 C 
BRANCH  23  24
ATOM     24  C   UNL     1      -4.404   0.461   4.555  1.00  0.00     0.116 C 
BRANCH  24  25
ATOM     25  N   UNL     1      -5.371   0.797   3.522  1.00  0.00    -0.352 N 
ATOM     26  C   UNL     1      -6.732   0.985   3.628  1.00  0.00     0.251 C 
ATOM     27  H   UNL     1      -5.000   0.906   2.616  1.00  0.00     0.163 HD
ATOM     28  O   UNL     1      -7.408   1.139   2.623  1.00  0.00    -0.269 OA
BRANCH  26  29
ATOM     29  C   UNL     1      -7.369   0.965   4.965  1.00  0.00     0.039 A 
ATOM     30  C   UNL     1      -8.523   0.200   5.150  1.00  0.00     0.014 A 
ATOM     31  C   UNL     1      -6.814   1.672   6.035  1.00  0.00     0.014 A 
ATOM     32  C   UNL     1      -9.075   0.084   6.428  1.00  0.00     0.010 A 
ATOM     33  C   UNL     1      -7.318   1.490   7.319  1.00  0.00     0.010 A 
ATOM     34  C   UNL     1      -8.453   0.693   7.531  1.00  0.00    -0.014 A 
BRANCH  34  35
ATOM     35  C   UNL     1      -8.968   0.500   8.912  1.00  0.00     0.031 A 
ATOM     36  C   UNL     1      -9.462   1.678   9.707  1.00  0.00     0.074 A 
ATOM     37  C   UNL     1      -8.923  -0.724   9.476  1.00  0.00     0.049 A 
ATOM     38  N   UNL     1      -9.880   1.721  10.946  1.00  0.00    -0.248 NA
ATOM     39  C   UNL     1      -9.460   2.985   9.030  1.00  0.00     0.031 C 
ATOM     40  C   UNL     1      -8.412  -1.936   8.830  1.00  0.00     0.029 A 
ATOM     41  N   UNL     1      -9.302  -1.152  10.725  1.00  0.00    -0.354 N 
ATOM     42  C   UNL     1     -10.174   3.056  11.201  1.00  0.00     0.074 A 
ATOM     43  C   UNL     1      -9.836   3.798  10.007  1.00  0.00     0.031 C 
ATOM     44  C   UNL     1      -8.528  -2.970   9.678  1.00  0.00     0.029 A 
ATOM     45  C   UNL     1      -9.085  -2.493  10.940  1.00  0.00     0.049 A 
ATOM     46  H   UNL     1      -9.692  -0.554  11.402  1.00  0.00     0.167 HD
ATOM     47  C   UNL     1     -10.698   3.608  12.321  1.00  0.00     0.037 A 
ATOM     48  C   UNL     1      -9.300  -3.252  12.033  1.00  0.00     0.037 A 
ATOM     49  C   UNL     1     -11.060   2.860  13.496  1.00  0.00     0.049 A 
ATOM     50  C   UNL     1      -9.897  -2.617  13.260  1.00  0.00     0.074 A 
ATOM     51  C   UNL     1     -11.661   3.318  14.656  1.00  0.00     0.029 A 
ATOM     52  N   UNL     1     -10.854   1.498  13.664  1.00  0.00    -0.354 N 
ATOM     53  N   UNL     1     -10.234  -1.365  13.459  1.00  0.00    -0.248 NA
ATOM     54  C   UNL     1     -10.152  -3.498  14.408  1.00  0.00     0.031 C 
ATOM     55  C   UNL     1     -11.776   2.243  15.543  1.00  0.00     0.029 A 
ATOM     56  C   UNL     1     -11.297   1.103  14.916  1.00  0.00     0.049 A 
ATOM     57  H   UNL     1     -10.453   0.900  12.993  1.00  0.00     0.167 HD
ATOM     58  C   UNL     1     -10.764  -1.313  14.743  1.00  0.00     0.074 A 
ATOM     59  C   UNL     1     -10.716  -2.662  15.269  1.00  0.00     0.031 C 
ATOM     60  C   UNL     1     -11.248  -0.245  15.425  1.00  0.00     0.037 A 
BRANCH  47  61
ATOM     61  C   UNL     1     -10.921   5.097  12.328  1.00  0.00     0.058 A 
ATOM     62  C   UNL     1     -11.918   5.697  11.542  1.00  0.00     0.135 A 
ATOM     63  C   UNL     1     -10.157   5.929  13.162  1.00  0.00     0.135 A 
ATOM     64  F   UNL     1     -12.668   4.952  10.715  1.00  0.00    -0.206 F 
ATOM     65  C   UNL     1     -12.131   7.072  11.562  1.00  0.00     0.059 A 
ATOM     66  C   UNL     1     -10.372   7.303  13.220  1.00  0.00     0.059 A 
ATOM     67  F   UNL     1      -9.189   5.408  13.933  1.00  0.00    -0.206 F 
ATOM     68  C   UNL     1     -11.353   7.867  12.406  1.00  0.00     0.060 A 
BRANCH  68  69
ATOM     69  S   UNL     1     -11.651   9.647  12.428  1.00  0.00     0.124 S 
ATOM     70  O   UNL     1     -11.093  10.050  11.140  1.00  0.00    -0.237 OA
ATOM     71  O   UNL     1     -13.104   9.719  12.537  1.00  0.00    -0.237 OA
ATOM     72  O   UNL     1     -10.913  10.101  13.601  1.00  0.00    -0.744 OA
ENDBRANCH  68  69
ENDBRANCH  47  61
BRANCH  48  73
ATOM     73  C   UNL     1      -8.969  -4.702  12.006  1.00  0.00     0.058 A 
ATOM     74  C   UNL     1      -9.980  -5.674  12.000  1.00  0.00     0.135 A 
ATOM     75  C   UNL     1      -7.637  -5.144  11.970  1.00  0.00     0.135 A 
ATOM     76  F   UNL     1     -11.268  -5.302  12.040  1.00  0.00    -0.206 F 
ATOM     77  C   UNL     1      -9.684  -7.033  11.974  1.00  0.00     0.059 A 
ATOM     78  C   UNL     1      -7.317  -6.497  11.917  1.00  0.00     0.059 A 
ATOM     79  F   UNL     1      -6.633  -4.253  11.957  1.00  0.00    -0.206 F 
ATOM     80  C   UNL     1      -8.348  -7.435  11.929  1.00  0.00     0.060 A 
BRANCH  80  81
ATOM     81  S   UNL     1      -7.976  -9.200  11.841  1.00  0.00     0.124 S 
ATOM     82  O   UNL     1      -8.287  -9.633  13.199  1.00  0.00    -0.237 OA
ATOM     83  O   UNL     1      -8.892  -9.654  10.800  1.00  0.00    -0.237 OA
ATOM     84  O   UNL     1      -6.563  -9.227  11.477  1.00  0.00    -0.744 OA
ENDBRANCH  80  81
ENDBRANCH  48  73
BRANCH  60  85
ATOM     85  C   UNL     1     -11.798  -0.493  16.803  1.00  0.00     0.058 A 
ATOM     86  C   UNL     1     -10.962  -0.777  17.893  1.00  0.00     0.135 A 
ATOM     87  C   UNL     1     -13.179  -0.392  17.044  1.00  0.00     0.135 A 
ATOM     88  F   UNL     1      -9.636  -0.890  17.716  1.00  0.00    -0.206 F 
ATOM     89  C   UNL     1     -11.476  -0.977  19.170  1.00  0.00     0.059 A 
ATOM     90  C   UNL     1     -13.712  -0.560  18.318  1.00  0.00     0.059 A 
ATOM     91  F   UNL     1     -14.022  -0.111  16.038  1.00  0.00    -0.206 F 
ATOM     92  C   UNL     1     -12.853  -0.865  19.373  1.00  0.00     0.060 A 
BRANCH  92  93
ATOM     93  S   UNL     1     -13.505  -1.095  21.040  1.00  0.00     0.124 S 
ATOM     94  O   UNL     1     -13.392  -2.541  21.203  1.00  0.00    -0.237 OA
ATOM     95  O   UNL     1     -12.590  -0.293  21.847  1.00  0.00    -0.237 OA
ATOM     96  O   UNL     1     -14.867  -0.578  20.948  1.00  0.00    -0.744 OA
ENDBRANCH  92  93
ENDBRANCH  60  85
ENDBRANCH  34  35
ENDBRANCH  26  29
ENDBRANCH  24  25
ENDBRANCH  23  24
ENDBRANCH   1  23
TORSDOF 19
