REMARK SMILES C[C@H](NC(=O)N(CC(=O)NCCCCNC(=O)c1ccc(-c2c3nc(c(-c4c(F)cc(S(=O)(=O)[O-])cc4F)c4ccc([nH]4)c(-c4c(F)cc(S(=O)(=O)[O-])cc4F)c4nc(c(-c5c(F)cc(S(=O)(=O)[O-])cc5F)c5ccc2[nH]5)C=C4)C=C3)cc1)CC(F)(F)F)[C@@H]1CCCO1
REMARK SMILES IDX 12 1 11 2 10 3 8 4 9 5 7 7 6 8 4 9 3 10 5 12 2 13 1 14 89 15
REMARK SMILES IDX 90 16 93 17 91 18 92 19 84 20 85 21 86 22 87 23 88 24 13 25
REMARK SMILES IDX 14 26 15 27 16 28 17 30 18 31 19 32 83 33 20 34 82 35 21 36
REMARK SMILES IDX 22 37 23 38 76 39 24 40 81 41 75 42 77 43 25 44 80 45 74 46
REMARK SMILES IDX 73 47 26 49 60 50 39 51 59 52 40 53 43 54 58 55 78 56 41 57
REMARK SMILES IDX 42 58 57 60 79 61 44 62 27 63 28 64 37 65 29 66 30 67 36 68
REMARK SMILES IDX 38 69 31 70 32 71 33 72 34 73 35 74 61 75 62 76 71 77 63 78
REMARK SMILES IDX 64 79 70 80 72 81 65 82 66 83 67 84 68 85 69 86 45 87 46 88
REMARK SMILES IDX 55 89 47 90 48 91 54 92 56 93 49 94 50 95 51 96 52 97 53 98
REMARK H PARENT 10 6 3 11 15 29 77 48 43 59
REMARK Flexibility Score: inf
ROOT
ATOM      1  C   UNL     1       5.186   0.305  -0.739  1.00  0.00     0.023 C 
ENDROOT
BRANCH   1   2
ATOM      2  C   UNL     1       4.005   0.212  -1.695  1.00  0.00     0.116 C 
BRANCH   2   3
ATOM      3  N   UNL     1       4.196  -0.735  -2.775  1.00  0.00    -0.355 N 
ATOM      4  C   UNL     1       3.450  -1.789  -3.201  1.00  0.00     0.239 C 
ATOM      5  O   UNL     1       3.739  -2.256  -4.310  1.00  0.00    -0.273 OA
ATOM      6  H   UNL     1       5.017  -0.588  -3.298  1.00  0.00     0.163 HD
BRANCH   4   7
ATOM      7  C   UNL     1       2.192  -2.312  -2.484  1.00  0.00     0.221 C 
BRANCH   7   8
ATOM      8  N   UNL     1       2.135  -2.406  -1.037  1.00  0.00    -0.306 N 
BRANCH   8   9
ATOM      9  C   UNL     1       1.490  -1.597  -0.165  1.00  0.00     0.318 C 
ATOM     10  N   UNL     1       0.774  -0.512  -0.455  1.00  0.00    -0.333 N 
ATOM     11  H   UNL     1       0.578  -0.090   0.412  1.00  0.00     0.165 HD
ATOM     12  O   UNL     1       1.563  -1.819   1.050  1.00  0.00    -0.249 OA
BRANCH  10  13
ATOM     13  C   UNL     1       0.133   0.359  -1.468  1.00  0.00     0.109 C 
ATOM     14  C   UNL     1       0.672   0.512  -2.889  1.00  0.00     0.034 C 
BRANCH  13  15
ATOM     15  C   UNL     1      -1.408   0.221  -1.431  1.00  0.00     0.140 C 
ATOM     16  C   UNL     1      -1.982  -1.036  -2.072  1.00  0.00     0.036 C 
ATOM     17  O   UNL     1      -2.008   1.353  -2.099  1.00  0.00    -0.376 OA
ATOM     18  C   UNL     1      -3.267  -0.533  -2.688  1.00  0.00     0.031 C 
ATOM     19  C   UNL     1      -2.890   0.865  -3.114  1.00  0.00     0.160 C 
ENDBRANCH  13  15
ENDBRANCH  10  13
ENDBRANCH   8   9
BRANCH   8  20
ATOM     20  C   UNL     1       2.883  -3.553  -0.448  1.00  0.00     0.237 C 
BRANCH  20  21
ATOM     21  C   UNL     1       4.311  -3.285   0.034  1.00  0.00     0.406 C 
ATOM     22  F   UNL     1       4.380  -2.313   0.964  1.00  0.00    -0.169 F 
ATOM     23  F   UNL     1       4.834  -4.409   0.584  1.00  0.00    -0.169 F 
ATOM     24  F   UNL     1       5.115  -2.944  -0.997  1.00  0.00    -0.169 F 
ENDBRANCH  20  21
ENDBRANCH   8  20
ENDBRANCH   7   8
ENDBRANCH   4   7
ENDBRANCH   2   3
ENDBRANCH   1   2
BRANCH   1  25
ATOM     25  C   UNL     1       6.477   0.821  -1.363  1.00  0.00     0.023 C 
BRANCH  25  26
ATOM     26  C   UNL     1       6.375   2.205  -1.989  1.00  0.00     0.116 C 
BRANCH  26  27
ATOM     27  N   UNL     1       6.019   3.236  -1.024  1.00  0.00    -0.352 N 
ATOM     28  C   UNL     1       6.713   4.373  -0.670  1.00  0.00     0.251 C 
ATOM     29  H   UNL     1       5.163   3.102  -0.558  1.00  0.00     0.163 HD
ATOM     30  O   UNL     1       6.346   5.054   0.275  1.00  0.00    -0.269 OA
BRANCH  28  31
ATOM     31  C   UNL     1       7.926   4.739  -1.432  1.00  0.00     0.039 A 
ATOM     32  C   UNL     1       9.106   5.010  -0.738  1.00  0.00     0.014 A 
ATOM     33  C   UNL     1       7.904   4.755  -2.829  1.00  0.00     0.014 A 
ATOM     34  C   UNL     1      10.292   5.203  -1.450  1.00  0.00     0.010 A 
ATOM     35  C   UNL     1       9.098   4.870  -3.532  1.00  0.00     0.010 A 
ATOM     36  C   UNL     1      10.306   5.082  -2.849  1.00  0.00    -0.014 A 
BRANCH  36  37
ATOM     37  C   UNL     1      11.575   5.123  -3.618  1.00  0.00     0.031 A 
ATOM     38  C   UNL     1      11.808   6.199  -4.640  1.00  0.00     0.074 A 
ATOM     39  C   UNL     1      12.470   4.125  -3.470  1.00  0.00     0.049 A 
ATOM     40  N   UNL     1      12.804   6.342  -5.475  1.00  0.00    -0.248 NA
ATOM     41  C   UNL     1      10.768   7.233  -4.761  1.00  0.00     0.031 C 
ATOM     42  C   UNL     1      12.320   2.983  -2.563  1.00  0.00     0.029 A 
ATOM     43  N   UNL     1      13.668   3.893  -4.097  1.00  0.00    -0.354 N 
ATOM     44  C   UNL     1      12.501   7.464  -6.237  1.00  0.00     0.074 A 
ATOM     45  C   UNL     1      11.208   7.939  -5.793  1.00  0.00     0.031 C 
ATOM     46  C   UNL     1      13.386   2.178  -2.690  1.00  0.00     0.029 A 
ATOM     47  C   UNL     1      14.277   2.723  -3.710  1.00  0.00     0.049 A 
ATOM     48  H   UNL     1      14.055   4.508  -4.762  1.00  0.00     0.167 HD
ATOM     49  C   UNL     1      13.242   8.053  -7.205  1.00  0.00     0.037 A 
ATOM     50  C   UNL     1      15.414   2.142  -4.139  1.00  0.00     0.037 A 
ATOM     51  C   UNL     1      14.541   7.590  -7.619  1.00  0.00     0.049 A 
ATOM     52  C   UNL     1      16.233   2.826  -5.196  1.00  0.00     0.074 A 
ATOM     53  C   UNL     1      15.418   8.177  -8.515  1.00  0.00     0.029 A 
ATOM     54  N   UNL     1      15.145   6.423  -7.175  1.00  0.00    -0.354 N 
ATOM     55  N   UNL     1      15.982   3.943  -5.835  1.00  0.00    -0.248 NA
ATOM     56  C   UNL     1      17.491   2.176  -5.589  1.00  0.00     0.031 C 
ATOM     57  C   UNL     1      16.531   7.339  -8.648  1.00  0.00     0.029 A 
ATOM     58  C   UNL     1      16.367   6.252  -7.803  1.00  0.00     0.049 A 
ATOM     59  H   UNL     1      14.760   5.806  -6.511  1.00  0.00     0.167 HD
ATOM     60  C   UNL     1      17.052   4.136  -6.701  1.00  0.00     0.074 A 
ATOM     61  C   UNL     1      17.963   3.029  -6.489  1.00  0.00     0.031 C 
ATOM     62  C   UNL     1      17.258   5.137  -7.592  1.00  0.00     0.037 A 
BRANCH  49  63
ATOM     63  C   UNL     1      12.660   9.262  -7.884  1.00  0.00     0.058 A 
ATOM     64  C   UNL     1      12.524  10.491  -7.217  1.00  0.00     0.135 A 
ATOM     65  C   UNL     1      12.246   9.196  -9.224  1.00  0.00     0.135 A 
ATOM     66  F   UNL     1      12.892  10.607  -5.931  1.00  0.00    -0.206 F 
ATOM     67  C   UNL     1      11.960  11.598  -7.841  1.00  0.00     0.059 A 
ATOM     68  C   UNL     1      11.704  10.300  -9.877  1.00  0.00     0.059 A 
ATOM     69  F   UNL     1      12.355   8.047  -9.910  1.00  0.00    -0.206 F 
ATOM     70  C   UNL     1      11.547  11.491  -9.171  1.00  0.00     0.060 A 
BRANCH  70  71
ATOM     71  S   UNL     1      10.801  12.932  -9.962  1.00  0.00     0.124 S 
ATOM     72  O   UNL     1       9.475  12.943  -9.352  1.00  0.00    -0.237 OA
ATOM     73  O   UNL     1      11.694  14.012  -9.555  1.00  0.00    -0.237 OA
ATOM     74  O   UNL     1      10.836  12.595 -11.382  1.00  0.00    -0.744 OA
ENDBRANCH  70  71
ENDBRANCH  49  63
BRANCH  50  75
ATOM     75  C   UNL     1      15.837   0.843  -3.553  1.00  0.00     0.058 A 
ATOM     76  C   UNL     1      16.907   0.771  -2.650  1.00  0.00     0.135 A 
ATOM     77  C   UNL     1      15.144  -0.343  -3.843  1.00  0.00     0.135 A 
ATOM     78  F   UNL     1      17.604   1.877  -2.348  1.00  0.00    -0.206 F 
ATOM     79  C   UNL     1      17.275  -0.429  -2.051  1.00  0.00     0.059 A 
ATOM     80  C   UNL     1      15.480  -1.552  -3.241  1.00  0.00     0.059 A 
ATOM     81  F   UNL     1      14.102  -0.323  -4.689  1.00  0.00    -0.206 F 
ATOM     82  C   UNL     1      16.550  -1.585  -2.348  1.00  0.00     0.060 A 
BRANCH  82  83
ATOM     83  S   UNL     1      16.982  -3.121  -1.501  1.00  0.00     0.124 S 
ATOM     84  O   UNL     1      18.214  -3.497  -2.185  1.00  0.00    -0.237 OA
ATOM     85  O   UNL     1      17.129  -2.678  -0.118  1.00  0.00    -0.237 OA
ATOM     86  O   UNL     1      15.829  -3.980  -1.756  1.00  0.00    -0.744 OA
ENDBRANCH  82  83
ENDBRANCH  50  75
BRANCH  62  87
ATOM     87  C   UNL     1      18.517   5.084  -8.411  1.00  0.00     0.058 A 
ATOM     88  C   UNL     1      18.661   4.177  -9.472  1.00  0.00     0.135 A 
ATOM     89  C   UNL     1      19.564   5.988  -8.172  1.00  0.00     0.135 A 
ATOM     90  F   UNL     1      17.692   3.286  -9.736  1.00  0.00    -0.206 F 
ATOM     91  C   UNL     1      19.807   4.159 -10.261  1.00  0.00     0.059 A 
ATOM     92  C   UNL     1      20.709   6.003  -8.963  1.00  0.00     0.059 A 
ATOM     93  F   UNL     1      19.472   6.881  -7.174  1.00  0.00    -0.206 F 
ATOM     94  C   UNL     1      20.824   5.078 -10.000  1.00  0.00     0.060 A 
BRANCH  94  95
ATOM     95  S   UNL     1      22.287   5.074 -11.059  1.00  0.00     0.124 S 
ATOM     96  O   UNL     1      22.988   3.885 -10.586  1.00  0.00    -0.237 OA
ATOM     97  O   UNL     1      21.706   4.979 -12.395  1.00  0.00    -0.237 OA
ATOM     98  O   UNL     1      22.931   6.348 -10.752  1.00  0.00    -0.744 OA
ENDBRANCH  94  95
ENDBRANCH  62  87
ENDBRANCH  36  37
ENDBRANCH  28  31
ENDBRANCH  26  27
ENDBRANCH  25  26
ENDBRANCH   1  25
TORSDOF 20
