REMARK SMILES CN(C)C(=O)CCNC(=O)NC[C@H]1CC[C@@H](C(=O)NCCCCNC(=O)c2ccc(-c3c4nc(c(-c5c(F)cc(S(=O)(=O)[O-])cc5F)c5ccc([nH]5)c(-c5c(F)cc(S(=O)(=O)[O-])cc5F)c5nc(c(-c6c(F)cc(S(=O)(=O)[O-])cc6F)c6ccc3[nH]6)C=C5)C=C4)cc2)CC1
REMARK SMILES IDX 20 1 19 2 17 3 18 4 16 6 13 7 14 8 94 9 15 10 93 11 12 12
REMARK SMILES IDX 11 13 8 14 9 15 10 17 7 19 6 20 4 21 1 22 2 23 3 24 5 25
REMARK SMILES IDX 21 26 22 27 23 28 24 29 25 30 26 32 27 33 28 34 92 35 29 36
REMARK SMILES IDX 91 37 30 38 31 39 32 40 85 41 33 42 90 43 84 44 86 45 34 46
REMARK SMILES IDX 89 47 83 48 82 49 35 51 69 52 48 53 68 54 49 55 52 56 67 57
REMARK SMILES IDX 87 58 50 59 51 60 66 62 88 63 53 64 36 65 37 66 46 67 38 68
REMARK SMILES IDX 39 69 45 70 47 71 40 72 41 73 42 74 43 75 44 76 70 77 71 78
REMARK SMILES IDX 80 79 72 80 73 81 79 82 81 83 74 84 75 85 76 86 77 87 78 88
REMARK SMILES IDX 54 89 55 90 64 91 56 92 57 93 63 94 65 95 58 96 59 97 60 98
REMARK SMILES IDX 61 99 62 100
REMARK H PARENT 19 5 8 16 11 18 24 31 86 50 52 61
REMARK Flexibility Score: inf
ROOT
ATOM      1  C   UNL     1      -0.937  -8.730   1.044  1.00  0.00     0.116 C 
ENDROOT
BRANCH   1   2
ATOM      2  N   UNL     1      -0.249  -9.979   1.302  1.00  0.00    -0.356 N 
ATOM      3  C   UNL     1       0.799 -10.608   0.721  1.00  0.00     0.223 C 
ATOM      4  O   UNL     1       1.214 -11.613   1.317  1.00  0.00    -0.275 OA
ATOM      5  H   UNL     1      -0.624 -10.476   2.065  1.00  0.00     0.163 HD
BRANCH   3   6
ATOM      6  C   UNL     1       1.487 -10.201  -0.593  1.00  0.00     0.078 C 
ATOM      7  C   UNL     1       0.970  -7.698  -2.199  1.00  0.00     0.008 C 
ATOM      8  C   UNL     1       1.877  -7.671  -0.956  1.00  0.00     0.006 C 
ATOM      9  C   UNL     1       0.019  -8.902  -2.261  1.00  0.00     0.006 C 
ATOM     10  C   UNL     1       2.452  -9.018  -0.542  1.00  0.00     0.014 C 
ATOM     11  C   UNL     1       0.620 -10.232  -1.844  1.00  0.00     0.014 C 
BRANCH   7  12
ATOM     12  C   UNL     1       0.159  -6.388  -2.409  1.00  0.00     0.121 C 
BRANCH  12  13
ATOM     13  N   UNL     1      -0.414  -5.841  -1.189  1.00  0.00    -0.338 N 
ATOM     14  N   UNL     1       1.155  -4.279  -0.377  1.00  0.00    -0.338 N 
ATOM     15  C   UNL     1       0.098  -5.086  -0.203  1.00  0.00     0.314 C 
ATOM     16  H   UNL     1       1.636  -4.057   0.453  1.00  0.00     0.165 HD
ATOM     17  O   UNL     1      -0.418  -5.152   0.913  1.00  0.00    -0.249 OA
ATOM     18  H   UNL     1      -1.363  -6.070  -1.061  1.00  0.00     0.165 HD
BRANCH  14  19
ATOM     19  C   UNL     1       1.714  -3.675  -1.571  1.00  0.00     0.127 C 
BRANCH  19  20
ATOM     20  C   UNL     1       0.737  -2.733  -2.268  1.00  0.00     0.121 C 
BRANCH  20  21
ATOM     21  C   UNL     1       0.952  -1.328  -1.742  1.00  0.00     0.223 C 
ATOM     22  C   UNL     1       0.771   0.287   0.076  1.00  0.00     0.146 C 
ATOM     23  N   UNL     1       0.338  -0.946  -0.561  1.00  0.00    -0.349 N 
ATOM     24  C   UNL     1      -0.769  -1.638   0.091  1.00  0.00     0.146 C 
ATOM     25  O   UNL     1       1.747  -0.594  -2.337  1.00  0.00    -0.275 OA
ENDBRANCH  20  21
ENDBRANCH  19  20
ENDBRANCH  14  19
ENDBRANCH  12  13
ENDBRANCH   7  12
ENDBRANCH   3   6
ENDBRANCH   1   2
BRANCH   1  26
ATOM     26  C   UNL     1      -2.334  -8.929   0.447  1.00  0.00     0.023 C 
BRANCH  26  27
ATOM     27  C   UNL     1      -3.501  -8.598   1.377  1.00  0.00     0.023 C 
BRANCH  27  28
ATOM     28  C   UNL     1      -3.555  -7.156   1.881  1.00  0.00     0.116 C 
BRANCH  28  29
ATOM     29  N   UNL     1      -3.621  -6.142   0.837  1.00  0.00    -0.352 N 
ATOM     30  C   UNL     1      -4.011  -4.823   0.960  1.00  0.00     0.251 C 
ATOM     31  H   UNL     1      -3.356  -6.432  -0.066  1.00  0.00     0.163 HD
ATOM     32  O   UNL     1      -3.965  -4.067  -0.004  1.00  0.00    -0.269 OA
BRANCH  30  33
ATOM     33  C   UNL     1      -4.603  -4.374   2.242  1.00  0.00     0.039 A 
ATOM     34  C   UNL     1      -5.902  -3.861   2.217  1.00  0.00     0.014 A 
ATOM     35  C   UNL     1      -3.952  -4.594   3.458  1.00  0.00     0.014 A 
ATOM     36  C   UNL     1      -6.599  -3.693   3.415  1.00  0.00     0.010 A 
ATOM     37  C   UNL     1      -4.671  -4.489   4.646  1.00  0.00     0.010 A 
ATOM     38  C   UNL     1      -6.013  -4.076   4.632  1.00  0.00    -0.014 A 
BRANCH  38  39
ATOM     39  C   UNL     1      -6.819  -4.142   5.879  1.00  0.00     0.031 A 
ATOM     40  C   UNL     1      -6.496  -3.261   7.050  1.00  0.00     0.074 A 
ATOM     41  C   UNL     1      -7.787  -5.075   5.987  1.00  0.00     0.049 A 
ATOM     42  N   UNL     1      -7.044  -3.237   8.237  1.00  0.00    -0.248 NA
ATOM     43  C   UNL     1      -5.393  -2.304   6.874  1.00  0.00     0.031 C 
ATOM     44  C   UNL     1      -8.145  -6.049   4.952  1.00  0.00     0.029 A 
ATOM     45  N   UNL     1      -8.636  -5.370   7.024  1.00  0.00    -0.354 N 
ATOM     46  C   UNL     1      -6.336  -2.287   8.961  1.00  0.00     0.074 A 
ATOM     47  C   UNL     1      -5.302  -1.776   8.086  1.00  0.00     0.031 C 
ATOM     48  C   UNL     1      -9.148  -6.822   5.401  1.00  0.00     0.029 A 
ATOM     49  C   UNL     1      -9.489  -6.416   6.761  1.00  0.00     0.049 A 
ATOM     50  H   UNL     1      -8.635  -4.879   7.877  1.00  0.00     0.167 HD
ATOM     51  C   UNL     1      -6.536  -1.871  10.235  1.00  0.00     0.037 A 
ATOM     52  C   UNL     1     -10.438  -6.988   7.526  1.00  0.00     0.037 A 
ATOM     53  C   UNL     1      -7.589  -2.348  11.091  1.00  0.00     0.049 A 
ATOM     54  C   UNL     1     -10.695  -6.455   8.906  1.00  0.00     0.074 A 
ATOM     55  C   UNL     1      -7.923  -1.922  12.365  1.00  0.00     0.029 A 
ATOM     56  N   UNL     1      -8.480  -3.357  10.761  1.00  0.00    -0.354 N 
ATOM     57  N   UNL     1     -10.068  -5.498   9.545  1.00  0.00    -0.248 NA
ATOM     58  C   UNL     1     -11.792  -7.072   9.665  1.00  0.00     0.031 C 
ATOM     59  C   UNL     1      -9.008  -2.687  12.812  1.00  0.00     0.029 A 
ATOM     60  C   UNL     1      -9.360  -3.574  11.808  1.00  0.00     0.049 A 
ATOM     61  H   UNL     1      -8.487  -3.848   9.907  1.00  0.00     0.167 HD
ATOM     62  C   UNL     1     -10.700  -5.388  10.777  1.00  0.00     0.074 A 
ATOM     63  C   UNL     1     -11.767  -6.369  10.790  1.00  0.00     0.031 C 
ATOM     64  C   UNL     1     -10.420  -4.550  11.804  1.00  0.00     0.037 A 
BRANCH  51  65
ATOM     65  C   UNL     1      -5.587  -0.840  10.770  1.00  0.00     0.058 A 
ATOM     66  C   UNL     1      -5.665   0.504  10.371  1.00  0.00     0.135 A 
ATOM     67  C   UNL     1      -4.582  -1.200  11.681  1.00  0.00     0.135 A 
ATOM     68  F   UNL     1      -6.599   0.893   9.489  1.00  0.00    -0.206 F 
ATOM     69  C   UNL     1      -4.755   1.450  10.828  1.00  0.00     0.059 A 
ATOM     70  C   UNL     1      -3.671  -0.265  12.165  1.00  0.00     0.059 A 
ATOM     71  F   UNL     1      -4.465  -2.472  12.091  1.00  0.00    -0.206 F 
ATOM     72  C   UNL     1      -3.753   1.052  11.715  1.00  0.00     0.060 A 
BRANCH  72  73
ATOM     73  S   UNL     1      -2.551   2.276  12.277  1.00  0.00     0.124 S 
ATOM     74  O   UNL     1      -1.616   2.297  11.156  1.00  0.00    -0.237 OA
ATOM     75  O   UNL     1      -3.368   3.475  12.441  1.00  0.00    -0.237 OA
ATOM     76  O   UNL     1      -2.038   1.699  13.515  1.00  0.00    -0.744 OA
ENDBRANCH  72  73
ENDBRANCH  51  65
BRANCH  52  77
ATOM     77  C   UNL     1     -11.239  -8.113   6.982  1.00  0.00     0.058 A 
ATOM     78  C   UNL     1     -12.546  -7.904   6.519  1.00  0.00     0.135 A 
ATOM     79  C   UNL     1     -10.701  -9.404   6.877  1.00  0.00     0.135 A 
ATOM     80  F   UNL     1     -13.100  -6.686   6.604  1.00  0.00    -0.206 F 
ATOM     81  C   UNL     1     -13.296  -8.939   5.971  1.00  0.00     0.059 A 
ATOM     82  C   UNL     1     -11.427 -10.452   6.319  1.00  0.00     0.059 A 
ATOM     83  F   UNL     1      -9.448  -9.646   7.292  1.00  0.00    -0.206 F 
ATOM     84  C   UNL     1     -12.727 -10.210   5.873  1.00  0.00     0.060 A 
BRANCH  84  85
ATOM     85  S   UNL     1     -13.675 -11.533   5.090  1.00  0.00     0.124 S 
ATOM     86  O   UNL     1     -14.548 -11.952   6.180  1.00  0.00    -0.237 OA
ATOM     87  O   UNL     1     -14.325 -10.838   3.983  1.00  0.00    -0.237 OA
ATOM     88  O   UNL     1     -12.645 -12.490   4.697  1.00  0.00    -0.744 OA
ENDBRANCH  84  85
ENDBRANCH  52  77
BRANCH  64  89
ATOM     89  C   UNL     1     -11.289  -4.645  13.023  1.00  0.00     0.058 A 
ATOM     90  C   UNL     1     -11.106  -5.661  13.972  1.00  0.00     0.135 A 
ATOM     91  C   UNL     1     -12.280  -3.682  13.268  1.00  0.00     0.135 A 
ATOM     92  F   UNL     1     -10.176  -6.609  13.776  1.00  0.00    -0.206 F 
ATOM     93  C   UNL     1     -11.886  -5.727  15.122  1.00  0.00     0.059 A 
ATOM     94  C   UNL     1     -13.062  -3.721  14.418  1.00  0.00     0.059 A 
ATOM     95  F   UNL     1     -12.489  -2.688  12.391  1.00  0.00    -0.206 F 
ATOM     96  C   UNL     1     -12.862  -4.753  15.336  1.00  0.00     0.060 A 
BRANCH  96  97
ATOM     97  S   UNL     1     -13.844  -4.816  16.851  1.00  0.00     0.124 S 
ATOM     98  O   UNL     1     -14.857  -5.807  16.502  1.00  0.00    -0.237 OA
ATOM     99  O   UNL     1     -12.865  -5.235  17.849  1.00  0.00    -0.237 OA
ATOM    100  O   UNL     1     -14.327  -3.446  16.995  1.00  0.00    -0.744 OA
ENDBRANCH  96  97
ENDBRANCH  64  89
ENDBRANCH  38  39
ENDBRANCH  30  33
ENDBRANCH  28  29
ENDBRANCH  27  28
ENDBRANCH  26  27
ENDBRANCH   1  26
TORSDOF 19
