REMARK SMILES C[C@H](C(=O)NCCCCNC(=O)c1ccc(-c2c3nc(c(-c4c(F)cc(S(=O)(=O)[O-])cc4F)c4ccc([nH]4)c(-c4c(F)cc(S(=O)(=O)[O-])cc4F)c4nc(c(-c5c(F)cc(S(=O)(=O)[O-])cc5F)c5ccc2[nH]5)C=C4)C=C3)cc1)[C@H](C)[S@@](=O)C(C)(C)C
REMARK SMILES IDX 7 1 6 2 5 3 3 4 4 5 2 7 1 8 79 9 80 10 81 11 82 12 83 13
REMARK SMILES IDX 84 14 85 15 86 16 8 17 9 18 10 19 11 20 12 22 13 23 14 24
REMARK SMILES IDX 78 25 15 26 77 27 16 28 17 29 18 30 71 31 19 32 76 33 70 34
REMARK SMILES IDX 72 35 20 36 75 37 69 38 68 39 21 41 55 42 34 43 54 44 35 45
REMARK SMILES IDX 38 46 53 47 73 48 36 49 37 50 52 52 74 53 39 54 22 55 23 56
REMARK SMILES IDX 32 57 24 58 25 59 31 60 33 61 26 62 27 63 28 64 29 65 30 66
REMARK SMILES IDX 56 67 57 68 66 69 58 70 59 71 65 72 67 73 60 74 61 75 62 76
REMARK SMILES IDX 63 77 64 78 40 79 41 80 50 81 42 82 43 83 49 84 51 85 44 86
REMARK SMILES IDX 45 87 46 88 47 89 48 90
REMARK H PARENT 5 6 10 21 72 40 38 51
REMARK Flexibility Score: inf
ROOT
ATOM      1  C   UNL     1       1.129  -1.789  -3.726  1.00  0.00     0.023 C 
ENDROOT
BRANCH   1   2
ATOM      2  C   UNL     1       0.191  -0.589  -3.835  1.00  0.00     0.116 C 
BRANCH   2   3
ATOM      3  N   UNL     1      -1.207  -0.951  -3.717  1.00  0.00    -0.356 N 
ATOM      4  C   UNL     1      -2.069  -0.960  -2.660  1.00  0.00     0.224 C 
ATOM      5  O   UNL     1      -3.228  -1.302  -2.901  1.00  0.00    -0.275 OA
ATOM      6  H   UNL     1      -1.614  -1.248  -4.564  1.00  0.00     0.163 HD
BRANCH   4   7
ATOM      7  C   UNL     1      -1.633  -0.499  -1.276  1.00  0.00     0.090 C 
ATOM      8  C   UNL     1      -2.780   0.360  -0.701  1.00  0.00     0.019 C 
BRANCH   7   9
ATOM      9  C   UNL     1      -1.156  -1.537  -0.225  1.00  0.00     0.089 C 
ATOM     10  C   UNL     1       0.349  -1.528   0.020  1.00  0.00     0.023 C 
BRANCH   9  11
ATOM     11  S   UNL     1      -1.969  -3.138  -0.004  1.00  0.00     0.030 S 
ATOM     12  O   UNL     1      -3.448  -2.976  -0.160  1.00  0.00    -0.259 OA
BRANCH  11  13
ATOM     13  C   UNL     1      -1.351  -4.407  -1.172  1.00  0.00     0.038 C 
ATOM     14  C   UNL     1      -1.766  -4.131  -2.606  1.00  0.00     0.025 C 
ATOM     15  C   UNL     1       0.160  -4.625  -1.065  1.00  0.00     0.025 C 
ATOM     16  C   UNL     1      -2.018  -5.745  -0.777  1.00  0.00     0.025 C 
ENDBRANCH  11  13
ENDBRANCH   9  11
ENDBRANCH   7   9
ENDBRANCH   4   7
ENDBRANCH   2   3
ENDBRANCH   1   2
BRANCH   1  17
ATOM     17  C   UNL     1       0.953  -2.902  -4.758  1.00  0.00     0.023 C 
BRANCH  17  18
ATOM     18  C   UNL     1       1.126  -2.491  -6.205  1.00  0.00     0.116 C 
BRANCH  18  19
ATOM     19  N   UNL     1       2.442  -1.944  -6.474  1.00  0.00    -0.352 N 
ATOM     20  C   UNL     1       3.302  -2.217  -7.505  1.00  0.00     0.251 C 
ATOM     21  H   UNL     1       2.763  -1.281  -5.822  1.00  0.00     0.163 HD
ATOM     22  O   UNL     1       4.444  -1.752  -7.463  1.00  0.00    -0.269 OA
BRANCH  20  23
ATOM     23  C   UNL     1       2.891  -3.079  -8.637  1.00  0.00     0.039 A 
ATOM     24  C   UNL     1       3.840  -3.938  -9.196  1.00  0.00     0.014 A 
ATOM     25  C   UNL     1       1.598  -3.035  -9.171  1.00  0.00     0.014 A 
ATOM     26  C   UNL     1       3.485  -4.771 -10.258  1.00  0.00     0.010 A 
ATOM     27  C   UNL     1       1.219  -3.933 -10.167  1.00  0.00     0.010 A 
ATOM     28  C   UNL     1       2.165  -4.793 -10.738  1.00  0.00    -0.014 A 
BRANCH  28  29
ATOM     29  C   UNL     1       1.784  -5.693 -11.857  1.00  0.00     0.031 A 
ATOM     30  C   UNL     1       1.327  -5.121 -13.173  1.00  0.00     0.074 A 
ATOM     31  C   UNL     1       1.840  -7.028 -11.680  1.00  0.00     0.049 A 
ATOM     32  N   UNL     1       0.991  -5.747 -14.272  1.00  0.00    -0.248 NA
ATOM     33  C   UNL     1       1.206  -3.657 -13.261  1.00  0.00     0.031 C 
ATOM     34  C   UNL     1       2.192  -7.701 -10.426  1.00  0.00     0.029 A 
ATOM     35  N   UNL     1       1.609  -8.059 -12.554  1.00  0.00    -0.354 N 
ATOM     36  C   UNL     1       0.624  -4.758 -15.177  1.00  0.00     0.074 A 
ATOM     37  C   UNL     1       0.708  -3.495 -14.478  1.00  0.00     0.031 C 
ATOM     38  C   UNL     1       2.185  -9.029 -10.622  1.00  0.00     0.029 A 
ATOM     39  C   UNL     1       1.810  -9.303 -12.005  1.00  0.00     0.049 A 
ATOM     40  H   UNL     1       1.325  -7.921 -13.486  1.00  0.00     0.167 HD
ATOM     41  C   UNL     1       0.283  -4.884 -16.482  1.00  0.00     0.037 A 
ATOM     42  C   UNL     1       1.714 -10.527 -12.559  1.00  0.00     0.037 A 
ATOM     43  C   UNL     1       0.220  -6.143 -17.177  1.00  0.00     0.049 A 
ATOM     44  C   UNL     1       1.375 -10.640 -14.020  1.00  0.00     0.074 A 
ATOM     45  C   UNL     1      -0.079  -6.380 -18.508  1.00  0.00     0.029 A 
ATOM     46  N   UNL     1       0.469  -7.379 -16.598  1.00  0.00    -0.354 N 
ATOM     47  N   UNL     1       1.094  -9.687 -14.877  1.00  0.00    -0.248 NA
ATOM     48  C   UNL     1       1.359 -11.992 -14.594  1.00  0.00     0.031 C 
ATOM     49  C   UNL     1      -0.039  -7.762 -18.726  1.00  0.00     0.029 A 
ATOM     50  C   UNL     1       0.325  -8.383 -17.541  1.00  0.00     0.049 A 
ATOM     51  H   UNL     1       0.712  -7.521 -15.655  1.00  0.00     0.167 HD
ATOM     52  C   UNL     1       0.882 -10.322 -16.095  1.00  0.00     0.074 A 
ATOM     53  C   UNL     1       1.095 -11.738 -15.868  1.00  0.00     0.031 C 
ATOM     54  C   UNL     1       0.536  -9.786 -17.292  1.00  0.00     0.037 A 
BRANCH  41  55
ATOM     55  C   UNL     1      -0.021  -3.624 -17.245  1.00  0.00     0.058 A 
ATOM     56  C   UNL     1       0.990  -2.705 -17.571  1.00  0.00     0.135 A 
ATOM     57  C   UNL     1      -1.325  -3.341 -17.683  1.00  0.00     0.135 A 
ATOM     58  F   UNL     1       2.252  -2.915 -17.162  1.00  0.00    -0.206 F 
ATOM     59  C   UNL     1       0.717  -1.539 -18.278  1.00  0.00     0.059 A 
ATOM     60  C   UNL     1      -1.617  -2.193 -18.416  1.00  0.00     0.059 A 
ATOM     61  F   UNL     1      -2.331  -4.183 -17.398  1.00  0.00    -0.206 F 
ATOM     62  C   UNL     1      -0.591  -1.291 -18.696  1.00  0.00     0.060 A 
BRANCH  62  63
ATOM     63  S   UNL     1      -0.927   0.222 -19.621  1.00  0.00     0.124 S 
ATOM     64  O   UNL     1      -0.841   1.231 -18.570  1.00  0.00    -0.237 OA
ATOM     65  O   UNL     1       0.155   0.236 -20.601  1.00  0.00    -0.237 OA
ATOM     66  O   UNL     1      -2.261  -0.002 -20.168  1.00  0.00    -0.744 OA
ENDBRANCH  62  63
ENDBRANCH  41  55
BRANCH  42  67
ATOM     67  C   UNL     1       1.977 -11.737 -11.736  1.00  0.00     0.058 A 
ATOM     68  C   UNL     1       3.132 -12.509 -11.927  1.00  0.00     0.135 A 
ATOM     69  C   UNL     1       1.082 -12.138 -10.732  1.00  0.00     0.135 A 
ATOM     70  F   UNL     1       4.018 -12.168 -12.875  1.00  0.00    -0.206 F 
ATOM     71  C   UNL     1       3.382 -13.648 -11.168  1.00  0.00     0.059 A 
ATOM     72  C   UNL     1       1.322 -13.258  -9.943  1.00  0.00     0.059 A 
ATOM     73  F   UNL     1      -0.027 -11.421 -10.494  1.00  0.00    -0.206 F 
ATOM     74  C   UNL     1       2.470 -14.015 -10.177  1.00  0.00     0.060 A 
BRANCH  74  75
ATOM     75  S   UNL     1       2.822 -15.469  -9.165  1.00  0.00     0.124 S 
ATOM     76  O   UNL     1       2.502 -16.552 -10.087  1.00  0.00    -0.237 OA
ATOM     77  O   UNL     1       4.237 -15.292  -8.853  1.00  0.00    -0.237 OA
ATOM     78  O   UNL     1       1.916 -15.313  -8.031  1.00  0.00    -0.744 OA
ENDBRANCH  74  75
ENDBRANCH  42  67
BRANCH  54  79
ATOM     79  C   UNL     1       0.384 -10.739 -18.445  1.00  0.00     0.058 A 
ATOM     80  C   UNL     1      -0.704 -11.621 -18.530  1.00  0.00     0.135 A 
ATOM     81  C   UNL     1       1.330 -10.760 -19.482  1.00  0.00     0.135 A 
ATOM     82  F   UNL     1      -1.635 -11.641 -17.563  1.00  0.00    -0.206 F 
ATOM     83  C   UNL     1      -0.826 -12.524 -19.581  1.00  0.00     0.059 A 
ATOM     84  C   UNL     1       1.213 -11.635 -20.557  1.00  0.00     0.059 A 
ATOM     85  F   UNL     1       2.382  -9.926 -19.456  1.00  0.00    -0.206 F 
ATOM     86  C   UNL     1       0.142 -12.528 -20.586  1.00  0.00     0.060 A 
BRANCH  86  87
ATOM     87  S   UNL     1      -0.021 -13.707 -21.943  1.00  0.00     0.124 S 
ATOM     88  O   UNL     1       0.417 -14.945 -21.308  1.00  0.00    -0.237 OA
ATOM     89  O   UNL     1      -1.444 -13.626 -22.261  1.00  0.00    -0.237 OA
ATOM     90  O   UNL     1       0.874 -13.174 -22.965  1.00  0.00    -0.744 OA
ENDBRANCH  86  87
ENDBRANCH  54  79
ENDBRANCH  28  29
ENDBRANCH  20  23
ENDBRANCH  18  19
ENDBRANCH  17  18
ENDBRANCH   1  17
TORSDOF 17
