REMARK SMILES CCOc1cc(C(=O)NCCCCNC(=O)c2ccc(-c3c4nc(c(-c5c(F)cc(S(=O)(=O)[O-])cc5F)c5ccc([nH]5)c(-c5c(F)cc(S(=O)(=O)[O-])cc5F)c5nc(c(-c6c(F)cc(S(=O)(=O)[O-])cc6F)c6ccc3[nH]6)C=C5)C=C4)cc2)ccc1OCc1ccc(Cl)c(Cl)c1
REMARK SMILES IDX 11 1 10 2 9 3 7 4 8 5 6 7 4 8 5 9 85 10 84 11 83 12 3 13
REMARK SMILES IDX 2 14 1 15 86 16 87 17 88 18 89 19 95 20 90 21 93 22 91 23
REMARK SMILES IDX 94 24 92 25 12 26 13 27 14 28 15 29 16 31 17 32 18 33 82 34
REMARK SMILES IDX 19 35 81 36 20 37 21 38 22 39 75 40 23 41 80 42 74 43 76 44
REMARK SMILES IDX 24 45 79 46 73 47 72 48 25 50 59 51 38 52 58 53 39 54 42 55
REMARK SMILES IDX 57 56 77 57 40 58 41 59 56 61 78 62 43 63 26 64 27 65 36 66
REMARK SMILES IDX 28 67 29 68 35 69 37 70 30 71 31 72 32 73 33 74 34 75 60 76
REMARK SMILES IDX 61 77 70 78 62 79 63 80 69 81 71 82 64 83 65 84 66 85 67 86
REMARK SMILES IDX 68 87 44 88 45 89 54 90 46 91 47 92 53 93 55 94 48 95 49 96
REMARK SMILES IDX 50 97 51 98 52 99
REMARK H PARENT 9 6 14 30 76 49 42 60
REMARK Flexibility Score: inf
ROOT
ATOM      1  C   UNL     1       7.183   3.264   4.922  1.00  0.00     0.023 C 
ENDROOT
BRANCH   1   2
ATOM      2  C   UNL     1       6.668   1.850   4.694  1.00  0.00     0.116 C 
BRANCH   2   3
ATOM      3  N   UNL     1       5.646   1.418   5.643  1.00  0.00    -0.352 N 
ATOM      4  C   UNL     1       4.380   0.920   5.405  1.00  0.00     0.251 C 
ATOM      5  O   UNL     1       3.619   0.664   6.336  1.00  0.00    -0.269 OA
ATOM      6  H   UNL     1       5.896   1.494   6.593  1.00  0.00     0.163 HD
BRANCH   4   7
ATOM      7  C   UNL     1       3.918   0.705   4.013  1.00  0.00     0.043 A 
ATOM      8  C   UNL     1       2.295   1.089   2.260  1.00  0.00     0.161 A 
ATOM      9  C   UNL     1       2.643   1.147   3.613  1.00  0.00     0.064 A 
ATOM     10  C   UNL     1       3.238   0.624   1.334  1.00  0.00     0.161 A 
ATOM     11  C   UNL     1       4.477   0.136   1.743  1.00  0.00     0.051 A 
ATOM     12  C   UNL     1       4.783   0.104   3.092  1.00  0.00     0.018 A 
BRANCH   8  13
ATOM     13  O   UNL     1       1.095   1.564   1.803  1.00  0.00    -0.490 OA
BRANCH  13  14
ATOM     14  C   UNL     1      -0.023   0.713   2.095  1.00  0.00     0.226 C 
ATOM     15  C   UNL     1      -0.871   0.561   0.836  1.00  0.00     0.049 C 
ENDBRANCH  13  14
ENDBRANCH   8  13
BRANCH  10  16
ATOM     16  O   UNL     1       3.031   0.643  -0.002  1.00  0.00    -0.485 OA
BRANCH  16  17
ATOM     17  C   UNL     1       2.289  -0.436  -0.573  1.00  0.00     0.265 C 
BRANCH  17  18
ATOM     18  C   UNL     1       2.047  -1.826   0.030  1.00  0.00    -0.009 A 
ATOM     19  C   UNL     1       2.035  -2.168   1.388  1.00  0.00     0.009 A 
ATOM     20  C   UNL     1       1.663  -2.833  -0.876  1.00  0.00     0.029 A 
ATOM     21  C   UNL     1       1.640  -3.435   1.833  1.00  0.00     0.022 A 
ATOM     22  C   UNL     1       1.267  -4.106  -0.443  1.00  0.00     0.060 A 
ATOM     23  C   UNL     1       1.244  -4.405   0.919  1.00  0.00     0.059 A 
ATOM     24  Cl  UNL     1       0.791  -5.247  -1.648  1.00  0.00    -0.083 Cl
ATOM     25  Cl  UNL     1       0.713  -5.925   1.537  1.00  0.00    -0.083 Cl
ENDBRANCH  17  18
ENDBRANCH  16  17
ENDBRANCH  10  16
ENDBRANCH   4   7
ENDBRANCH   2   3
ENDBRANCH   1   2
BRANCH   1  26
ATOM     26  C   UNL     1       8.054   3.459   6.156  1.00  0.00     0.023 C 
BRANCH  26  27
ATOM     27  C   UNL     1       9.278   2.555   6.255  1.00  0.00     0.116 C 
BRANCH  27  28
ATOM     28  N   UNL     1      10.210   2.699   5.145  1.00  0.00    -0.352 N 
ATOM     29  C   UNL     1      11.563   2.961   5.163  1.00  0.00     0.251 C 
ATOM     30  H   UNL     1       9.816   2.593   4.250  1.00  0.00     0.163 HD
ATOM     31  O   UNL     1      12.163   3.141   4.107  1.00  0.00    -0.269 OA
BRANCH  29  32
ATOM     32  C   UNL     1      12.281   3.066   6.454  1.00  0.00     0.039 A 
ATOM     33  C   UNL     1      13.151   4.141   6.659  1.00  0.00     0.014 A 
ATOM     34  C   UNL     1      12.075   2.131   7.470  1.00  0.00     0.014 A 
ATOM     35  C   UNL     1      13.740   4.325   7.913  1.00  0.00     0.010 A 
ATOM     36  C   UNL     1      12.589   2.367   8.742  1.00  0.00     0.010 A 
ATOM     37  C   UNL     1      13.425   3.468   8.981  1.00  0.00    -0.014 A 
BRANCH  37  38
ATOM     38  C   UNL     1      13.949   3.711  10.352  1.00  0.00     0.031 A 
ATOM     39  C   UNL     1      14.825   2.685  11.022  1.00  0.00     0.074 A 
ATOM     40  C   UNL     1      13.578   4.821  11.024  1.00  0.00     0.049 A 
ATOM     41  N   UNL     1      15.320   2.685  12.233  1.00  0.00    -0.248 NA
ATOM     42  C   UNL     1      15.167   1.488  10.237  1.00  0.00     0.031 C 
ATOM     43  C   UNL     1      12.686   5.863  10.510  1.00  0.00     0.029 A 
ATOM     44  N   UNL     1      13.895   5.254  12.288  1.00  0.00    -0.354 N 
ATOM     45  C   UNL     1      16.015   1.488  12.360  1.00  0.00     0.074 A 
ATOM     46  C   UNL     1      15.829   0.760  11.124  1.00  0.00     0.031 C 
ATOM     47  C   UNL     1      12.549   6.824  11.438  1.00  0.00     0.029 A 
ATOM     48  C   UNL     1      13.306   6.450  12.628  1.00  0.00     0.049 A 
ATOM     49  H   UNL     1      14.488   4.754  12.895  1.00  0.00     0.167 HD
ATOM     50  C   UNL     1      16.760   1.046  13.401  1.00  0.00     0.037 A 
ATOM     51  C   UNL     1      13.362   7.162  13.771  1.00  0.00     0.037 A 
ATOM     52  C   UNL     1      16.962   1.786  14.620  1.00  0.00     0.049 A 
ATOM     53  C   UNL     1      14.201   6.653  14.912  1.00  0.00     0.074 A 
ATOM     54  C   UNL     1      17.751   1.453  15.707  1.00  0.00     0.029 A 
ATOM     55  N   UNL     1      16.370   3.005  14.915  1.00  0.00    -0.354 N 
ATOM     56  N   UNL     1      14.909   5.551  14.987  1.00  0.00    -0.248 NA
ATOM     57  C   UNL     1      14.256   7.486  16.122  1.00  0.00     0.031 C 
ATOM     58  C   UNL     1      17.597   2.445  16.680  1.00  0.00     0.029 A 
ATOM     59  C   UNL     1      16.758   3.427  16.177  1.00  0.00     0.049 A 
ATOM     60  H   UNL     1      15.764   3.498  14.317  1.00  0.00     0.167 HD
ATOM     61  C   UNL     1      15.517   5.573  16.238  1.00  0.00     0.074 A 
ATOM     62  C   UNL     1      15.103   6.804  16.880  1.00  0.00     0.031 C 
ATOM     63  C   UNL     1      16.344   4.658  16.802  1.00  0.00     0.037 A 
BRANCH  50  64
ATOM     64  C   UNL     1      17.419  -0.301  13.266  1.00  0.00     0.058 A 
ATOM     65  C   UNL     1      18.479  -0.519  12.371  1.00  0.00     0.135 A 
ATOM     66  C   UNL     1      17.012  -1.380  14.069  1.00  0.00     0.135 A 
ATOM     67  F   UNL     1      18.901   0.471  11.568  1.00  0.00    -0.206 F 
ATOM     68  C   UNL     1      19.090  -1.763  12.253  1.00  0.00     0.059 A 
ATOM     69  C   UNL     1      17.629  -2.625  13.991  1.00  0.00     0.059 A 
ATOM     70  F   UNL     1      16.004  -1.230  14.942  1.00  0.00    -0.206 F 
ATOM     71  C   UNL     1      18.658  -2.811  13.068  1.00  0.00     0.060 A 
BRANCH  71  72
ATOM     72  S   UNL     1      19.467  -4.416  12.907  1.00  0.00     0.124 S 
ATOM     73  O   UNL     1      18.953  -4.872  11.619  1.00  0.00    -0.237 OA
ATOM     74  O   UNL     1      20.881  -4.057  12.933  1.00  0.00    -0.237 OA
ATOM     75  O   UNL     1      18.989  -5.157  14.070  1.00  0.00    -0.744 OA
ENDBRANCH  71  72
ENDBRANCH  50  64
BRANCH  51  76
ATOM     76  C   UNL     1      12.619   8.447  13.884  1.00  0.00     0.058 A 
ATOM     77  C   UNL     1      13.298   9.674  13.936  1.00  0.00     0.135 A 
ATOM     78  C   UNL     1      11.216   8.477  13.933  1.00  0.00     0.135 A 
ATOM     79  F   UNL     1      14.639   9.699  13.901  1.00  0.00    -0.206 F 
ATOM     80  C   UNL     1      12.617  10.882  14.049  1.00  0.00     0.059 A 
ATOM     81  C   UNL     1      10.511   9.674  14.018  1.00  0.00     0.059 A 
ATOM     82  F   UNL     1      10.517   7.333  13.870  1.00  0.00    -0.206 F 
ATOM     83  C   UNL     1      11.222  10.871  14.086  1.00  0.00     0.060 A 
BRANCH  83  84
ATOM     84  S   UNL     1      10.347  12.449  14.183  1.00  0.00     0.124 S 
ATOM     85  O   UNL     1      10.615  12.850  15.559  1.00  0.00    -0.237 OA
ATOM     86  O   UNL     1      11.014  13.232  13.147  1.00  0.00    -0.237 OA
ATOM     87  O   UNL     1       8.964  12.084  13.889  1.00  0.00    -0.744 OA
ENDBRANCH  83  84
ENDBRANCH  51  76
BRANCH  63  88
ATOM     88  C   UNL     1      16.892   4.968  18.169  1.00  0.00     0.058 A 
ATOM     89  C   UNL     1      16.085   4.930  19.318  1.00  0.00     0.135 A 
ATOM     90  C   UNL     1      18.256   5.259  18.337  1.00  0.00     0.135 A 
ATOM     91  F   UNL     1      14.774   4.662  19.214  1.00  0.00    -0.206 F 
ATOM     92  C   UNL     1      16.606   5.197  20.580  1.00  0.00     0.059 A 
ATOM     93  C   UNL     1      18.804   5.498  19.593  1.00  0.00     0.059 A 
ATOM     94  F   UNL     1      19.075   5.296  17.274  1.00  0.00    -0.206 F 
ATOM     95  C   UNL     1      17.968   5.479  20.708  1.00  0.00     0.060 A 
BRANCH  95  96
ATOM     96  S   UNL     1      18.636   5.796  22.354  1.00  0.00     0.124 S 
ATOM     97  O   UNL     1      18.108   7.127  22.634  1.00  0.00    -0.237 OA
ATOM     98  O   UNL     1      18.060   4.708  23.139  1.00  0.00    -0.237 OA
ATOM     99  O   UNL     1      20.080   5.722  22.156  1.00  0.00    -0.744 OA
ENDBRANCH  95  96
ENDBRANCH  63  88
ENDBRANCH  37  38
ENDBRANCH  29  32
ENDBRANCH  27  28
ENDBRANCH  26  27
ENDBRANCH   1  26
TORSDOF 19
