REMARK SMILES Cc1cc(Cl)c2c(c1)C=C(C(=O)NCCCCNC(=O)c1ccc(-c3c4nc(c(-c5c(F)cc(S(=O)(=O)[O-])cc5F)c5ccc([nH]5)c(-c5c(F)cc(S(=O)(=O)[O-])cc5F)c5nc(c(-c6c(F)cc(S(=O)(=O)[O-])cc6F)c6ccc3[nH]6)C=C5)C=C4)cc1)[C@@H](C(F)(F)F)O2
REMARK SMILES IDX 16 1 15 2 14 3 13 4 11 5 12 6 10 8 1 9 2 10 3 11 8 12 4 13
REMARK SMILES IDX 7 14 5 15 6 16 9 17 92 18 87 19 88 20 89 21 90 22 91 23
REMARK SMILES IDX 17 24 18 25 19 26 20 28 21 29 22 30 86 31 23 32 85 33 24 34
REMARK SMILES IDX 25 35 26 36 79 37 27 38 84 39 78 40 80 41 28 42 83 43 77 44
REMARK SMILES IDX 76 45 29 47 63 48 42 49 62 50 43 51 46 52 61 53 81 54 44 55
REMARK SMILES IDX 45 56 60 58 82 59 47 60 30 61 31 62 40 63 32 64 33 65 39 66
REMARK SMILES IDX 41 67 34 68 35 69 36 70 37 71 38 72 64 73 65 74 74 75 66 76
REMARK SMILES IDX 67 77 73 78 75 79 68 80 69 81 70 82 71 83 72 84 48 85 49 86
REMARK SMILES IDX 58 87 50 88 51 89 57 90 59 91 52 92 53 93 54 94 55 95 56 96
REMARK H PARENT 13 7 18 27 80 46 46 57
REMARK Flexibility Score: inf
ROOT
ATOM      1  C   UNL     1      -1.456   9.970  -4.521  1.00  0.00     0.023 C 
ENDROOT
BRANCH   1   2
ATOM      2  C   UNL     1      -1.386   8.442  -4.582  1.00  0.00     0.023 C 
BRANCH   2   3
ATOM      3  C   UNL     1       0.034   7.883  -4.611  1.00  0.00     0.116 C 
BRANCH   3   4
ATOM      4  N   UNL     1       0.588   7.745  -3.276  1.00  0.00    -0.352 N 
ATOM      5  C   UNL     1       0.815   6.739  -2.401  1.00  0.00     0.251 C 
ATOM      6  O   UNL     1       1.321   7.080  -1.327  1.00  0.00    -0.270 OA
ATOM      7  H   UNL     1       0.875   8.614  -2.912  1.00  0.00     0.163 HD
BRANCH   5   8
ATOM      8  C   UNL     1       0.509   5.297  -2.642  1.00  0.00     0.067 C 
ATOM      9  C   UNL     1       1.054  -0.182   0.170  1.00  0.00     0.044 C 
ATOM     10  C   UNL     1       0.607   0.776  -0.894  1.00  0.00    -0.049 A 
ATOM     11  C   UNL     1      -0.050   0.318  -2.043  1.00  0.00     0.028 A 
ATOM     12  C   UNL     1       0.861   2.148  -0.754  1.00  0.00     0.015 A 
ATOM     13  C   UNL     1      -0.453   1.220  -3.030  1.00  0.00     0.084 A 
ATOM     14  C   UNL     1       0.464   3.053  -1.746  1.00  0.00     0.019 A 
ATOM     15  Cl  UNL     1      -1.266   0.604  -4.424  1.00  0.00    -0.080 Cl
ATOM     16  C   UNL     1      -0.189   2.585  -2.888  1.00  0.00     0.146 A 
ATOM     17  C   UNL     1       0.697   4.483  -1.586  1.00  0.00     0.025 C 
ATOM     18  O   UNL     1      -0.624   3.444  -3.861  1.00  0.00    -0.474 OA
ATOM     19  C   UNL     1       0.067   4.721  -3.957  1.00  0.00     0.314 C 
BRANCH  19  20
ATOM     20  C   UNL     1       1.222   4.601  -4.970  1.00  0.00     0.429 C 
ATOM     21  F   UNL     1       0.739   4.385  -6.219  1.00  0.00    -0.167 F 
ATOM     22  F   UNL     1       1.973   5.725  -5.037  1.00  0.00    -0.167 F 
ATOM     23  F   UNL     1       2.063   3.582  -4.679  1.00  0.00    -0.167 F 
ENDBRANCH  19  20
ENDBRANCH   5   8
ENDBRANCH   3   4
ENDBRANCH   2   3
ENDBRANCH   1   2
BRANCH   1  24
ATOM     24  C   UNL     1      -0.704  10.707  -5.629  1.00  0.00     0.116 C 
BRANCH  24  25
ATOM     25  N   UNL     1      -1.019  10.232  -6.968  1.00  0.00    -0.352 N 
ATOM     26  C   UNL     1      -1.075  10.958  -8.134  1.00  0.00     0.251 C 
ATOM     27  H   UNL     1      -1.217   9.271  -7.049  1.00  0.00     0.163 HD
ATOM     28  O   UNL     1      -1.432  10.431  -9.181  1.00  0.00    -0.269 OA
BRANCH  26  29
ATOM     29  C   UNL     1      -0.740  12.393  -8.089  1.00  0.00     0.039 A 
ATOM     30  C   UNL     1      -1.683  13.318  -8.540  1.00  0.00     0.014 A 
ATOM     31  C   UNL     1       0.471  12.816  -7.534  1.00  0.00     0.014 A 
ATOM     32  C   UNL     1      -1.439  14.680  -8.369  1.00  0.00     0.010 A 
ATOM     33  C   UNL     1       0.686  14.172  -7.312  1.00  0.00     0.010 A 
ATOM     34  C   UNL     1      -0.270  15.114  -7.723  1.00  0.00    -0.014 A 
BRANCH  34  35
ATOM     35  C   UNL     1      -0.027  16.555  -7.476  1.00  0.00     0.031 A 
ATOM     36  C   UNL     1       1.089  17.257  -8.195  1.00  0.00     0.074 A 
ATOM     37  C   UNL     1      -0.780  17.213  -6.574  1.00  0.00     0.049 A 
ATOM     38  N   UNL     1       1.491  18.495  -8.082  1.00  0.00    -0.248 NA
ATOM     39  C   UNL     1       1.871  16.454  -9.149  1.00  0.00     0.031 C 
ATOM     40  C   UNL     1      -1.865  16.624  -5.785  1.00  0.00     0.029 A 
ATOM     41  N   UNL     1      -0.749  18.523  -6.168  1.00  0.00    -0.354 N 
ATOM     42  C   UNL     1       2.574  18.619  -8.943  1.00  0.00     0.074 A 
ATOM     43  C   UNL     1       2.801  17.317  -9.530  1.00  0.00     0.031 C 
ATOM     44  C   UNL     1      -2.416  17.577  -5.015  1.00  0.00     0.029 A 
ATOM     45  C   UNL     1      -1.708  18.835  -5.234  1.00  0.00     0.049 A 
ATOM     46  H   UNL     1      -0.101  19.178  -6.514  1.00  0.00     0.167 HD
ATOM     47  C   UNL     1       3.295  19.725  -9.239  1.00  0.00     0.037 A 
ATOM     48  C   UNL     1      -1.986  20.006  -4.629  1.00  0.00     0.037 A 
ATOM     49  C   UNL     1       3.046  21.024  -8.675  1.00  0.00     0.049 A 
ATOM     50  C   UNL     1      -1.171  21.221  -4.973  1.00  0.00     0.074 A 
ATOM     51  C   UNL     1       3.691  22.218  -8.943  1.00  0.00     0.029 A 
ATOM     52  N   UNL     1       2.067  21.300  -7.732  1.00  0.00    -0.354 N 
ATOM     53  N   UNL     1      -0.174  21.329  -5.819  1.00  0.00    -0.248 NA
ATOM     54  C   UNL     1      -1.514  22.471  -4.281  1.00  0.00     0.031 C 
ATOM     55  C   UNL     1       3.116  23.213  -8.145  1.00  0.00     0.029 A 
ATOM     56  C   UNL     1       2.095  22.643  -7.400  1.00  0.00     0.049 A 
ATOM     57  H   UNL     1       1.443  20.638  -7.355  1.00  0.00     0.167 HD
ATOM     58  C   UNL     1       0.220  22.661  -5.772  1.00  0.00     0.074 A 
ATOM     59  C   UNL     1      -0.653  23.323  -4.824  1.00  0.00     0.031 C 
ATOM     60  C   UNL     1       1.216  23.280  -6.452  1.00  0.00     0.037 A 
BRANCH  47  61
ATOM     61  C   UNL     1       4.408  19.574 -10.235  1.00  0.00     0.058 A 
ATOM     62  C   UNL     1       4.141  19.403 -11.603  1.00  0.00     0.135 A 
ATOM     63  C   UNL     1       5.750  19.613  -9.826  1.00  0.00     0.135 A 
ATOM     64  F   UNL     1       2.874  19.339 -12.041  1.00  0.00    -0.206 F 
ATOM     65  C   UNL     1       5.167  19.246 -12.528  1.00  0.00     0.059 A 
ATOM     66  C   UNL     1       6.793  19.481 -10.739  1.00  0.00     0.059 A 
ATOM     67  F   UNL     1       6.058  19.770  -8.529  1.00  0.00    -0.206 F 
ATOM     68  C   UNL     1       6.490  19.283 -12.086  1.00  0.00     0.060 A 
BRANCH  68  69
ATOM     69  S   UNL     1       7.809  19.073 -13.299  1.00  0.00     0.124 S 
ATOM     70  O   UNL     1       7.732  17.640 -13.566  1.00  0.00    -0.237 OA
ATOM     71  O   UNL     1       7.377  19.944 -14.387  1.00  0.00    -0.237 OA
ATOM     72  O   UNL     1       9.002  19.514 -12.584  1.00  0.00    -0.744 OA
ENDBRANCH  68  69
ENDBRANCH  47  61
BRANCH  48  73
ATOM     73  C   UNL     1      -3.115  20.091  -3.667  1.00  0.00     0.058 A 
ATOM     74  C   UNL     1      -4.316  20.718  -4.030  1.00  0.00     0.135 A 
ATOM     75  C   UNL     1      -3.030  19.529  -2.385  1.00  0.00     0.135 A 
ATOM     76  F   UNL     1      -4.440  21.275  -5.244  1.00  0.00    -0.206 F 
ATOM     77  C   UNL     1      -5.393  20.790  -3.154  1.00  0.00     0.059 A 
ATOM     78  C   UNL     1      -4.100  19.573  -1.496  1.00  0.00     0.059 A 
ATOM     79  F   UNL     1      -1.906  18.906  -1.997  1.00  0.00    -0.206 F 
ATOM     80  C   UNL     1      -5.277  20.211  -1.889  1.00  0.00     0.060 A 
BRANCH  80  81
ATOM     81  S   UNL     1      -6.704  20.256  -0.782  1.00  0.00     0.124 S 
ATOM     82  O   UNL     1      -6.705  21.652  -0.361  1.00  0.00    -0.237 OA
ATOM     83  O   UNL     1      -7.792  19.856  -1.669  1.00  0.00    -0.237 OA
ATOM     84  O   UNL     1      -6.358  19.284   0.250  1.00  0.00    -0.744 OA
ENDBRANCH  80  81
ENDBRANCH  48  73
BRANCH  60  85
ATOM     85  C   UNL     1       1.416  24.746  -6.202  1.00  0.00     0.058 A 
ATOM     86  C   UNL     1       2.062  25.204  -5.045  1.00  0.00     0.135 A 
ATOM     87  C   UNL     1       1.029  25.693  -7.163  1.00  0.00     0.135 A 
ATOM     88  F   UNL     1       2.444  24.337  -4.095  1.00  0.00    -0.206 F 
ATOM     89  C   UNL     1       2.316  26.557  -4.846  1.00  0.00     0.059 A 
ATOM     90  C   UNL     1       1.289  27.049  -6.993  1.00  0.00     0.059 A 
ATOM     91  F   UNL     1       0.413  25.300  -8.290  1.00  0.00    -0.206 F 
ATOM     92  C   UNL     1       1.929  27.471  -5.829  1.00  0.00     0.060 A 
BRANCH  92  93
ATOM     93  S   UNL     1       2.317  29.218  -5.584  1.00  0.00     0.124 S 
ATOM     94  O   UNL     1       1.321  29.603  -4.590  1.00  0.00    -0.237 OA
ATOM     95  O   UNL     1       3.697  29.169  -5.113  1.00  0.00    -0.237 OA
ATOM     96  O   UNL     1       2.135  29.794  -6.913  1.00  0.00    -0.744 OA
ENDBRANCH  92  93
ENDBRANCH  60  85
ENDBRANCH  34  35
ENDBRANCH  26  29
ENDBRANCH  24  25
ENDBRANCH   1  24
TORSDOF 15
