REMARK SMILES Cc1ccc(NC(=O)c2csc(Br)c2)c(C(=O)NCCCCNC(=O)c2ccc(-c3c4nc(c(-c5c(F)cc(S(=O)(=O)[O-])cc5F)c5ccc([nH]5)c(-c5c(F)cc(S(=O)(=O)[O-])cc5F)c5nc(c(-c6c(F)cc(S(=O)(=O)[O-])cc6F)c6ccc3[nH]6)C=C5)C=C4)cc2)c1
REMARK SMILES IDX 21 1 20 2 19 3 18 4 16 5 17 6 15 8 1 9 2 10 3 11 92 12 4 13
REMARK SMILES IDX 5 14 6 15 7 16 8 18 9 19 10 20 14 21 11 22 12 23 13 24 22 25
REMARK SMILES IDX 23 26 24 27 25 29 26 30 27 31 91 32 28 33 90 34 29 35 30 36
REMARK SMILES IDX 31 37 84 38 32 39 89 40 83 41 85 42 33 43 88 44 82 45 81 46
REMARK SMILES IDX 34 48 68 49 47 50 67 51 48 52 51 53 66 54 86 55 49 56 50 57
REMARK SMILES IDX 65 59 87 60 52 61 35 62 36 63 45 64 37 65 38 66 44 67 46 68
REMARK SMILES IDX 39 69 40 70 41 71 42 72 43 73 69 74 70 75 79 76 71 77 72 78
REMARK SMILES IDX 78 79 80 80 73 81 74 82 75 83 76 84 77 85 53 86 54 87 63 88
REMARK SMILES IDX 55 89 56 90 62 91 64 92 57 93 58 94 59 95 60 96 61 97
REMARK H PARENT 18 7 6 17 23 28 85 47 51 58
REMARK Flexibility Score: inf
ROOT
ATOM      1  C   UNL     1       0.553   5.509  -1.871  1.00  0.00     0.023 C 
ENDROOT
BRANCH   1   2
ATOM      2  C   UNL     1       1.063   4.333  -1.028  1.00  0.00     0.023 C 
BRANCH   2   3
ATOM      3  C   UNL     1       0.275   4.090   0.271  1.00  0.00     0.116 C 
BRANCH   3   4
ATOM      4  N   UNL     1      -1.051   3.534   0.041  1.00  0.00    -0.352 N 
ATOM      5  C   UNL     1      -1.574   2.276  -0.116  1.00  0.00     0.253 C 
ATOM      6  O   UNL     1      -2.806   2.233  -0.216  1.00  0.00    -0.269 OA
ATOM      7  H   UNL     1      -1.742   4.233  -0.017  1.00  0.00     0.163 HD
BRANCH   5   8
ATOM      8  C   UNL     1      -0.800   0.984  -0.212  1.00  0.00     0.063 A 
ATOM      9  C   UNL     1       2.825  -0.247  -0.291  1.00  0.00     0.044 C 
ATOM     10  C   UNL     1       1.326  -0.240  -0.372  1.00  0.00    -0.050 A 
ATOM     11  C   UNL     1       0.634  -1.418  -0.613  1.00  0.00     0.005 A 
ATOM     12  C   UNL     1       0.603   0.949  -0.207  1.00  0.00     0.019 A 
ATOM     13  C   UNL     1      -0.758  -1.414  -0.633  1.00  0.00     0.027 A 
ATOM     14  C   UNL     1      -1.497  -0.254  -0.357  1.00  0.00     0.054 A 
BRANCH  14  15
ATOM     15  N   UNL     1      -2.913  -0.291  -0.263  1.00  0.00    -0.321 N 
ATOM     16  C   UNL     1      -3.849  -1.297  -0.180  1.00  0.00     0.256 C 
ATOM     17  H   UNL     1      -3.318   0.606  -0.255  1.00  0.00     0.170 HD
ATOM     18  O   UNL     1      -5.036  -1.034  -0.374  1.00  0.00    -0.269 OA
BRANCH  16  19
ATOM     19  C   UNL     1      -3.455  -2.662   0.154  1.00  0.00     0.052 A 
ATOM     20  C   UNL     1      -3.918  -3.752  -0.567  1.00  0.00     0.080 A 
ATOM     21  C   UNL     1      -2.623  -3.095   1.247  1.00  0.00     0.041 A 
ATOM     22  S   UNL     1      -3.249  -5.233  -0.029  1.00  0.00    -0.136 S 
ATOM     23  C   UNL     1      -2.405  -4.450   1.212  1.00  0.00     0.071 A 
ATOM     24  Br  UNL     1      -1.271  -5.349   2.400  1.00  0.00    -0.039 Br
ENDBRANCH  16  19
ENDBRANCH  14  15
ENDBRANCH   5   8
ENDBRANCH   3   4
ENDBRANCH   2   3
ENDBRANCH   1   2
BRANCH   1  25
ATOM     25  C   UNL     1       0.758   6.859  -1.191  1.00  0.00     0.116 C 
BRANCH  25  26
ATOM     26  N   UNL     1       1.769   7.710  -1.795  1.00  0.00    -0.352 N 
ATOM     27  C   UNL     1       2.145   8.981  -1.384  1.00  0.00     0.251 C 
ATOM     28  H   UNL     1       2.237   7.345  -2.580  1.00  0.00     0.163 HD
ATOM     29  O   UNL     1       2.787   9.729  -2.100  1.00  0.00    -0.269 OA
BRANCH  27  30
ATOM     30  C   UNL     1       1.848   9.348   0.021  1.00  0.00     0.039 A 
ATOM     31  C   UNL     1       2.942   9.473   0.886  1.00  0.00     0.014 A 
ATOM     32  C   UNL     1       0.549   9.273   0.517  1.00  0.00     0.014 A 
ATOM     33  C   UNL     1       2.752   9.326   2.258  1.00  0.00     0.010 A 
ATOM     34  C   UNL     1       0.372   9.052   1.872  1.00  0.00     0.010 A 
ATOM     35  C   UNL     1       1.480   9.019   2.734  1.00  0.00    -0.014 A 
BRANCH  35  36
ATOM     36  C   UNL     1       1.217   8.537   4.088  1.00  0.00     0.031 A 
ATOM     37  C   UNL     1       0.480   9.384   5.058  1.00  0.00     0.074 A 
ATOM     38  C   UNL     1       1.574   7.280   4.441  1.00  0.00     0.049 A 
ATOM     39  N   UNL     1       0.381   9.121   6.318  1.00  0.00    -0.248 NA
ATOM     40  C   UNL     1      -0.138  10.659   4.697  1.00  0.00     0.031 C 
ATOM     41  C   UNL     1       1.056   6.499   5.562  1.00  0.00     0.029 A 
ATOM     42  N   UNL     1       2.638   6.519   3.970  1.00  0.00    -0.354 N 
ATOM     43  C   UNL     1      -0.535   9.989   6.858  1.00  0.00     0.074 A 
ATOM     44  C   UNL     1      -0.721  11.002   5.852  1.00  0.00     0.031 C 
ATOM     45  C   UNL     1       1.910   5.502   5.837  1.00  0.00     0.029 A 
ATOM     46  C   UNL     1       3.090   5.699   5.015  1.00  0.00     0.049 A 
ATOM     47  H   UNL     1       3.011   6.551   3.059  1.00  0.00     0.167 HD
ATOM     48  C   UNL     1      -1.132   9.668   8.040  1.00  0.00     0.037 A 
ATOM     49  C   UNL     1       4.358   5.807   5.514  1.00  0.00     0.037 A 
ATOM     50  C   UNL     1      -0.383   8.619   8.732  1.00  0.00     0.049 A 
ATOM     51  C   UNL     1       4.429   6.228   6.966  1.00  0.00     0.074 A 
ATOM     52  C   UNL     1      -0.605   7.274   8.966  1.00  0.00     0.029 A 
ATOM     53  N   UNL     1       0.936   8.870   9.103  1.00  0.00    -0.354 N 
ATOM     54  N   UNL     1       3.416   6.690   7.647  1.00  0.00    -0.248 NA
ATOM     55  C   UNL     1       5.655   6.186   7.761  1.00  0.00     0.031 C 
ATOM     56  C   UNL     1       0.632   6.695   9.364  1.00  0.00     0.029 A 
ATOM     57  C   UNL     1       1.588   7.697   9.425  1.00  0.00     0.049 A 
ATOM     58  H   UNL     1       1.348   9.764   9.132  1.00  0.00     0.167 HD
ATOM     59  C   UNL     1       3.834   7.076   8.893  1.00  0.00     0.074 A 
ATOM     60  C   UNL     1       5.233   6.692   8.933  1.00  0.00     0.031 C 
ATOM     61  C   UNL     1       3.005   7.710   9.776  1.00  0.00     0.037 A 
BRANCH  48  62
ATOM     62  C   UNL     1      -2.495  10.167   8.491  1.00  0.00     0.058 A 
ATOM     63  C   UNL     1      -3.006   9.807   9.759  1.00  0.00     0.135 A 
ATOM     64  C   UNL     1      -3.413  10.869   7.674  1.00  0.00     0.135 A 
ATOM     65  F   UNL     1      -2.258   9.118  10.635  1.00  0.00    -0.206 F 
ATOM     66  C   UNL     1      -4.314  10.102  10.170  1.00  0.00     0.059 A 
ATOM     67  C   UNL     1      -4.702  11.218   8.082  1.00  0.00     0.059 A 
ATOM     68  F   UNL     1      -3.143  11.190   6.405  1.00  0.00    -0.206 F 
ATOM     69  C   UNL     1      -5.158  10.806   9.321  1.00  0.00     0.060 A 
BRANCH  69  70
ATOM     70  S   UNL     1      -6.858  11.148   9.815  1.00  0.00     0.124 S 
ATOM     71  O   UNL     1      -7.475   9.831   9.697  1.00  0.00    -0.237 OA
ATOM     72  O   UNL     1      -6.697  11.658  11.172  1.00  0.00    -0.237 OA
ATOM     73  O   UNL     1      -7.304  12.134   8.833  1.00  0.00    -0.744 OA
ENDBRANCH  69  70
ENDBRANCH  48  62
BRANCH  49  74
ATOM     74  C   UNL     1       5.373   6.119   4.473  1.00  0.00     0.058 A 
ATOM     75  C   UNL     1       5.664   5.107   3.540  1.00  0.00     0.135 A 
ATOM     76  C   UNL     1       5.658   7.444   4.112  1.00  0.00     0.135 A 
ATOM     77  F   UNL     1       5.434   3.821   3.850  1.00  0.00    -0.206 F 
ATOM     78  C   UNL     1       6.032   5.407   2.235  1.00  0.00     0.059 A 
ATOM     79  C   UNL     1       6.035   7.767   2.807  1.00  0.00     0.059 A 
ATOM     80  F   UNL     1       5.410   8.447   4.967  1.00  0.00    -0.206 F 
ATOM     81  C   UNL     1       6.134   6.745   1.861  1.00  0.00     0.060 A 
BRANCH  81  82
ATOM     82  S   UNL     1       6.170   7.116   0.092  1.00  0.00     0.124 S 
ATOM     83  O   UNL     1       7.315   6.335  -0.362  1.00  0.00    -0.237 OA
ATOM     84  O   UNL     1       4.860   6.618  -0.328  1.00  0.00    -0.237 OA
ATOM     85  O   UNL     1       6.336   8.564   0.058  1.00  0.00    -0.744 OA
ENDBRANCH  81  82
ENDBRANCH  49  74
BRANCH  61  86
ATOM     86  C   UNL     1       3.441   8.350  11.075  1.00  0.00     0.058 A 
ATOM     87  C   UNL     1       4.705   8.931  11.283  1.00  0.00     0.135 A 
ATOM     88  C   UNL     1       2.519   8.509  12.137  1.00  0.00     0.135 A 
ATOM     89  F   UNL     1       5.627   8.961  10.310  1.00  0.00    -0.206 F 
ATOM     90  C   UNL     1       5.061   9.549  12.485  1.00  0.00     0.059 A 
ATOM     91  C   UNL     1       2.834   9.170  13.323  1.00  0.00     0.059 A 
ATOM     92  F   UNL     1       1.269   8.029  12.050  1.00  0.00    -0.206 F 
ATOM     93  C   UNL     1       4.119   9.660  13.503  1.00  0.00     0.060 A 
BRANCH  93  94
ATOM     94  S   UNL     1       4.546  10.495  15.043  1.00  0.00     0.124 S 
ATOM     95  O   UNL     1       4.930   9.369  15.888  1.00  0.00    -0.237 OA
ATOM     96  O   UNL     1       5.636  11.382  14.646  1.00  0.00    -0.237 OA
ATOM     97  O   UNL     1       3.304  11.168  15.408  1.00  0.00    -0.744 OA
ENDBRANCH  93  94
ENDBRANCH  61  86
ENDBRANCH  35  36
ENDBRANCH  27  30
ENDBRANCH  25  26
ENDBRANCH   1  25
TORSDOF 16
