REMARK SMILES N#Cc1nccnc1N(CC(=O)NCCCCNC(=O)c1ccc(-c2c3nc(c(-c4c(F)cc(S(=O)(=O)[O-])cc4F)c4ccc([nH]4)c(-c4c(F)cc(S(=O)(=O)[O-])cc4F)c4nc(c(-c5c(F)cc(S(=O)(=O)[O-])cc5F)c5ccc2[nH]5)C=C4)C=C3)cc1)CC(F)(F)F
REMARK SMILES IDX 15 1 14 2 13 3 11 4 12 5 10 7 9 8 8 9 3 10 4 11 5 12 7 13
REMARK SMILES IDX 6 14 2 15 1 16 87 17 88 18 89 19 90 20 91 21 16 22 17 23
REMARK SMILES IDX 18 24 19 25 20 27 21 28 22 29 86 30 23 31 85 32 24 33 25 34
REMARK SMILES IDX 26 35 79 36 27 37 84 38 78 39 80 40 28 41 83 42 77 43 76 44
REMARK SMILES IDX 29 46 63 47 42 48 62 49 43 50 46 51 61 52 81 53 44 54 45 55
REMARK SMILES IDX 60 57 82 58 47 59 30 60 31 61 40 62 32 63 33 64 39 65 41 66
REMARK SMILES IDX 34 67 35 68 36 69 37 70 38 71 64 72 65 73 74 74 66 75 67 76
REMARK SMILES IDX 73 77 75 78 68 79 69 80 70 81 71 82 72 83 48 84 49 85 58 86
REMARK SMILES IDX 50 87 51 88 57 89 59 90 52 91 53 92 54 93 55 94 56 95
REMARK H PARENT 13 6 18 26 80 45 46 56
REMARK Flexibility Score: inf
ROOT
ATOM      1  C   UNL     1       3.644  -2.389   3.079  1.00  0.00     0.023 C 
ENDROOT
BRANCH   1   2
ATOM      2  C   UNL     1       4.658  -3.357   2.476  1.00  0.00     0.116 C 
BRANCH   2   3
ATOM      3  N   UNL     1       4.018  -4.463   1.792  1.00  0.00    -0.355 N 
ATOM      4  C   UNL     1       3.812  -4.623   0.452  1.00  0.00     0.239 C 
ATOM      5  O   UNL     1       3.201  -5.619   0.054  1.00  0.00    -0.273 OA
ATOM      6  H   UNL     1       3.690  -5.192   2.367  1.00  0.00     0.163 HD
BRANCH   4   7
ATOM      7  C   UNL     1       4.336  -3.577  -0.537  1.00  0.00     0.218 C 
BRANCH   7   8
ATOM      8  N   UNL     1       3.543  -2.317  -0.528  1.00  0.00    -0.336 N 
BRANCH   8   9
ATOM      9  C   UNL     1       4.226  -1.123  -0.359  1.00  0.00     0.166 A 
ATOM     10  C   UNL     1       3.735   0.196  -0.446  1.00  0.00     0.183 A 
ATOM     11  N   UNL     1       4.497   1.317  -0.219  1.00  0.00    -0.240 NA
ATOM     12  C   UNL     1       5.785   1.113   0.100  1.00  0.00     0.133 A 
ATOM     13  N   UNL     1       5.551  -1.252  -0.062  1.00  0.00    -0.235 NA
ATOM     14  C   UNL     1       6.306  -0.153   0.168  1.00  0.00     0.133 A 
BRANCH  10  15
ATOM     15  C   UNL     1       2.402   0.539  -0.847  1.00  0.00     0.123 C 
ATOM     16  N   UNL     1       1.328   0.798  -1.203  1.00  0.00    -0.191 NA
ENDBRANCH  10  15
ENDBRANCH   8   9
BRANCH   8  17
ATOM     17  C   UNL     1       2.093  -2.480  -0.851  1.00  0.00     0.234 C 
BRANCH  17  18
ATOM     18  C   UNL     1       1.092  -2.356   0.315  1.00  0.00     0.405 C 
ATOM     19  F   UNL     1       1.274  -1.216   1.018  1.00  0.00    -0.169 F 
ATOM     20  F   UNL     1      -0.177  -2.348  -0.152  1.00  0.00    -0.169 F 
ATOM     21  F   UNL     1       1.197  -3.388   1.179  1.00  0.00    -0.169 F 
ENDBRANCH  17  18
ENDBRANCH   8  17
ENDBRANCH   7   8
ENDBRANCH   4   7
ENDBRANCH   2   3
ENDBRANCH   1   2
BRANCH   1  22
ATOM     22  C   UNL     1       2.842  -2.969   4.242  1.00  0.00     0.023 C 
BRANCH  22  23
ATOM     23  C   UNL     1       3.694  -3.367   5.437  1.00  0.00     0.116 C 
BRANCH  23  24
ATOM     24  N   UNL     1       4.430  -2.247   6.015  1.00  0.00    -0.352 N 
ATOM     25  C   UNL     1       4.669  -1.976   7.344  1.00  0.00     0.251 C 
ATOM     26  H   UNL     1       4.806  -1.603   5.372  1.00  0.00     0.163 HD
ATOM     27  O   UNL     1       5.189  -0.918   7.681  1.00  0.00    -0.269 OA
BRANCH  25  28
ATOM     28  C   UNL     1       4.244  -2.967   8.354  1.00  0.00     0.039 A 
ATOM     29  C   UNL     1       4.489  -4.322   8.135  1.00  0.00     0.014 A 
ATOM     30  C   UNL     1       3.501  -2.553   9.460  1.00  0.00     0.014 A 
ATOM     31  C   UNL     1       3.800  -5.265   8.881  1.00  0.00     0.010 A 
ATOM     32  C   UNL     1       2.914  -3.512  10.291  1.00  0.00     0.010 A 
ATOM     33  C   UNL     1       2.997  -4.876   9.966  1.00  0.00    -0.014 A 
BRANCH  33  34
ATOM     34  C   UNL     1       2.231  -5.919  10.703  1.00  0.00     0.031 A 
ATOM     35  C   UNL     1       0.724  -5.875  10.761  1.00  0.00     0.074 A 
ATOM     36  C   UNL     1       2.896  -6.959  11.245  1.00  0.00     0.049 A 
ATOM     37  N   UNL     1      -0.102  -6.727  11.315  1.00  0.00    -0.248 NA
ATOM     38  C   UNL     1       0.053  -4.730  10.123  1.00  0.00     0.031 C 
ATOM     39  C   UNL     1       4.353  -7.121  11.242  1.00  0.00     0.029 A 
ATOM     40  N   UNL     1       2.442  -8.094  11.869  1.00  0.00    -0.354 N 
ATOM     41  C   UNL     1      -1.379  -6.214  11.108  1.00  0.00     0.074 A 
ATOM     42  C   UNL     1      -1.219  -4.953  10.420  1.00  0.00     0.031 C 
ATOM     43  C   UNL     1       4.667  -8.313  11.767  1.00  0.00     0.029 A 
ATOM     44  C   UNL     1       3.445  -8.966  12.223  1.00  0.00     0.049 A 
ATOM     45  H   UNL     1       1.489  -8.268  12.046  1.00  0.00     0.167 HD
ATOM     46  C   UNL     1      -2.576  -6.757  11.439  1.00  0.00     0.037 A 
ATOM     47  C   UNL     1       3.396 -10.152  12.859  1.00  0.00     0.037 A 
ATOM     48  C   UNL     1      -2.728  -8.028  12.098  1.00  0.00     0.049 A 
ATOM     49  C   UNL     1       2.060 -10.700  13.274  1.00  0.00     0.074 A 
ATOM     50  C   UNL     1      -3.899  -8.676  12.451  1.00  0.00     0.029 A 
ATOM     51  N   UNL     1      -1.682  -8.845  12.503  1.00  0.00    -0.354 N 
ATOM     52  N   UNL     1       0.864 -10.214  13.040  1.00  0.00    -0.248 NA
ATOM     53  C   UNL     1       2.063 -11.947  14.048  1.00  0.00     0.031 C 
ATOM     54  C   UNL     1      -3.561  -9.852  13.124  1.00  0.00     0.029 A 
ATOM     55  C   UNL     1      -2.181  -9.970  13.139  1.00  0.00     0.049 A 
ATOM     56  H   UNL     1      -0.727  -8.653  12.361  1.00  0.00     0.167 HD
ATOM     57  C   UNL     1      -0.028 -11.099  13.635  1.00  0.00     0.074 A 
ATOM     58  C   UNL     1       0.765 -12.166  14.210  1.00  0.00     0.031 C 
ATOM     59  C   UNL     1      -1.379 -11.025  13.709  1.00  0.00     0.037 A 
BRANCH  46  60
ATOM     60  C   UNL     1      -3.823  -5.983  11.100  1.00  0.00     0.058 A 
ATOM     61  C   UNL     1      -4.256  -5.822   9.774  1.00  0.00     0.135 A 
ATOM     62  C   UNL     1      -4.633  -5.453  12.119  1.00  0.00     0.135 A 
ATOM     63  F   UNL     1      -3.517  -6.296   8.759  1.00  0.00    -0.206 F 
ATOM     64  C   UNL     1      -5.433  -5.145   9.470  1.00  0.00     0.059 A 
ATOM     65  C   UNL     1      -5.830  -4.799  11.840  1.00  0.00     0.059 A 
ATOM     66  F   UNL     1      -4.269  -5.578  13.405  1.00  0.00    -0.206 F 
ATOM     67  C   UNL     1      -6.216  -4.641  10.510  1.00  0.00     0.060 A 
BRANCH  67  68
ATOM     68  S   UNL     1      -7.746  -3.779  10.092  1.00  0.00     0.124 S 
ATOM     69  O   UNL     1      -7.236  -2.586   9.424  1.00  0.00    -0.237 OA
ATOM     70  O   UNL     1      -8.420  -4.747   9.232  1.00  0.00    -0.237 OA
ATOM     71  O   UNL     1      -8.375  -3.549  11.388  1.00  0.00    -0.744 OA
ENDBRANCH  67  68
ENDBRANCH  46  60
BRANCH  47  72
ATOM     72  C   UNL     1       4.657 -10.888  13.149  1.00  0.00     0.058 A 
ATOM     73  C   UNL     1       4.939 -12.113  12.528  1.00  0.00     0.135 A 
ATOM     74  C   UNL     1       5.619 -10.366  14.030  1.00  0.00     0.135 A 
ATOM     75  F   UNL     1       4.050 -12.659  11.685  1.00  0.00    -0.206 F 
ATOM     76  C   UNL     1       6.126 -12.797  12.772  1.00  0.00     0.059 A 
ATOM     77  C   UNL     1       6.827 -11.014  14.264  1.00  0.00     0.059 A 
ATOM     78  F   UNL     1       5.405  -9.191  14.642  1.00  0.00    -0.206 F 
ATOM     79  C   UNL     1       7.068 -12.234  13.635  1.00  0.00     0.060 A 
BRANCH  79  80
ATOM     80  S   UNL     1       8.626 -13.107  13.899  1.00  0.00     0.124 S 
ATOM     81  O   UNL     1       8.181 -14.297  14.613  1.00  0.00    -0.237 OA
ATOM     82  O   UNL     1       9.089 -13.317  12.531  1.00  0.00    -0.237 OA
ATOM     83  O   UNL     1       9.415 -12.160  14.682  1.00  0.00    -0.744 OA
ENDBRANCH  79  80
ENDBRANCH  47  72
BRANCH  59  84
ATOM     84  C   UNL     1      -2.100 -12.120  14.446  1.00  0.00     0.058 A 
ATOM     85  C   UNL     1      -2.042 -12.215  15.845  1.00  0.00     0.135 A 
ATOM     86  C   UNL     1      -2.935 -13.019  13.762  1.00  0.00     0.135 A 
ATOM     87  F   UNL     1      -1.252 -11.386  16.547  1.00  0.00    -0.206 F 
ATOM     88  C   UNL     1      -2.780 -13.166  16.540  1.00  0.00     0.059 A 
ATOM     89  C   UNL     1      -3.707 -13.958  14.439  1.00  0.00     0.059 A 
ATOM     90  F   UNL     1      -3.034 -12.966  12.424  1.00  0.00    -0.206 F 
ATOM     91  C   UNL     1      -3.621 -14.025  15.829  1.00  0.00     0.060 A 
BRANCH  91  92
ATOM     92  S   UNL     1      -4.620 -15.207  16.756  1.00  0.00     0.124 S 
ATOM     93  O   UNL     1      -3.598 -16.099  17.296  1.00  0.00    -0.237 OA
ATOM     94  O   UNL     1      -5.290 -14.349  17.727  1.00  0.00    -0.237 OA
ATOM     95  O   UNL     1      -5.488 -15.793  15.739  1.00  0.00    -0.744 OA
ENDBRANCH  91  92
ENDBRANCH  59  84
ENDBRANCH  33  34
ENDBRANCH  25  28
ENDBRANCH  23  24
ENDBRANCH  22  23
ENDBRANCH   1  22
TORSDOF 19
