REMARK SMILES O=C(NCCCCNC(=O)[C@@]12C[C@H]3C[C@@H](C1)C[C@](n1cc([N+](=O)[O-])cn1)(C3)C2)c1ccc(-c2c3nc(c(-c4c(F)cc(S(=O)(=O)[O-])cc4F)c4ccc([nH]4)c(-c4c(F)cc(S(=O)(=O)[O-])cc4F)c4nc(c(-c5c(F)cc(S(=O)(=O)[O-])cc5F)c5ccc2[nH]5)C=C4)C=C3)cc1
REMARK SMILES IDX 5 1 4 2 3 3 1 4 2 5 29 7 30 8 94 9 31 10 93 11 32 12 33 13
REMARK SMILES IDX 34 14 87 15 35 16 92 17 86 18 88 19 36 20 91 21 85 22 84 23
REMARK SMILES IDX 37 25 71 26 50 27 70 28 51 29 54 30 69 31 89 32 52 33 53 34
REMARK SMILES IDX 68 36 90 37 55 38 38 39 39 40 48 41 40 42 41 43 47 44 49 45
REMARK SMILES IDX 42 46 43 47 44 48 45 49 46 50 72 51 73 52 82 53 74 54 75 55
REMARK SMILES IDX 81 56 83 57 76 58 77 59 78 60 79 61 80 62 56 63 57 64 66 65
REMARK SMILES IDX 58 66 59 67 65 68 67 69 60 70 61 71 62 72 63 73 64 74 6 75
REMARK SMILES IDX 7 76 8 77 9 78 10 80 11 81 12 82 16 83 28 84 13 85 15 86
REMARK SMILES IDX 18 87 14 88 27 89 17 90 19 91 20 92 26 93 21 94 25 95 22 96
REMARK SMILES IDX 23 97 24 98
REMARK H PARENT 3 6 88 24 54 35 8 79
REMARK Flexibility Score: inf
ROOT
ATOM      1  C   UNL     1       5.053  -0.277   2.163  1.00  0.00     0.023 C 
ENDROOT
BRANCH   1   2
ATOM      2  C   UNL     1       4.776  -0.691   0.715  1.00  0.00     0.116 C 
BRANCH   2   3
ATOM      3  N   UNL     1       3.389  -0.971   0.397  1.00  0.00    -0.352 N 
ATOM      4  O   UNL     1       1.287  -0.785  -0.270  1.00  0.00    -0.269 OA
ATOM      5  C   UNL     1       2.291  -0.194   0.136  1.00  0.00     0.251 C 
ATOM      6  H   UNL     1       3.193  -1.935   0.360  1.00  0.00     0.163 HD
BRANCH   5   7
ATOM      7  C   UNL     1       2.213   1.274   0.371  1.00  0.00     0.039 A 
ATOM      8  C   UNL     1       3.306   2.126   0.533  1.00  0.00     0.014 A 
ATOM      9  C   UNL     1       0.919   1.824   0.445  1.00  0.00     0.014 A 
ATOM     10  C   UNL     1       3.118   3.465   0.868  1.00  0.00     0.010 A 
ATOM     11  C   UNL     1       0.725   3.169   0.746  1.00  0.00     0.010 A 
ATOM     12  C   UNL     1       1.828   3.982   0.994  1.00  0.00    -0.014 A 
BRANCH  12  13
ATOM     13  C   UNL     1       1.687   5.412   1.266  1.00  0.00     0.031 A 
ATOM     14  C   UNL     1       2.144   6.329   0.179  1.00  0.00     0.074 A 
ATOM     15  C   UNL     1       1.037   5.902   2.341  1.00  0.00     0.049 A 
ATOM     16  N   UNL     1       3.037   7.265   0.228  1.00  0.00    -0.248 NA
ATOM     17  C   UNL     1       1.572   6.122  -1.161  1.00  0.00     0.031 C 
ATOM     18  C   UNL     1       0.252   5.158   3.328  1.00  0.00     0.029 A 
ATOM     19  N   UNL     1       0.844   7.202   2.704  1.00  0.00    -0.354 N 
ATOM     20  C   UNL     1       3.015   7.888  -1.021  1.00  0.00     0.074 A 
ATOM     21  C   UNL     1       2.189   7.067  -1.869  1.00  0.00     0.031 C 
ATOM     22  C   UNL     1      -0.509   6.027   4.030  1.00  0.00     0.029 A 
ATOM     23  C   UNL     1      -0.174   7.384   3.630  1.00  0.00     0.049 A 
ATOM     24  H   UNL     1       1.378   7.945   2.341  1.00  0.00     0.167 HD
ATOM     25  C   UNL     1       3.529   9.132  -1.233  1.00  0.00     0.037 A 
ATOM     26  C   UNL     1      -0.758   8.559   3.974  1.00  0.00     0.037 A 
ATOM     27  C   UNL     1       4.410   9.538  -0.173  1.00  0.00     0.049 A 
ATOM     28  C   UNL     1       0.167   9.656   3.589  1.00  0.00     0.074 A 
ATOM     29  C   UNL     1       5.593   9.057   0.352  1.00  0.00     0.029 A 
ATOM     30  N   UNL     1       3.947  10.454   0.739  1.00  0.00    -0.354 N 
ATOM     31  N   UNL     1       1.320   9.882   4.154  1.00  0.00    -0.248 NA
ATOM     32  C   UNL     1      -0.022  10.284   2.290  1.00  0.00     0.031 C 
ATOM     33  C   UNL     1       5.523   9.339   1.747  1.00  0.00     0.029 A 
ATOM     34  C   UNL     1       4.316  10.001   1.978  1.00  0.00     0.049 A 
ATOM     35  H   UNL     1       3.446  11.278   0.540  1.00  0.00     0.167 HD
ATOM     36  C   UNL     1       2.142  10.319   3.126  1.00  0.00     0.074 A 
ATOM     37  C   UNL     1       1.236  10.649   2.031  1.00  0.00     0.031 C 
ATOM     38  C   UNL     1       3.491  10.116   3.160  1.00  0.00     0.037 A 
BRANCH  25  39
ATOM     39  C   UNL     1       2.999  10.120  -2.247  1.00  0.00     0.058 A 
ATOM     40  C   UNL     1       3.741  11.281  -2.548  1.00  0.00     0.135 A 
ATOM     41  C   UNL     1       1.665  10.111  -2.709  1.00  0.00     0.135 A 
ATOM     42  F   UNL     1       5.018  11.400  -2.150  1.00  0.00    -0.206 F 
ATOM     43  C   UNL     1       3.176  12.384  -3.192  1.00  0.00     0.059 A 
ATOM     44  C   UNL     1       1.098  11.177  -3.401  1.00  0.00     0.059 A 
ATOM     45  F   UNL     1       0.821   9.111  -2.422  1.00  0.00    -0.206 F 
ATOM     46  C   UNL     1       1.845  12.328  -3.594  1.00  0.00     0.060 A 
BRANCH  46  47
ATOM     47  S   UNL     1       1.071  13.795  -4.299  1.00  0.00     0.124 S 
ATOM     48  O   UNL     1       0.963  14.655  -3.127  1.00  0.00    -0.237 OA
ATOM     49  O   UNL     1       2.046  14.203  -5.305  1.00  0.00    -0.237 OA
ATOM     50  O   UNL     1      -0.191  13.286  -4.829  1.00  0.00    -0.744 OA
ENDBRANCH  46  47
ENDBRANCH  25  39
BRANCH  26  51
ATOM     51  C   UNL     1      -2.185   8.801   4.313  1.00  0.00     0.058 A 
ATOM     52  C   UNL     1      -2.602  10.007   4.904  1.00  0.00     0.135 A 
ATOM     53  C   UNL     1      -3.209   7.968   3.815  1.00  0.00     0.135 A 
ATOM     54  F   UNL     1      -1.695  10.874   5.379  1.00  0.00    -0.206 F 
ATOM     55  C   UNL     1      -3.948  10.384   4.960  1.00  0.00     0.059 A 
ATOM     56  C   UNL     1      -4.557   8.315   3.874  1.00  0.00     0.059 A 
ATOM     57  F   UNL     1      -2.924   6.829   3.167  1.00  0.00    -0.206 F 
ATOM     58  C   UNL     1      -4.918   9.538   4.424  1.00  0.00     0.060 A 
BRANCH  58  59
ATOM     59  S   UNL     1      -6.636  10.094   4.334  1.00  0.00     0.124 S 
ATOM     60  O   UNL     1      -7.034  10.073   5.737  1.00  0.00    -0.237 OA
ATOM     61  O   UNL     1      -6.501  11.414   3.727  1.00  0.00    -0.237 OA
ATOM     62  O   UNL     1      -7.274   9.087   3.490  1.00  0.00    -0.744 OA
ENDBRANCH  58  59
ENDBRANCH  26  51
BRANCH  38  63
ATOM     63  C   UNL     1       4.124   9.716   4.465  1.00  0.00     0.058 A 
ATOM     64  C   UNL     1       3.851   8.513   5.139  1.00  0.00     0.135 A 
ATOM     65  C   UNL     1       5.168  10.509   4.967  1.00  0.00     0.135 A 
ATOM     66  F   UNL     1       2.945   7.646   4.665  1.00  0.00    -0.206 F 
ATOM     67  C   UNL     1       4.556   8.137   6.283  1.00  0.00     0.059 A 
ATOM     68  C   UNL     1       5.906  10.137   6.087  1.00  0.00     0.059 A 
ATOM     69  F   UNL     1       5.520  11.639   4.330  1.00  0.00    -0.206 F 
ATOM     70  C   UNL     1       5.586   8.953   6.748  1.00  0.00     0.060 A 
BRANCH  70  71
ATOM     71  S   UNL     1       6.565   8.415   8.167  1.00  0.00     0.124 S 
ATOM     72  O   UNL     1       5.633   8.621   9.276  1.00  0.00    -0.237 OA
ATOM     73  O   UNL     1       6.854   7.017   7.841  1.00  0.00    -0.237 OA
ATOM     74  O   UNL     1       7.717   9.300   8.146  1.00  0.00    -0.744 OA
ENDBRANCH  70  71
ENDBRANCH  38  63
ENDBRANCH  12  13
ENDBRANCH   5   7
ENDBRANCH   2   3
ENDBRANCH   1   2
BRANCH   1  75
ATOM     75  C   UNL     1       4.614  -1.277   3.230  1.00  0.00     0.023 C 
BRANCH  75  76
ATOM     76  C   UNL     1       5.199  -2.674   3.085  1.00  0.00     0.116 C 
BRANCH  76  77
ATOM     77  N   UNL     1       6.633  -2.751   3.366  1.00  0.00    -0.356 N 
ATOM     78  C   UNL     1       7.384  -3.664   4.063  1.00  0.00     0.226 C 
ATOM     79  H   UNL     1       7.157  -2.010   2.985  1.00  0.00     0.163 HD
ATOM     80  O   UNL     1       8.611  -3.562   4.004  1.00  0.00    -0.274 OA
BRANCH  78  81
ATOM     81  C   UNL     1       6.719  -4.793   4.868  1.00  0.00     0.052 C 
ATOM     82  C   UNL     1       7.730  -5.774   5.527  1.00  0.00     0.020 C 
ATOM     83  C   UNL     1       5.862  -4.204   6.011  1.00  0.00     0.020 C 
ATOM     84  C   UNL     1       5.931  -5.672   3.898  1.00  0.00     0.047 C 
ATOM     85  C   UNL     1       6.971  -6.908   6.272  1.00  0.00    -0.007 C 
ATOM     86  C   UNL     1       5.092  -5.311   6.739  1.00  0.00    -0.007 C 
ATOM     87  C   UNL     1       5.052  -6.720   4.619  1.00  0.00     0.065 C 
ATOM     88  C   UNL     1       6.099  -6.283   7.369  1.00  0.00     0.007 C 
ATOM     89  C   UNL     1       6.048  -7.692   5.307  1.00  0.00     0.034 C 
ATOM     90  C   UNL     1       4.198  -6.048   5.724  1.00  0.00     0.034 C 
BRANCH  87  91
ATOM     91  N   UNL     1       4.197  -7.330   3.576  1.00  0.00    -0.259 N 
ATOM     92  C   UNL     1       3.510  -6.556   2.650  1.00  0.00     0.195 A 
ATOM     93  N   UNL     1       4.509  -8.545   3.058  1.00  0.00    -0.173 NA
ATOM     94  C   UNL     1       3.905  -7.080   1.435  1.00  0.00     0.307 A 
ATOM     95  C   UNL     1       4.394  -8.359   1.736  1.00  0.00     0.220 A 
BRANCH  94  96
ATOM     96  N   UNL     1       3.947  -6.391   0.188  1.00  0.00     0.066 N 
ATOM     97  O   UNL     1       3.839  -7.073  -0.836  1.00  0.00    -0.258 OA
ATOM     98  O   UNL     1       4.166  -5.171   0.240  1.00  0.00    -0.258 OA
ENDBRANCH  94  96
ENDBRANCH  87  91
ENDBRANCH  78  81
ENDBRANCH  76  77
ENDBRANCH  75  76
ENDBRANCH   1  75
TORSDOF 16
