REMARK SMILES COc1cc2c(cc1OC)C1=C(C#N)C[N@@H+](CC(=O)NCCCCNC(=O)c3ccc(-c4c5nc(c(-c6c(F)cc(S(=O)(=O)[O-])cc6F)c6ccc([nH]6)c(-c6c(F)cc(S(=O)(=O)[O-])cc6F)c6nc(c(-c7c(F)cc(S(=O)(=O)[O-])cc7F)c7ccc4[nH]7)C=C6)C=C5)cc3)CN1CC2
REMARK SMILES IDX 23 1 22 2 21 3 20 4 18 5 19 6 17 8 16 9 3 10 4 11 8 12 5 13
REMARK SMILES IDX 7 14 6 15 97 16 11 17 96 18 12 19 95 20 15 21 94 22 2 24
REMARK SMILES IDX 1 25 9 26 10 27 13 28 14 29 24 30 25 31 26 32 27 34 28 35
REMARK SMILES IDX 29 36 93 37 30 38 92 39 31 40 32 41 33 42 86 43 34 44 91 45
REMARK SMILES IDX 85 46 87 47 35 48 90 49 84 50 83 51 36 53 70 54 49 55 69 56
REMARK SMILES IDX 50 57 53 58 68 59 88 60 51 61 52 62 67 64 89 65 54 66 37 67
REMARK SMILES IDX 38 68 47 69 39 70 40 71 46 72 48 73 41 74 42 75 43 76 44 77
REMARK SMILES IDX 45 78 71 79 72 80 81 81 73 82 74 83 80 84 82 85 75 86 76 87
REMARK SMILES IDX 77 88 78 89 79 90 55 91 56 92 65 93 57 94 58 95 64 96 66 97
REMARK SMILES IDX 59 98 60 99 61 100 62 101 63 102
REMARK H PARENT 20 7 16 23 25 33 87 52 53 63
REMARK Flexibility Score: inf
ROOT
ATOM      1  C   UNL     1       0.189  -0.057  -6.815  1.00  0.00     0.023 C 
ENDROOT
BRANCH   1   2
ATOM      2  C   UNL     1       0.486  -1.067  -7.915  1.00  0.00     0.023 C 
BRANCH   2   3
ATOM      3  C   UNL     1       1.470  -0.642  -8.990  1.00  0.00     0.116 C 
BRANCH   3   4
ATOM      4  N   UNL     1       2.832  -0.864  -8.530  1.00  0.00    -0.351 N 
ATOM      5  C   UNL     1       3.516  -2.043  -8.382  1.00  0.00     0.275 C 
ATOM      6  O   UNL     1       4.629  -1.999  -7.850  1.00  0.00    -0.269 OA
ATOM      7  H   UNL     1       3.335  -0.052  -8.291  1.00  0.00     0.163 HD
BRANCH   5   8
ATOM      8  C   UNL     1       2.958  -3.353  -8.963  1.00  0.00     0.365 C 
BRANCH   8   9
ATOM      9  N   UNL     1       2.567  -4.413  -8.017  1.00  0.00    -0.306 N 
ATOM     10  C   UNL     1       1.086  -1.959  -1.358  1.00  0.00     0.161 A 
ATOM     11  C   UNL     1       2.320  -1.826  -2.006  1.00  0.00     0.055 A 
ATOM     12  C   UNL     1       0.094  -2.753  -1.937  1.00  0.00     0.161 A 
ATOM     13  C   UNL     1       2.546  -2.422  -3.260  1.00  0.00    -0.033 A 
ATOM     14  C   UNL     1       0.334  -3.344  -3.190  1.00  0.00     0.061 A 
ATOM     15  C   UNL     1       1.516  -3.123  -3.916  1.00  0.00     0.006 A 
ATOM     16  C   UNL     1       3.908  -2.342  -3.908  1.00  0.00     0.058 C 
ATOM     17  C   UNL     1       1.767  -3.656  -5.300  1.00  0.00     0.068 C 
ATOM     18  C   UNL     1       4.194  -3.632  -4.685  1.00  0.00     0.127 C 
ATOM     19  C   UNL     1       0.820  -3.839  -6.252  1.00  0.00     0.108 C 
ATOM     20  N   UNL     1       3.106  -3.903  -5.626  1.00  0.00    -0.323 N 
ATOM     21  C   UNL     1       1.161  -4.425  -7.604  1.00  0.00     0.314 C 
ATOM     22  C   UNL     1       3.446  -4.591  -6.865  1.00  0.00     0.390 C 
ATOM     23  H   UNL     1       2.694  -5.232  -8.612  1.00  0.00     0.350 HD
BRANCH  10  24
ATOM     24  O   UNL     1       0.904  -1.435  -0.106  1.00  0.00    -0.493 OA
ATOM     25  C   UNL     1       1.182  -0.035  -0.028  1.00  0.00     0.278 C 
ENDBRANCH  10  24
BRANCH  12  26
ATOM     26  O   UNL     1      -1.136  -3.076  -1.423  1.00  0.00    -0.493 OA
ATOM     27  C   UNL     1      -1.693  -2.203  -0.449  1.00  0.00     0.278 C 
ENDBRANCH  12  26
BRANCH  19  28
ATOM     28  C   UNL     1      -0.630  -3.454  -6.003  1.00  0.00     0.103 C 
ATOM     29  N   UNL     1      -1.832  -3.134  -5.796  1.00  0.00    -0.192 NA
ENDBRANCH  19  28
ENDBRANCH   8   9
ENDBRANCH   5   8
ENDBRANCH   3   4
ENDBRANCH   2   3
ENDBRANCH   1   2
BRANCH   1  30
ATOM     30  C   UNL     1      -1.147   0.632  -7.009  1.00  0.00     0.116 C 
BRANCH  30  31
ATOM     31  N   UNL     1      -2.326  -0.228  -6.890  1.00  0.00    -0.352 N 
ATOM     32  C   UNL     1      -3.629   0.162  -6.631  1.00  0.00     0.251 C 
ATOM     33  H   UNL     1      -2.174  -1.194  -7.006  1.00  0.00     0.163 HD
ATOM     34  O   UNL     1      -4.551  -0.643  -6.575  1.00  0.00    -0.269 OA
BRANCH  32  35
ATOM     35  C   UNL     1      -3.869   1.587  -6.315  1.00  0.00     0.039 A 
ATOM     36  C   UNL     1      -3.313   2.568  -7.127  1.00  0.00     0.014 A 
ATOM     37  C   UNL     1      -4.423   1.918  -5.076  1.00  0.00     0.014 A 
ATOM     38  C   UNL     1      -3.022   3.801  -6.566  1.00  0.00     0.010 A 
ATOM     39  C   UNL     1      -4.266   3.216  -4.580  1.00  0.00     0.010 A 
ATOM     40  C   UNL     1      -3.469   4.139  -5.274  1.00  0.00    -0.014 A 
BRANCH  40  41
ATOM     41  C   UNL     1      -3.004   5.419  -4.663  1.00  0.00     0.031 A 
ATOM     42  C   UNL     1      -2.242   5.432  -3.355  1.00  0.00     0.074 A 
ATOM     43  C   UNL     1      -3.155   6.567  -5.355  1.00  0.00     0.049 A 
ATOM     44  N   UNL     1      -1.758   6.458  -2.700  1.00  0.00    -0.248 NA
ATOM     45  C   UNL     1      -2.000   4.142  -2.685  1.00  0.00     0.031 C 
ATOM     46  C   UNL     1      -3.861   6.694  -6.634  1.00  0.00     0.029 A 
ATOM     47  N   UNL     1      -2.674   7.830  -5.122  1.00  0.00    -0.354 N 
ATOM     48  C   UNL     1      -1.218   5.948  -1.523  1.00  0.00     0.074 A 
ATOM     49  C   UNL     1      -1.429   4.518  -1.549  1.00  0.00     0.031 C 
ATOM     50  C   UNL     1      -3.664   7.924  -7.127  1.00  0.00     0.029 A 
ATOM     51  C   UNL     1      -2.910   8.706  -6.156  1.00  0.00     0.049 A 
ATOM     52  H   UNL     1      -2.205   8.085  -4.295  1.00  0.00     0.167 HD
ATOM     53  C   UNL     1      -0.599   6.610  -0.517  1.00  0.00     0.037 A 
ATOM     54  C   UNL     1      -2.575  10.001  -6.306  1.00  0.00     0.037 A 
ATOM     55  C   UNL     1      -0.306   8.020  -0.533  1.00  0.00     0.049 A 
ATOM     56  C   UNL     1      -1.862  10.704  -5.191  1.00  0.00     0.074 A 
ATOM     57  C   UNL     1       0.354   8.772   0.424  1.00  0.00     0.029 A 
ATOM     58  N   UNL     1      -0.629   8.884  -1.567  1.00  0.00    -0.354 N 
ATOM     59  N   UNL     1      -1.413  10.208  -4.064  1.00  0.00    -0.248 NA
ATOM     60  C   UNL     1      -1.649  12.149  -5.347  1.00  0.00     0.031 C 
ATOM     61  C   UNL     1       0.411  10.096  -0.022  1.00  0.00     0.029 A 
ATOM     62  C   UNL     1      -0.192  10.162  -1.267  1.00  0.00     0.049 A 
ATOM     63  H   UNL     1      -1.099   8.626  -2.393  1.00  0.00     0.167 HD
ATOM     64  C   UNL     1      -0.894  11.287  -3.361  1.00  0.00     0.074 A 
ATOM     65  C   UNL     1      -1.041  12.453  -4.208  1.00  0.00     0.031 C 
ATOM     66  C   UNL     1      -0.366  11.312  -2.115  1.00  0.00     0.037 A 
BRANCH  53  67
ATOM     67  C   UNL     1      -0.187   5.835   0.703  1.00  0.00     0.058 A 
ATOM     68  C   UNL     1       0.966   5.037   0.717  1.00  0.00     0.135 A 
ATOM     69  C   UNL     1      -0.903   5.978   1.904  1.00  0.00     0.135 A 
ATOM     70  F   UNL     1       1.675   4.852  -0.408  1.00  0.00    -0.206 F 
ATOM     71  C   UNL     1       1.399   4.410   1.881  1.00  0.00     0.059 A 
ATOM     72  C   UNL     1      -0.480   5.373   3.084  1.00  0.00     0.059 A 
ATOM     73  F   UNL     1      -2.015   6.729   1.941  1.00  0.00    -0.206 F 
ATOM     74  C   UNL     1       0.673   4.589   3.061  1.00  0.00     0.060 A 
BRANCH  74  75
ATOM     75  S   UNL     1       1.275   3.798   4.569  1.00  0.00     0.124 S 
ATOM     76  O   UNL     1       0.971   2.396   4.297  1.00  0.00    -0.237 OA
ATOM     77  O   UNL     1       2.691   4.151   4.560  1.00  0.00    -0.237 OA
ATOM     78  O   UNL     1       0.480   4.421   5.622  1.00  0.00    -0.744 OA
ENDBRANCH  74  75
ENDBRANCH  53  67
BRANCH  54  79
ATOM     79  C   UNL     1      -2.954  10.720  -7.548  1.00  0.00     0.058 A 
ATOM     80  C   UNL     1      -1.986  11.092  -8.491  1.00  0.00     0.135 A 
ATOM     81  C   UNL     1      -4.297  11.014  -7.832  1.00  0.00     0.135 A 
ATOM     82  F   UNL     1      -0.690  10.838  -8.258  1.00  0.00    -0.206 F 
ATOM     83  C   UNL     1      -2.336  11.731  -9.676  1.00  0.00     0.059 A 
ATOM     84  C   UNL     1      -4.673  11.629  -9.020  1.00  0.00     0.059 A 
ATOM     85  F   UNL     1      -5.260  10.663  -6.966  1.00  0.00    -0.206 F 
ATOM     86  C   UNL     1      -3.683  11.991  -9.933  1.00  0.00     0.060 A 
BRANCH  86  87
ATOM     87  S   UNL     1      -4.145  12.753 -11.504  1.00  0.00     0.124 S 
ATOM     88  O   UNL     1      -3.884  14.161 -11.232  1.00  0.00    -0.237 OA
ATOM     89  O   UNL     1      -3.236  12.105 -12.445  1.00  0.00    -0.237 OA
ATOM     90  O   UNL     1      -5.550  12.383 -11.649  1.00  0.00    -0.744 OA
ENDBRANCH  86  87
ENDBRANCH  54  79
BRANCH  66  91
ATOM     91  C   UNL     1       0.057  12.645  -1.578  1.00  0.00     0.058 A 
ATOM     92  C   UNL     1      -0.890  13.545  -1.067  1.00  0.00     0.135 A 
ATOM     93  C   UNL     1       1.412  13.002  -1.517  1.00  0.00     0.135 A 
ATOM     94  F   UNL     1      -2.198  13.247  -1.114  1.00  0.00    -0.206 F 
ATOM     95  C   UNL     1      -0.508  14.762  -0.518  1.00  0.00     0.059 A 
ATOM     96  C   UNL     1       1.819  14.208  -0.957  1.00  0.00     0.059 A 
ATOM     97  F   UNL     1       2.353  12.168  -1.989  1.00  0.00    -0.206 F 
ATOM     98  C   UNL     1       0.850  15.084  -0.465  1.00  0.00     0.060 A 
BRANCH  98  99
ATOM     99  S   UNL     1       1.337  16.648   0.293  1.00  0.00     0.124 S 
ATOM    100  O   UNL     1       0.983  17.603  -0.752  1.00  0.00    -0.237 OA
ATOM    101  O   UNL     1       0.509  16.687   1.494  1.00  0.00    -0.237 OA
ATOM    102  O   UNL     1       2.768  16.478   0.531  1.00  0.00    -0.744 OA
ENDBRANCH  98  99
ENDBRANCH  66  91
ENDBRANCH  40  41
ENDBRANCH  32  35
ENDBRANCH  30  31
ENDBRANCH   1  30
TORSDOF 18
