REMARK SMILES O=C(NCCCCNC(=O)[C@H]1C=C[C@H](N2C(=O)[C@H]3C[C@H]3C2=O)C1)c1ccc(-c2c3nc(c(-c4c(F)cc(S(=O)(=O)[O-])cc4F)c4ccc([nH]4)c(-c4c(F)cc(S(=O)(=O)[O-])cc4F)c4nc(c(-c5c(F)cc(S(=O)(=O)[O-])cc5F)c5ccc2[nH]5)C=C4)C=C3)cc1
REMARK SMILES IDX 4 1 3 2 1 3 2 4 24 6 25 7 89 8 26 9 88 10 27 11 28 12 29 13
REMARK SMILES IDX 82 14 30 15 87 16 81 17 83 18 31 19 86 20 80 21 79 22 32 24
REMARK SMILES IDX 66 25 45 26 65 27 46 28 49 29 64 30 84 31 47 32 48 33 63 35
REMARK SMILES IDX 85 36 50 37 33 38 34 39 43 40 35 41 36 42 42 43 44 44 37 45
REMARK SMILES IDX 38 46 39 47 40 48 41 49 67 50 68 51 77 52 69 53 70 54 76 55
REMARK SMILES IDX 78 56 71 57 72 58 73 59 74 60 75 61 51 62 52 63 61 64 53 65
REMARK SMILES IDX 54 66 60 67 62 68 55 69 56 70 57 71 58 72 59 73 5 74 6 75
REMARK SMILES IDX 7 76 8 77 9 78 10 80 11 81 12 82 23 83 13 84 14 85 15 86
REMARK SMILES IDX 16 87 21 88 17 89 18 90 20 91 22 92 19 93
REMARK H PARENT 3 5 83 23 49 34 8 79
REMARK Flexibility Score: inf
ROOT
ATOM      1  C   UNL     1       4.435   0.152  -1.335  1.00  0.00     0.116 C 
ENDROOT
BRANCH   1   2
ATOM      2  N   UNL     1       3.011   0.358  -1.105  1.00  0.00    -0.352 N 
ATOM      3  O   UNL     1       1.059   0.119   0.019  1.00  0.00    -0.269 OA
ATOM      4  C   UNL     1       2.276  -0.027  -0.005  1.00  0.00     0.251 C 
ATOM      5  H   UNL     1       2.518   0.825  -1.817  1.00  0.00     0.163 HD
BRANCH   4   6
ATOM      6  C   UNL     1       2.988  -0.657   1.127  1.00  0.00     0.039 A 
ATOM      7  C   UNL     1       4.154  -0.071   1.618  1.00  0.00     0.014 A 
ATOM      8  C   UNL     1       2.541  -1.880   1.634  1.00  0.00     0.014 A 
ATOM      9  C   UNL     1       4.965  -0.787   2.482  1.00  0.00     0.010 A 
ATOM     10  C   UNL     1       3.308  -2.550   2.594  1.00  0.00     0.010 A 
ATOM     11  C   UNL     1       4.545  -2.026   2.999  1.00  0.00    -0.014 A 
BRANCH  11  12
ATOM     12  C   UNL     1       5.401  -2.692   4.014  1.00  0.00     0.031 A 
ATOM     13  C   UNL     1       6.036  -4.032   3.760  1.00  0.00     0.074 A 
ATOM     14  C   UNL     1       5.657  -2.023   5.156  1.00  0.00     0.049 A 
ATOM     15  N   UNL     1       6.857  -4.707   4.524  1.00  0.00    -0.248 NA
ATOM     16  C   UNL     1       5.707  -4.708   2.495  1.00  0.00     0.031 C 
ATOM     17  C   UNL     1       5.073  -0.726   5.517  1.00  0.00     0.029 A 
ATOM     18  N   UNL     1       6.489  -2.312   6.205  1.00  0.00    -0.354 N 
ATOM     19  C   UNL     1       7.138  -5.885   3.843  1.00  0.00     0.074 A 
ATOM     20  C   UNL     1       6.372  -5.850   2.615  1.00  0.00     0.031 C 
ATOM     21  C   UNL     1       5.612  -0.304   6.668  1.00  0.00     0.029 A 
ATOM     22  C   UNL     1       6.520  -1.330   7.166  1.00  0.00     0.049 A 
ATOM     23  H   UNL     1       7.015  -3.142   6.264  1.00  0.00     0.167 HD
ATOM     24  C   UNL     1       7.968  -6.895   4.205  1.00  0.00     0.037 A 
ATOM     25  C   UNL     1       7.186  -1.265   8.332  1.00  0.00     0.037 A 
ATOM     26  C   UNL     1       8.729  -6.914   5.431  1.00  0.00     0.049 A 
ATOM     27  C   UNL     1       8.091  -2.399   8.710  1.00  0.00     0.074 A 
ATOM     28  C   UNL     1       9.599  -7.889   5.891  1.00  0.00     0.029 A 
ATOM     29  N   UNL     1       8.717  -5.911   6.392  1.00  0.00    -0.354 N 
ATOM     30  N   UNL     1       8.350  -3.500   8.045  1.00  0.00    -0.248 NA
ATOM     31  C   UNL     1       8.794  -2.286   9.992  1.00  0.00     0.031 C 
ATOM     32  C   UNL     1      10.082  -7.494   7.144  1.00  0.00     0.029 A 
ATOM     33  C   UNL     1       9.553  -6.250   7.445  1.00  0.00     0.049 A 
ATOM     34  H   UNL     1       8.191  -5.081   6.333  1.00  0.00     0.167 HD
ATOM     35  C   UNL     1       9.251  -4.210   8.828  1.00  0.00     0.074 A 
ATOM     36  C   UNL     1       9.518  -3.397   9.997  1.00  0.00     0.031 C 
ATOM     37  C   UNL     1       9.799  -5.431   8.605  1.00  0.00     0.037 A 
BRANCH  24  38
ATOM     38  C   UNL     1       8.101  -8.069   3.272  1.00  0.00     0.058 A 
ATOM     39  C   UNL     1       8.792  -7.966   2.054  1.00  0.00     0.135 A 
ATOM     40  C   UNL     1       7.591  -9.329   3.627  1.00  0.00     0.135 A 
ATOM     41  F   UNL     1       9.288  -6.784   1.656  1.00  0.00    -0.206 F 
ATOM     42  C   UNL     1       8.958  -9.065   1.214  1.00  0.00     0.059 A 
ATOM     43  C   UNL     1       7.767 -10.447   2.814  1.00  0.00     0.059 A 
ATOM     44  F   UNL     1       6.922  -9.487   4.780  1.00  0.00    -0.206 F 
ATOM     45  C   UNL     1       8.444 -10.302   1.605  1.00  0.00     0.060 A 
BRANCH  45  46
ATOM     46  S   UNL     1       8.686 -11.720   0.512  1.00  0.00     0.124 S 
ATOM     47  O   UNL     1       7.777 -11.401  -0.584  1.00  0.00    -0.237 OA
ATOM     48  O   UNL     1      10.109 -11.634   0.200  1.00  0.00    -0.237 OA
ATOM     49  O   UNL     1       8.296 -12.858   1.339  1.00  0.00    -0.744 OA
ENDBRANCH  45  46
ENDBRANCH  24  38
BRANCH  25  50
ATOM     50  C   UNL     1       6.990  -0.096   9.229  1.00  0.00     0.058 A 
ATOM     51  C   UNL     1       8.020   0.824   9.469  1.00  0.00     0.135 A 
ATOM     52  C   UNL     1       5.751   0.133   9.849  1.00  0.00     0.135 A 
ATOM     53  F   UNL     1       9.222   0.650   8.898  1.00  0.00    -0.206 F 
ATOM     54  C   UNL     1       7.837   1.917  10.310  1.00  0.00     0.059 A 
ATOM     55  C   UNL     1       5.533   1.235  10.666  1.00  0.00     0.059 A 
ATOM     56  F   UNL     1       4.725  -0.706   9.633  1.00  0.00    -0.206 F 
ATOM     57  C   UNL     1       6.589   2.113  10.904  1.00  0.00     0.060 A 
BRANCH  57  58
ATOM     58  S   UNL     1       6.347   3.551  11.968  1.00  0.00     0.124 S 
ATOM     59  O   UNL     1       7.044   3.137  13.180  1.00  0.00    -0.237 OA
ATOM     60  O   UNL     1       6.980   4.616  11.197  1.00  0.00    -0.237 OA
ATOM     61  O   UNL     1       4.894   3.646  12.075  1.00  0.00    -0.744 OA
ENDBRANCH  57  58
ENDBRANCH  25  50
BRANCH  37  62
ATOM     62  C   UNL     1      10.755  -5.942   9.647  1.00  0.00     0.058 A 
ATOM     63  C   UNL     1      10.309  -6.362  10.911  1.00  0.00     0.135 A 
ATOM     64  C   UNL     1      12.131  -6.013   9.379  1.00  0.00     0.135 A 
ATOM     65  F   UNL     1       9.004  -6.306  11.220  1.00  0.00    -0.206 F 
ATOM     66  C   UNL     1      11.199  -6.797  11.886  1.00  0.00     0.059 A 
ATOM     67  C   UNL     1      13.036  -6.473  10.330  1.00  0.00     0.059 A 
ATOM     68  F   UNL     1      12.608  -5.633   8.183  1.00  0.00    -0.206 F 
ATOM     69  C   UNL     1      12.562  -6.844  11.588  1.00  0.00     0.060 A 
BRANCH  69  70
ATOM     70  S   UNL     1      13.708  -7.408  12.863  1.00  0.00     0.124 S 
ATOM     71  O   UNL     1      13.753  -6.250  13.749  1.00  0.00    -0.237 OA
ATOM     72  O   UNL     1      13.031  -8.587  13.393  1.00  0.00    -0.237 OA
ATOM     73  O   UNL     1      14.935  -7.679  12.120  1.00  0.00    -0.744 OA
ENDBRANCH  69  70
ENDBRANCH  37  62
ENDBRANCH  11  12
ENDBRANCH   4   6
ENDBRANCH   1   2
BRANCH   1  74
ATOM     74  C   UNL     1       4.796  -0.074  -2.794  1.00  0.00     0.023 C 
BRANCH  74  75
ATOM     75  C   UNL     1       4.415   1.071  -3.731  1.00  0.00     0.023 C 
BRANCH  75  76
ATOM     76  C   UNL     1       5.064   2.415  -3.382  1.00  0.00     0.116 C 
BRANCH  76  77
ATOM     77  N   UNL     1       6.468   2.444  -3.750  1.00  0.00    -0.356 N 
ATOM     78  C   UNL     1       7.097   2.892  -4.873  1.00  0.00     0.227 C 
ATOM     79  H   UNL     1       7.073   2.074  -3.068  1.00  0.00     0.163 HD
ATOM     80  O   UNL     1       8.321   2.733  -4.928  1.00  0.00    -0.274 OA
BRANCH  78  81
ATOM     81  C   UNL     1       6.375   3.647  -6.000  1.00  0.00     0.103 C 
ATOM     82  C   UNL     1       4.978   3.203  -6.300  1.00  0.00    -0.016 C 
ATOM     83  C   UNL     1       6.200   5.140  -5.658  1.00  0.00     0.047 C 
ATOM     84  C   UNL     1       4.127   4.232  -6.320  1.00  0.00    -0.005 C 
ATOM     85  C   UNL     1       4.837   5.559  -6.234  1.00  0.00     0.117 C 
BRANCH  85  86
ATOM     86  N   UNL     1       4.776   6.089  -7.588  1.00  0.00    -0.275 N 
ATOM     87  C   UNL     1       3.573   6.524  -8.094  1.00  0.00     0.233 C 
ATOM     88  C   UNL     1       5.740   5.994  -8.551  1.00  0.00     0.233 C 
ATOM     89  O   UNL     1       2.541   6.774  -7.501  1.00  0.00    -0.274 OA
ATOM     90  C   UNL     1       3.663   6.554  -9.574  1.00  0.00     0.092 C 
ATOM     91  C   UNL     1       5.116   6.224  -9.882  1.00  0.00     0.092 C 
ATOM     92  O   UNL     1       6.927   5.730  -8.449  1.00  0.00    -0.274 OA
ATOM     93  C   UNL     1       4.519   7.535 -10.316  1.00  0.00     0.028 C 
ENDBRANCH  85  86
ENDBRANCH  78  81
ENDBRANCH  76  77
ENDBRANCH  75  76
ENDBRANCH  74  75
ENDBRANCH   1  74
TORSDOF 15
