REMARK SMILES CC(=O)Nc1cnc(N2CC=C(c3ccccc3C)CC2)c(C(=O)NCCCCNC(=O)c2ccc(-c3c4nc(c(-c5c(F)cc(S(=O)(=O)[O-])cc5F)c5ccc([nH]5)c(-c5c(F)cc(S(=O)(=O)[O-])cc5F)c5nc(c(-c6c(F)cc(S(=O)(=O)[O-])cc6F)c6ccc3[nH]6)C=C5)C=C4)cc2)c1
REMARK SMILES IDX 28 1 27 2 26 3 25 4 23 5 24 6 22 8 5 9 6 10 99 11 7 12 8 13
REMARK SMILES IDX 4 14 1 15 2 16 3 17 9 19 10 20 21 21 11 22 20 23 12 24 13 25
REMARK SMILES IDX 14 26 18 27 15 28 17 29 19 30 16 31 29 32 30 33 31 34 32 36
REMARK SMILES IDX 33 37 34 38 98 39 35 40 97 41 36 42 37 43 38 44 91 45 39 46
REMARK SMILES IDX 96 47 90 48 92 49 40 50 95 51 89 52 88 53 41 55 75 56 54 57
REMARK SMILES IDX 74 58 55 59 58 60 73 61 93 62 56 63 57 64 72 66 94 67 59 68
REMARK SMILES IDX 42 69 43 70 52 71 44 72 45 73 51 74 53 75 46 76 47 77 48 78
REMARK SMILES IDX 49 79 50 80 76 81 77 82 86 83 78 84 79 85 85 86 87 87 80 88
REMARK SMILES IDX 81 89 82 90 83 91 84 92 60 93 61 94 70 95 62 96 63 97 69 98
REMARK SMILES IDX 71 99 64 100 65 101 66 102 67 103 68 104
REMARK H PARENT 25 7 4 18 30 35 92 54 58 65
REMARK Flexibility Score: inf
ROOT
ATOM      1  C   UNL     1       7.081   0.063   0.932  1.00  0.00     0.023 C 
ENDROOT
BRANCH   1   2
ATOM      2  C   UNL     1       5.550  -0.044   1.006  1.00  0.00     0.023 C 
BRANCH   2   3
ATOM      3  C   UNL     1       4.846  -0.103  -0.356  1.00  0.00     0.116 C 
BRANCH   3   4
ATOM      4  N   UNL     1       5.180  -1.297  -1.123  1.00  0.00    -0.352 N 
ATOM      5  C   UNL     1       4.699  -2.572  -1.304  1.00  0.00     0.255 C 
ATOM      6  O   UNL     1       5.321  -3.192  -2.170  1.00  0.00    -0.269 OA
ATOM      7  H   UNL     1       5.984  -1.146  -1.670  1.00  0.00     0.163 HD
BRANCH   5   8
ATOM      8  C   UNL     1       3.530  -3.204  -0.595  1.00  0.00     0.084 A 
ATOM      9  C   UNL     1       1.521  -2.973   0.782  1.00  0.00     0.060 A 
ATOM     10  C   UNL     1       1.256  -4.301   0.532  1.00  0.00     0.139 A 
ATOM     11  C   UNL     1       2.702  -2.454   0.258  1.00  0.00     0.045 A 
ATOM     12  N   UNL     1       2.025  -5.076  -0.253  1.00  0.00    -0.236 NA
ATOM     13  C   UNL     1       3.144  -4.548  -0.831  1.00  0.00     0.141 A 
BRANCH   9  14
ATOM     14  N   UNL     1       0.614  -2.233   1.555  1.00  0.00    -0.325 N 
ATOM     15  C   UNL     1       0.739  -0.046   0.360  1.00  0.00     0.114 C 
ATOM     16  C   UNL     1       0.282  -0.908   1.508  1.00  0.00     0.221 C 
ATOM     17  O   UNL     1      -0.467  -0.463   2.381  1.00  0.00    -0.275 OA
ATOM     18  H   UNL     1       0.140  -2.753   2.243  1.00  0.00     0.169 HD
ENDBRANCH   9  14
BRANCH  13  19
ATOM     19  N   UNL     1       3.797  -5.462  -1.618  1.00  0.00    -0.352 N 
ATOM     20  C   UNL     1       3.090  -5.999  -2.769  1.00  0.00     0.146 C 
ATOM     21  C   UNL     1       5.179  -5.857  -1.401  1.00  0.00     0.123 C 
ATOM     22  C   UNL     1       3.516  -7.416  -3.053  1.00  0.00    -0.002 C 
ATOM     23  C   UNL     1       5.260  -7.388  -1.285  1.00  0.00     0.057 C 
ATOM     24  C   UNL     1       4.485  -8.073  -2.386  1.00  0.00    -0.041 C 
BRANCH  24  25
ATOM     25  C   UNL     1       4.819  -9.468  -2.737  1.00  0.00    -0.020 A 
ATOM     26  C   UNL     1       5.293  -9.726  -4.037  1.00  0.00     0.008 A 
ATOM     27  C   UNL     1       4.670 -10.546  -1.840  1.00  0.00    -0.044 A 
ATOM     28  C   UNL     1       5.621 -11.020  -4.443  1.00  0.00     0.001 A 
ATOM     29  C   UNL     1       5.024 -11.843  -2.259  1.00  0.00     0.004 A 
ATOM     30  C   UNL     1       4.162 -10.364  -0.436  1.00  0.00     0.045 C 
ATOM     31  C   UNL     1       5.490 -12.079  -3.552  1.00  0.00     0.000 A 
ENDBRANCH  24  25
ENDBRANCH  13  19
ENDBRANCH   5   8
ENDBRANCH   3   4
ENDBRANCH   2   3
ENDBRANCH   1   2
BRANCH   1  32
ATOM     32  C   UNL     1       7.589   1.331   0.242  1.00  0.00     0.116 C 
BRANCH  32  33
ATOM     33  N   UNL     1       7.842   2.445   1.109  1.00  0.00    -0.352 N 
ATOM     34  C   UNL     1       8.470   3.652   0.690  1.00  0.00     0.251 C 
ATOM     35  H   UNL     1       7.564   2.370   2.051  1.00  0.00     0.163 HD
ATOM     36  O   UNL     1       9.213   4.288   1.379  1.00  0.00    -0.269 OA
BRANCH  34  37
ATOM     37  C   UNL     1       8.008   4.152  -0.625  1.00  0.00     0.039 A 
ATOM     38  C   UNL     1       7.111   5.226  -0.626  1.00  0.00     0.014 A 
ATOM     39  C   UNL     1       8.243   3.412  -1.775  1.00  0.00     0.014 A 
ATOM     40  C   UNL     1       6.311   5.452  -1.749  1.00  0.00     0.010 A 
ATOM     41  C   UNL     1       7.395   3.579  -2.855  1.00  0.00     0.010 A 
ATOM     42  C   UNL     1       6.404   4.570  -2.826  1.00  0.00    -0.014 A 
BRANCH  42  43
ATOM     43  C   UNL     1       5.458   4.546  -3.935  1.00  0.00     0.031 A 
ATOM     44  C   UNL     1       5.861   5.043  -5.271  1.00  0.00     0.074 A 
ATOM     45  C   UNL     1       4.252   3.958  -3.773  1.00  0.00     0.049 A 
ATOM     46  N   UNL     1       5.033   5.400  -6.194  1.00  0.00    -0.248 NA
ATOM     47  C   UNL     1       7.258   5.201  -5.662  1.00  0.00     0.031 C 
ATOM     48  C   UNL     1       3.327   3.534  -4.820  1.00  0.00     0.029 A 
ATOM     49  N   UNL     1       3.532   3.791  -2.587  1.00  0.00    -0.354 N 
ATOM     50  C   UNL     1       5.748   5.563  -7.359  1.00  0.00     0.074 A 
ATOM     51  C   UNL     1       7.135   5.479  -6.964  1.00  0.00     0.031 C 
ATOM     52  C   UNL     1       2.101   3.399  -4.291  1.00  0.00     0.029 A 
ATOM     53  C   UNL     1       2.167   3.880  -2.922  1.00  0.00     0.049 A 
ATOM     54  H   UNL     1       3.908   3.641  -1.689  1.00  0.00     0.167 HD
ATOM     55  C   UNL     1       5.091   5.617  -8.554  1.00  0.00     0.037 A 
ATOM     56  C   UNL     1       1.380   4.873  -2.412  1.00  0.00     0.037 A 
ATOM     57  C   UNL     1       3.645   5.546  -8.364  1.00  0.00     0.049 A 
ATOM     58  C   UNL     1       0.801   5.794  -3.464  1.00  0.00     0.074 A 
ATOM     59  C   UNL     1       2.748   4.492  -8.420  1.00  0.00     0.029 A 
ATOM     60  N   UNL     1       2.977   6.598  -7.748  1.00  0.00    -0.354 N 
ATOM     61  N   UNL     1       1.252   5.883  -4.686  1.00  0.00    -0.248 NA
ATOM     62  C   UNL     1      -0.334   6.683  -3.229  1.00  0.00     0.031 C 
ATOM     63  C   UNL     1       1.552   4.895  -7.778  1.00  0.00     0.029 A 
ATOM     64  C   UNL     1       1.714   6.201  -7.351  1.00  0.00     0.049 A 
ATOM     65  H   UNL     1       3.351   7.499  -7.613  1.00  0.00     0.167 HD
ATOM     66  C   UNL     1       0.524   6.815  -5.384  1.00  0.00     0.074 A 
ATOM     67  C   UNL     1      -0.474   7.267  -4.433  1.00  0.00     0.031 C 
ATOM     68  C   UNL     1       0.810   7.129  -6.685  1.00  0.00     0.037 A 
BRANCH  55  69
ATOM     69  C   UNL     1       5.788   5.419  -9.884  1.00  0.00     0.058 A 
ATOM     70  C   UNL     1       5.171   4.696 -10.928  1.00  0.00     0.135 A 
ATOM     71  C   UNL     1       7.093   5.867 -10.168  1.00  0.00     0.135 A 
ATOM     72  F   UNL     1       3.899   4.284 -10.842  1.00  0.00    -0.206 F 
ATOM     73  C   UNL     1       5.835   4.342 -12.104  1.00  0.00     0.059 A 
ATOM     74  C   UNL     1       7.799   5.481 -11.313  1.00  0.00     0.059 A 
ATOM     75  F   UNL     1       7.720   6.725  -9.349  1.00  0.00    -0.206 F 
ATOM     76  C   UNL     1       7.163   4.704 -12.273  1.00  0.00     0.060 A 
BRANCH  76  77
ATOM     77  S   UNL     1       8.033   4.136 -13.746  1.00  0.00     0.124 S 
ATOM     78  O   UNL     1       7.760   2.702 -13.734  1.00  0.00    -0.237 OA
ATOM     79  O   UNL     1       7.374   4.898 -14.801  1.00  0.00    -0.237 OA
ATOM     80  O   UNL     1       9.422   4.502 -13.482  1.00  0.00    -0.744 OA
ENDBRANCH  76  77
ENDBRANCH  55  69
BRANCH  56  81
ATOM     81  C   UNL     1       1.753   5.247  -1.019  1.00  0.00     0.058 A 
ATOM     82  C   UNL     1       1.569   4.273  -0.016  1.00  0.00     0.135 A 
ATOM     83  C   UNL     1       2.662   6.281  -0.755  1.00  0.00     0.135 A 
ATOM     84  F   UNL     1       0.703   3.265  -0.214  1.00  0.00    -0.206 F 
ATOM     85  C   UNL     1       2.373   4.224   1.117  1.00  0.00     0.059 A 
ATOM     86  C   UNL     1       3.475   6.256   0.382  1.00  0.00     0.059 A 
ATOM     87  F   UNL     1       2.877   7.241  -1.666  1.00  0.00    -0.206 F 
ATOM     88  C   UNL     1       3.374   5.180   1.267  1.00  0.00     0.060 A 
BRANCH  88  89
ATOM     89  S   UNL     1       4.641   4.882   2.527  1.00  0.00     0.124 S 
ATOM     90  O   UNL     1       3.847   4.822   3.748  1.00  0.00    -0.237 OA
ATOM     91  O   UNL     1       5.215   3.609   2.084  1.00  0.00    -0.237 OA
ATOM     92  O   UNL     1       5.518   6.039   2.398  1.00  0.00    -0.744 OA
ENDBRANCH  88  89
ENDBRANCH  56  81
BRANCH  68  93
ATOM     93  C   UNL     1       0.217   8.261  -7.503  1.00  0.00     0.058 A 
ATOM     94  C   UNL     1      -0.293   9.452  -6.961  1.00  0.00     0.135 A 
ATOM     95  C   UNL     1       0.284   8.225  -8.921  1.00  0.00     0.135 A 
ATOM     96  F   UNL     1      -0.314   9.666  -5.639  1.00  0.00    -0.206 F 
ATOM     97  C   UNL     1      -0.755  10.504  -7.759  1.00  0.00     0.059 A 
ATOM     98  C   UNL     1      -0.114   9.285  -9.733  1.00  0.00     0.059 A 
ATOM     99  F   UNL     1       0.760   7.156  -9.577  1.00  0.00    -0.206 F 
ATOM    100  C   UNL     1      -0.657  10.414  -9.144  1.00  0.00     0.060 A 
BRANCH 100 101
ATOM    101  S   UNL     1      -1.167  11.800 -10.177  1.00  0.00     0.124 S 
ATOM    102  O   UNL     1      -2.566  11.472 -10.433  1.00  0.00    -0.237 OA
ATOM    103  O   UNL     1      -0.939  12.952  -9.309  1.00  0.00    -0.237 OA
ATOM    104  O   UNL     1      -0.273  11.706 -11.326  1.00  0.00    -0.744 OA
ENDBRANCH 100 101
ENDBRANCH  68  93
ENDBRANCH  42  43
ENDBRANCH  34  37
ENDBRANCH  32  33
ENDBRANCH   1  32
TORSDOF 17
