REMARK SMILES Cc1nc(-c2cccc(N3C[C@H](C(=O)NCCCCNC(=O)c4ccc(-c5c6nc(c(-c7c(F)cc(S(=O)(=O)[O-])cc7F)c7ccc([nH]7)c(-c7c(F)cc(S(=O)(=O)[O-])cc7F)c7nc(c(-c8c(F)cc(S(=O)(=O)[O-])cc8F)c8ccc5[nH]8)C=C7)C=C6)cc4)CC3=O)c2)no1
REMARK SMILES IDX 18 1 17 2 16 3 15 4 13 5 14 6 12 8 10 9 11 10 90 11 89 12
REMARK SMILES IDX 91 13 9 14 5 15 6 16 92 17 7 18 8 19 4 20 1 21 2 22 3 23
REMARK SMILES IDX 94 24 93 25 19 26 20 27 21 28 22 30 23 31 24 32 88 33 25 34
REMARK SMILES IDX 87 35 26 36 27 37 28 38 81 39 29 40 86 41 80 42 82 43 30 44
REMARK SMILES IDX 85 45 79 46 78 47 31 49 65 50 44 51 64 52 45 53 48 54 63 55
REMARK SMILES IDX 83 56 46 57 47 58 62 60 84 61 49 62 32 63 33 64 42 65 34 66
REMARK SMILES IDX 35 67 41 68 43 69 36 70 37 71 38 72 39 73 40 74 66 75 67 76
REMARK SMILES IDX 76 77 68 78 69 79 75 80 77 81 70 82 71 83 72 84 73 85 74 86
REMARK SMILES IDX 50 87 51 88 60 89 52 90 53 91 59 92 61 93 54 94 55 95 56 96
REMARK SMILES IDX 57 97 58 98
REMARK H PARENT 15 7 20 29 82 48 48 59
REMARK Flexibility Score: inf
ROOT
ATOM      1  C   UNL     1       7.429   9.935   4.677  1.00  0.00     0.023 C 
ENDROOT
BRANCH   1   2
ATOM      2  C   UNL     1       5.993   9.483   4.387  1.00  0.00     0.023 C 
BRANCH   2   3
ATOM      3  C   UNL     1       5.857   8.531   3.198  1.00  0.00     0.116 C 
BRANCH   3   4
ATOM      4  N   UNL     1       6.510   7.261   3.466  1.00  0.00    -0.356 N 
ATOM      5  C   UNL     1       5.969   6.053   3.799  1.00  0.00     0.225 C 
ATOM      6  O   UNL     1       6.724   5.134   4.108  1.00  0.00    -0.275 OA
ATOM      7  H   UNL     1       7.492   7.274   3.396  1.00  0.00     0.163 HD
BRANCH   5   8
ATOM      8  C   UNL     1       4.472   5.865   3.675  1.00  0.00     0.107 C 
ATOM      9  N   UNL     1       3.891   4.006   2.353  1.00  0.00    -0.312 N 
ATOM     10  C   UNL     1       4.172   5.416   2.255  1.00  0.00     0.139 C 
ATOM     11  C   UNL     1       3.677   3.595   3.666  1.00  0.00     0.227 C 
ATOM     12  C   UNL     1       3.924   4.766   4.578  1.00  0.00     0.116 C 
ATOM     13  O   UNL     1       3.330   2.492   4.065  1.00  0.00    -0.274 OA
BRANCH   9  14
ATOM     14  C   UNL     1       3.729   3.183   1.220  1.00  0.00     0.044 A 
ATOM     15  C   UNL     1       2.506   1.440   0.040  1.00  0.00     0.025 A 
ATOM     16  C   UNL     1       3.441   1.491  -1.000  1.00  0.00     0.012 A 
ATOM     17  C   UNL     1       2.674   2.268   1.158  1.00  0.00     0.038 A 
ATOM     18  C   UNL     1       4.498   2.400  -0.945  1.00  0.00     0.003 A 
ATOM     19  C   UNL     1       4.626   3.261   0.148  1.00  0.00     0.026 A 
BRANCH  15  20
ATOM     20  C   UNL     1       1.332   0.590  -0.055  1.00  0.00     0.202 A 
ATOM     21  C   UNL     1      -2.152  -0.092   0.081  1.00  0.00     0.114 C 
ATOM     22  C   UNL     1      -0.688   0.034  -0.006  1.00  0.00     0.223 A 
ATOM     23  N   UNL     1       0.082   1.048   0.305  1.00  0.00    -0.191 NA
ATOM     24  O   UNL     1      -0.005  -1.034  -0.507  1.00  0.00    -0.339 OA
ATOM     25  N   UNL     1       1.337  -0.655  -0.558  1.00  0.00    -0.057 NA
ENDBRANCH  15  20
ENDBRANCH   9  14
ENDBRANCH   5   8
ENDBRANCH   3   4
ENDBRANCH   2   3
ENDBRANCH   1   2
BRANCH   1  26
ATOM     26  C   UNL     1       8.157  10.603   3.512  1.00  0.00     0.116 C 
BRANCH  26  27
ATOM     27  N   UNL     1       7.472  11.788   3.022  1.00  0.00    -0.352 N 
ATOM     28  C   UNL     1       7.989  13.011   2.669  1.00  0.00     0.251 C 
ATOM     29  H   UNL     1       6.495  11.702   2.929  1.00  0.00     0.163 HD
ATOM     30  O   UNL     1       7.225  13.934   2.401  1.00  0.00    -0.269 OA
BRANCH  28  31
ATOM     31  C   UNL     1       9.454  13.227   2.646  1.00  0.00     0.039 A 
ATOM     32  C   UNL     1       9.965  14.398   3.212  1.00  0.00     0.014 A 
ATOM     33  C   UNL     1      10.321  12.293   2.071  1.00  0.00     0.014 A 
ATOM     34  C   UNL     1      11.347  14.598   3.265  1.00  0.00     0.010 A 
ATOM     35  C   UNL     1      11.701  12.464   2.182  1.00  0.00     0.010 A 
ATOM     36  C   UNL     1      12.229  13.615   2.787  1.00  0.00    -0.014 A 
BRANCH  36  37
ATOM     37  C   UNL     1      13.700  13.768   2.946  1.00  0.00     0.031 A 
ATOM     38  C   UNL     1      14.595  13.888   1.742  1.00  0.00     0.074 A 
ATOM     39  C   UNL     1      14.236  13.748   4.184  1.00  0.00     0.049 A 
ATOM     40  N   UNL     1      15.899  13.990   1.691  1.00  0.00    -0.248 NA
ATOM     41  C   UNL     1      13.944  13.871   0.422  1.00  0.00     0.031 C 
ATOM     42  C   UNL     1      13.481  13.581   5.429  1.00  0.00     0.029 A 
ATOM     43  N   UNL     1      15.538  13.862   4.602  1.00  0.00    -0.354 N 
ATOM     44  C   UNL     1      16.225  14.047   0.341  1.00  0.00     0.074 A 
ATOM     45  C   UNL     1      14.986  13.915  -0.396  1.00  0.00     0.031 C 
ATOM     46  C   UNL     1      14.330  13.624   6.468  1.00  0.00     0.029 A 
ATOM     47  C   UNL     1      15.690  13.787   5.967  1.00  0.00     0.049 A 
ATOM     48  H   UNL     1      16.293  13.986   3.982  1.00  0.00     0.167 HD
ATOM     49  C   UNL     1      17.441  14.218  -0.232  1.00  0.00     0.037 A 
ATOM     50  C   UNL     1      16.800  13.836   6.730  1.00  0.00     0.037 A 
ATOM     51  C   UNL     1      18.670  14.368   0.506  1.00  0.00     0.049 A 
ATOM     52  C   UNL     1      18.137  14.028   6.068  1.00  0.00     0.074 A 
ATOM     53  C   UNL     1      19.945  14.595   0.015  1.00  0.00     0.029 A 
ATOM     54  N   UNL     1      18.780  14.308   1.887  1.00  0.00    -0.354 N 
ATOM     55  N   UNL     1      18.417  14.143   4.791  1.00  0.00    -0.248 NA
ATOM     56  C   UNL     1      19.310  14.105   6.950  1.00  0.00     0.031 C 
ATOM     57  C   UNL     1      20.831  14.633   1.097  1.00  0.00     0.029 A 
ATOM     58  C   UNL     1      20.103  14.476   2.265  1.00  0.00     0.049 A 
ATOM     59  H   UNL     1      18.029  14.166   2.508  1.00  0.00     0.167 HD
ATOM     60  C   UNL     1      19.793  14.329   4.720  1.00  0.00     0.074 A 
ATOM     61  C   UNL     1      20.285  14.333   6.081  1.00  0.00     0.031 C 
ATOM     62  C   UNL     1      20.579  14.480   3.625  1.00  0.00     0.037 A 
BRANCH  49  63
ATOM     63  C   UNL     1      17.508  14.273  -1.734  1.00  0.00     0.058 A 
ATOM     64  C   UNL     1      17.021  15.379  -2.448  1.00  0.00     0.135 A 
ATOM     65  C   UNL     1      18.122  13.242  -2.463  1.00  0.00     0.135 A 
ATOM     66  F   UNL     1      16.410  16.386  -1.803  1.00  0.00    -0.206 F 
ATOM     67  C   UNL     1      17.125  15.455  -3.833  1.00  0.00     0.059 A 
ATOM     68  C   UNL     1      18.261  13.308  -3.847  1.00  0.00     0.059 A 
ATOM     69  F   UNL     1      18.604  12.161  -1.831  1.00  0.00    -0.206 F 
ATOM     70  C   UNL     1      17.750  14.415  -4.524  1.00  0.00     0.060 A 
BRANCH  70  71
ATOM     71  S   UNL     1      17.900  14.543  -6.319  1.00  0.00     0.124 S 
ATOM     72  O   UNL     1      16.521  14.320  -6.742  1.00  0.00    -0.237 OA
ATOM     73  O   UNL     1      18.404  15.902  -6.493  1.00  0.00    -0.237 OA
ATOM     74  O   UNL     1      18.841  13.480  -6.658  1.00  0.00    -0.744 OA
ENDBRANCH  70  71
ENDBRANCH  49  63
BRANCH  50  75
ATOM     75  C   UNL     1      16.697  13.713   8.209  1.00  0.00     0.058 A 
ATOM     76  C   UNL     1      16.964  14.806   9.047  1.00  0.00     0.135 A 
ATOM     77  C   UNL     1      16.344  12.497   8.814  1.00  0.00     0.135 A 
ATOM     78  F   UNL     1      17.311  15.988   8.516  1.00  0.00    -0.206 F 
ATOM     79  C   UNL     1      16.914  14.692  10.432  1.00  0.00     0.059 A 
ATOM     80  C   UNL     1      16.260  12.365  10.196  1.00  0.00     0.059 A 
ATOM     81  F   UNL     1      16.059  11.426   8.057  1.00  0.00    -0.206 F 
ATOM     82  C   UNL     1      16.563  13.465  10.998  1.00  0.00     0.060 A 
BRANCH  82  83
ATOM     83  S   UNL     1      16.476  13.332  12.797  1.00  0.00     0.124 S 
ATOM     84  O   UNL     1      17.889  13.299  13.156  1.00  0.00    -0.237 OA
ATOM     85  O   UNL     1      15.752  14.545  13.161  1.00  0.00    -0.237 OA
ATOM     86  O   UNL     1      15.741  12.087  13.004  1.00  0.00    -0.744 OA
ENDBRANCH  82  83
ENDBRANCH  50  75
BRANCH  62  87
ATOM     87  C   UNL     1      22.050  14.690   3.858  1.00  0.00     0.058 A 
ATOM     88  C   UNL     1      22.882  13.650   4.301  1.00  0.00     0.135 A 
ATOM     89  C   UNL     1      22.639  15.941   3.612  1.00  0.00     0.135 A 
ATOM     90  F   UNL     1      22.369  12.436   4.556  1.00  0.00    -0.206 F 
ATOM     91  C   UNL     1      24.240  13.851   4.525  1.00  0.00     0.059 A 
ATOM     92  C   UNL     1      24.000  16.157   3.802  1.00  0.00     0.059 A 
ATOM     93  F   UNL     1      21.891  16.967   3.177  1.00  0.00    -0.206 F 
ATOM     94  C   UNL     1      24.790  15.110   4.275  1.00  0.00     0.060 A 
BRANCH  94  95
ATOM     95  S   UNL     1      26.556  15.356   4.558  1.00  0.00     0.124 S 
ATOM     96  O   UNL     1      26.613  15.419   6.015  1.00  0.00    -0.237 OA
ATOM     97  O   UNL     1      27.140  14.164   3.951  1.00  0.00    -0.237 OA
ATOM     98  O   UNL     1      26.840  16.608   3.863  1.00  0.00    -0.744 OA
ENDBRANCH  94  95
ENDBRANCH  62  87
ENDBRANCH  36  37
ENDBRANCH  28  31
ENDBRANCH  26  27
ENDBRANCH   1  26
TORSDOF 16
