REMARK SMILES Cc1nn(C(C)C)cc1-c1cnccc1C(=O)NCCCCNC(=O)c1ccc(-c2c3nc(c(-c4c(F)cc(S(=O)(=O)[O-])cc4F)c4ccc([nH]4)c(-c4c(F)cc(S(=O)(=O)[O-])cc4F)c4nc(c(-c5c(F)cc(S(=O)(=O)[O-])cc5F)c5ccc2[nH]5)C=C4)C=C3)cc1
REMARK SMILES IDX 21 1 20 2 19 3 18 4 16 5 17 6 15 8 10 9 11 10 12 11 14 12
REMARK SMILES IDX 13 13 9 14 1 15 2 16 3 17 4 18 8 19 5 20 6 21 7 22 22 23
REMARK SMILES IDX 23 24 24 25 25 27 26 28 27 29 91 30 28 31 90 32 29 33 30 34
REMARK SMILES IDX 31 35 84 36 32 37 89 38 83 39 85 40 33 41 88 42 82 43 81 44
REMARK SMILES IDX 34 46 68 47 47 48 67 49 48 50 51 51 66 52 86 53 49 54 50 55
REMARK SMILES IDX 65 57 87 58 52 59 35 60 36 61 45 62 37 63 38 64 44 65 46 66
REMARK SMILES IDX 39 67 40 68 41 69 42 70 43 71 69 72 70 73 79 74 71 75 72 76
REMARK SMILES IDX 78 77 80 78 73 79 74 80 75 81 76 82 77 83 53 84 54 85 63 86
REMARK SMILES IDX 55 87 56 88 62 89 64 90 57 91 58 92 59 93 60 94 61 95
REMARK H PARENT 18 7 23 26 85 45 51 56
REMARK Flexibility Score: inf
ROOT
ATOM      1  C   UNL     1       2.868  -3.039   3.295  1.00  0.00     0.023 C 
ENDROOT
BRANCH   1   2
ATOM      2  C   UNL     1       2.124  -1.714   3.076  1.00  0.00     0.023 C 
BRANCH   2   3
ATOM      3  C   UNL     1       0.660  -1.792   2.655  1.00  0.00     0.116 C 
BRANCH   3   4
ATOM      4  N   UNL     1      -0.353  -2.001   3.647  1.00  0.00    -0.352 N 
ATOM      5  C   UNL     1      -1.700  -1.712   3.523  1.00  0.00     0.252 C 
ATOM      6  O   UNL     1      -2.451  -2.095   4.421  1.00  0.00    -0.269 OA
ATOM      7  H   UNL     1      -0.061  -2.390   4.503  1.00  0.00     0.163 HD
BRANCH   5   8
ATOM      8  C   UNL     1      -2.276  -0.833   2.451  1.00  0.00     0.050 A 
ATOM      9  C   UNL     1      -2.081  -0.882   1.061  1.00  0.00     0.016 A 
ATOM     10  C   UNL     1      -2.721   0.095   0.290  1.00  0.00     0.120 A 
ATOM     11  N   UNL     1      -3.520   1.074   0.770  1.00  0.00    -0.264 NA
ATOM     12  C   UNL     1      -3.149   0.150   2.957  1.00  0.00     0.034 A 
ATOM     13  C   UNL     1      -3.734   1.063   2.097  1.00  0.00     0.112 A 
BRANCH   9  14
ATOM     14  C   UNL     1      -1.269  -1.824   0.323  1.00  0.00     0.025 A 
ATOM     15  C   UNL     1       0.714  -0.357  -0.582  1.00  0.00     0.069 C 
ATOM     16  C   UNL     1      -0.075  -1.606  -0.424  1.00  0.00     0.067 A 
ATOM     17  N   UNL     1       0.387  -2.744  -0.950  1.00  0.00    -0.177 NA
ATOM     18  N   UNL     1      -0.534  -3.668  -0.611  1.00  0.00    -0.269 N 
ATOM     19  C   UNL     1      -1.548  -3.161   0.160  1.00  0.00     0.118 A 
BRANCH  18  20
ATOM     20  C   UNL     1      -0.348  -5.067  -0.978  1.00  0.00     0.101 C 
ATOM     21  C   UNL     1       0.539  -5.273  -2.210  1.00  0.00     0.033 C 
ATOM     22  C   UNL     1       0.242  -5.837   0.188  1.00  0.00     0.033 C 
ENDBRANCH  18  20
ENDBRANCH   9  14
ENDBRANCH   5   8
ENDBRANCH   3   4
ENDBRANCH   2   3
ENDBRANCH   1   2
BRANCH   1  23
ATOM     23  C   UNL     1       2.657  -4.072   2.180  1.00  0.00     0.116 C 
BRANCH  23  24
ATOM     24  N   UNL     1       3.900  -4.582   1.585  1.00  0.00    -0.352 N 
ATOM     25  C   UNL     1       4.189  -5.835   1.056  1.00  0.00     0.251 C 
ATOM     26  H   UNL     1       4.643  -3.937   1.556  1.00  0.00     0.163 HD
ATOM     27  O   UNL     1       5.107  -5.964   0.251  1.00  0.00    -0.269 OA
BRANCH  25  28
ATOM     28  C   UNL     1       3.359  -7.001   1.434  1.00  0.00     0.039 A 
ATOM     29  C   UNL     1       2.991  -7.995   0.514  1.00  0.00     0.014 A 
ATOM     30  C   UNL     1       2.825  -7.013   2.709  1.00  0.00     0.014 A 
ATOM     31  C   UNL     1       1.974  -8.907   0.846  1.00  0.00     0.010 A 
ATOM     32  C   UNL     1       1.686  -7.748   2.936  1.00  0.00     0.010 A 
ATOM     33  C   UNL     1       1.273  -8.741   2.044  1.00  0.00    -0.014 A 
BRANCH  33  34
ATOM     34  C   UNL     1       0.251  -9.684   2.530  1.00  0.00     0.031 A 
ATOM     35  C   UNL     1       0.721 -10.544   3.670  1.00  0.00     0.074 A 
ATOM     36  C   UNL     1      -1.073  -9.611   2.276  1.00  0.00     0.049 A 
ATOM     37  N   UNL     1       1.028 -11.804   3.669  1.00  0.00    -0.248 NA
ATOM     38  C   UNL     1       1.063  -9.867   4.937  1.00  0.00     0.031 C 
ATOM     39  C   UNL     1      -1.803  -8.585   1.534  1.00  0.00     0.029 A 
ATOM     40  N   UNL     1      -2.079 -10.396   2.767  1.00  0.00    -0.354 N 
ATOM     41  C   UNL     1       1.439 -12.071   4.977  1.00  0.00     0.074 A 
ATOM     42  C   UNL     1       1.760 -10.807   5.566  1.00  0.00     0.031 C 
ATOM     43  C   UNL     1      -3.125  -8.682   1.804  1.00  0.00     0.029 A 
ATOM     44  C   UNL     1      -3.350  -9.848   2.641  1.00  0.00     0.049 A 
ATOM     45  H   UNL     1      -1.916 -11.277   3.176  1.00  0.00     0.167 HD
ATOM     46  C   UNL     1       1.184 -13.240   5.626  1.00  0.00     0.037 A 
ATOM     47  C   UNL     1      -4.490 -10.279   3.239  1.00  0.00     0.037 A 
ATOM     48  C   UNL     1       0.750 -14.264   4.719  1.00  0.00     0.049 A 
ATOM     49  C   UNL     1      -4.252 -11.665   3.717  1.00  0.00     0.074 A 
ATOM     50  C   UNL     1       1.278 -14.860   3.592  1.00  0.00     0.029 A 
ATOM     51  N   UNL     1      -0.584 -14.588   4.731  1.00  0.00    -0.354 N 
ATOM     52  N   UNL     1      -4.063 -12.695   2.940  1.00  0.00    -0.248 NA
ATOM     53  C   UNL     1      -3.834 -11.845   5.099  1.00  0.00     0.031 C 
ATOM     54  C   UNL     1       0.159 -15.124   2.753  1.00  0.00     0.029 A 
ATOM     55  C   UNL     1      -0.990 -14.706   3.428  1.00  0.00     0.049 A 
ATOM     56  H   UNL     1      -1.147 -14.713   5.529  1.00  0.00     0.167 HD
ATOM     57  C   UNL     1      -3.151 -13.492   3.617  1.00  0.00     0.074 A 
ATOM     58  C   UNL     1      -3.133 -12.974   4.980  1.00  0.00     0.031 C 
ATOM     59  C   UNL     1      -2.297 -14.317   2.944  1.00  0.00     0.037 A 
BRANCH  46  60
ATOM     60  C   UNL     1       0.977 -13.351   7.126  1.00  0.00     0.058 A 
ATOM     61  C   UNL     1       0.988 -14.625   7.728  1.00  0.00     0.135 A 
ATOM     62  C   UNL     1       0.533 -12.296   7.961  1.00  0.00     0.135 A 
ATOM     63  F   UNL     1       1.365 -15.706   7.027  1.00  0.00    -0.206 F 
ATOM     64  C   UNL     1       0.540 -14.841   9.033  1.00  0.00     0.059 A 
ATOM     65  C   UNL     1       0.159 -12.477   9.286  1.00  0.00     0.059 A 
ATOM     66  F   UNL     1       0.334 -11.052   7.513  1.00  0.00    -0.206 F 
ATOM     67  C   UNL     1       0.118 -13.759   9.800  1.00  0.00     0.060 A 
BRANCH  67  68
ATOM     68  S   UNL     1      -0.573 -14.036  11.438  1.00  0.00     0.124 S 
ATOM     69  O   UNL     1      -1.862 -14.630  11.108  1.00  0.00    -0.237 OA
ATOM     70  O   UNL     1       0.412 -14.930  12.038  1.00  0.00    -0.237 OA
ATOM     71  O   UNL     1      -0.623 -12.694  12.011  1.00  0.00    -0.744 OA
ENDBRANCH  67  68
ENDBRANCH  46  60
BRANCH  47  72
ATOM     72  C   UNL     1      -5.657  -9.477   3.694  1.00  0.00     0.058 A 
ATOM     73  C   UNL     1      -6.905 -10.071   3.955  1.00  0.00     0.135 A 
ATOM     74  C   UNL     1      -5.500  -8.147   4.135  1.00  0.00     0.135 A 
ATOM     75  F   UNL     1      -7.131 -11.345   3.602  1.00  0.00    -0.206 F 
ATOM     76  C   UNL     1      -7.926  -9.397   4.635  1.00  0.00     0.059 A 
ATOM     77  C   UNL     1      -6.506  -7.451   4.805  1.00  0.00     0.059 A 
ATOM     78  F   UNL     1      -4.325  -7.513   4.000  1.00  0.00    -0.206 F 
ATOM     79  C   UNL     1      -7.712  -8.089   5.069  1.00  0.00     0.060 A 
BRANCH  79  80
ATOM     80  S   UNL     1      -8.979  -7.265   6.065  1.00  0.00     0.124 S 
ATOM     81  O   UNL     1     -10.054  -7.085   5.095  1.00  0.00    -0.237 OA
ATOM     82  O   UNL     1      -9.227  -8.243   7.118  1.00  0.00    -0.237 OA
ATOM     83  O   UNL     1      -8.321  -6.036   6.502  1.00  0.00    -0.744 OA
ENDBRANCH  79  80
ENDBRANCH  47  72
BRANCH  59  84
ATOM     84  C   UNL     1      -2.596 -14.649   1.508  1.00  0.00     0.058 A 
ATOM     85  C   UNL     1      -2.558 -13.720   0.455  1.00  0.00     0.135 A 
ATOM     86  C   UNL     1      -2.731 -16.004   1.169  1.00  0.00     0.135 A 
ATOM     87  F   UNL     1      -2.341 -12.418   0.690  1.00  0.00    -0.206 F 
ATOM     88  C   UNL     1      -2.663 -14.122  -0.877  1.00  0.00     0.059 A 
ATOM     89  C   UNL     1      -2.805 -16.431  -0.153  1.00  0.00     0.059 A 
ATOM     90  F   UNL     1      -2.719 -16.942   2.131  1.00  0.00    -0.206 F 
ATOM     91  C   UNL     1      -2.773 -15.481  -1.173  1.00  0.00     0.060 A 
BRANCH  91  92
ATOM     92  S   UNL     1      -2.765 -16.016  -2.898  1.00  0.00     0.124 S 
ATOM     93  O   UNL     1      -4.100 -15.617  -3.346  1.00  0.00    -0.237 OA
ATOM     94  O   UNL     1      -1.657 -15.242  -3.463  1.00  0.00    -0.237 OA
ATOM     95  O   UNL     1      -2.535 -17.447  -2.816  1.00  0.00    -0.744 OA
ENDBRANCH  91  92
ENDBRANCH  59  84
ENDBRANCH  33  34
ENDBRANCH  25  28
ENDBRANCH  23  24
ENDBRANCH   1  23
TORSDOF 16
