REMARK SMILES CCc1cccc2c3c([nH]c12)[C@](CC)(CC(=O)NCCCCNC(=O)c1ccc(-c2c4nc(c(-c5c(F)cc(S(=O)(=O)[O-])cc5F)c5ccc([nH]5)c(-c5c(F)cc(S(=O)(=O)[O-])cc5F)c5nc(c(-c6c(F)cc(S(=O)(=O)[O-])cc6F)c6ccc2[nH]6)C=C5)C=C4)cc1)OCC3
REMARK SMILES IDX 21 1 20 2 19 3 18 4 16 5 17 6 15 8 12 9 3 10 4 11 11 12 5 13
REMARK SMILES IDX 7 14 10 15 6 16 8 17 9 18 94 20 93 21 92 22 2 23 1 24 13 25
REMARK SMILES IDX 14 26 22 27 23 28 24 29 25 31 26 32 27 33 91 34 28 35 90 36
REMARK SMILES IDX 29 37 30 38 31 39 84 40 32 41 89 42 83 43 85 44 33 45 88 46
REMARK SMILES IDX 82 47 81 48 34 50 68 51 47 52 67 53 48 54 51 55 66 56 86 57
REMARK SMILES IDX 49 58 50 59 65 61 87 62 52 63 35 64 36 65 45 66 37 67 38 68
REMARK SMILES IDX 44 69 46 70 39 71 40 72 41 73 42 74 43 75 69 76 70 77 79 78
REMARK SMILES IDX 71 79 72 80 78 81 80 82 73 83 74 84 75 85 76 86 77 87 53 88
REMARK SMILES IDX 54 89 63 90 55 91 56 92 62 93 64 94 57 95 58 96 59 97 60 98
REMARK SMILES IDX 61 99
REMARK H PARENT 18 7 10 19 23 30 85 49 51 60
REMARK Flexibility Score: inf
ROOT
ATOM      1  C   UNL     1       8.398   6.389  -1.316  1.00  0.00     0.023 C 
ENDROOT
BRANCH   1   2
ATOM      2  C   UNL     1       8.605   4.915  -1.705  1.00  0.00     0.023 C 
BRANCH   2   3
ATOM      3  C   UNL     1       8.946   3.943  -0.566  1.00  0.00     0.116 C 
BRANCH   3   4
ATOM      4  N   UNL     1       8.188   4.137   0.664  1.00  0.00    -0.356 N 
ATOM      5  C   UNL     1       7.148   3.441   1.218  1.00  0.00     0.223 C 
ATOM      6  O   UNL     1       6.714   3.832   2.304  1.00  0.00    -0.275 OA
ATOM      7  H   UNL     1       8.478   4.914   1.195  1.00  0.00     0.163 HD
BRANCH   5   8
ATOM      8  C   UNL     1       6.599   2.195   0.561  1.00  0.00     0.142 C 
BRANCH   8   9
ATOM      9  C   UNL     1       5.421   2.329  -0.433  1.00  0.00     0.117 C 
ATOM     10  C   UNL     1       0.693   1.944   1.330  1.00  0.00    -0.024 A 
ATOM     11  C   UNL     1      -0.315   2.913   1.545  1.00  0.00     0.006 A 
ATOM     12  C   UNL     1       1.967   2.443   0.986  1.00  0.00     0.049 A 
ATOM     13  C   UNL     1      -0.085   4.278   1.388  1.00  0.00     0.001 A 
ATOM     14  C   UNL     1       2.189   3.799   0.748  1.00  0.00     0.003 A 
ATOM     15  N   UNL     1       3.176   1.801   0.756  1.00  0.00    -0.356 N 
ATOM     16  C   UNL     1       1.160   4.731   0.966  1.00  0.00     0.010 A 
ATOM     17  C   UNL     1       3.472   3.903   0.167  1.00  0.00    -0.014 A 
ATOM     18  C   UNL     1       4.088   2.671   0.202  1.00  0.00     0.052 A 
ATOM     19  H   UNL     1       3.356   0.855   0.962  1.00  0.00     0.166 HD
ATOM     20  C   UNL     1       4.036   5.051  -0.559  1.00  0.00     0.066 C 
ATOM     21  C   UNL     1       5.414   4.705  -1.097  1.00  0.00     0.166 C 
ATOM     22  O   UNL     1       5.652   3.329  -1.455  1.00  0.00    -0.368 OA
BRANCH  10  23
ATOM     23  C   UNL     1       0.335   0.482   1.429  1.00  0.00     0.034 C 
ATOM     24  C   UNL     1       0.577  -0.277   0.129  1.00  0.00     0.009 C 
ENDBRANCH  10  23
BRANCH   9  25
ATOM     25  C   UNL     1       5.276   0.981  -1.217  1.00  0.00     0.039 C 
ATOM     26  C   UNL     1       6.528   0.500  -1.952  1.00  0.00     0.007 C 
ENDBRANCH   9  25
ENDBRANCH   8   9
ENDBRANCH   5   8
ENDBRANCH   3   4
ENDBRANCH   2   3
ENDBRANCH   1   2
BRANCH   1  27
ATOM     27  C   UNL     1       9.686   7.110  -0.941  1.00  0.00     0.116 C 
BRANCH  27  28
ATOM     28  N   UNL     1      10.623   7.137  -2.042  1.00  0.00    -0.352 N 
ATOM     29  C   UNL     1      10.745   7.869  -3.190  1.00  0.00     0.251 C 
ATOM     30  H   UNL     1      11.342   6.472  -1.940  1.00  0.00     0.163 HD
ATOM     31  O   UNL     1      11.637   7.489  -3.956  1.00  0.00    -0.269 OA
BRANCH  29  32
ATOM     32  C   UNL     1       9.922   9.054  -3.576  1.00  0.00     0.039 A 
ATOM     33  C   UNL     1       8.916   9.652  -2.815  1.00  0.00     0.014 A 
ATOM     34  C   UNL     1      10.234   9.629  -4.824  1.00  0.00     0.014 A 
ATOM     35  C   UNL     1       8.241  10.783  -3.289  1.00  0.00     0.010 A 
ATOM     36  C   UNL     1       9.574  10.764  -5.294  1.00  0.00     0.010 A 
ATOM     37  C   UNL     1       8.561  11.338  -4.532  1.00  0.00    -0.014 A 
BRANCH  37  38
ATOM     38  C   UNL     1       7.848  12.543  -4.962  1.00  0.00     0.031 A 
ATOM     39  C   UNL     1       7.978  13.758  -4.097  1.00  0.00     0.074 A 
ATOM     40  C   UNL     1       7.192  12.653  -6.135  1.00  0.00     0.049 A 
ATOM     41  N   UNL     1       7.049  14.397  -3.459  1.00  0.00    -0.248 NA
ATOM     42  C   UNL     1       9.326  14.302  -3.880  1.00  0.00     0.031 C 
ATOM     43  C   UNL     1       7.176  11.719  -7.263  1.00  0.00     0.029 A 
ATOM     44  N   UNL     1       6.455  13.706  -6.592  1.00  0.00    -0.354 N 
ATOM     45  C   UNL     1       7.656  15.513  -2.880  1.00  0.00     0.074 A 
ATOM     46  C   UNL     1       9.073  15.351  -3.093  1.00  0.00     0.031 C 
ATOM     47  C   UNL     1       6.641  12.334  -8.340  1.00  0.00     0.029 A 
ATOM     48  C   UNL     1       6.154  13.645  -7.943  1.00  0.00     0.049 A 
ATOM     49  H   UNL     1       6.161  14.445  -6.012  1.00  0.00     0.167 HD
ATOM     50  C   UNL     1       6.944  16.564  -2.377  1.00  0.00     0.037 A 
ATOM     51  C   UNL     1       5.595  14.624  -8.696  1.00  0.00     0.037 A 
ATOM     52  C   UNL     1       5.556  16.234  -2.201  1.00  0.00     0.049 A 
ATOM     53  C   UNL     1       4.867  15.536  -7.778  1.00  0.00     0.074 A 
ATOM     54  C   UNL     1       4.863  15.316  -1.436  1.00  0.00     0.029 A 
ATOM     55  N   UNL     1       4.648  16.707  -3.117  1.00  0.00    -0.354 N 
ATOM     56  N   UNL     1       3.795  15.204  -7.111  1.00  0.00    -0.248 NA
ATOM     57  C   UNL     1       5.561  16.717  -7.285  1.00  0.00     0.031 C 
ATOM     58  C   UNL     1       3.750  14.929  -2.237  1.00  0.00     0.029 A 
ATOM     59  C   UNL     1       3.824  15.655  -3.428  1.00  0.00     0.049 A 
ATOM     60  H   UNL     1       4.598  17.621  -3.479  1.00  0.00     0.167 HD
ATOM     61  C   UNL     1       3.905  15.867  -5.898  1.00  0.00     0.074 A 
ATOM     62  C   UNL     1       4.951  16.863  -6.106  1.00  0.00     0.031 C 
ATOM     63  C   UNL     1       3.333  15.375  -4.759  1.00  0.00     0.037 A 
BRANCH  50  64
ATOM     64  C   UNL     1       7.432  17.992  -2.270  1.00  0.00     0.058 A 
ATOM     65  C   UNL     1       6.695  18.931  -1.514  1.00  0.00     0.135 A 
ATOM     66  C   UNL     1       8.431  18.535  -3.105  1.00  0.00     0.135 A 
ATOM     67  F   UNL     1       5.721  18.529  -0.682  1.00  0.00    -0.206 F 
ATOM     68  C   UNL     1       6.878  20.309  -1.644  1.00  0.00     0.059 A 
ATOM     69  C   UNL     1       8.666  19.904  -3.210  1.00  0.00     0.059 A 
ATOM     70  F   UNL     1       9.155  17.767  -3.929  1.00  0.00    -0.206 F 
ATOM     71  C   UNL     1       7.851  20.785  -2.517  1.00  0.00     0.060 A 
BRANCH  71  72
ATOM     72  S   UNL     1       7.981  22.560  -2.810  1.00  0.00     0.124 S 
ATOM     73  O   UNL     1       6.752  22.821  -3.551  1.00  0.00    -0.237 OA
ATOM     74  O   UNL     1       8.034  23.093  -1.452  1.00  0.00    -0.237 OA
ATOM     75  O   UNL     1       9.218  22.684  -3.575  1.00  0.00    -0.744 OA
ENDBRANCH  71  72
ENDBRANCH  50  64
BRANCH  51  76
ATOM     76  C   UNL     1       5.902  14.957 -10.110  1.00  0.00     0.058 A 
ATOM     77  C   UNL     1       5.076  15.809 -10.863  1.00  0.00     0.135 A 
ATOM     78  C   UNL     1       7.155  14.647 -10.678  1.00  0.00     0.135 A 
ATOM     79  F   UNL     1       3.880  16.186 -10.386  1.00  0.00    -0.206 F 
ATOM     80  C   UNL     1       5.482  16.347 -12.089  1.00  0.00     0.059 A 
ATOM     81  C   UNL     1       7.575  15.157 -11.903  1.00  0.00     0.059 A 
ATOM     82  F   UNL     1       8.055  13.907 -10.012  1.00  0.00    -0.206 F 
ATOM     83  C   UNL     1       6.743  16.027 -12.594  1.00  0.00     0.060 A 
BRANCH  83  84
ATOM     84  S   UNL     1       7.335  16.840 -14.095  1.00  0.00     0.124 S 
ATOM     85  O   UNL     1       6.435  16.299 -15.108  1.00  0.00    -0.237 OA
ATOM     86  O   UNL     1       7.156  18.250 -13.770  1.00  0.00    -0.237 OA
ATOM     87  O   UNL     1       8.724  16.398 -14.196  1.00  0.00    -0.744 OA
ENDBRANCH  83  84
ENDBRANCH  51  76
BRANCH  63  88
ATOM     88  C   UNL     1       2.340  14.248  -4.882  1.00  0.00     0.058 A 
ATOM     89  C   UNL     1       2.675  12.966  -5.351  1.00  0.00     0.135 A 
ATOM     90  C   UNL     1       1.059  14.414  -4.333  1.00  0.00     0.135 A 
ATOM     91  F   UNL     1       3.912  12.695  -5.788  1.00  0.00    -0.206 F 
ATOM     92  C   UNL     1       1.769  11.907  -5.307  1.00  0.00     0.059 A 
ATOM     93  C   UNL     1       0.149  13.362  -4.250  1.00  0.00     0.059 A 
ATOM     94  F   UNL     1       0.701  15.597  -3.806  1.00  0.00    -0.206 F 
ATOM     95  C   UNL     1       0.510  12.111  -4.747  1.00  0.00     0.060 A 
BRANCH  95  96
ATOM     96  S   UNL     1      -0.613  10.706  -4.581  1.00  0.00     0.124 S 
ATOM     97  O   UNL     1      -1.031  10.484  -5.965  1.00  0.00    -0.237 OA
ATOM     98  O   UNL     1       0.255   9.674  -4.012  1.00  0.00    -0.237 OA
ATOM     99  O   UNL     1      -1.649  11.197  -3.687  1.00  0.00    -0.744 OA
ENDBRANCH  95  96
ENDBRANCH  63  88
ENDBRANCH  37  38
ENDBRANCH  29  32
ENDBRANCH  27  28
ENDBRANCH   1  27
TORSDOF 17
