REMARK SMILES Cc1cc(F)c([C@H](O)[C@H]2CCCC[C@@H]2C(=O)NCCCCNC(=O)c2ccc(-c3c4nc(c(-c5c(F)cc(S(=O)(=O)[O-])cc5F)c5ccc([nH]5)c(-c5c(F)cc(S(=O)(=O)[O-])cc5F)c5nc(c(-c6c(F)cc(S(=O)(=O)[O-])cc6F)c6ccc3[nH]6)C=C5)C=C4)cc2)cc1F
REMARK SMILES IDX 20 1 19 2 18 3 17 4 15 5 16 6 14 8 9 9 10 10 11 11 13 12
REMARK SMILES IDX 12 13 7 14 6 15 1 16 2 17 3 18 92 19 4 20 91 21 93 22 5 23
REMARK SMILES IDX 8 24 21 26 22 27 23 28 24 30 25 31 26 32 90 33 27 34 89 35
REMARK SMILES IDX 28 36 29 37 30 38 83 39 31 40 88 41 82 42 84 43 32 44 87 45
REMARK SMILES IDX 81 46 80 47 33 49 67 50 46 51 66 52 47 53 50 54 65 55 85 56
REMARK SMILES IDX 48 57 49 58 64 60 86 61 51 62 34 63 35 64 44 65 36 66 37 67
REMARK SMILES IDX 43 68 45 69 38 70 39 71 40 72 41 73 42 74 68 75 69 76 78 77
REMARK SMILES IDX 70 78 71 79 77 80 79 81 72 82 73 83 74 84 75 85 76 86 52 87
REMARK SMILES IDX 53 88 62 89 54 90 55 91 61 92 63 93 56 94 57 95 58 96 59 97
REMARK SMILES IDX 60 98
REMARK H PARENT 17 7 8 25 22 29 84 48 50 59
REMARK Flexibility Score: inf
ROOT
ATOM      1  C   UNL     1      -3.937   1.250  -0.942  1.00  0.00     0.023 C 
ENDROOT
BRANCH   1   2
ATOM      2  C   UNL     1      -3.758   1.826  -2.342  1.00  0.00     0.023 C 
BRANCH   2   3
ATOM      3  C   UNL     1      -2.309   2.099  -2.740  1.00  0.00     0.116 C 
BRANCH   3   4
ATOM      4  N   UNL     1      -1.765   1.134  -3.659  1.00  0.00    -0.356 N 
ATOM      5  C   UNL     1      -1.332   1.244  -4.937  1.00  0.00     0.223 C 
ATOM      6  O   UNL     1      -0.684   0.277  -5.361  1.00  0.00    -0.275 OA
ATOM      7  H   UNL     1      -1.695   0.224  -3.289  1.00  0.00     0.163 HD
BRANCH   5   8
ATOM      8  C   UNL     1      -1.691   2.383  -5.919  1.00  0.00     0.084 C 
ATOM      9  C   UNL     1      -1.370   3.866  -5.565  1.00  0.00     0.035 C 
ATOM     10  C   UNL     1      -2.610   4.686  -5.072  1.00  0.00     0.007 C 
ATOM     11  C   UNL     1      -3.937   4.340  -5.739  1.00  0.00     0.000 C 
ATOM     12  C   UNL     1      -3.064   2.142  -6.548  1.00  0.00     0.014 C 
ATOM     13  C   UNL     1      -4.194   2.849  -5.834  1.00  0.00     0.001 C 
BRANCH   9  14
ATOM     14  C   UNL     1      -0.771   4.677  -6.770  1.00  0.00     0.151 C 
BRANCH  14  15
ATOM     15  C   UNL     1       0.306   4.144  -7.679  1.00  0.00     0.019 A 
ATOM     16  C   UNL     1       3.202   2.707 -10.563  1.00  0.00     0.047 C 
ATOM     17  C   UNL     1       2.238   3.222  -9.540  1.00  0.00    -0.012 A 
ATOM     18  C   UNL     1       2.220   2.738  -8.226  1.00  0.00     0.046 A 
ATOM     19  C   UNL     1       1.317   4.205  -9.895  1.00  0.00     0.126 A 
ATOM     20  C   UNL     1       1.278   3.215  -7.307  1.00  0.00     0.129 A 
ATOM     21  C   UNL     1       0.367   4.662  -8.988  1.00  0.00     0.049 A 
ATOM     22  F   UNL     1       1.329   4.721 -11.133  1.00  0.00    -0.207 F 
ATOM     23  F   UNL     1       1.316   2.743  -6.054  1.00  0.00    -0.207 F 
ENDBRANCH  14  15
BRANCH  14  24
ATOM     24  O   UNL     1      -0.225   5.910  -6.280  1.00  0.00    -0.388 OA
ATOM     25  H   UNL     1       0.559   5.725  -5.740  1.00  0.00     0.211 HD
ENDBRANCH  14  24
ENDBRANCH   9  14
ENDBRANCH   5   8
ENDBRANCH   3   4
ENDBRANCH   2   3
ENDBRANCH   1   2
BRANCH   1  26
ATOM     26  C   UNL     1      -3.297   2.042   0.191  1.00  0.00     0.116 C 
BRANCH  26  27
ATOM     27  N   UNL     1      -3.731   3.430   0.297  1.00  0.00    -0.352 N 
ATOM     28  C   UNL     1      -3.992   4.150   1.453  1.00  0.00     0.251 C 
ATOM     29  H   UNL     1      -3.853   3.913  -0.553  1.00  0.00     0.163 HD
ATOM     30  O   UNL     1      -4.369   5.302   1.412  1.00  0.00    -0.269 OA
BRANCH  28  31
ATOM     31  C   UNL     1      -3.854   3.433   2.743  1.00  0.00     0.039 A 
ATOM     32  C   UNL     1      -2.668   2.756   3.026  1.00  0.00     0.014 A 
ATOM     33  C   UNL     1      -4.985   3.264   3.544  1.00  0.00     0.014 A 
ATOM     34  C   UNL     1      -2.691   1.728   3.959  1.00  0.00     0.010 A 
ATOM     35  C   UNL     1      -4.966   2.301   4.558  1.00  0.00     0.010 A 
ATOM     36  C   UNL     1      -3.847   1.468   4.719  1.00  0.00    -0.014 A 
BRANCH  36  37
ATOM     37  C   UNL     1      -3.877   0.281   5.619  1.00  0.00     0.031 A 
ATOM     38  C   UNL     1      -4.865  -0.841   5.390  1.00  0.00     0.074 A 
ATOM     39  C   UNL     1      -2.944   0.164   6.585  1.00  0.00     0.049 A 
ATOM     40  N   UNL     1      -5.048  -1.932   6.091  1.00  0.00    -0.248 NA
ATOM     41  C   UNL     1      -5.764  -0.727   4.229  1.00  0.00     0.031 C 
ATOM     42  C   UNL     1      -1.907   1.156   6.880  1.00  0.00     0.029 A 
ATOM     43  N   UNL     1      -2.686  -0.855   7.466  1.00  0.00    -0.354 N 
ATOM     44  C   UNL     1      -6.095  -2.615   5.479  1.00  0.00     0.074 A 
ATOM     45  C   UNL     1      -6.521  -1.810   4.356  1.00  0.00     0.031 C 
ATOM     46  C   UNL     1      -1.077   0.662   7.809  1.00  0.00     0.029 A 
ATOM     47  C   UNL     1      -1.571  -0.640   8.241  1.00  0.00     0.049 A 
ATOM     48  H   UNL     1      -3.245  -1.662   7.536  1.00  0.00     0.167 HD
ATOM     49  C   UNL     1      -6.644  -3.807   5.817  1.00  0.00     0.037 A 
ATOM     50  C   UNL     1      -1.016  -1.395   9.207  1.00  0.00     0.037 A 
ATOM     51  C   UNL     1      -6.189  -4.627   6.911  1.00  0.00     0.049 A 
ATOM     52  C   UNL     1      -1.669  -2.691   9.587  1.00  0.00     0.074 A 
ATOM     53  C   UNL     1      -6.698  -5.838   7.349  1.00  0.00     0.029 A 
ATOM     54  N   UNL     1      -5.102  -4.336   7.721  1.00  0.00    -0.354 N 
ATOM     55  N   UNL     1      -2.712  -3.275   9.049  1.00  0.00    -0.248 NA
ATOM     56  C   UNL     1      -1.089  -3.416  10.726  1.00  0.00     0.031 C 
ATOM     57  C   UNL     1      -5.931  -6.269   8.437  1.00  0.00     0.029 A 
ATOM     58  C   UNL     1      -4.926  -5.342   8.656  1.00  0.00     0.049 A 
ATOM     59  H   UNL     1      -4.539  -3.532   7.643  1.00  0.00     0.167 HD
ATOM     60  C   UNL     1      -2.913  -4.436   9.784  1.00  0.00     0.074 A 
ATOM     61  C   UNL     1      -1.870  -4.485  10.788  1.00  0.00     0.031 C 
ATOM     62  C   UNL     1      -3.882  -5.373   9.647  1.00  0.00     0.037 A 
BRANCH  49  63
ATOM     63  C   UNL     1      -7.805  -4.311   5.005  1.00  0.00     0.058 A 
ATOM     64  C   UNL     1      -7.620  -4.884   3.738  1.00  0.00     0.135 A 
ATOM     65  C   UNL     1      -9.104  -4.305   5.539  1.00  0.00     0.135 A 
ATOM     66  F   UNL     1      -6.402  -4.899   3.174  1.00  0.00    -0.206 F 
ATOM     67  C   UNL     1      -8.684  -5.432   3.026  1.00  0.00     0.059 A 
ATOM     68  C   UNL     1     -10.180  -4.864   4.853  1.00  0.00     0.059 A 
ATOM     69  F   UNL     1      -9.335  -3.769   6.747  1.00  0.00    -0.206 F 
ATOM     70  C   UNL     1      -9.960  -5.422   3.594  1.00  0.00     0.060 A 
BRANCH  70  71
ATOM     71  S   UNL     1     -11.321  -6.169   2.672  1.00  0.00     0.124 S 
ATOM     72  O   UNL     1     -11.525  -5.189   1.610  1.00  0.00    -0.237 OA
ATOM     73  O   UNL     1     -10.752  -7.446   2.255  1.00  0.00    -0.237 OA
ATOM     74  O   UNL     1     -12.393  -6.256   3.659  1.00  0.00    -0.744 OA
ENDBRANCH  70  71
ENDBRANCH  49  63
BRANCH  50  75
ATOM     75  C   UNL     1       0.214  -0.930   9.897  1.00  0.00     0.058 A 
ATOM     76  C   UNL     1       1.441  -1.577   9.693  1.00  0.00     0.135 A 
ATOM     77  C   UNL     1       0.190   0.179  10.757  1.00  0.00     0.135 A 
ATOM     78  F   UNL     1       1.510  -2.645   8.884  1.00  0.00    -0.206 F 
ATOM     79  C   UNL     1       2.602  -1.147  10.327  1.00  0.00     0.059 A 
ATOM     80  C   UNL     1       1.342   0.642  11.381  1.00  0.00     0.059 A 
ATOM     81  F   UNL     1      -0.959   0.840  10.971  1.00  0.00    -0.206 F 
ATOM     82  C   UNL     1       2.542  -0.035  11.168  1.00  0.00     0.060 A 
BRANCH  82  83
ATOM     83  S   UNL     1       4.060   0.549  11.951  1.00  0.00     0.124 S 
ATOM     84  O   UNL     1       4.218  -0.413  13.035  1.00  0.00    -0.237 OA
ATOM     85  O   UNL     1       5.027   0.451  10.862  1.00  0.00    -0.237 OA
ATOM     86  O   UNL     1       3.723   1.911  12.356  1.00  0.00    -0.744 OA
ENDBRANCH  82  83
ENDBRANCH  50  75
BRANCH  62  87
ATOM     87  C   UNL     1      -3.853  -6.532  10.598  1.00  0.00     0.058 A 
ATOM     88  C   UNL     1      -4.297  -6.398  11.922  1.00  0.00     0.135 A 
ATOM     89  C   UNL     1      -3.417  -7.796  10.171  1.00  0.00     0.135 A 
ATOM     90  F   UNL     1      -4.714  -5.206  12.377  1.00  0.00    -0.206 F 
ATOM     91  C   UNL     1      -4.295  -7.477  12.798  1.00  0.00     0.059 A 
ATOM     92  C   UNL     1      -3.425  -8.893  11.025  1.00  0.00     0.059 A 
ATOM     93  F   UNL     1      -2.989  -7.973   8.911  1.00  0.00    -0.206 F 
ATOM     94  C   UNL     1      -3.857  -8.722  12.340  1.00  0.00     0.060 A 
BRANCH  94  95
ATOM     95  S   UNL     1      -3.890 -10.122  13.479  1.00  0.00     0.124 S 
ATOM     96  O   UNL     1      -2.741  -9.835  14.330  1.00  0.00    -0.237 OA
ATOM     97  O   UNL     1      -5.199  -9.981  14.111  1.00  0.00    -0.237 OA
ATOM     98  O   UNL     1      -3.748 -11.278  12.598  1.00  0.00    -0.744 OA
ENDBRANCH  94  95
ENDBRANCH  62  87
ENDBRANCH  36  37
ENDBRANCH  28  31
ENDBRANCH  26  27
ENDBRANCH   1  26
TORSDOF 17
