REMARK SMILES Cc1ccc(NC(=O)CN2C(=O)S/C(=C\c3cc(Cl)c(OCC(=O)NCCCCNC(=O)c4ccc(-c5c6nc(c(-c7c(F)cc(S(=O)(=O)[O-])cc7F)c7ccc([nH]7)c(-c7c(F)cc(S(=O)(=O)[O-])cc7F)c7nc(c(-c8c(F)cc(S(=O)(=O)[O-])cc8F)c8ccc5[nH]8)C=C7)C=C6)cc4)c(Cl)c3)C2=O)cc1
REMARK SMILES IDX 26 1 25 2 23 3 24 4 22 6 21 7 20 8 16 9 17 10 101 11 18 12
REMARK SMILES IDX 99 13 19 14 100 15 15 16 10 17 11 18 102 19 12 20 13 21
REMARK SMILES IDX 14 22 103 23 9 24 7 25 6 26 8 28 5 29 1 30 2 31 3 32 105 33
REMARK SMILES IDX 4 34 104 35 27 36 28 37 29 38 30 39 31 40 32 42 33 43 34 44
REMARK SMILES IDX 98 45 35 46 97 47 36 48 37 49 38 50 91 51 39 52 96 53 90 54
REMARK SMILES IDX 92 55 40 56 95 57 89 58 88 59 41 61 75 62 54 63 74 64 55 65
REMARK SMILES IDX 58 66 73 67 93 68 56 69 57 70 72 72 94 73 59 74 42 75 43 76
REMARK SMILES IDX 52 77 44 78 45 79 51 80 53 81 46 82 47 83 48 84 49 85 50 86
REMARK SMILES IDX 76 87 77 88 86 89 78 90 79 91 85 92 87 93 80 94 81 95 82 96
REMARK SMILES IDX 83 97 84 98 60 99 61 100 70 101 62 102 63 103 69 104 71 105
REMARK SMILES IDX 64 106 65 107 66 108 67 109 68 110
REMARK H PARENT 25 5 6 27 30 41 92 60 58 71
REMARK Flexibility Score: inf
ROOT
ATOM      1  C   UNL     1      -6.345  -4.635 -12.623  1.00  0.00     0.116 C 
ENDROOT
BRANCH   1   2
ATOM      2  N   UNL     1      -7.213  -4.421 -11.480  1.00  0.00    -0.353 N 
ATOM      3  C   UNL     1      -7.403  -3.294 -10.737  1.00  0.00     0.257 C 
ATOM      4  O   UNL     1      -8.299  -3.311  -9.890  1.00  0.00    -0.271 OA
ATOM      5  H   UNL     1      -7.740  -5.204 -11.200  1.00  0.00     0.163 HD
BRANCH   3   6
ATOM      6  C   UNL     1      -6.552  -2.041 -11.002  1.00  0.00     0.329 C 
BRANCH   6   7
ATOM      7  O   UNL     1      -5.154  -2.096 -10.784  1.00  0.00    -0.481 OA
BRANCH   7   8
ATOM      8  C   UNL     1      -4.598  -2.284  -9.548  1.00  0.00     0.157 A 
ATOM      9  C   UNL     1      -3.106  -2.770  -7.148  1.00  0.00    -0.021 A 
ATOM     10  C   UNL     1      -2.476  -2.837  -8.384  1.00  0.00     0.032 A 
ATOM     11  C   UNL     1      -4.478  -2.493  -7.134  1.00  0.00     0.032 A 
ATOM     12  C   UNL     1      -3.216  -2.602  -9.562  1.00  0.00     0.085 A 
ATOM     13  C   UNL     1      -5.202  -2.178  -8.293  1.00  0.00     0.085 A 
ATOM     14  Cl  UNL     1      -2.334  -2.683 -11.057  1.00  0.00    -0.080 Cl
ATOM     15  Cl  UNL     1      -6.767  -1.530  -7.962  1.00  0.00    -0.080 Cl
BRANCH   9  16
ATOM     16  C   UNL     1      -2.410  -3.027  -5.868  1.00  0.00     0.029 C 
ATOM     17  N   UNL     1      -3.116  -2.086  -2.504  1.00  0.00    -0.259 N 
ATOM     18  C   UNL     1      -3.933  -1.138  -3.066  1.00  0.00     0.294 C 
ATOM     19  C   UNL     1      -2.302  -2.773  -3.385  1.00  0.00     0.268 C 
ATOM     20  O   UNL     1      -4.952  -0.661  -2.604  1.00  0.00    -0.261 OA
ATOM     21  S   UNL     1      -3.343  -0.735  -4.657  1.00  0.00    -0.022 SA
ATOM     22  C   UNL     1      -2.541  -2.258  -4.771  1.00  0.00     0.083 C 
ATOM     23  O   UNL     1      -1.606  -3.743  -3.122  1.00  0.00    -0.268 OA
BRANCH  17  24
ATOM     24  C   UNL     1      -3.443  -2.624  -1.192  1.00  0.00     0.230 C 
BRANCH  24  25
ATOM     25  C   UNL     1      -3.798  -1.541  -0.168  1.00  0.00     0.244 C 
ATOM     26  N   UNL     1      -2.987  -0.460   0.033  1.00  0.00    -0.325 N 
ATOM     27  H   UNL     1      -3.462   0.364   0.288  1.00  0.00     0.169 HD
ATOM     28  O   UNL     1      -4.844  -1.615   0.485  1.00  0.00    -0.273 OA
BRANCH  26  29
ATOM     29  C   UNL     1      -1.596  -0.322  -0.063  1.00  0.00     0.041 A 
ATOM     30  C   UNL     1       2.673   0.306  -0.031  1.00  0.00     0.044 C 
ATOM     31  C   UNL     1       1.187   0.106  -0.041  1.00  0.00    -0.051 A 
ATOM     32  C   UNL     1       0.663  -1.188   0.026  1.00  0.00     0.005 A 
ATOM     33  C   UNL     1       0.307   1.189  -0.111  1.00  0.00     0.005 A 
ATOM     34  C   UNL     1      -0.718  -1.400   0.017  1.00  0.00     0.026 A 
ATOM     35  C   UNL     1      -1.076   0.976  -0.108  1.00  0.00     0.026 A 
ENDBRANCH  26  29
ENDBRANCH  24  25
ENDBRANCH  17  24
ENDBRANCH   9  16
ENDBRANCH   7   8
ENDBRANCH   6   7
ENDBRANCH   3   6
ENDBRANCH   1   2
BRANCH   1  36
ATOM     36  C   UNL     1      -5.056  -5.385 -12.280  1.00  0.00     0.023 C 
BRANCH  36  37
ATOM     37  C   UNL     1      -5.230  -6.702 -11.529  1.00  0.00     0.023 C 
BRANCH  37  38
ATOM     38  C   UNL     1      -6.032  -7.767 -12.261  1.00  0.00     0.116 C 
BRANCH  38  39
ATOM     39  N   UNL     1      -5.247  -8.696 -13.060  1.00  0.00    -0.352 N 
ATOM     40  C   UNL     1      -5.615  -9.988 -13.427  1.00  0.00     0.251 C 
ATOM     41  H   UNL     1      -4.368  -8.381 -13.370  1.00  0.00     0.163 HD
ATOM     42  O   UNL     1      -4.798 -10.880 -13.618  1.00  0.00    -0.269 OA
BRANCH  40  43
ATOM     43  C   UNL     1      -7.039 -10.194 -13.776  1.00  0.00     0.039 A 
ATOM     44  C   UNL     1      -7.345 -10.483 -15.114  1.00  0.00     0.014 A 
ATOM     45  C   UNL     1      -8.021  -9.756 -12.900  1.00  0.00     0.014 A 
ATOM     46  C   UNL     1      -8.575 -10.099 -15.631  1.00  0.00     0.010 A 
ATOM     47  C   UNL     1      -9.160  -9.223 -13.438  1.00  0.00     0.010 A 
ATOM     48  C   UNL     1      -9.418  -9.369 -14.807  1.00  0.00    -0.014 A 
BRANCH  48  49
ATOM     49  C   UNL     1     -10.670  -8.765 -15.206  1.00  0.00     0.031 A 
ATOM     50  C   UNL     1     -11.903  -9.462 -14.799  1.00  0.00     0.074 A 
ATOM     51  C   UNL     1     -10.646  -7.481 -15.622  1.00  0.00     0.049 A 
ATOM     52  N   UNL     1     -13.081  -9.139 -15.188  1.00  0.00    -0.248 NA
ATOM     53  C   UNL     1     -11.898 -10.627 -13.916  1.00  0.00     0.031 C 
ATOM     54  C   UNL     1     -11.728  -6.506 -15.585  1.00  0.00     0.029 A 
ATOM     55  N   UNL     1      -9.634  -6.843 -16.341  1.00  0.00    -0.354 N 
ATOM     56  C   UNL     1     -13.984  -9.806 -14.385  1.00  0.00     0.074 A 
ATOM     57  C   UNL     1     -13.202 -10.793 -13.687  1.00  0.00     0.031 C 
ATOM     58  C   UNL     1     -11.453  -5.515 -16.451  1.00  0.00     0.029 A 
ATOM     59  C   UNL     1     -10.269  -5.917 -17.192  1.00  0.00     0.049 A 
ATOM     60  H   UNL     1      -8.666  -7.007 -16.267  1.00  0.00     0.167 HD
ATOM     61  C   UNL     1     -15.254  -9.315 -14.317  1.00  0.00     0.037 A 
ATOM     62  C   UNL     1     -10.243  -6.110 -18.547  1.00  0.00     0.037 A 
ATOM     63  C   UNL     1     -15.394  -8.208 -15.264  1.00  0.00     0.049 A 
ATOM     64  C   UNL     1     -11.616  -6.361 -19.130  1.00  0.00     0.074 A 
ATOM     65  C   UNL     1     -15.324  -6.833 -15.110  1.00  0.00     0.029 A 
ATOM     66  N   UNL     1     -15.276  -8.464 -16.623  1.00  0.00    -0.354 N 
ATOM     67  N   UNL     1     -12.622  -6.847 -18.454  1.00  0.00    -0.248 NA
ATOM     68  C   UNL     1     -11.984  -6.018 -20.500  1.00  0.00     0.031 C 
ATOM     69  C   UNL     1     -15.113  -6.264 -16.392  1.00  0.00     0.029 A 
ATOM     70  C   UNL     1     -15.074  -7.292 -17.321  1.00  0.00     0.049 A 
ATOM     71  H   UNL     1     -15.330  -9.358 -17.032  1.00  0.00     0.167 HD
ATOM     72  C   UNL     1     -13.747  -6.870 -19.243  1.00  0.00     0.074 A 
ATOM     73  C   UNL     1     -13.291  -6.335 -20.513  1.00  0.00     0.031 C 
ATOM     74  C   UNL     1     -14.957  -7.305 -18.772  1.00  0.00     0.037 A 
BRANCH  61  75
ATOM     75  C   UNL     1     -16.296  -9.617 -13.255  1.00  0.00     0.058 A 
ATOM     76  C   UNL     1     -17.392  -8.738 -13.083  1.00  0.00     0.135 A 
ATOM     77  C   UNL     1     -16.275 -10.695 -12.347  1.00  0.00     0.135 A 
ATOM     78  F   UNL     1     -17.596  -7.697 -13.902  1.00  0.00    -0.206 F 
ATOM     79  C   UNL     1     -18.334  -8.872 -12.062  1.00  0.00     0.059 A 
ATOM     80  C   UNL     1     -17.195 -10.840 -11.302  1.00  0.00     0.059 A 
ATOM     81  F   UNL     1     -15.390 -11.690 -12.444  1.00  0.00    -0.206 F 
ATOM     82  C   UNL     1     -18.218  -9.918 -11.161  1.00  0.00     0.060 A 
BRANCH  82  83
ATOM     83  S   UNL     1     -19.436 -10.064  -9.844  1.00  0.00     0.124 S 
ATOM     84  O   UNL     1     -19.242  -8.816  -9.111  1.00  0.00    -0.237 OA
ATOM     85  O   UNL     1     -20.683 -10.176 -10.591  1.00  0.00    -0.237 OA
ATOM     86  O   UNL     1     -19.024 -11.272  -9.132  1.00  0.00    -0.744 OA
ENDBRANCH  82  83
ENDBRANCH  61  75
BRANCH  62  87
ATOM     87  C   UNL     1      -8.952  -6.714 -19.001  1.00  0.00     0.058 A 
ATOM     88  C   UNL     1      -7.796  -5.919 -18.846  1.00  0.00     0.135 A 
ATOM     89  C   UNL     1      -8.775  -8.106 -19.035  1.00  0.00     0.135 A 
ATOM     90  F   UNL     1      -7.902  -4.580 -18.836  1.00  0.00    -0.206 F 
ATOM     91  C   UNL     1      -6.564  -6.475 -18.517  1.00  0.00     0.059 A 
ATOM     92  C   UNL     1      -7.539  -8.684 -18.725  1.00  0.00     0.059 A 
ATOM     93  F   UNL     1      -9.829  -8.918 -19.201  1.00  0.00    -0.206 F 
ATOM     94  C   UNL     1      -6.468  -7.857 -18.380  1.00  0.00     0.060 A 
BRANCH  94  95
ATOM     95  S   UNL     1      -4.992  -8.519 -17.565  1.00  0.00     0.124 S 
ATOM     96  O   UNL     1      -3.923  -8.029 -18.428  1.00  0.00    -0.237 OA
ATOM     97  O   UNL     1      -5.072  -7.893 -16.244  1.00  0.00    -0.237 OA
ATOM     98  O   UNL     1      -5.212  -9.960 -17.595  1.00  0.00    -0.744 OA
ENDBRANCH  94  95
ENDBRANCH  62  87
BRANCH  74  99
ATOM     99  C   UNL     1     -16.188  -7.687 -19.582  1.00  0.00     0.058 A 
ATOM    100  C   UNL     1     -16.191  -7.942 -20.963  1.00  0.00     0.135 A 
ATOM    101  C   UNL     1     -17.427  -7.952 -18.931  1.00  0.00     0.135 A 
ATOM    102  F   UNL     1     -15.075  -7.865 -21.698  1.00  0.00    -0.206 F 
ATOM    103  C   UNL     1     -17.338  -8.342 -21.654  1.00  0.00     0.059 A 
ATOM    104  C   UNL     1     -18.560  -8.424 -19.588  1.00  0.00     0.059 A 
ATOM    105  F   UNL     1     -17.592  -7.780 -17.612  1.00  0.00    -0.206 F 
ATOM    106  C   UNL     1     -18.518  -8.582 -20.959  1.00  0.00     0.060 A 
BRANCH 106 107
ATOM    107  S   UNL     1     -19.978  -9.134 -21.852  1.00  0.00     0.124 S 
ATOM    108  O   UNL     1     -20.481  -7.873 -22.389  1.00  0.00    -0.237 OA
ATOM    109  O   UNL     1     -19.417 -10.059 -22.832  1.00  0.00    -0.237 OA
ATOM    110  O   UNL     1     -20.798  -9.752 -20.816  1.00  0.00    -0.744 OA
ENDBRANCH 106 107
ENDBRANCH  74  99
ENDBRANCH  48  49
ENDBRANCH  40  43
ENDBRANCH  38  39
ENDBRANCH  37  38
ENDBRANCH  36  37
ENDBRANCH   1  36
TORSDOF 20
