REMARK SMILES O=C(NCCCCNC(=O)c1ccc(N2C(=O)C[C@H]([NH+]3CCN(c4ccc(F)cc4)CC3)C2=O)cc1)c1ccc(-c2c3nc(c(-c4c(F)cc(S(=O)(=O)[O-])cc4F)c4ccc([nH]4)c(-c4c(F)cc(S(=O)(=O)[O-])cc4F)c4nc(c(-c5c(F)cc(S(=O)(=O)[O-])cc5F)c5ccc2[nH]5)C=C4)C=C3)cc1
REMARK SMILES IDX 5 1 4 2 3 3 1 4 2 5 37 7 38 8 102 9 39 10 101 11 40 12 41 13
REMARK SMILES IDX 42 14 95 15 43 16 100 17 94 18 96 19 44 20 99 21 93 22 92 23
REMARK SMILES IDX 45 25 79 26 58 27 78 28 59 29 62 30 77 31 97 32 60 33 61 34
REMARK SMILES IDX 76 36 98 37 63 38 46 39 47 40 56 41 48 42 49 43 55 44 57 45
REMARK SMILES IDX 50 46 51 47 52 48 53 49 54 50 80 51 81 52 90 53 82 54 83 55
REMARK SMILES IDX 89 56 91 57 84 58 85 59 86 60 87 61 88 62 64 63 65 64 74 65
REMARK SMILES IDX 66 66 67 67 73 68 75 69 68 70 69 71 70 72 71 73 72 74 6 75
REMARK SMILES IDX 7 76 8 77 9 78 10 80 11 81 12 82 36 83 13 84 35 85 14 86
REMARK SMILES IDX 15 87 16 88 33 89 17 90 18 91 19 92 34 93 20 94 21 95 32 96
REMARK SMILES IDX 22 98 31 99 23 100 24 101 25 102 30 103 26 104 29 105 27 106
REMARK SMILES IDX 28 107
REMARK H PARENT 3 6 96 24 62 35 8 79 20 97
REMARK Flexibility Score: inf
ROOT
ATOM      1  C   UNL     1       4.776   0.478  -2.831  1.00  0.00     0.023 C 
ENDROOT
BRANCH   1   2
ATOM      2  C   UNL     1       4.476   0.511  -1.339  1.00  0.00     0.116 C 
BRANCH   2   3
ATOM      3  N   UNL     1       3.054   0.569  -1.033  1.00  0.00    -0.352 N 
ATOM      4  O   UNL     1       1.130  -0.060  -0.029  1.00  0.00    -0.269 OA
ATOM      5  C   UNL     1       2.352  -0.151  -0.092  1.00  0.00     0.251 C 
ATOM      6  H   UNL     1       2.526   1.204  -1.568  1.00  0.00     0.163 HD
BRANCH   5   7
ATOM      7  C   UNL     1       3.085  -1.062   0.816  1.00  0.00     0.039 A 
ATOM      8  C   UNL     1       4.251  -0.632   1.452  1.00  0.00     0.014 A 
ATOM      9  C   UNL     1       2.627  -2.370   0.996  1.00  0.00     0.014 A 
ATOM     10  C   UNL     1       5.042  -1.552   2.127  1.00  0.00     0.010 A 
ATOM     11  C   UNL     1       3.380  -3.272   1.759  1.00  0.00     0.010 A 
ATOM     12  C   UNL     1       4.613  -2.880   2.299  1.00  0.00    -0.014 A 
BRANCH  12  13
ATOM     13  C   UNL     1       5.460  -3.799   3.104  1.00  0.00     0.031 A 
ATOM     14  C   UNL     1       6.120  -5.005   2.492  1.00  0.00     0.074 A 
ATOM     15  C   UNL     1       5.689  -3.482   4.394  1.00  0.00     0.049 A 
ATOM     16  N   UNL     1       6.953  -5.851   3.044  1.00  0.00    -0.248 NA
ATOM     17  C   UNL     1       5.803  -5.310   1.088  1.00  0.00     0.031 C 
ATOM     18  C   UNL     1       5.078  -2.352   5.102  1.00  0.00     0.029 A 
ATOM     19  N   UNL     1       6.519  -4.045   5.327  1.00  0.00    -0.354 N 
ATOM     20  C   UNL     1       7.252  -6.792   2.065  1.00  0.00     0.074 A 
ATOM     21  C   UNL     1       6.490  -6.429   0.889  1.00  0.00     0.031 C 
ATOM     22  C   UNL     1       5.602  -2.267   6.332  1.00  0.00     0.029 A 
ATOM     23  C   UNL     1       6.542  -3.366   6.521  1.00  0.00     0.049 A 
ATOM     24  H   UNL     1       7.049  -4.858   5.158  1.00  0.00     0.167 HD
ATOM     25  C   UNL     1       8.092  -7.853   2.140  1.00  0.00     0.037 A 
ATOM     26  C   UNL     1       7.236  -3.600   7.650  1.00  0.00     0.037 A 
ATOM     27  C   UNL     1       8.859  -8.200   3.311  1.00  0.00     0.049 A 
ATOM     28  C   UNL     1       8.180  -4.764   7.693  1.00  0.00     0.074 A 
ATOM     29  C   UNL     1       9.740  -9.255   3.485  1.00  0.00     0.029 A 
ATOM     30  N   UNL     1       8.845  -7.495   4.506  1.00  0.00    -0.354 N 
ATOM     31  N   UNL     1       8.450  -5.638   6.753  1.00  0.00    -0.248 NA
ATOM     32  C   UNL     1       8.911  -4.978   8.948  1.00  0.00     0.031 C 
ATOM     33  C   UNL     1      10.238  -9.203   4.792  1.00  0.00     0.029 A 
ATOM     34  C   UNL     1       9.696  -8.095   5.422  1.00  0.00     0.049 A 
ATOM     35  H   UNL     1       8.310  -6.688   4.679  1.00  0.00     0.167 HD
ATOM     36  C   UNL     1       9.377  -6.512   7.306  1.00  0.00     0.074 A 
ATOM     37  C   UNL     1       9.650  -6.036   8.648  1.00  0.00     0.031 C 
ATOM     38  C   UNL     1       9.941  -7.616   6.758  1.00  0.00     0.037 A 
BRANCH  25  39
ATOM     39  C   UNL     1       8.232  -8.727   0.923  1.00  0.00     0.058 A 
ATOM     40  C   UNL     1       8.964  -8.310  -0.200  1.00  0.00     0.135 A 
ATOM     41  C   UNL     1       7.686 -10.021   0.904  1.00  0.00     0.135 A 
ATOM     42  F   UNL     1       9.494  -7.077  -0.240  1.00  0.00    -0.206 F 
ATOM     43  C   UNL     1       9.141  -9.139  -1.303  1.00  0.00     0.059 A 
ATOM     44  C   UNL     1       7.867 -10.876  -0.181  1.00  0.00     0.059 A 
ATOM     45  F   UNL     1       6.977 -10.471   1.951  1.00  0.00    -0.206 F 
ATOM     46  C   UNL     1       8.589 -10.422  -1.284  1.00  0.00     0.060 A 
BRANCH  46  47
ATOM     47  S   UNL     1       8.847 -11.496  -2.714  1.00  0.00     0.124 S 
ATOM     48  O   UNL     1       7.935 -10.905  -3.689  1.00  0.00    -0.237 OA
ATOM     49  O   UNL     1      10.269 -11.317  -2.988  1.00  0.00    -0.237 OA
ATOM     50  O   UNL     1       8.468 -12.816  -2.220  1.00  0.00    -0.744 OA
ENDBRANCH  46  47
ENDBRANCH  25  39
BRANCH  26  51
ATOM     51  C   UNL     1       7.047  -2.715   8.827  1.00  0.00     0.058 A 
ATOM     52  C   UNL     1       8.050  -1.829   9.241  1.00  0.00     0.135 A 
ATOM     53  C   UNL     1       5.839  -2.720   9.542  1.00  0.00     0.135 A 
ATOM     54  F   UNL     1       9.222  -1.789   8.589  1.00  0.00    -0.206 F 
ATOM     55  C   UNL     1       7.871  -0.988  10.335  1.00  0.00     0.059 A 
ATOM     56  C   UNL     1       5.626  -1.871  10.621  1.00  0.00     0.059 A 
ATOM     57  F   UNL     1       4.840  -3.536   9.169  1.00  0.00    -0.206 F 
ATOM     58  C   UNL     1       6.653  -1.017  11.018  1.00  0.00     0.060 A 
BRANCH  58  59
ATOM     59  S   UNL     1       6.400   0.112  12.404  1.00  0.00     0.124 S 
ATOM     60  O   UNL     1       7.091  -0.588  13.480  1.00  0.00    -0.237 OA
ATOM     61  O   UNL     1       7.033   1.339  11.928  1.00  0.00    -0.237 OA
ATOM     62  O   UNL     1       4.946   0.174  12.519  1.00  0.00    -0.744 OA
ENDBRANCH  58  59
ENDBRANCH  26  51
BRANCH  38  63
ATOM     63  C   UNL     1      10.902  -8.379   7.624  1.00  0.00     0.058 A 
ATOM     64  C   UNL     1      10.449  -9.172   8.691  1.00  0.00     0.135 A 
ATOM     65  C   UNL     1      12.283  -8.315   7.390  1.00  0.00     0.135 A 
ATOM     66  F   UNL     1       9.137  -9.259   8.958  1.00  0.00    -0.206 F 
ATOM     67  C   UNL     1      11.338  -9.845   9.521  1.00  0.00     0.059 A 
ATOM     68  C   UNL     1      13.189  -8.998   8.194  1.00  0.00     0.059 A 
ATOM     69  F   UNL     1      12.764  -7.577   6.377  1.00  0.00    -0.206 F 
ATOM     70  C   UNL     1      12.707  -9.745   9.270  1.00  0.00     0.060 A 
BRANCH  70  71
ATOM     71  S   UNL     1      13.856 -10.616  10.357  1.00  0.00     0.124 S 
ATOM     72  O   UNL     1      13.893  -9.728  11.514  1.00  0.00    -0.237 OA
ATOM     73  O   UNL     1      13.188 -11.898  10.562  1.00  0.00    -0.237 OA
ATOM     74  O   UNL     1      15.084 -10.676   9.570  1.00  0.00    -0.744 OA
ENDBRANCH  70  71
ENDBRANCH  38  63
ENDBRANCH  12  13
ENDBRANCH   5   7
ENDBRANCH   2   3
ENDBRANCH   1   2
BRANCH   1  75
ATOM     75  C   UNL     1       4.313   1.702  -3.619  1.00  0.00     0.023 C 
BRANCH  75  76
ATOM     76  C   UNL     1       4.745   3.046  -3.035  1.00  0.00     0.116 C 
BRANCH  76  77
ATOM     77  N   UNL     1       6.191   3.164  -2.936  1.00  0.00    -0.352 N 
ATOM     78  C   UNL     1       7.040   3.930  -3.692  1.00  0.00     0.251 C 
ATOM     79  H   UNL     1       6.617   2.623  -2.233  1.00  0.00     0.163 HD
ATOM     80  O   UNL     1       8.257   3.828  -3.593  1.00  0.00    -0.269 OA
BRANCH  78  81
ATOM     81  C   UNL     1       6.465   4.889  -4.645  1.00  0.00     0.039 A 
ATOM     82  C   UNL     1       6.651   4.689  -6.009  1.00  0.00     0.016 A 
ATOM     83  C   UNL     1       5.740   5.985  -4.181  1.00  0.00     0.016 A 
ATOM     84  C   UNL     1       6.058   5.569  -6.920  1.00  0.00     0.027 A 
ATOM     85  C   UNL     1       5.165   6.869  -5.097  1.00  0.00     0.027 A 
ATOM     86  C   UNL     1       5.305   6.674  -6.482  1.00  0.00     0.052 A 
BRANCH  86  87
ATOM     87  N   UNL     1       4.727   7.582  -7.414  1.00  0.00    -0.245 N 
ATOM     88  C   UNL     1       4.455   8.902  -7.138  1.00  0.00     0.240 C 
ATOM     89  C   UNL     1       4.360   7.249  -8.705  1.00  0.00     0.292 C 
ATOM     90  O   UNL     1       4.552   9.514  -6.083  1.00  0.00    -0.274 OA
ATOM     91  C   UNL     1       4.078   9.594  -8.407  1.00  0.00     0.176 C 
ATOM     92  C   UNL     1       3.701   8.470  -9.347  1.00  0.00     0.284 C 
ATOM     93  O   UNL     1       4.452   6.163  -9.264  1.00  0.00    -0.267 OA
BRANCH  92  94
ATOM     94  N   UNL     1       2.277   8.225  -9.639  1.00  0.00    -0.321 N 
ATOM     95  C   UNL     1       1.382   7.903  -8.514  1.00  0.00     0.284 C 
ATOM     96  C   UNL     1       1.648   9.234 -10.512  1.00  0.00     0.284 C 
ATOM     97  H   UNL     1       2.372   7.349 -10.153  1.00  0.00     0.348 HD
ATOM     98  C   UNL     1       0.796   9.101  -7.734  1.00  0.00     0.178 C 
ATOM     99  C   UNL     1       1.038  10.476  -9.820  1.00  0.00     0.178 C 
ATOM    100  N   UNL     1       0.233  10.102  -8.648  1.00  0.00    -0.360 N 
BRANCH 100 101
ATOM    101  C   UNL     1      -0.683  11.028  -8.166  1.00  0.00     0.037 A 
ATOM    102  C   UNL     1      -0.640  11.517  -6.850  1.00  0.00     0.029 A 
ATOM    103  C   UNL     1      -1.724  11.478  -8.994  1.00  0.00     0.029 A 
ATOM    104  C   UNL     1      -1.604  12.414  -6.377  1.00  0.00     0.041 A 
ATOM    105  C   UNL     1      -2.697  12.365  -8.525  1.00  0.00     0.041 A 
ATOM    106  C   UNL     1      -2.628  12.824  -7.218  1.00  0.00     0.123 A 
ATOM    107  F   UNL     1      -3.563  13.667  -6.763  1.00  0.00    -0.207 F 
ENDBRANCH 100 101
ENDBRANCH  92  94
ENDBRANCH  86  87
ENDBRANCH  78  81
ENDBRANCH  76  77
ENDBRANCH  75  76
ENDBRANCH   1  75
TORSDOF 17
