REMARK SMILES [NH3+]CC(=O)N1C[C@H](O)C[C@H]1C(=O)NCCCCNC(=O)c1ccc(-c2c3nc(c(-c4c(F)cc(S(=O)(=O)[O-])cc4F)c4ccc([nH]4)c(-c4c(F)cc(S(=O)(=O)[O-])cc4F)c4nc(c(-c5c(F)cc(S(=O)(=O)[O-])cc5F)c5ccc2[nH]5)C=C4)C=C3)cc1
REMARK SMILES IDX 15 1 14 2 13 3 11 4 12 5 10 7 5 8 6 9 7 10 9 11 3 12 4 13
REMARK SMILES IDX 2 14 1 15 8 19 16 21 17 22 18 23 19 24 20 26 21 27 22 28
REMARK SMILES IDX 86 29 23 30 85 31 24 32 25 33 26 34 79 35 27 36 84 37 78 38
REMARK SMILES IDX 80 39 28 40 83 41 77 42 76 43 29 45 63 46 42 47 62 48 43 49
REMARK SMILES IDX 46 50 61 51 81 52 44 53 45 54 60 56 82 57 47 58 30 59 31 60
REMARK SMILES IDX 40 61 32 62 33 63 39 64 41 65 34 66 35 67 36 68 37 69 38 70
REMARK SMILES IDX 64 71 65 72 74 73 66 74 67 75 73 76 75 77 68 78 69 79 70 80
REMARK SMILES IDX 71 81 72 82 48 83 49 84 58 85 50 86 51 87 57 88 59 89 52 90
REMARK SMILES IDX 53 91 54 92 55 93 56 94
REMARK H PARENT 13 6 1 16 1 17 1 18 8 20 18 25 80 44 46 55
REMARK Flexibility Score: inf
ROOT
ATOM      1  C   UNL     1       1.581  -4.627  -1.075  1.00  0.00     0.023 C 
ENDROOT
BRANCH   1   2
ATOM      2  C   UNL     1       2.838  -4.383  -1.900  1.00  0.00     0.116 C 
BRANCH   2   3
ATOM      3  N   UNL     1       2.553  -4.153  -3.298  1.00  0.00    -0.354 N 
ATOM      4  C   UNL     1       2.712  -3.038  -4.063  1.00  0.00     0.242 C 
ATOM      5  O   UNL     1       2.625  -3.185  -5.288  1.00  0.00    -0.273 OA
ATOM      6  H   UNL     1       2.183  -4.930  -3.776  1.00  0.00     0.163 HD
BRANCH   4   7
ATOM      7  C   UNL     1       3.212  -1.698  -3.487  1.00  0.00     0.177 C 
ATOM      8  N   UNL     1       2.619  -1.180  -2.247  1.00  0.00    -0.323 N 
ATOM      9  C   UNL     1       3.640  -0.782  -1.287  1.00  0.00     0.152 C 
ATOM     10  C   UNL     1       4.944  -0.770  -2.083  1.00  0.00     0.136 C 
ATOM     11  C   UNL     1       4.719  -1.775  -3.205  1.00  0.00     0.069 C 
BRANCH   8  12
ATOM     12  C   UNL     1       1.278  -0.843  -2.229  1.00  0.00     0.278 C 
ATOM     13  O   UNL     1       0.524  -1.196  -3.137  1.00  0.00    -0.268 OA
BRANCH  12  14
ATOM     14  C   UNL     1       0.747   0.033  -1.086  1.00  0.00     0.360 C 
BRANCH  14  15
ATOM     15  N   UNL     1       0.801  -0.632   0.221  1.00  0.00    -0.350 N 
ATOM     16  H   UNL     1       0.437  -0.004   0.938  1.00  0.00     0.344 HD
ATOM     17  H   UNL     1       1.768  -0.874   0.440  1.00  0.00     0.344 HD
ATOM     18  H   UNL     1       0.236  -1.481   0.194  1.00  0.00     0.344 HD
ENDBRANCH  14  15
ENDBRANCH  12  14
ENDBRANCH   8  12
BRANCH  10  19
ATOM     19  O   UNL     1       5.187   0.527  -2.622  1.00  0.00    -0.391 OA
ATOM     20  H   UNL     1       4.439   0.790  -3.181  1.00  0.00     0.211 HD
ENDBRANCH  10  19
ENDBRANCH   4   7
ENDBRANCH   2   3
ENDBRANCH   1   2
BRANCH   1  21
ATOM     21  C   UNL     1       0.800  -5.889  -1.448  1.00  0.00     0.023 C 
BRANCH  21  22
ATOM     22  C   UNL     1       1.609  -7.182  -1.487  1.00  0.00     0.116 C 
BRANCH  22  23
ATOM     23  N   UNL     1       2.268  -7.490  -0.226  1.00  0.00    -0.352 N 
ATOM     24  C   UNL     1       2.409  -8.716   0.383  1.00  0.00     0.251 C 
ATOM     25  H   UNL     1       2.662  -6.725   0.252  1.00  0.00     0.163 HD
ATOM     26  O   UNL     1       2.910  -8.801   1.500  1.00  0.00    -0.269 OA
BRANCH  24  27
ATOM     27  C   UNL     1       1.915  -9.922  -0.312  1.00  0.00     0.039 A 
ATOM     28  C   UNL     1       1.018 -10.768   0.346  1.00  0.00     0.014 A 
ATOM     29  C   UNL     1       2.294 -10.178  -1.632  1.00  0.00     0.014 A 
ATOM     30  C   UNL     1       0.438 -11.833  -0.348  1.00  0.00     0.010 A 
ATOM     31  C   UNL     1       1.671 -11.201  -2.338  1.00  0.00     0.010 A 
ATOM     32  C   UNL     1       0.732 -12.034  -1.706  1.00  0.00    -0.014 A 
BRANCH  32  33
ATOM     33  C   UNL     1       0.087 -13.109  -2.502  1.00  0.00     0.031 A 
ATOM     34  C   UNL     1       0.936 -14.209  -3.076  1.00  0.00     0.074 A 
ATOM     35  C   UNL     1      -1.225 -13.037  -2.801  1.00  0.00     0.049 A 
ATOM     36  N   UNL     1       0.623 -15.122  -3.956  1.00  0.00    -0.248 NA
ATOM     37  C   UNL     1       2.336 -14.263  -2.623  1.00  0.00     0.031 C 
ATOM     38  C   UNL     1      -2.148 -12.003  -2.327  1.00  0.00     0.029 A 
ATOM     39  N   UNL     1      -2.005 -13.835  -3.600  1.00  0.00    -0.354 N 
ATOM     40  C   UNL     1       1.792 -15.835  -4.191  1.00  0.00     0.074 A 
ATOM     41  C   UNL     1       2.828 -15.229  -3.384  1.00  0.00     0.031 C 
ATOM     42  C   UNL     1      -3.367 -12.233  -2.842  1.00  0.00     0.029 A 
ATOM     43  C   UNL     1      -3.305 -13.400  -3.716  1.00  0.00     0.049 A 
ATOM     44  H   UNL     1      -1.666 -14.644  -4.048  1.00  0.00     0.167 HD
ATOM     45  C   UNL     1       1.980 -16.906  -4.998  1.00  0.00     0.037 A 
ATOM     46  C   UNL     1      -4.324 -13.876  -4.459  1.00  0.00     0.037 A 
ATOM     47  C   UNL     1       0.935 -17.530  -5.764  1.00  0.00     0.049 A 
ATOM     48  C   UNL     1      -4.096 -15.081  -5.332  1.00  0.00     0.074 A 
ATOM     49  C   UNL     1       1.012 -18.648  -6.574  1.00  0.00     0.029 A 
ATOM     50  N   UNL     1      -0.382 -17.094  -5.804  1.00  0.00    -0.354 N 
ATOM     51  N   UNL     1      -2.992 -15.763  -5.521  1.00  0.00    -0.248 NA
ATOM     52  C   UNL     1      -5.250 -15.584  -6.093  1.00  0.00     0.031 C 
ATOM     53  C   UNL     1      -0.254 -18.876  -7.124  1.00  0.00     0.029 A 
ATOM     54  C   UNL     1      -1.126 -17.920  -6.627  1.00  0.00     0.049 A 
ATOM     55  H   UNL     1      -0.734 -16.313  -5.319  1.00  0.00     0.167 HD
ATOM     56  C   UNL     1      -3.325 -16.794  -6.392  1.00  0.00     0.074 A 
ATOM     57  C   UNL     1      -4.733 -16.645  -6.699  1.00  0.00     0.031 C 
ATOM     58  C   UNL     1      -2.536 -17.777  -6.890  1.00  0.00     0.037 A 
BRANCH  45  59
ATOM     59  C   UNL     1       3.370 -17.469  -5.091  1.00  0.00     0.058 A 
ATOM     60  C   UNL     1       3.948 -18.179  -4.027  1.00  0.00     0.135 A 
ATOM     61  C   UNL     1       4.125 -17.314  -6.264  1.00  0.00     0.135 A 
ATOM     62  F   UNL     1       3.275 -18.341  -2.877  1.00  0.00    -0.206 F 
ATOM     63  C   UNL     1       5.240 -18.687  -4.110  1.00  0.00     0.059 A 
ATOM     64  C   UNL     1       5.410 -17.837  -6.379  1.00  0.00     0.059 A 
ATOM     65  F   UNL     1       3.619 -16.644  -7.311  1.00  0.00    -0.206 F 
ATOM     66  C   UNL     1       5.965 -18.506  -5.289  1.00  0.00     0.060 A 
BRANCH  66  67
ATOM     67  S   UNL     1       7.644 -19.162  -5.381  1.00  0.00     0.124 S 
ATOM     68  O   UNL     1       8.381 -18.182  -4.588  1.00  0.00    -0.237 OA
ATOM     69  O   UNL     1       7.500 -20.483  -4.778  1.00  0.00    -0.237 OA
ATOM     70  O   UNL     1       7.933 -19.158  -6.811  1.00  0.00    -0.744 OA
ENDBRANCH  66  67
ENDBRANCH  45  59
BRANCH  46  71
ATOM     71  C   UNL     1      -5.657 -13.223  -4.396  1.00  0.00     0.058 A 
ATOM     72  C   UNL     1      -6.729 -13.844  -3.739  1.00  0.00     0.135 A 
ATOM     73  C   UNL     1      -5.885 -11.964  -4.972  1.00  0.00     0.135 A 
ATOM     74  F   UNL     1      -6.561 -15.052  -3.177  1.00  0.00    -0.206 F 
ATOM     75  C   UNL     1      -7.984 -13.249  -3.665  1.00  0.00     0.059 A 
ATOM     76  C   UNL     1      -7.126 -11.338  -4.894  1.00  0.00     0.059 A 
ATOM     77  F   UNL     1      -4.887 -11.321  -5.598  1.00  0.00    -0.206 F 
ATOM     78  C   UNL     1      -8.172 -11.994  -4.246  1.00  0.00     0.060 A 
BRANCH  78  79
ATOM     79  S   UNL     1      -9.792 -11.206  -4.102  1.00  0.00     0.124 S 
ATOM     80  O   UNL     1     -10.572 -11.960  -5.077  1.00  0.00    -0.237 OA
ATOM     81  O   UNL     1     -10.124 -11.440  -2.700  1.00  0.00    -0.237 OA
ATOM     82  O   UNL     1      -9.519  -9.815  -4.449  1.00  0.00    -0.744 OA
ENDBRANCH  78  79
ENDBRANCH  46  71
BRANCH  58  83
ATOM     83  C   UNL     1      -3.175 -18.813  -7.768  1.00  0.00     0.058 A 
ATOM     84  C   UNL     1      -3.468 -18.558  -9.115  1.00  0.00     0.135 A 
ATOM     85  C   UNL     1      -3.388 -20.113  -7.279  1.00  0.00     0.135 A 
ATOM     86  F   UNL     1      -3.288 -17.330  -9.625  1.00  0.00    -0.206 F 
ATOM     87  C   UNL     1      -3.947 -19.561  -9.952  1.00  0.00     0.059 A 
ATOM     88  C   UNL     1      -3.847 -21.134  -8.103  1.00  0.00     0.059 A 
ATOM     89  F   UNL     1      -3.115 -20.406  -5.998  1.00  0.00    -0.206 F 
ATOM     90  C   UNL     1      -4.124 -20.848  -9.440  1.00  0.00     0.060 A 
BRANCH  90  91
ATOM     91  S   UNL     1      -4.660 -22.161 -10.557  1.00  0.00     0.124 S 
ATOM     92  O   UNL     1      -6.080 -21.860 -10.707  1.00  0.00    -0.237 OA
ATOM     93  O   UNL     1      -3.834 -21.925 -11.738  1.00  0.00    -0.237 OA
ATOM     94  O   UNL     1      -4.351 -23.382  -9.819  1.00  0.00    -0.744 OA
ENDBRANCH  90  91
ENDBRANCH  58  83
ENDBRANCH  32  33
ENDBRANCH  24  27
ENDBRANCH  22  23
ENDBRANCH  21  22
ENDBRANCH   1  21
TORSDOF 18
