REMARK SMILES O=C(NCCCCNC(=O)c1ccc(-c2c3nc(c(-c4c(F)cc(S(=O)(=O)[O-])cc4F)c4ccc([nH]4)c(-c4c(F)cc(S(=O)(=O)[O-])cc4F)c4nc(c(-c5c(F)cc(S(=O)(=O)[O-])cc5F)c5ccc2[nH]5)C=C4)C=C3)cc1)/C(=C/c1ccccc1Cl)NC(=O)c1ccccc1
REMARK SMILES IDX 6 1 5 2 4 3 3 4 1 5 2 6 77 8 78 9 86 10 87 11 88 13 89 14
REMARK SMILES IDX 90 15 94 16 91 17 93 18 92 19 79 20 80 21 84 22 81 23 83 24
REMARK SMILES IDX 85 25 82 26 7 27 8 28 9 29 10 31 11 32 12 33 76 34 13 35
REMARK SMILES IDX 75 36 14 37 15 38 16 39 69 40 17 41 74 42 68 43 70 44 18 45
REMARK SMILES IDX 73 46 67 47 66 48 19 50 53 51 32 52 52 53 33 54 36 55 51 56
REMARK SMILES IDX 71 57 34 58 35 59 50 61 72 62 37 63 20 64 21 65 30 66 22 67
REMARK SMILES IDX 23 68 29 69 31 70 24 71 25 72 26 73 27 74 28 75 54 76 55 77
REMARK SMILES IDX 64 78 56 79 57 80 63 81 65 82 58 83 59 84 60 85 61 86 62 87
REMARK SMILES IDX 38 88 39 89 48 90 40 91 41 92 47 93 49 94 42 95 43 96 44 97
REMARK SMILES IDX 45 98 46 99
REMARK H PARENT 3 7 86 12 8 30 70 49 36 60
REMARK Flexibility Score: inf
ROOT
ATOM      1  C   UNL     1       4.639  -4.607  -0.380  1.00  0.00     0.023 C 
ENDROOT
BRANCH   1   2
ATOM      2  C   UNL     1       5.003  -3.534   0.655  1.00  0.00     0.023 C 
BRANCH   2   3
ATOM      3  C   UNL     1       4.700  -2.077   0.307  1.00  0.00     0.116 C 
BRANCH   3   4
ATOM      4  N   UNL     1       3.289  -1.739   0.237  1.00  0.00    -0.351 N 
ATOM      5  O   UNL     1       1.433  -0.488   0.350  1.00  0.00    -0.268 OA
ATOM      6  C   UNL     1       2.663  -0.529   0.407  1.00  0.00     0.267 C 
ATOM      7  H   UNL     1       2.689  -2.494   0.038  1.00  0.00     0.163 HD
BRANCH   6   8
ATOM      8  C   UNL     1       3.458   0.726   0.740  1.00  0.00     0.107 C 
ATOM      9  C   UNL     1       2.885   1.546   1.648  1.00  0.00     0.041 C 
BRANCH   8  10
ATOM     10  N   UNL     1       4.681   0.999   0.173  1.00  0.00    -0.317 N 
ATOM     11  C   UNL     1       5.160   0.728  -1.092  1.00  0.00     0.255 C 
ATOM     12  H   UNL     1       5.316   1.462   0.765  1.00  0.00     0.170 HD
ATOM     13  O   UNL     1       6.362   0.838  -1.322  1.00  0.00    -0.269 OA
BRANCH  11  14
ATOM     14  C   UNL     1       4.232   0.338  -2.185  1.00  0.00     0.040 A 
ATOM     15  C   UNL     1       4.624  -0.678  -3.061  1.00  0.00     0.014 A 
ATOM     16  C   UNL     1       2.984   0.952  -2.345  1.00  0.00     0.014 A 
ATOM     17  C   UNL     1       3.724  -1.153  -4.014  1.00  0.00     0.001 A 
ATOM     18  C   UNL     1       2.087   0.468  -3.297  1.00  0.00     0.001 A 
ATOM     19  C   UNL     1       2.450  -0.598  -4.115  1.00  0.00     0.000 A 
ENDBRANCH  11  14
ENDBRANCH   8  10
BRANCH   9  20
ATOM     20  C   UNL     1       3.372   2.807   2.265  1.00  0.00    -0.005 A 
ATOM     21  C   UNL     1       3.061   2.955   3.633  1.00  0.00     0.010 A 
ATOM     22  C   UNL     1       4.047   3.874   1.642  1.00  0.00     0.048 A 
ATOM     23  C   UNL     1       3.477   4.071   4.367  1.00  0.00     0.001 A 
ATOM     24  C   UNL     1       4.503   4.971   2.392  1.00  0.00     0.021 A 
ATOM     25  Cl  UNL     1       4.297   3.987  -0.063  1.00  0.00    -0.084 Cl
ATOM     26  C   UNL     1       4.226   5.066   3.753  1.00  0.00     0.002 A 
ENDBRANCH   9  20
ENDBRANCH   6   8
ENDBRANCH   3   4
ENDBRANCH   2   3
ENDBRANCH   1   2
BRANCH   1  27
ATOM     27  C   UNL     1       5.049  -4.389  -1.838  1.00  0.00     0.116 C 
BRANCH  27  28
ATOM     28  N   UNL     1       6.476  -4.216  -2.060  1.00  0.00    -0.352 N 
ATOM     29  C   UNL     1       7.223  -4.624  -3.148  1.00  0.00     0.251 C 
ATOM     30  H   UNL     1       6.971  -3.751  -1.347  1.00  0.00     0.163 HD
ATOM     31  O   UNL     1       8.434  -4.425  -3.186  1.00  0.00    -0.269 OA
BRANCH  29  32
ATOM     32  C   UNL     1       6.559  -5.343  -4.261  1.00  0.00     0.039 A 
ATOM     33  C   UNL     1       6.955  -6.645  -4.569  1.00  0.00     0.014 A 
ATOM     34  C   UNL     1       5.513  -4.747  -4.966  1.00  0.00     0.014 A 
ATOM     35  C   UNL     1       6.229  -7.386  -5.511  1.00  0.00     0.010 A 
ATOM     36  C   UNL     1       4.763  -5.498  -5.875  1.00  0.00     0.010 A 
ATOM     37  C   UNL     1       5.091  -6.838  -6.131  1.00  0.00    -0.014 A 
BRANCH  37  38
ATOM     38  C   UNL     1       4.185  -7.680  -6.963  1.00  0.00     0.031 A 
ATOM     39  C   UNL     1       4.001  -7.416  -8.433  1.00  0.00     0.074 A 
ATOM     40  C   UNL     1       3.450  -8.642  -6.365  1.00  0.00     0.049 A 
ATOM     41  N   UNL     1       3.195  -8.006  -9.280  1.00  0.00    -0.248 NA
ATOM     42  C   UNL     1       4.810  -6.340  -9.027  1.00  0.00     0.031 C 
ATOM     43  C   UNL     1       3.484  -8.968  -4.936  1.00  0.00     0.029 A 
ATOM     44  N   UNL     1       2.515  -9.511  -6.876  1.00  0.00    -0.354 N 
ATOM     45  C   UNL     1       3.386  -7.369 -10.500  1.00  0.00     0.074 A 
ATOM     46  C   UNL     1       4.367  -6.327 -10.278  1.00  0.00     0.031 C 
ATOM     47  C   UNL     1       2.620  -9.966  -4.689  1.00  0.00     0.029 A 
ATOM     48  C   UNL     1       1.943 -10.331  -5.930  1.00  0.00     0.049 A 
ATOM     49  H   UNL     1       2.277  -9.543  -7.831  1.00  0.00     0.167 HD
ATOM     50  C   UNL     1       2.810  -7.638 -11.697  1.00  0.00     0.037 A 
ATOM     51  C   UNL     1       0.975 -11.263  -6.040  1.00  0.00     0.037 A 
ATOM     52  C   UNL     1       1.862  -8.698 -11.931  1.00  0.00     0.049 A 
ATOM     53  C   UNL     1       0.362 -11.546  -7.385  1.00  0.00     0.074 A 
ATOM     54  C   UNL     1       1.292  -9.087 -13.132  1.00  0.00     0.029 A 
ATOM     55  N   UNL     1       1.343  -9.533 -10.956  1.00  0.00    -0.354 N 
ATOM     56  N   UNL     1       0.625 -10.990  -8.542  1.00  0.00    -0.248 NA
ATOM     57  C   UNL     1      -0.675 -12.588  -7.442  1.00  0.00     0.031 C 
ATOM     58  C   UNL     1       0.400 -10.133 -12.878  1.00  0.00     0.029 A 
ATOM     59  C   UNL     1       0.446 -10.422 -11.525  1.00  0.00     0.049 A 
ATOM     60  H   UNL     1       1.577  -9.500 -10.000  1.00  0.00     0.167 HD
ATOM     61  C   UNL     1      -0.186 -11.640  -9.467  1.00  0.00     0.074 A 
ATOM     62  C   UNL     1      -0.947 -12.631  -8.739  1.00  0.00     0.031 C 
ATOM     63  C   UNL     1      -0.285 -11.431 -10.802  1.00  0.00     0.037 A 
BRANCH  50  64
ATOM     64  C   UNL     1       3.189  -6.783 -12.873  1.00  0.00     0.058 A 
ATOM     65  C   UNL     1       4.422  -6.941 -13.524  1.00  0.00     0.135 A 
ATOM     66  C   UNL     1       2.268  -5.875 -13.420  1.00  0.00     0.135 A 
ATOM     67  F   UNL     1       5.340  -7.790 -13.036  1.00  0.00    -0.206 F 
ATOM     68  C   UNL     1       4.733  -6.223 -14.674  1.00  0.00     0.059 A 
ATOM     69  C   UNL     1       2.550  -5.161 -14.581  1.00  0.00     0.059 A 
ATOM     70  F   UNL     1       1.073  -5.691 -12.837  1.00  0.00    -0.206 F 
ATOM     71  C   UNL     1       3.787  -5.339 -15.198  1.00  0.00     0.060 A 
BRANCH  71  72
ATOM     72  S   UNL     1       4.188  -4.448 -16.717  1.00  0.00     0.124 S 
ATOM     73  O   UNL     1       5.138  -3.454 -16.227  1.00  0.00    -0.237 OA
ATOM     74  O   UNL     1       4.750  -5.500 -17.558  1.00  0.00    -0.237 OA
ATOM     75  O   UNL     1       2.898  -3.922 -17.153  1.00  0.00    -0.744 OA
ENDBRANCH  71  72
ENDBRANCH  50  64
BRANCH  51  76
ATOM     76  C   UNL     1       0.515 -12.011  -4.839  1.00  0.00     0.058 A 
ATOM     77  C   UNL     1       0.803 -13.375  -4.685  1.00  0.00     0.135 A 
ATOM     78  C   UNL     1      -0.253 -11.386  -3.845  1.00  0.00     0.135 A 
ATOM     79  F   UNL     1       1.530 -14.016  -5.613  1.00  0.00    -0.206 F 
ATOM     80  C   UNL     1       0.316 -14.104  -3.605  1.00  0.00     0.059 A 
ATOM     81  C   UNL     1      -0.731 -12.089  -2.744  1.00  0.00     0.059 A 
ATOM     82  F   UNL     1      -0.540 -10.078  -3.937  1.00  0.00    -0.206 F 
ATOM     83  C   UNL     1      -0.458 -13.453  -2.643  1.00  0.00     0.060 A 
BRANCH  83  84
ATOM     84  S   UNL     1      -1.085 -14.402  -1.241  1.00  0.00     0.124 S 
ATOM     85  O   UNL     1      -2.209 -15.106  -1.846  1.00  0.00    -0.237 OA
ATOM     86  O   UNL     1       0.067 -15.224  -0.882  1.00  0.00    -0.237 OA
ATOM     87  O   UNL     1      -1.433 -13.369  -0.270  1.00  0.00    -0.744 OA
ENDBRANCH  83  84
ENDBRANCH  51  76
BRANCH  63  88
ATOM     88  C   UNL     1      -1.205 -12.324 -11.587  1.00  0.00     0.058 A 
ATOM     89  C   UNL     1      -2.598 -12.164 -11.551  1.00  0.00     0.135 A 
ATOM     90  C   UNL     1      -0.678 -13.300 -12.449  1.00  0.00     0.135 A 
ATOM     91  F   UNL     1      -3.153 -11.252 -10.738  1.00  0.00    -0.206 F 
ATOM     92  C   UNL     1      -3.439 -12.945 -12.339  1.00  0.00     0.059 A 
ATOM     93  C   UNL     1      -1.498 -14.077 -13.261  1.00  0.00     0.059 A 
ATOM     94  F   UNL     1       0.649 -13.488 -12.524  1.00  0.00    -0.206 F 
ATOM     95  C   UNL     1      -2.878 -13.896 -13.195  1.00  0.00     0.060 A 
BRANCH  95  96
ATOM     96  S   UNL     1      -3.974 -14.859 -14.260  1.00  0.00     0.124 S 
ATOM     97  O   UNL     1      -4.534 -15.819 -13.315  1.00  0.00    -0.237 OA
ATOM     98  O   UNL     1      -4.899 -13.846 -14.758  1.00  0.00    -0.237 OA
ATOM     99  O   UNL     1      -3.069 -15.417 -15.261  1.00  0.00    -0.744 OA
ENDBRANCH  95  96
ENDBRANCH  63  88
ENDBRANCH  37  38
ENDBRANCH  29  32
ENDBRANCH  27  28
ENDBRANCH   1  27
TORSDOF 17
