REMARK SMILES Cc1cc(C(=O)NCCCCNC(=O)c2ccc(-c3c4nc(c(-c5c(F)cc(S(=O)(=O)[O-])cc5F)c5ccc([nH]5)c(-c5c(F)cc(S(=O)(=O)[O-])cc5F)c5nc(c(-c6c(F)cc(S(=O)(=O)[O-])cc6F)c6ccc3[nH]6)C=C5)C=C4)cc2)c(C#Cc2ccccc2)s1
REMARK SMILES IDX 10 1 9 2 8 3 7 4 5 5 6 6 4 8 1 9 2 10 3 11 90 12 81 13 82 14
REMARK SMILES IDX 83 15 84 16 85 17 89 18 86 19 88 20 87 21 11 22 12 23 13 24
REMARK SMILES IDX 14 26 15 27 16 28 80 29 17 30 79 31 18 32 19 33 20 34 73 35
REMARK SMILES IDX 21 36 78 37 72 38 74 39 22 40 77 41 71 42 70 43 23 45 57 46
REMARK SMILES IDX 36 47 56 48 37 49 40 50 55 51 75 52 38 53 39 54 54 56 76 57
REMARK SMILES IDX 41 58 24 59 25 60 34 61 26 62 27 63 33 64 35 65 28 66 29 67
REMARK SMILES IDX 30 68 31 69 32 70 58 71 59 72 68 73 60 74 61 75 67 76 69 77
REMARK SMILES IDX 62 78 63 79 64 80 65 81 66 82 42 83 43 84 52 85 44 86 45 87
REMARK SMILES IDX 51 88 53 89 46 90 47 91 48 92 49 93 50 94
REMARK H PARENT 7 7 12 25 74 44 40 55
REMARK Flexibility Score: inf
ROOT
ATOM      1  C   UNL     1      -2.132   0.767   6.545  1.00  0.00     0.023 C 
ENDROOT
BRANCH   1   2
ATOM      2  C   UNL     1      -1.400   0.432   5.232  1.00  0.00     0.023 C 
BRANCH   2   3
ATOM      3  C   UNL     1      -1.991   1.100   3.989  1.00  0.00     0.116 C 
BRANCH   3   4
ATOM      4  N   UNL     1      -1.624   2.498   3.907  1.00  0.00    -0.352 N 
ATOM      5  C   UNL     1      -0.847   3.254   3.066  1.00  0.00     0.253 C 
ATOM      6  O   UNL     1      -0.869   4.463   3.313  1.00  0.00    -0.269 OA
ATOM      7  H   UNL     1      -2.028   3.034   4.627  1.00  0.00     0.163 HD
BRANCH   5   8
ATOM      8  C   UNL     1      -0.074   2.701   1.937  1.00  0.00     0.066 A 
ATOM      9  C   UNL     1       1.235  -0.113  -0.286  1.00  0.00     0.056 C 
ATOM     10  C   UNL     1       0.872   1.158   0.400  1.00  0.00     0.004 A 
ATOM     11  C   UNL     1       0.178   1.326   1.579  1.00  0.00     0.030 A 
ATOM     12  S   UNL     1       1.343   2.650  -0.251  1.00  0.00    -0.131 S 
ATOM     13  C   UNL     1       0.600   3.520   1.028  1.00  0.00     0.090 A 
BRANCH  13  14
ATOM     14  C   UNL     1       0.730   4.941   1.056  1.00  0.00    -0.050 C 
ATOM     15  C   UNL     1       0.897   6.138   1.029  1.00  0.00    -0.061 C 
BRANCH  15  16
ATOM     16  C   UNL     1       1.116   7.543   0.940  1.00  0.00     0.025 A 
ATOM     17  C   UNL     1       0.440   8.420   1.791  1.00  0.00     0.017 A 
ATOM     18  C   UNL     1       1.999   8.049  -0.019  1.00  0.00     0.017 A 
ATOM     19  C   UNL     1       0.632   9.798   1.669  1.00  0.00     0.001 A 
ATOM     20  C   UNL     1       2.191   9.426  -0.140  1.00  0.00     0.001 A 
ATOM     21  C   UNL     1       1.503  10.300   0.701  1.00  0.00     0.000 A 
ENDBRANCH  15  16
ENDBRANCH  13  14
ENDBRANCH   5   8
ENDBRANCH   3   4
ENDBRANCH   2   3
ENDBRANCH   1   2
BRANCH   1  22
ATOM     22  C   UNL     1      -3.643   0.529   6.514  1.00  0.00     0.116 C 
BRANCH  22  23
ATOM     23  N   UNL     1      -4.011  -0.794   6.055  1.00  0.00    -0.352 N 
ATOM     24  C   UNL     1      -4.402  -1.956   6.654  1.00  0.00     0.251 C 
ATOM     25  H   UNL     1      -3.968  -0.875   5.075  1.00  0.00     0.163 HD
ATOM     26  O   UNL     1      -4.816  -2.831   5.886  1.00  0.00    -0.269 OA
BRANCH  24  27
ATOM     27  C   UNL     1      -4.287  -2.269   8.103  1.00  0.00     0.039 A 
ATOM     28  C   UNL     1      -3.851  -1.397   9.101  1.00  0.00     0.014 A 
ATOM     29  C   UNL     1      -4.559  -3.607   8.449  1.00  0.00     0.014 A 
ATOM     30  C   UNL     1      -3.553  -1.885  10.370  1.00  0.00     0.010 A 
ATOM     31  C   UNL     1      -4.282  -4.094   9.717  1.00  0.00     0.010 A 
ATOM     32  C   UNL     1      -3.705  -3.247  10.652  1.00  0.00    -0.014 A 
BRANCH  32  33
ATOM     33  C   UNL     1      -3.375  -3.732  11.989  1.00  0.00     0.031 A 
ATOM     34  C   UNL     1      -4.196  -3.093  13.055  1.00  0.00     0.074 A 
ATOM     35  C   UNL     1      -2.490  -4.727  12.224  1.00  0.00     0.049 A 
ATOM     36  N   UNL     1      -3.797  -2.272  13.969  1.00  0.00    -0.248 NA
ATOM     37  C   UNL     1      -5.662  -3.227  12.980  1.00  0.00     0.031 C 
ATOM     38  C   UNL     1      -1.786  -5.572  11.255  1.00  0.00     0.029 A 
ATOM     39  N   UNL     1      -2.074  -5.246  13.416  1.00  0.00    -0.354 N 
ATOM     40  C   UNL     1      -4.922  -1.971  14.732  1.00  0.00     0.074 A 
ATOM     41  C   UNL     1      -6.058  -2.435  13.979  1.00  0.00     0.031 C 
ATOM     42  C   UNL     1      -1.227  -6.630  11.890  1.00  0.00     0.029 A 
ATOM     43  C   UNL     1      -1.398  -6.466  13.323  1.00  0.00     0.049 A 
ATOM     44  H   UNL     1      -2.237  -4.795  14.276  1.00  0.00     0.167 HD
ATOM     45  C   UNL     1      -4.810  -1.572  16.029  1.00  0.00     0.037 A 
ATOM     46  C   UNL     1      -1.033  -7.278  14.356  1.00  0.00     0.037 A 
ATOM     47  C   UNL     1      -3.470  -1.138  16.325  1.00  0.00     0.049 A 
ATOM     48  C   UNL     1      -0.999  -6.421  15.571  1.00  0.00     0.074 A 
ATOM     49  C   UNL     1      -2.666  -0.106  15.885  1.00  0.00     0.029 A 
ATOM     50  N   UNL     1      -2.628  -2.052  16.909  1.00  0.00    -0.354 N 
ATOM     51  N   UNL     1      -0.143  -5.450  15.740  1.00  0.00    -0.248 NA
ATOM     52  C   UNL     1      -2.227  -6.320  16.344  1.00  0.00     0.031 C 
ATOM     53  C   UNL     1      -1.360  -0.670  15.794  1.00  0.00     0.029 A 
ATOM     54  C   UNL     1      -1.421  -1.983  16.262  1.00  0.00     0.049 A 
ATOM     55  H   UNL     1      -2.852  -2.650  17.659  1.00  0.00     0.167 HD
ATOM     56  C   UNL     1      -0.889  -4.415  16.284  1.00  0.00     0.074 A 
ATOM     57  C   UNL     1      -2.160  -5.027  16.673  1.00  0.00     0.031 C 
ATOM     58  C   UNL     1      -0.528  -3.111  16.105  1.00  0.00     0.037 A 
BRANCH  45  59
ATOM     59  C   UNL     1      -5.802  -1.919  17.110  1.00  0.00     0.058 A 
ATOM     60  C   UNL     1      -5.707  -1.297  18.371  1.00  0.00     0.135 A 
ATOM     61  C   UNL     1      -6.663  -3.037  17.045  1.00  0.00     0.135 A 
ATOM     62  F   UNL     1      -4.900  -0.239  18.552  1.00  0.00    -0.206 F 
ATOM     63  C   UNL     1      -6.382  -1.778  19.494  1.00  0.00     0.059 A 
ATOM     64  C   UNL     1      -7.383  -3.504  18.138  1.00  0.00     0.059 A 
ATOM     65  F   UNL     1      -6.774  -3.787  15.941  1.00  0.00    -0.206 F 
ATOM     66  C   UNL     1      -7.215  -2.887  19.367  1.00  0.00     0.060 A 
BRANCH  66  67
ATOM     67  S   UNL     1      -8.039  -3.542  20.828  1.00  0.00     0.124 S 
ATOM     68  O   UNL     1      -6.907  -3.996  21.628  1.00  0.00    -0.237 OA
ATOM     69  O   UNL     1      -8.743  -2.365  21.325  1.00  0.00    -0.237 OA
ATOM     70  O   UNL     1      -8.894  -4.596  20.288  1.00  0.00    -0.744 OA
ENDBRANCH  66  67
ENDBRANCH  45  59
BRANCH  46  71
ATOM     71  C   UNL     1      -1.140  -8.767  14.455  1.00  0.00     0.058 A 
ATOM     72  C   UNL     1      -0.597  -9.475  15.549  1.00  0.00     0.135 A 
ATOM     73  C   UNL     1      -2.045  -9.489  13.652  1.00  0.00     0.135 A 
ATOM     74  F   UNL     1       0.262  -8.868  16.384  1.00  0.00    -0.206 F 
ATOM     75  C   UNL     1      -0.973 -10.791  15.860  1.00  0.00     0.059 A 
ATOM     76  C   UNL     1      -2.433 -10.800  13.941  1.00  0.00     0.059 A 
ATOM     77  F   UNL     1      -2.656  -8.906  12.611  1.00  0.00    -0.206 F 
ATOM     78  C   UNL     1      -1.915 -11.438  15.062  1.00  0.00     0.060 A 
BRANCH  78  79
ATOM     79  S   UNL     1      -2.546 -13.063  15.556  1.00  0.00     0.124 S 
ATOM     80  O   UNL     1      -1.366 -13.908  15.405  1.00  0.00    -0.237 OA
ATOM     81  O   UNL     1      -2.984 -12.821  16.927  1.00  0.00    -0.237 OA
ATOM     82  O   UNL     1      -3.620 -13.316  14.598  1.00  0.00    -0.744 OA
ENDBRANCH  78  79
ENDBRANCH  46  71
BRANCH  58  83
ATOM     83  C   UNL     1       0.835  -2.817  15.525  1.00  0.00     0.058 A 
ATOM     84  C   UNL     1       1.239  -3.137  14.215  1.00  0.00     0.135 A 
ATOM     85  C   UNL     1       1.707  -2.024  16.285  1.00  0.00     0.135 A 
ATOM     86  F   UNL     1       0.426  -3.811  13.389  1.00  0.00    -0.206 F 
ATOM     87  C   UNL     1       2.467  -2.711  13.698  1.00  0.00     0.059 A 
ATOM     88  C   UNL     1       2.920  -1.564  15.782  1.00  0.00     0.059 A 
ATOM     89  F   UNL     1       1.355  -1.636  17.522  1.00  0.00    -0.206 F 
ATOM     90  C   UNL     1       3.300  -1.919  14.490  1.00  0.00     0.060 A 
BRANCH  90  91
ATOM     91  S   UNL     1       4.857  -1.309  13.806  1.00  0.00     0.124 S 
ATOM     92  O   UNL     1       5.629  -2.538  13.655  1.00  0.00    -0.237 OA
ATOM     93  O   UNL     1       4.428  -0.673  12.564  1.00  0.00    -0.237 OA
ATOM     94  O   UNL     1       5.344  -0.389  14.831  1.00  0.00    -0.744 OA
ENDBRANCH  90  91
ENDBRANCH  58  83
ENDBRANCH  32  33
ENDBRANCH  24  27
ENDBRANCH  22  23
ENDBRANCH   1  22
TORSDOF 16
