REMARK SMILES N#Cc1ccc(C(=O)N2CCC[C@H]2C(=O)NCCCCNC(=O)c2ccc(-c3c4nc(c(-c5c(F)cc(S(=O)(=O)[O-])cc5F)c5ccc([nH]5)c(-c5c(F)cc(S(=O)(=O)[O-])cc5F)c5nc(c(-c6c(F)cc(S(=O)(=O)[O-])cc6F)c6ccc3[nH]6)C=C5)C=C4)cc2)cc1
REMARK SMILES IDX 18 1 17 2 16 3 14 4 15 5 13 7 9 8 10 9 11 10 12 11 7 12 8 13
REMARK SMILES IDX 6 14 3 15 4 16 91 17 5 18 90 19 2 20 1 21 19 22 20 23 21 24
REMARK SMILES IDX 22 25 23 27 24 28 25 29 89 30 26 31 88 32 27 33 28 34 29 35
REMARK SMILES IDX 82 36 30 37 87 38 81 39 83 40 31 41 86 42 80 43 79 44 32 46
REMARK SMILES IDX 66 47 45 48 65 49 46 50 49 51 64 52 84 53 47 54 48 55 63 57
REMARK SMILES IDX 85 58 50 59 33 60 34 61 43 62 35 63 36 64 42 65 44 66 37 67
REMARK SMILES IDX 38 68 39 69 40 70 41 71 67 72 68 73 77 74 69 75 70 76 76 77
REMARK SMILES IDX 78 78 71 79 72 80 73 81 74 82 75 83 51 84 52 85 61 86 53 87
REMARK SMILES IDX 54 88 60 89 62 90 55 91 56 92 57 93 58 94 59 95
REMARK H PARENT 16 6 21 26 83 45 49 56
REMARK Flexibility Score: inf
ROOT
ATOM      1  C   UNL     1       6.559   1.838   3.611  1.00  0.00     0.023 C 
ENDROOT
BRANCH   1   2
ATOM      2  C   UNL     1       6.130   1.306   2.251  1.00  0.00     0.116 C 
BRANCH   2   3
ATOM      3  N   UNL     1       7.085   0.390   1.652  1.00  0.00    -0.354 N 
ATOM      4  C   UNL     1       6.852  -0.814   1.045  1.00  0.00     0.242 C 
ATOM      5  O   UNL     1       7.744  -1.279   0.330  1.00  0.00    -0.273 OA
ATOM      6  H   UNL     1       8.027   0.673   1.688  1.00  0.00     0.163 HD
BRANCH   4   7
ATOM      7  C   UNL     1       5.497  -1.535   1.241  1.00  0.00     0.174 C 
ATOM      8  N   UNL     1       4.528  -1.313   0.163  1.00  0.00    -0.327 N 
ATOM      9  C   UNL     1       4.539  -2.420  -0.767  1.00  0.00     0.121 C 
ATOM     10  C   UNL     1       4.758  -3.608   0.145  1.00  0.00     0.024 C 
ATOM     11  C   UNL     1       5.708  -3.070   1.220  1.00  0.00     0.037 C 
BRANCH   8  12
ATOM     12  C   UNL     1       3.837  -0.134   0.009  1.00  0.00     0.254 C 
ATOM     13  O   UNL     1       4.386   0.961   0.080  1.00  0.00    -0.269 OA
BRANCH  12  14
ATOM     14  C   UNL     1       2.343  -0.162  -0.084  1.00  0.00     0.040 A 
ATOM     15  C   UNL     1      -0.474  -0.028  -0.059  1.00  0.00     0.052 A 
ATOM     16  C   UNL     1       0.280   1.143  -0.145  1.00  0.00     0.020 A 
ATOM     17  C   UNL     1       0.177  -1.262   0.030  1.00  0.00     0.020 A 
ATOM     18  C   UNL     1       1.677   1.074  -0.163  1.00  0.00     0.015 A 
ATOM     19  C   UNL     1       1.577  -1.327   0.039  1.00  0.00     0.015 A 
BRANCH  15  20
ATOM     20  C   UNL     1      -1.907   0.032  -0.044  1.00  0.00     0.099 C 
ATOM     21  N   UNL     1      -3.065   0.067  -0.031  1.00  0.00    -0.192 NA
ENDBRANCH  15  20
ENDBRANCH  12  14
ENDBRANCH   8  12
ENDBRANCH   4   7
ENDBRANCH   2   3
ENDBRANCH   1   2
BRANCH   1  22
ATOM     22  C   UNL     1       7.905   2.558   3.634  1.00  0.00     0.023 C 
BRANCH  22  23
ATOM     23  C   UNL     1       8.051   3.714   2.649  1.00  0.00     0.116 C 
BRANCH  23  24
ATOM     24  N   UNL     1       7.133   4.809   2.920  1.00  0.00    -0.352 N 
ATOM     25  C   UNL     1       7.397   6.134   3.180  1.00  0.00     0.251 C 
ATOM     26  H   UNL     1       6.180   4.566   2.917  1.00  0.00     0.163 HD
ATOM     27  O   UNL     1       6.486   6.871   3.549  1.00  0.00    -0.269 OA
BRANCH  25  28
ATOM     28  C   UNL     1       8.773   6.669   3.047  1.00  0.00     0.039 A 
ATOM     29  C   UNL     1       9.249   7.553   4.019  1.00  0.00     0.014 A 
ATOM     30  C   UNL     1       9.592   6.316   1.971  1.00  0.00     0.014 A 
ATOM     31  C   UNL     1      10.564   8.022   3.948  1.00  0.00     0.010 A 
ATOM     32  C   UNL     1      10.929   6.711   1.952  1.00  0.00     0.010 A 
ATOM     33  C   UNL     1      11.432   7.572   2.938  1.00  0.00    -0.014 A 
BRANCH  33  34
ATOM     34  C   UNL     1      12.861   7.989   2.912  1.00  0.00     0.031 A 
ATOM     35  C   UNL     1      13.412   8.764   1.742  1.00  0.00     0.074 A 
ATOM     36  C   UNL     1      13.677   7.639   3.928  1.00  0.00     0.049 A 
ATOM     37  N   UNL     1      14.632   9.191   1.535  1.00  0.00    -0.248 NA
ATOM     38  C   UNL     1      12.475   9.086   0.653  1.00  0.00     0.031 C 
ATOM     39  C   UNL     1      13.278   6.853   5.099  1.00  0.00     0.029 A 
ATOM     40  N   UNL     1      15.008   7.897   4.145  1.00  0.00    -0.354 N 
ATOM     41  C   UNL     1      14.608   9.833   0.302  1.00  0.00     0.074 A 
ATOM     42  C   UNL     1      13.270   9.677  -0.227  1.00  0.00     0.031 C 
ATOM     43  C   UNL     1      14.329   6.728   5.926  1.00  0.00     0.029 A 
ATOM     44  C   UNL     1      15.489   7.377   5.326  1.00  0.00     0.049 A 
ATOM     45  H   UNL     1      15.567   8.406   3.515  1.00  0.00     0.167 HD
ATOM     46  C   UNL     1      15.599  10.516  -0.321  1.00  0.00     0.037 A 
ATOM     47  C   UNL     1      16.726   7.411   5.861  1.00  0.00     0.037 A 
ATOM     48  C   UNL     1      16.929  10.670   0.211  1.00  0.00     0.049 A 
ATOM     49  C   UNL     1      17.823   8.133   5.122  1.00  0.00     0.074 A 
ATOM     50  C   UNL     1      17.996  11.367  -0.331  1.00  0.00     0.029 A 
ATOM     51  N   UNL     1      17.380  10.116   1.401  1.00  0.00    -0.354 N 
ATOM     52  N   UNL     1      17.764   8.785   3.985  1.00  0.00    -0.248 NA
ATOM     53  C   UNL     1      19.155   8.129   5.742  1.00  0.00     0.031 C 
ATOM     54  C   UNL     1      19.106  11.184   0.498  1.00  0.00     0.029 A 
ATOM     55  C   UNL     1      18.715  10.435   1.596  1.00  0.00     0.049 A 
ATOM     56  H   UNL     1      16.832   9.577   2.016  1.00  0.00     0.167 HD
ATOM     57  C   UNL     1      19.039   9.302   3.776  1.00  0.00     0.074 A 
ATOM     58  C   UNL     1      19.841   8.900   4.912  1.00  0.00     0.031 C 
ATOM     59  C   UNL     1      19.503  10.042   2.739  1.00  0.00     0.037 A 
BRANCH  46  60
ATOM     60  C   UNL     1      15.283  11.161  -1.645  1.00  0.00     0.058 A 
ATOM     61  C   UNL     1      14.402  12.252  -1.741  1.00  0.00     0.135 A 
ATOM     62  C   UNL     1      15.908  10.724  -2.825  1.00  0.00     0.135 A 
ATOM     63  F   UNL     1      13.764  12.706  -0.650  1.00  0.00    -0.206 F 
ATOM     64  C   UNL     1      14.135  12.869  -2.959  1.00  0.00     0.059 A 
ATOM     65  C   UNL     1      15.681  11.348  -4.049  1.00  0.00     0.059 A 
ATOM     66  F   UNL     1      16.758   9.686  -2.795  1.00  0.00    -0.206 F 
ATOM     67  C   UNL     1      14.784  12.413  -4.107  1.00  0.00     0.060 A 
BRANCH  67  68
ATOM     68  S   UNL     1      14.440  13.242  -5.673  1.00  0.00     0.124 S 
ATOM     69  O   UNL     1      13.056  12.846  -5.917  1.00  0.00    -0.237 OA
ATOM     70  O   UNL     1      14.646  14.646  -5.332  1.00  0.00    -0.237 OA
ATOM     71  O   UNL     1      15.425  12.670  -6.587  1.00  0.00    -0.744 OA
ENDBRANCH  67  68
ENDBRANCH  46  60
BRANCH  47  72
ATOM     72  C   UNL     1      17.000   6.756   7.171  1.00  0.00     0.058 A 
ATOM     73  C   UNL     1      17.365   7.511   8.297  1.00  0.00     0.135 A 
ATOM     74  C   UNL     1      16.933   5.361   7.319  1.00  0.00     0.135 A 
ATOM     75  F   UNL     1      17.451   8.847   8.209  1.00  0.00    -0.206 F 
ATOM     76  C   UNL     1      17.688   6.908   9.509  1.00  0.00     0.059 A 
ATOM     77  C   UNL     1      17.214   4.738   8.531  1.00  0.00     0.059 A 
ATOM     78  F   UNL     1      16.573   4.590   6.282  1.00  0.00    -0.206 F 
ATOM     79  C   UNL     1      17.609   5.519   9.616  1.00  0.00     0.060 A 
BRANCH  79  80
ATOM     80  S   UNL     1      18.013   4.749  11.198  1.00  0.00     0.124 S 
ATOM     81  O   UNL     1      19.454   4.960  11.269  1.00  0.00    -0.237 OA
ATOM     82  O   UNL     1      17.206   5.529  12.131  1.00  0.00    -0.237 OA
ATOM     83  O   UNL     1      17.586   3.365  11.017  1.00  0.00    -0.744 OA
ENDBRANCH  79  80
ENDBRANCH  47  72
BRANCH  59  84
ATOM     84  C   UNL     1      20.932  10.515   2.805  1.00  0.00     0.058 A 
ATOM     85  C   UNL     1      22.017   9.631   2.700  1.00  0.00     0.135 A 
ATOM     86  C   UNL     1      21.218  11.885   2.939  1.00  0.00     0.135 A 
ATOM     87  F   UNL     1      21.805   8.311   2.575  1.00  0.00    -0.206 F 
ATOM     88  C   UNL     1      23.332  10.082   2.761  1.00  0.00     0.059 A 
ATOM     89  C   UNL     1      22.524  12.362   2.963  1.00  0.00     0.059 A 
ATOM     90  F   UNL     1      20.220  12.779   3.033  1.00  0.00    -0.206 F 
ATOM     91  C   UNL     1      23.576  11.451   2.889  1.00  0.00     0.060 A 
BRANCH  91  92
ATOM     92  S   UNL     1      25.287  12.022   2.941  1.00  0.00     0.124 S 
ATOM     93  O   UNL     1      25.721  11.539   4.247  1.00  0.00    -0.237 OA
ATOM     94  O   UNL     1      25.874  11.346   1.788  1.00  0.00    -0.237 OA
ATOM     95  O   UNL     1      25.167  13.472   2.817  1.00  0.00    -0.744 OA
ENDBRANCH  91  92
ENDBRANCH  59  84
ENDBRANCH  33  34
ENDBRANCH  25  28
ENDBRANCH  23  24
ENDBRANCH  22  23
ENDBRANCH   1  22
TORSDOF 17
