REMARK SMILES CCn1c(SCC(=O)NCCCCNC(=O)c2ccc(-c3c4nc(c(-c5c(F)cc(S(=O)(=O)[O-])cc5F)c5ccc([nH]5)c(-c5c(F)cc(S(=O)(=O)[O-])cc5F)c5nc(c(-c6c(F)cc(S(=O)(=O)[O-])cc6F)c6ccc3[nH]6)C=C5)C=C4)cc2)nc2ccc(C)cc2c1=O
REMARK SMILES IDX 11 1 10 2 9 3 7 4 8 5 6 7 5 8 4 9 3 10 91 11 83 12 90 13
REMARK SMILES IDX 92 14 84 15 89 16 85 17 87 18 86 19 88 20 2 21 1 22 12 23
REMARK SMILES IDX 13 24 14 25 15 26 16 28 17 29 18 30 82 31 19 32 81 33 20 34
REMARK SMILES IDX 21 35 22 36 75 37 23 38 80 39 74 40 76 41 24 42 79 43 73 44
REMARK SMILES IDX 72 45 25 47 59 48 38 49 58 50 39 51 42 52 57 53 77 54 40 55
REMARK SMILES IDX 41 56 56 58 78 59 43 60 26 61 27 62 36 63 28 64 29 65 35 66
REMARK SMILES IDX 37 67 30 68 31 69 32 70 33 71 34 72 60 73 61 74 70 75 62 76
REMARK SMILES IDX 63 77 69 78 71 79 64 80 65 81 66 82 67 83 68 84 44 85 45 86
REMARK SMILES IDX 54 87 46 88 47 89 53 90 55 91 48 92 49 93 50 94 51 95 52 96
REMARK H PARENT 9 6 14 27 76 46 42 57
REMARK Flexibility Score: inf
ROOT
ATOM      1  C   UNL     1       4.931  -1.063  -1.670  1.00  0.00     0.023 C 
ENDROOT
BRANCH   1   2
ATOM      2  C   UNL     1       4.015  -1.936  -0.819  1.00  0.00     0.116 C 
BRANCH   2   3
ATOM      3  N   UNL     1       3.418  -1.166   0.254  1.00  0.00    -0.355 N 
ATOM      4  C   UNL     1       2.129  -0.770   0.422  1.00  0.00     0.230 C 
ATOM      5  O   UNL     1       1.884   0.013   1.340  1.00  0.00    -0.274 OA
ATOM      6  H   UNL     1       4.038  -0.889   0.966  1.00  0.00     0.163 HD
BRANCH   4   7
ATOM      7  C   UNL     1       1.039  -1.388  -0.408  1.00  0.00     0.178 C 
BRANCH   7   8
ATOM      8  S   UNL     1       0.484  -0.565  -1.885  1.00  0.00    -0.078 SA
BRANCH   8   9
ATOM      9  C   UNL     1       0.926   1.119  -1.984  1.00  0.00     0.171 A 
ATOM     10  N   UNL     1       0.483   2.114  -1.126  1.00  0.00    -0.287 N 
ATOM     11  C   UNL     1       0.834   3.454  -1.408  1.00  0.00     0.262 A 
ATOM     12  N   UNL     1       1.537   1.368  -3.106  1.00  0.00    -0.224 NA
ATOM     13  C   UNL     1       1.319   3.762  -2.755  1.00  0.00     0.066 A 
ATOM     14  O   UNL     1       0.680   4.391  -0.624  1.00  0.00    -0.269 OA
ATOM     15  C   UNL     1       1.648   2.688  -3.559  1.00  0.00     0.079 A 
ATOM     16  C   UNL     1       1.308   5.079  -3.246  1.00  0.00     0.019 A 
ATOM     17  C   UNL     1       1.973   2.944  -4.895  1.00  0.00     0.029 A 
ATOM     18  C   UNL     1       1.595   5.330  -4.592  1.00  0.00    -0.050 A 
ATOM     19  C   UNL     1       1.940   4.250  -5.412  1.00  0.00     0.006 A 
ATOM     20  C   UNL     1       1.514   6.730  -5.130  1.00  0.00     0.044 C 
BRANCH  10  21
ATOM     21  C   UNL     1      -0.352   2.067   0.083  1.00  0.00     0.125 C 
ATOM     22  C   UNL     1      -1.117   0.850   0.546  1.00  0.00     0.028 C 
ENDBRANCH  10  21
ENDBRANCH   8   9
ENDBRANCH   7   8
ENDBRANCH   4   7
ENDBRANCH   2   3
ENDBRANCH   1   2
BRANCH   1  23
ATOM     23  C   UNL     1       6.047  -0.351  -0.900  1.00  0.00     0.023 C 
BRANCH  23  24
ATOM     24  C   UNL     1       6.856  -1.211   0.064  1.00  0.00     0.116 C 
BRANCH  24  25
ATOM     25  N   UNL     1       7.431  -2.404  -0.538  1.00  0.00    -0.352 N 
ATOM     26  C   UNL     1       8.648  -2.999  -0.279  1.00  0.00     0.251 C 
ATOM     27  H   UNL     1       6.877  -2.845  -1.222  1.00  0.00     0.163 HD
ATOM     28  O   UNL     1       8.997  -3.989  -0.902  1.00  0.00    -0.269 OA
BRANCH  26  29
ATOM     29  C   UNL     1       9.548  -2.381   0.721  1.00  0.00     0.039 A 
ATOM     30  C   UNL     1       9.071  -2.020   1.982  1.00  0.00     0.014 A 
ATOM     31  C   UNL     1      10.858  -2.075   0.346  1.00  0.00     0.014 A 
ATOM     32  C   UNL     1       9.837  -1.182   2.785  1.00  0.00     0.010 A 
ATOM     33  C   UNL     1      11.657  -1.304   1.195  1.00  0.00     0.010 A 
ATOM     34  C   UNL     1      11.128  -0.791   2.390  1.00  0.00    -0.014 A 
BRANCH  34  35
ATOM     35  C   UNL     1      11.872   0.200   3.213  1.00  0.00     0.031 A 
ATOM     36  C   UNL     1      12.195   1.566   2.662  1.00  0.00     0.074 A 
ATOM     37  C   UNL     1      12.181  -0.101   4.490  1.00  0.00     0.049 A 
ATOM     38  N   UNL     1      12.784   2.575   3.254  1.00  0.00    -0.248 NA
ATOM     39  C   UNL     1      11.814   1.838   1.266  1.00  0.00     0.031 C 
ATOM     40  C   UNL     1      11.909  -1.384   5.140  1.00  0.00     0.029 A 
ATOM     41  N   UNL     1      12.754   0.658   5.479  1.00  0.00    -0.354 N 
ATOM     42  C   UNL     1      12.855   3.589   2.305  1.00  0.00     0.074 A 
ATOM     43  C   UNL     1      12.284   3.064   1.085  1.00  0.00     0.031 C 
ATOM     44  C   UNL     1      12.254  -1.303   6.434  1.00  0.00     0.029 A 
ATOM     45  C   UNL     1      12.826   0.015   6.692  1.00  0.00     0.049 A 
ATOM     46  H   UNL     1      13.083   1.574   5.334  1.00  0.00     0.167 HD
ATOM     47  C   UNL     1      13.333   4.850   2.443  1.00  0.00     0.037 A 
ATOM     48  C   UNL     1      13.302   0.435   7.880  1.00  0.00     0.037 A 
ATOM     49  C   UNL     1      13.868   5.381   3.669  1.00  0.00     0.049 A 
ATOM     50  C   UNL     1      13.873   1.819   7.995  1.00  0.00     0.074 A 
ATOM     51  C   UNL     1      14.342   6.658   3.917  1.00  0.00     0.029 A 
ATOM     52  N   UNL     1      14.000   4.669   4.851  1.00  0.00    -0.354 N 
ATOM     53  N   UNL     1      13.920   2.766   7.089  1.00  0.00    -0.248 NA
ATOM     54  C   UNL     1      14.476   2.186   9.283  1.00  0.00     0.031 C 
ATOM     55  C   UNL     1      14.798   6.705   5.238  1.00  0.00     0.029 A 
ATOM     56  C   UNL     1      14.576   5.469   5.824  1.00  0.00     0.049 A 
ATOM     57  H   UNL     1      13.725   3.732   4.980  1.00  0.00     0.167 HD
ATOM     58  C   UNL     1      14.562   3.839   7.694  1.00  0.00     0.074 A 
ATOM     59  C   UNL     1      14.862   3.435   9.053  1.00  0.00     0.031 C 
ATOM     60  C   UNL     1      14.882   5.046   7.168  1.00  0.00     0.037 A 
BRANCH  47  61
ATOM     61  C   UNL     1      13.301   5.749   1.237  1.00  0.00     0.058 A 
ATOM     62  C   UNL     1      12.101   6.301   0.763  1.00  0.00     0.135 A 
ATOM     63  C   UNL     1      14.490   6.103   0.578  1.00  0.00     0.135 A 
ATOM     64  F   UNL     1      10.934   5.985   1.347  1.00  0.00    -0.206 F 
ATOM     65  C   UNL     1      12.077   7.155  -0.336  1.00  0.00     0.059 A 
ATOM     66  C   UNL     1      14.493   6.973  -0.509  1.00  0.00     0.059 A 
ATOM     67  F   UNL     1      15.666   5.604   0.991  1.00  0.00    -0.206 F 
ATOM     68  C   UNL     1      13.279   7.484  -0.966  1.00  0.00     0.060 A 
BRANCH  68  69
ATOM     69  S   UNL     1      13.228   8.594  -2.389  1.00  0.00     0.124 S 
ATOM     70  O   UNL     1      12.625   7.737  -3.405  1.00  0.00    -0.237 OA
ATOM     71  O   UNL     1      12.389   9.686  -1.904  1.00  0.00    -0.237 OA
ATOM     72  O   UNL     1      14.630   8.934  -2.608  1.00  0.00    -0.744 OA
ENDBRANCH  68  69
ENDBRANCH  47  61
BRANCH  48  73
ATOM     73  C   UNL     1      13.258  -0.479   9.051  1.00  0.00     0.058 A 
ATOM     74  C   UNL     1      12.371  -0.247  10.112  1.00  0.00     0.135 A 
ATOM     75  C   UNL     1      14.063  -1.628   9.108  1.00  0.00     0.135 A 
ATOM     76  F   UNL     1      11.588   0.842  10.107  1.00  0.00    -0.206 F 
ATOM     77  C   UNL     1      12.279  -1.125  11.187  1.00  0.00     0.059 A 
ATOM     78  C   UNL     1      13.972  -2.533  10.160  1.00  0.00     0.059 A 
ATOM     79  F   UNL     1      14.919  -1.899   8.110  1.00  0.00    -0.206 F 
ATOM     80  C   UNL     1      13.078  -2.271  11.197  1.00  0.00     0.060 A 
BRANCH  80  81
ATOM     81  S   UNL     1      12.893  -3.443  12.558  1.00  0.00     0.124 S 
ATOM     82  O   UNL     1      13.515  -2.716  13.659  1.00  0.00    -0.237 OA
ATOM     83  O   UNL     1      11.444  -3.599  12.632  1.00  0.00    -0.237 OA
ATOM     84  O   UNL     1      13.618  -4.620  12.088  1.00  0.00    -0.744 OA
ENDBRANCH  80  81
ENDBRANCH  48  73
BRANCH  60  85
ATOM     85  C   UNL     1      15.620   6.015   8.046  1.00  0.00     0.058 A 
ATOM     86  C   UNL     1      16.990   5.858   8.302  1.00  0.00     0.135 A 
ATOM     87  C   UNL     1      14.982   7.158   8.552  1.00  0.00     0.135 A 
ATOM     88  F   UNL     1      17.642   4.776   7.848  1.00  0.00    -0.206 F 
ATOM     89  C   UNL     1      17.705   6.804   9.027  1.00  0.00     0.059 A 
ATOM     90  C   UNL     1      15.682   8.129   9.262  1.00  0.00     0.059 A 
ATOM     91  F   UNL     1      13.673   7.357   8.329  1.00  0.00    -0.206 F 
ATOM     92  C   UNL     1      17.045   7.942   9.494  1.00  0.00     0.060 A 
BRANCH  92  93
ATOM     93  S   UNL     1      18.006   9.196  10.367  1.00  0.00     0.124 S 
ATOM     94  O   UNL     1      18.284   8.527  11.633  1.00  0.00    -0.237 OA
ATOM     95  O   UNL     1      19.152   9.381   9.482  1.00  0.00    -0.237 OA
ATOM     96  O   UNL     1      17.092  10.332  10.445  1.00  0.00    -0.744 OA
ENDBRANCH  92  93
ENDBRANCH  60  85
ENDBRANCH  34  35
ENDBRANCH  26  29
ENDBRANCH  24  25
ENDBRANCH  23  24
ENDBRANCH   1  23
TORSDOF 17
