REMARK SMILES C[C@H]1CCC[C@]1(C(=O)NCCCCNC(=O)c1ccc(-c2c3nc(c(-c4c(F)cc(S(=O)(=O)[O-])cc4F)c4ccc([nH]4)c(-c4c(F)cc(S(=O)(=O)[O-])cc4F)c4nc(c(-c5c(F)cc(S(=O)(=O)[O-])cc5F)c5ccc2[nH]5)C=C4)C=C3)cc1)c1ccc2c(c1)OCO2
REMARK SMILES IDX 12 1 11 2 10 3 9 4 7 5 8 6 6 8 1 9 2 10 3 11 4 12 5 13 83 14
REMARK SMILES IDX 84 15 88 16 85 17 87 18 86 19 89 20 91 21 90 22 13 23 14 24
REMARK SMILES IDX 15 25 16 27 17 28 18 29 82 30 19 31 81 32 20 33 21 34 22 35
REMARK SMILES IDX 75 36 23 37 80 38 74 39 76 40 24 41 79 42 73 43 72 44 25 46
REMARK SMILES IDX 59 47 38 48 58 49 39 50 42 51 57 52 77 53 40 54 41 55 56 57
REMARK SMILES IDX 78 58 43 59 26 60 27 61 36 62 28 63 29 64 35 65 37 66 30 67
REMARK SMILES IDX 31 68 32 69 33 70 34 71 60 72 61 73 70 74 62 75 63 76 69 77
REMARK SMILES IDX 71 78 64 79 65 80 66 81 67 82 68 83 44 84 45 85 54 86 46 87
REMARK SMILES IDX 47 88 53 89 55 90 48 91 49 92 50 93 51 94 52 95
REMARK H PARENT 9 7 14 26 76 45 42 56
REMARK Flexibility Score: inf
ROOT
ATOM      1  C   UNL     1      -1.270  -2.289   4.635  1.00  0.00     0.023 C 
ENDROOT
BRANCH   1   2
ATOM      2  C   UNL     1      -0.875  -2.041   3.184  1.00  0.00     0.023 C 
BRANCH   2   3
ATOM      3  C   UNL     1      -1.692  -0.973   2.464  1.00  0.00     0.116 C 
BRANCH   3   4
ATOM      4  N   UNL     1      -1.220   0.377   2.706  1.00  0.00    -0.355 N 
ATOM      5  C   UNL     1      -0.738   1.371   1.902  1.00  0.00     0.230 C 
ATOM      6  O   UNL     1      -0.745   2.482   2.447  1.00  0.00    -0.274 OA
ATOM      7  H   UNL     1      -1.254   0.633   3.656  1.00  0.00     0.163 HD
BRANCH   5   8
ATOM      8  C   UNL     1      -0.228   1.160   0.427  1.00  0.00     0.077 C 
ATOM      9  C   UNL     1       1.904   0.023   1.474  1.00  0.00     0.009 C 
ATOM     10  C   UNL     1       0.959   0.141   0.285  1.00  0.00     0.006 C 
ATOM     11  C   UNL     1       0.362  -1.167  -0.214  1.00  0.00     0.005 C 
ATOM     12  C   UNL     1      -0.839  -0.737  -1.049  1.00  0.00     0.002 C 
ATOM     13  C   UNL     1      -1.386   0.544  -0.412  1.00  0.00     0.022 C 
BRANCH   8  14
ATOM     14  C   UNL     1       0.351   2.447  -0.268  1.00  0.00    -0.028 A 
ATOM     15  C   UNL     1       1.048   3.449   0.457  1.00  0.00     0.009 A 
ATOM     16  C   UNL     1       0.442   2.490  -1.682  1.00  0.00     0.055 A 
ATOM     17  C   UNL     1       1.821   4.431  -0.182  1.00  0.00     0.051 A 
ATOM     18  C   UNL     1       1.257   3.427  -2.279  1.00  0.00     0.166 A 
ATOM     19  C   UNL     1       1.937   4.367  -1.549  1.00  0.00     0.165 A 
ATOM     20  O   UNL     1       1.561   3.474  -3.604  1.00  0.00    -0.454 OA
ATOM     21  O   UNL     1       2.751   5.131  -2.326  1.00  0.00    -0.454 OA
ATOM     22  C   UNL     1       2.641   4.428  -3.582  1.00  0.00     0.468 C 
ENDBRANCH   8  14
ENDBRANCH   5   8
ENDBRANCH   3   4
ENDBRANCH   2   3
ENDBRANCH   1   2
BRANCH   1  23
ATOM     23  C   UNL     1      -2.720  -2.701   4.844  1.00  0.00     0.116 C 
BRANCH  23  24
ATOM     24  N   UNL     1      -3.142  -3.819   4.010  1.00  0.00    -0.352 N 
ATOM     25  C   UNL     1      -4.078  -4.786   4.306  1.00  0.00     0.251 C 
ATOM     26  H   UNL     1      -2.707  -3.892   3.130  1.00  0.00     0.163 HD
ATOM     27  O   UNL     1      -4.283  -5.715   3.543  1.00  0.00    -0.269 OA
BRANCH  25  28
ATOM     28  C   UNL     1      -4.787  -4.688   5.597  1.00  0.00     0.039 A 
ATOM     29  C   UNL     1      -4.726  -5.764   6.482  1.00  0.00     0.014 A 
ATOM     30  C   UNL     1      -5.411  -3.492   5.962  1.00  0.00     0.014 A 
ATOM     31  C   UNL     1      -5.229  -5.612   7.774  1.00  0.00     0.010 A 
ATOM     32  C   UNL     1      -5.838  -3.318   7.271  1.00  0.00     0.010 A 
ATOM     33  C   UNL     1      -5.751  -4.375   8.189  1.00  0.00    -0.014 A 
BRANCH  33  34
ATOM     34  C   UNL     1      -6.217  -4.167   9.581  1.00  0.00     0.031 A 
ATOM     35  C   UNL     1      -7.665  -3.861   9.843  1.00  0.00     0.074 A 
ATOM     36  C   UNL     1      -5.326  -4.181  10.592  1.00  0.00     0.049 A 
ATOM     37  N   UNL     1      -8.257  -3.583  10.975  1.00  0.00    -0.248 NA
ATOM     38  C   UNL     1      -8.559  -3.829   8.674  1.00  0.00     0.031 C 
ATOM     39  C   UNL     1      -3.884  -4.400  10.451  1.00  0.00     0.029 A 
ATOM     40  N   UNL     1      -5.502  -4.000  11.941  1.00  0.00    -0.354 N 
ATOM     41  C   UNL     1      -9.584  -3.326  10.652  1.00  0.00     0.074 A 
ATOM     42  C   UNL     1      -9.698  -3.423   9.213  1.00  0.00     0.031 C 
ATOM     43  C   UNL     1      -3.312  -4.366  11.666  1.00  0.00     0.029 A 
ATOM     44  C   UNL     1      -4.338  -4.096  12.668  1.00  0.00     0.049 A 
ATOM     45  H   UNL     1      -6.379  -3.819  12.350  1.00  0.00     0.167 HD
ATOM     46  C   UNL     1     -10.620  -3.061  11.482  1.00  0.00     0.037 A 
ATOM     47  C   UNL     1      -4.127  -3.983  13.993  1.00  0.00     0.037 A 
ATOM     48  C   UNL     1     -10.506  -3.006  12.914  1.00  0.00     0.049 A 
ATOM     49  C   UNL     1      -5.301  -3.727  14.899  1.00  0.00     0.074 A 
ATOM     50  C   UNL     1     -11.505  -2.811  13.851  1.00  0.00     0.029 A 
ATOM     51  N   UNL     1      -9.319  -3.154  13.618  1.00  0.00    -0.354 N 
ATOM     52  N   UNL     1      -6.562  -3.553  14.583  1.00  0.00    -0.248 NA
ATOM     53  C   UNL     1      -5.026  -3.662  16.341  1.00  0.00     0.031 C 
ATOM     54  C   UNL     1     -10.917  -2.813  15.121  1.00  0.00     0.029 A 
ATOM     55  C   UNL     1      -9.558  -3.046  14.977  1.00  0.00     0.049 A 
ATOM     56  H   UNL     1      -8.437  -3.312  13.210  1.00  0.00     0.167 HD
ATOM     57  C   UNL     1      -7.235  -3.383  15.787  1.00  0.00     0.074 A 
ATOM     58  C   UNL     1      -6.243  -3.486  16.838  1.00  0.00     0.031 C 
ATOM     59  C   UNL     1      -8.555  -3.161  16.005  1.00  0.00     0.037 A 
BRANCH  46  60
ATOM     60  C   UNL     1     -11.966  -2.828  10.855  1.00  0.00     0.058 A 
ATOM     61  C   UNL     1     -12.689  -3.875  10.260  1.00  0.00     0.135 A 
ATOM     62  C   UNL     1     -12.546  -1.550  10.858  1.00  0.00     0.135 A 
ATOM     63  F   UNL     1     -12.170  -5.113  10.212  1.00  0.00    -0.206 F 
ATOM     64  C   UNL     1     -13.925  -3.657   9.662  1.00  0.00     0.059 A 
ATOM     65  C   UNL     1     -13.795  -1.315  10.289  1.00  0.00     0.059 A 
ATOM     66  F   UNL     1     -11.897  -0.514  11.411  1.00  0.00    -0.206 F 
ATOM     67  C   UNL     1     -14.468  -2.372   9.678  1.00  0.00     0.060 A 
BRANCH  67  68
ATOM     68  S   UNL     1     -16.073  -2.104   8.896  1.00  0.00     0.124 S 
ATOM     69  O   UNL     1     -15.712  -2.125   7.481  1.00  0.00    -0.237 OA
ATOM     70  O   UNL     1     -16.847  -3.247   9.368  1.00  0.00    -0.237 OA
ATOM     71  O   UNL     1     -16.492  -0.808   9.418  1.00  0.00    -0.744 OA
ENDBRANCH  67  68
ENDBRANCH  46  60
BRANCH  47  72
ATOM     72  C   UNL     1      -2.757  -4.151  14.546  1.00  0.00     0.058 A 
ATOM     73  C   UNL     1      -2.411  -5.303  15.268  1.00  0.00     0.135 A 
ATOM     74  C   UNL     1      -1.766  -3.178  14.352  1.00  0.00     0.135 A 
ATOM     75  F   UNL     1      -3.326  -6.260  15.482  1.00  0.00    -0.206 F 
ATOM     76  C   UNL     1      -1.135  -5.478  15.793  1.00  0.00     0.059 A 
ATOM     77  C   UNL     1      -0.476  -3.339  14.849  1.00  0.00     0.059 A 
ATOM     78  F   UNL     1      -2.042  -2.067  13.651  1.00  0.00    -0.206 F 
ATOM     79  C   UNL     1      -0.173  -4.489  15.578  1.00  0.00     0.060 A 
BRANCH  79  80
ATOM     80  S   UNL     1       1.495  -4.747  16.221  1.00  0.00     0.124 S 
ATOM     81  O   UNL     1       1.305  -4.485  17.642  1.00  0.00    -0.237 OA
ATOM     82  O   UNL     1       1.754  -6.137  15.856  1.00  0.00    -0.237 OA
ATOM     83  O   UNL     1       2.288  -3.760  15.495  1.00  0.00    -0.744 OA
ENDBRANCH  79  80
ENDBRANCH  47  72
BRANCH  59  84
ATOM     84  C   UNL     1      -9.007  -3.047  17.433  1.00  0.00     0.058 A 
ATOM     85  C   UNL     1      -8.749  -1.898  18.195  1.00  0.00     0.135 A 
ATOM     86  C   UNL     1      -9.752  -4.078  18.026  1.00  0.00     0.135 A 
ATOM     87  F   UNL     1      -8.036  -0.887  17.674  1.00  0.00    -0.206 F 
ATOM     88  C   UNL     1      -9.196  -1.783  19.506  1.00  0.00     0.059 A 
ATOM     89  C   UNL     1     -10.230  -3.975  19.328  1.00  0.00     0.059 A 
ATOM     90  F   UNL     1     -10.034  -5.193  17.334  1.00  0.00    -0.206 F 
ATOM     91  C   UNL     1      -9.936  -2.828  20.064  1.00  0.00     0.060 A 
BRANCH  91  92
ATOM     92  S   UNL     1     -10.541  -2.655  21.756  1.00  0.00     0.124 S 
ATOM     93  O   UNL     1      -9.329  -2.908  22.528  1.00  0.00    -0.237 OA
ATOM     94  O   UNL     1     -11.030  -1.280  21.777  1.00  0.00    -0.237 OA
ATOM     95  O   UNL     1     -11.574  -3.682  21.853  1.00  0.00    -0.744 OA
ENDBRANCH  91  92
ENDBRANCH  59  84
ENDBRANCH  33  34
ENDBRANCH  25  28
ENDBRANCH  23  24
ENDBRANCH   1  23
TORSDOF 15
