REMARK SMILES Cc1nc2ccccc2c2c1C(=O)N(c1cccc(C(=O)NCCCCNC(=O)c3ccc(-c4c5nc(c(-c6c(F)cc(S(=O)(=O)[O-])cc6F)c6ccc([nH]6)c(-c6c(F)cc(S(=O)(=O)[O-])cc6F)c6nc(c(-c7c(F)cc(S(=O)(=O)[O-])cc7F)c7ccc4[nH]7)C=C6)C=C5)cc3)c1)C2=O
REMARK SMILES IDX 25 1 24 2 23 3 22 4 20 5 21 6 19 8 15 9 16 10 96 11 17 12
REMARK SMILES IDX 18 13 14 14 1 15 2 16 3 17 11 18 4 19 10 20 12 21 5 22 9 23
REMARK SMILES IDX 97 24 13 25 6 26 8 27 98 28 7 29 26 30 27 31 28 32 29 34
REMARK SMILES IDX 30 35 31 36 95 37 32 38 94 39 33 40 34 41 35 42 88 43 36 44
REMARK SMILES IDX 93 45 87 46 89 47 37 48 92 49 86 50 85 51 38 53 72 54 51 55
REMARK SMILES IDX 71 56 52 57 55 58 70 59 90 60 53 61 54 62 69 64 91 65 56 66
REMARK SMILES IDX 39 67 40 68 49 69 41 70 42 71 48 72 50 73 43 74 44 75 45 76
REMARK SMILES IDX 46 77 47 78 73 79 74 80 83 81 75 82 76 83 82 84 84 85 77 86
REMARK SMILES IDX 78 87 79 88 80 89 81 90 57 91 58 92 67 93 59 94 60 95 66 96
REMARK SMILES IDX 68 97 61 98 62 99 63 100 64 101 65 102
REMARK H PARENT 22 7 27 33 89 52 55 63
REMARK Flexibility Score: inf
ROOT
ATOM      1  C   UNL     1      -7.178   3.315   6.831  1.00  0.00     0.023 C 
ENDROOT
BRANCH   1   2
ATOM      2  C   UNL     1      -6.006   3.208   5.863  1.00  0.00     0.023 C 
BRANCH   2   3
ATOM      3  C   UNL     1      -4.618   3.065   6.480  1.00  0.00     0.116 C 
BRANCH   3   4
ATOM      4  N   UNL     1      -4.519   1.966   7.413  1.00  0.00    -0.352 N 
ATOM      5  C   UNL     1      -3.463   1.365   8.033  1.00  0.00     0.251 C 
ATOM      6  O   UNL     1      -3.751   0.544   8.909  1.00  0.00    -0.269 OA
ATOM      7  H   UNL     1      -5.390   1.571   7.649  1.00  0.00     0.163 HD
BRANCH   5   8
ATOM      8  C   UNL     1      -2.017   1.609   7.730  1.00  0.00     0.041 A 
ATOM      9  C   UNL     1      -0.112   2.200   6.326  1.00  0.00     0.053 A 
ATOM     10  C   UNL     1       0.745   1.722   7.342  1.00  0.00     0.027 A 
ATOM     11  C   UNL     1      -1.490   2.241   6.586  1.00  0.00     0.040 A 
ATOM     12  C   UNL     1       0.245   1.074   8.461  1.00  0.00     0.003 A 
ATOM     13  C   UNL     1      -1.127   0.990   8.632  1.00  0.00     0.014 A 
BRANCH   9  14
ATOM     14  N   UNL     1       0.395   2.200   4.979  1.00  0.00    -0.242 N 
ATOM     15  C   UNL     1      -0.161   1.705   0.355  1.00  0.00     0.067 C 
ATOM     16  C   UNL     1      -0.208   0.913   1.626  1.00  0.00     0.052 A 
ATOM     17  N   UNL     1      -0.441  -0.427   1.496  1.00  0.00    -0.252 NA
ATOM     18  C   UNL     1       0.329   1.419   2.789  1.00  0.00     0.075 A 
ATOM     19  C   UNL     1      -0.441  -1.176   2.619  1.00  0.00     0.071 A 
ATOM     20  C   UNL     1       0.852   0.495   3.646  1.00  0.00     0.064 A 
ATOM     21  C   UNL     1      -0.264   2.414   3.773  1.00  0.00     0.268 C 
ATOM     22  C   UNL     1      -1.123  -2.385   2.675  1.00  0.00     0.029 A 
ATOM     23  C   UNL     1       0.119  -0.682   3.797  1.00  0.00     0.014 A 
ATOM     24  C   UNL     1       1.372   1.296   4.721  1.00  0.00     0.266 C 
ATOM     25  O   UNL     1      -1.239   3.100   3.527  1.00  0.00    -0.268 OA
ATOM     26  C   UNL     1      -1.483  -2.956   3.901  1.00  0.00     0.002 A 
ATOM     27  C   UNL     1      -0.256  -1.244   5.042  1.00  0.00     0.011 A 
ATOM     28  O   UNL     1       2.529   1.213   5.097  1.00  0.00    -0.268 OA
ATOM     29  C   UNL     1      -1.114  -2.337   5.088  1.00  0.00     0.001 A 
ENDBRANCH   9  14
ENDBRANCH   5   8
ENDBRANCH   3   4
ENDBRANCH   2   3
ENDBRANCH   1   2
BRANCH   1  30
ATOM     30  C   UNL     1      -6.988   4.277   7.994  1.00  0.00     0.116 C 
BRANCH  30  31
ATOM     31  N   UNL     1      -6.729   5.649   7.577  1.00  0.00    -0.352 N 
ATOM     32  C   UNL     1      -7.505   6.780   7.692  1.00  0.00     0.251 C 
ATOM     33  H   UNL     1      -5.857   5.790   7.143  1.00  0.00     0.163 HD
ATOM     34  O   UNL     1      -7.135   7.831   7.178  1.00  0.00    -0.269 OA
BRANCH  32  35
ATOM     35  C   UNL     1      -8.808   6.712   8.386  1.00  0.00     0.039 A 
ATOM     36  C   UNL     1      -8.928   6.060   9.613  1.00  0.00     0.014 A 
ATOM     37  C   UNL     1      -9.937   7.258   7.769  1.00  0.00     0.014 A 
ATOM     38  C   UNL     1     -10.191   5.746  10.097  1.00  0.00     0.010 A 
ATOM     39  C   UNL     1     -11.203   7.035   8.320  1.00  0.00     0.010 A 
ATOM     40  C   UNL     1     -11.346   6.213   9.447  1.00  0.00    -0.014 A 
BRANCH  40  41
ATOM     41  C   UNL     1     -12.683   5.789   9.943  1.00  0.00     0.031 A 
ATOM     42  C   UNL     1     -13.594   4.952   9.081  1.00  0.00     0.074 A 
ATOM     43  C   UNL     1     -13.042   6.085  11.207  1.00  0.00     0.049 A 
ATOM     44  N   UNL     1     -14.776   4.463   9.361  1.00  0.00    -0.248 NA
ATOM     45  C   UNL     1     -13.121   4.623   7.726  1.00  0.00     0.031 C 
ATOM     46  C   UNL     1     -12.237   6.866  12.148  1.00  0.00     0.029 A 
ATOM     47  N   UNL     1     -14.151   5.733  11.932  1.00  0.00    -0.354 N 
ATOM     48  C   UNL     1     -15.195   3.791   8.218  1.00  0.00     0.074 A 
ATOM     49  C   UNL     1     -14.155   3.962   7.227  1.00  0.00     0.031 C 
ATOM     50  C   UNL     1     -12.839   6.868  13.345  1.00  0.00     0.029 A 
ATOM     51  C   UNL     1     -14.107   6.152  13.240  1.00  0.00     0.049 A 
ATOM     52  H   UNL     1     -14.907   5.228  11.552  1.00  0.00     0.167 HD
ATOM     53  C   UNL     1     -16.334   3.085   8.016  1.00  0.00     0.037 A 
ATOM     54  C   UNL     1     -14.988   5.988  14.245  1.00  0.00     0.037 A 
ATOM     55  C   UNL     1     -17.357   2.897   9.013  1.00  0.00     0.049 A 
ATOM     56  C   UNL     1     -16.264   5.244  13.986  1.00  0.00     0.074 A 
ATOM     57  C   UNL     1     -18.543   2.192   8.908  1.00  0.00     0.029 A 
ATOM     58  N   UNL     1     -17.312   3.413  10.300  1.00  0.00    -0.354 N 
ATOM     59  N   UNL     1     -16.654   4.639  12.890  1.00  0.00    -0.248 NA
ATOM     60  C   UNL     1     -17.229   5.179  15.091  1.00  0.00     0.031 C 
ATOM     61  C   UNL     1     -19.233   2.313  10.120  1.00  0.00     0.029 A 
ATOM     62  C   UNL     1     -18.459   3.060  10.993  1.00  0.00     0.049 A 
ATOM     63  H   UNL     1     -16.574   3.952  10.667  1.00  0.00     0.167 HD
ATOM     64  C   UNL     1     -17.912   4.122  13.170  1.00  0.00     0.074 A 
ATOM     65  C   UNL     1     -18.208   4.467  14.547  1.00  0.00     0.031 C 
ATOM     66  C   UNL     1     -18.747   3.428  12.358  1.00  0.00     0.037 A 
BRANCH  53  67
ATOM     67  C   UNL     1     -16.540   2.479   6.654  1.00  0.00     0.058 A 
ATOM     68  C   UNL     1     -15.799   1.368   6.220  1.00  0.00     0.135 A 
ATOM     69  C   UNL     1     -17.496   3.012   5.773  1.00  0.00     0.135 A 
ATOM     70  F   UNL     1     -14.862   0.828   7.015  1.00  0.00    -0.206 F 
ATOM     71  C   UNL     1     -15.971   0.831   4.947  1.00  0.00     0.059 A 
ATOM     72  C   UNL     1     -17.702   2.475   4.505  1.00  0.00     0.059 A 
ATOM     73  F   UNL     1     -18.235   4.071   6.138  1.00  0.00    -0.206 F 
ATOM     74  C   UNL     1     -16.919   1.397   4.093  1.00  0.00     0.060 A 
BRANCH  74  75
ATOM     75  S   UNL     1     -17.106   0.710   2.434  1.00  0.00     0.124 S 
ATOM     76  O   UNL     1     -15.899   1.204   1.779  1.00  0.00    -0.237 OA
ATOM     77  O   UNL     1     -17.144  -0.726   2.691  1.00  0.00    -0.237 OA
ATOM     78  O   UNL     1     -18.359   1.293   1.963  1.00  0.00    -0.744 OA
ENDBRANCH  74  75
ENDBRANCH  53  67
BRANCH  54  79
ATOM     79  C   UNL     1     -14.665   6.539  15.585  1.00  0.00     0.058 A 
ATOM     80  C   UNL     1     -14.288   5.692  16.636  1.00  0.00     0.135 A 
ATOM     81  C   UNL     1     -14.637   7.924  15.814  1.00  0.00     0.135 A 
ATOM     82  F   UNL     1     -14.307   4.361  16.465  1.00  0.00    -0.206 F 
ATOM     83  C   UNL     1     -13.872   6.198  17.863  1.00  0.00     0.059 A 
ATOM     84  C   UNL     1     -14.204   8.454  17.024  1.00  0.00     0.059 A 
ATOM     85  F   UNL     1     -14.977   8.774  14.833  1.00  0.00    -0.206 F 
ATOM     86  C   UNL     1     -13.819   7.582  18.042  1.00  0.00     0.060 A 
BRANCH  86  87
ATOM     87  S   UNL     1     -13.168   8.228  19.598  1.00  0.00     0.124 S 
ATOM     88  O   UNL     1     -14.257   7.927  20.520  1.00  0.00    -0.237 OA
ATOM     89  O   UNL     1     -11.950   7.442  19.768  1.00  0.00    -0.237 OA
ATOM     90  O   UNL     1     -12.956   9.644  19.311  1.00  0.00    -0.744 OA
ENDBRANCH  86  87
ENDBRANCH  54  79
BRANCH  66  91
ATOM     91  C   UNL     1     -20.069   3.005  12.931  1.00  0.00     0.058 A 
ATOM     92  C   UNL     1     -21.115   3.924  13.105  1.00  0.00     0.135 A 
ATOM     93  C   UNL     1     -20.313   1.660  13.252  1.00  0.00     0.135 A 
ATOM     94  F   UNL     1     -20.928   5.222  12.822  1.00  0.00    -0.206 F 
ATOM     95  C   UNL     1     -22.357   3.526  13.589  1.00  0.00     0.059 A 
ATOM     96  C   UNL     1     -21.554   1.236  13.717  1.00  0.00     0.059 A 
ATOM     97  F   UNL     1     -19.347   0.742  13.096  1.00  0.00    -0.206 F 
ATOM     98  C   UNL     1     -22.568   2.178  13.889  1.00  0.00     0.060 A 
BRANCH  98  99
ATOM     99  S   UNL     1     -24.199   1.670  14.473  1.00  0.00     0.124 S 
ATOM    100  O   UNL     1     -24.202   2.198  15.833  1.00  0.00    -0.237 OA
ATOM    101  O   UNL     1     -25.091   2.338  13.531  1.00  0.00    -0.237 OA
ATOM    102  O   UNL     1     -24.160   0.214  14.365  1.00  0.00    -0.744 OA
ENDBRANCH  98  99
ENDBRANCH  66  91
ENDBRANCH  40  41
ENDBRANCH  32  35
ENDBRANCH  30  31
ENDBRANCH   1  30
TORSDOF 15
