REMARK SMILES NC(=O)[C@H]1CN(C(=O)CSc2ccccc2C(=O)NCCCCNC(=O)c2ccc(-c3c4nc(c(-c5c(F)cc(S(=O)(=O)[O-])cc5F)c5ccc([nH]5)c(-c5c(F)cc(S(=O)(=O)[O-])cc5F)c5nc(c(-c6c(F)cc(S(=O)(=O)[O-])cc6F)c6ccc3[nH]6)C=C5)C=C4)cc2)c2ccccc2O1
REMARK SMILES IDX 20 1 19 2 17 3 18 4 16 6 11 7 12 8 13 9 15 10 14 11 10 12
REMARK SMILES IDX 9 13 7 14 8 15 6 16 4 17 5 18 99 19 98 20 93 21 97 22 94 23
REMARK SMILES IDX 96 24 95 25 2 26 1 27 3 30 21 31 22 32 23 33 24 34 25 35
REMARK SMILES IDX 26 37 27 38 28 39 92 40 29 41 91 42 30 43 31 44 32 45 85 46
REMARK SMILES IDX 33 47 90 48 84 49 86 50 34 51 89 52 83 53 82 54 35 56 69 57
REMARK SMILES IDX 48 58 68 59 49 60 52 61 67 62 87 63 50 64 51 65 66 67 88 68
REMARK SMILES IDX 53 69 36 70 37 71 46 72 38 73 39 74 45 75 47 76 40 77 41 78
REMARK SMILES IDX 42 79 43 80 44 81 70 82 71 83 80 84 72 85 73 86 79 87 81 88
REMARK SMILES IDX 74 89 75 90 76 91 77 92 78 93 54 94 55 95 64 96 56 97 57 98
REMARK SMILES IDX 63 99 65 100 58 101 59 102 60 103 61 104 62 105
REMARK H PARENT 19 5 1 28 1 29 24 36 86 55 52 66
REMARK Flexibility Score: inf
ROOT
ATOM      1  C   UNL     1       1.515   1.018  -1.111  1.00  0.00     0.116 C 
ENDROOT
BRANCH   1   2
ATOM      2  N   UNL     1       0.538  -0.050  -0.952  1.00  0.00    -0.352 N 
ATOM      3  C   UNL     1      -0.819  -0.103  -1.205  1.00  0.00     0.252 C 
ATOM      4  O   UNL     1      -1.429  -1.139  -0.947  1.00  0.00    -0.269 OA
ATOM      5  H   UNL     1       0.914  -0.889  -0.598  1.00  0.00     0.163 HD
BRANCH   3   6
ATOM      6  C   UNL     1      -1.608   1.074  -1.607  1.00  0.00     0.053 A 
ATOM      7  C   UNL     1      -1.280   2.018  -2.574  1.00  0.00     0.020 A 
ATOM      8  C   UNL     1      -1.929   3.274  -2.467  1.00  0.00     0.016 A 
ATOM      9  C   UNL     1      -2.987   3.504  -1.577  1.00  0.00     0.001 A 
ATOM     10  C   UNL     1      -2.772   1.256  -0.816  1.00  0.00     0.015 A 
ATOM     11  C   UNL     1      -3.469   2.458  -0.810  1.00  0.00     0.001 A 
BRANCH   7  12
ATOM     12  S   UNL     1      -0.281   1.876  -4.059  1.00  0.00    -0.115 SA
BRANCH  12  13
ATOM     13  C   UNL     1       0.360   0.171  -4.282  1.00  0.00     0.175 C 
BRANCH  13  14
ATOM     14  C   UNL     1      -0.591  -1.001  -4.174  1.00  0.00     0.237 C 
ATOM     15  O   UNL     1      -1.763  -0.857  -4.536  1.00  0.00    -0.274 OA
BRANCH  14  16
ATOM     16  N   UNL     1      -0.047  -2.247  -3.783  1.00  0.00    -0.304 N 
ATOM     17  C   UNL     1       0.543  -3.406  -1.696  1.00  0.00     0.281 C 
ATOM     18  C   UNL     1       1.057  -2.486  -2.814  1.00  0.00     0.181 C 
ATOM     19  O   UNL     1       0.272  -4.701  -2.221  1.00  0.00    -0.477 OA
ATOM     20  C   UNL     1      -0.526  -4.628  -3.337  1.00  0.00     0.144 A 
ATOM     21  C   UNL     1      -0.699  -3.475  -4.133  1.00  0.00     0.086 A 
ATOM     22  C   UNL     1      -1.177  -5.817  -3.649  1.00  0.00     0.049 A 
ATOM     23  C   UNL     1      -1.463  -3.579  -5.296  1.00  0.00     0.030 A 
ATOM     24  C   UNL     1      -1.970  -5.889  -4.787  1.00  0.00     0.004 A 
ATOM     25  C   UNL     1      -2.091  -4.781  -5.622  1.00  0.00     0.002 A 
BRANCH  17  26
ATOM     26  C   UNL     1       1.471  -3.532  -0.493  1.00  0.00     0.260 C 
ATOM     27  N   UNL     1       1.204  -4.556   0.367  1.00  0.00    -0.366 N 
ATOM     28  H   UNL     1       1.768  -4.690   1.163  1.00  0.00     0.159 HD
ATOM     29  H   UNL     1       0.447  -5.161   0.192  1.00  0.00     0.159 HD
ATOM     30  O   UNL     1       2.331  -2.699  -0.204  1.00  0.00    -0.271 OA
ENDBRANCH  17  26
ENDBRANCH  14  16
ENDBRANCH  13  14
ENDBRANCH  12  13
ENDBRANCH   7  12
ENDBRANCH   3   6
ENDBRANCH   1   2
BRANCH   1  31
ATOM     31  C   UNL     1       2.917   0.708  -0.561  1.00  0.00     0.023 C 
BRANCH  31  32
ATOM     32  C   UNL     1       3.935  -0.237  -1.253  1.00  0.00     0.023 C 
BRANCH  32  33
ATOM     33  C   UNL     1       4.007  -0.448  -2.766  1.00  0.00     0.116 C 
BRANCH  33  34
ATOM     34  N   UNL     1       4.956   0.406  -3.450  1.00  0.00    -0.352 N 
ATOM     35  C   UNL     1       6.072   0.079  -4.189  1.00  0.00     0.251 C 
ATOM     36  H   UNL     1       4.776   1.371  -3.375  1.00  0.00     0.163 HD
ATOM     37  O   UNL     1       6.779   0.986  -4.625  1.00  0.00    -0.269 OA
BRANCH  35  38
ATOM     38  C   UNL     1       6.472  -1.331  -4.441  1.00  0.00     0.039 A 
ATOM     39  C   UNL     1       7.797  -1.692  -4.170  1.00  0.00     0.014 A 
ATOM     40  C   UNL     1       5.612  -2.276  -5.012  1.00  0.00     0.014 A 
ATOM     41  C   UNL     1       8.242  -2.997  -4.416  1.00  0.00     0.010 A 
ATOM     42  C   UNL     1       6.050  -3.597  -5.220  1.00  0.00     0.010 A 
ATOM     43  C   UNL     1       7.369  -3.977  -4.919  1.00  0.00    -0.014 A 
BRANCH  43  44
ATOM     44  C   UNL     1       7.842  -5.386  -5.089  1.00  0.00     0.031 A 
ATOM     45  C   UNL     1       7.976  -6.013  -6.455  1.00  0.00     0.074 A 
ATOM     46  C   UNL     1       8.164  -6.116  -4.000  1.00  0.00     0.049 A 
ATOM     47  N   UNL     1       8.399  -7.211  -6.777  1.00  0.00    -0.248 NA
ATOM     48  C   UNL     1       7.574  -5.193  -7.607  1.00  0.00     0.031 C 
ATOM     49  C   UNL     1       8.059  -5.652  -2.615  1.00  0.00     0.029 A 
ATOM     50  N   UNL     1       8.646  -7.399  -3.880  1.00  0.00    -0.354 N 
ATOM     51  C   UNL     1       8.318  -7.290  -8.164  1.00  0.00     0.074 A 
ATOM     52  C   UNL     1       7.759  -6.033  -8.618  1.00  0.00     0.031 C 
ATOM     53  C   UNL     1       8.486  -6.621  -1.790  1.00  0.00     0.029 A 
ATOM     54  C   UNL     1       8.861  -7.793  -2.578  1.00  0.00     0.049 A 
ATOM     55  H   UNL     1       8.822  -7.982  -4.653  1.00  0.00     0.167 HD
ATOM     56  C   UNL     1       8.690  -8.304  -8.985  1.00  0.00     0.037 A 
ATOM     57  C   UNL     1       9.300  -8.961  -2.067  1.00  0.00     0.037 A 
ATOM     58  C   UNL     1       9.253  -9.555  -8.537  1.00  0.00     0.049 A 
ATOM     59  C   UNL     1       9.677 -10.084  -2.998  1.00  0.00     0.074 A 
ATOM     60  C   UNL     1       9.700 -10.620  -9.302  1.00  0.00     0.029 A 
ATOM     61  N   UNL     1       9.438  -9.918  -7.211  1.00  0.00    -0.354 N 
ATOM     62  N   UNL     1       9.652 -10.112  -4.309  1.00  0.00    -0.248 NA
ATOM     63  C   UNL     1      10.148 -11.333  -2.382  1.00  0.00     0.031 C 
ATOM     64  C   UNL     1      10.101 -11.646  -8.441  1.00  0.00     0.029 A 
ATOM     65  C   UNL     1       9.964 -11.199  -7.137  1.00  0.00     0.049 A 
ATOM     66  H   UNL     1       9.227  -9.349  -6.435  1.00  0.00     0.167 HD
ATOM     67  C   UNL     1      10.130 -11.367  -4.673  1.00  0.00     0.074 A 
ATOM     68  C   UNL     1      10.451 -12.064  -3.446  1.00  0.00     0.031 C 
ATOM     69  C   UNL     1      10.289 -11.891  -5.914  1.00  0.00     0.037 A 
BRANCH  56  70
ATOM     70  C   UNL     1       8.502  -8.115 -10.469  1.00  0.00     0.058 A 
ATOM     71  C   UNL     1       9.294  -7.221 -11.206  1.00  0.00     0.135 A 
ATOM     72  C   UNL     1       7.564  -8.888 -11.176  1.00  0.00     0.135 A 
ATOM     73  F   UNL     1      10.202  -6.451 -10.584  1.00  0.00    -0.206 F 
ATOM     74  C   UNL     1       9.147  -7.079 -12.583  1.00  0.00     0.059 A 
ATOM     75  C   UNL     1       7.420  -8.784 -12.558  1.00  0.00     0.059 A 
ATOM     76  F   UNL     1       6.784  -9.765 -10.526  1.00  0.00    -0.206 F 
ATOM     77  C   UNL     1       8.208  -7.866 -13.250  1.00  0.00     0.060 A 
BRANCH  77  78
ATOM     78  S   UNL     1       8.038  -7.676 -15.038  1.00  0.00     0.124 S 
ATOM     79  O   UNL     1       7.410  -6.362 -15.133  1.00  0.00    -0.237 OA
ATOM     80  O   UNL     1       9.423  -7.749 -15.492  1.00  0.00    -0.237 OA
ATOM     81  O   UNL     1       7.194  -8.803 -15.423  1.00  0.00    -0.744 OA
ENDBRANCH  77  78
ENDBRANCH  56  70
BRANCH  57  82
ATOM     82  C   UNL     1       9.412  -9.135  -0.592  1.00  0.00     0.058 A 
ATOM     83  C   UNL     1      10.660  -9.269   0.035  1.00  0.00     0.135 A 
ATOM     84  C   UNL     1       8.268  -9.178   0.222  1.00  0.00     0.135 A 
ATOM     85  F   UNL     1      11.784  -9.247  -0.698  1.00  0.00    -0.206 F 
ATOM     86  C   UNL     1      10.771  -9.459   1.409  1.00  0.00     0.059 A 
ATOM     87  C   UNL     1       8.355  -9.335   1.601  1.00  0.00     0.059 A 
ATOM     88  F   UNL     1       7.049  -9.043  -0.324  1.00  0.00    -0.206 F 
ATOM     89  C   UNL     1       9.611  -9.488   2.184  1.00  0.00     0.060 A 
BRANCH  89  90
ATOM     90  S   UNL     1       9.767  -9.694   3.972  1.00  0.00     0.124 S 
ATOM     91  O   UNL     1      10.157 -11.095   4.074  1.00  0.00    -0.237 OA
ATOM     92  O   UNL     1      10.799  -8.716   4.304  1.00  0.00    -0.237 OA
ATOM     93  O   UNL     1       8.430  -9.373   4.464  1.00  0.00    -0.744 OA
ENDBRANCH  89  90
ENDBRANCH  57  82
BRANCH  69  94
ATOM     94  C   UNL     1      10.869 -13.278  -6.018  1.00  0.00     0.058 A 
ATOM     95  C   UNL     1      10.144 -14.417  -5.633  1.00  0.00     0.135 A 
ATOM     96  C   UNL     1      12.152 -13.474  -6.556  1.00  0.00     0.135 A 
ATOM     97  F   UNL     1       8.915 -14.290  -5.106  1.00  0.00    -0.206 F 
ATOM     98  C   UNL     1      10.679 -15.697  -5.753  1.00  0.00     0.059 A 
ATOM     99  C   UNL     1      12.695 -14.746  -6.714  1.00  0.00     0.059 A 
ATOM    100  F   UNL     1      12.888 -12.423  -6.950  1.00  0.00    -0.206 F 
ATOM    101  C   UNL     1      11.955 -15.852  -6.298  1.00  0.00     0.060 A 
BRANCH 101 102
ATOM    102  S   UNL     1      12.623 -17.520  -6.478  1.00  0.00     0.124 S 
ATOM    103  O   UNL     1      12.910 -17.873  -5.091  1.00  0.00    -0.237 OA
ATOM    104  O   UNL     1      11.512 -18.236  -7.097  1.00  0.00    -0.237 OA
ATOM    105  O   UNL     1      13.791 -17.329  -7.332  1.00  0.00    -0.744 OA
ENDBRANCH 101 102
ENDBRANCH  69  94
ENDBRANCH  43  44
ENDBRANCH  35  38
ENDBRANCH  33  34
ENDBRANCH  32  33
ENDBRANCH  31  32
ENDBRANCH   1  31
TORSDOF 19
