REMARK SMILES CC1=C2C(=O)N(C[C@H]3CCCO3)C(=O)N=C2S[C@@H]1C(=O)NCCCCNC(=O)c1ccc(-c2c3nc(c(-c4c(F)cc(S(=O)(=O)[O-])cc4F)c4ccc([nH]4)c(-c4c(F)cc(S(=O)(=O)[O-])cc4F)c4nc(c(-c5c(F)cc(S(=O)(=O)[O-])cc5F)c5ccc2[nH]5)C=C4)C=C3)cc1
REMARK SMILES IDX 24 1 23 2 22 3 21 4 19 5 20 6 18 8 1 9 2 10 3 11 4 12 16 13
REMARK SMILES IDX 17 14 5 15 6 16 15 17 13 18 14 19 7 20 8 21 9 22 12 23 10 24
REMARK SMILES IDX 11 25 25 26 26 27 27 28 28 30 29 31 30 32 94 33 31 34 93 35
REMARK SMILES IDX 32 36 33 37 34 38 87 39 35 40 92 41 86 42 88 43 36 44 91 45
REMARK SMILES IDX 85 46 84 47 37 49 71 50 50 51 70 52 51 53 54 54 69 55 89 56
REMARK SMILES IDX 52 57 53 58 68 60 90 61 55 62 38 63 39 64 48 65 40 66 41 67
REMARK SMILES IDX 47 68 49 69 42 70 43 71 44 72 45 73 46 74 72 75 73 76 82 77
REMARK SMILES IDX 74 78 75 79 81 80 83 81 76 82 77 83 78 84 79 85 80 86 56 87
REMARK SMILES IDX 57 88 66 89 58 90 59 91 65 92 67 93 60 94 61 95 62 96 63 97
REMARK SMILES IDX 64 98
REMARK H PARENT 21 7 26 29 88 48 54 59
REMARK Flexibility Score: inf
ROOT
ATOM      1  C   UNL     1      10.029   0.927   1.818  1.00  0.00     0.023 C 
ENDROOT
BRANCH   1   2
ATOM      2  C   UNL     1       9.432  -0.467   1.621  1.00  0.00     0.023 C 
BRANCH   2   3
ATOM      3  C   UNL     1       8.710  -0.652   0.292  1.00  0.00     0.116 C 
BRANCH   3   4
ATOM      4  N   UNL     1       9.641  -0.772  -0.814  1.00  0.00    -0.355 N 
ATOM      5  C   UNL     1      10.003  -1.845  -1.573  1.00  0.00     0.237 C 
ATOM      6  O   UNL     1      10.847  -1.651  -2.455  1.00  0.00    -0.273 OA
ATOM      7  H   UNL     1      10.090   0.069  -1.060  1.00  0.00     0.163 HD
BRANCH   5   8
ATOM      8  C   UNL     1       9.355  -3.229  -1.434  1.00  0.00     0.169 C 
ATOM      9  C   UNL     1       7.266  -2.669  -2.858  1.00  0.00     0.042 C 
ATOM     10  C   UNL     1       7.864  -3.225  -1.601  1.00  0.00    -0.035 C 
ATOM     11  C   UNL     1       7.172  -3.765  -0.588  1.00  0.00     0.073 C 
ATOM     12  C   UNL     1       5.732  -3.924  -0.462  1.00  0.00     0.264 C 
ATOM     13  C   UNL     1       7.989  -4.285   0.488  1.00  0.00     0.116 C 
ATOM     14  S   UNL     1       9.680  -3.989   0.197  1.00  0.00    -0.087 SA
ATOM     15  O   UNL     1       4.978  -3.320  -1.208  1.00  0.00    -0.268 OA
ATOM     16  N   UNL     1       5.358  -4.809   0.522  1.00  0.00    -0.256 N 
ATOM     17  N   UNL     1       7.543  -4.888   1.525  1.00  0.00    -0.186 NA
ATOM     18  C   UNL     1       6.193  -5.156   1.597  1.00  0.00     0.351 C 
ATOM     19  O   UNL     1       5.736  -5.724   2.587  1.00  0.00    -0.246 OA
BRANCH  16  20
ATOM     20  C   UNL     1       4.094  -5.528   0.358  1.00  0.00     0.163 C 
BRANCH  20  21
ATOM     21  C   UNL     1       2.747  -4.774   0.466  1.00  0.00     0.138 C 
ATOM     22  C   UNL     1       2.207  -4.063  -0.771  1.00  0.00     0.036 C 
ATOM     23  O   UNL     1       1.740  -5.808   0.682  1.00  0.00    -0.376 OA
ATOM     24  C   UNL     1       1.699  -5.199  -1.619  1.00  0.00     0.031 C 
ATOM     25  C   UNL     1       1.082  -6.094  -0.569  1.00  0.00     0.160 C 
ENDBRANCH  20  21
ENDBRANCH  16  20
ENDBRANCH   5   8
ENDBRANCH   3   4
ENDBRANCH   2   3
ENDBRANCH   1   2
BRANCH   1  26
ATOM     26  C   UNL     1       9.030   2.078   1.735  1.00  0.00     0.116 C 
BRANCH  26  27
ATOM     27  N   UNL     1       7.924   1.951   2.673  1.00  0.00    -0.352 N 
ATOM     28  C   UNL     1       7.311   2.936   3.410  1.00  0.00     0.251 C 
ATOM     29  H   UNL     1       7.569   1.041   2.794  1.00  0.00     0.163 HD
ATOM     30  O   UNL     1       6.452   2.646   4.236  1.00  0.00    -0.269 OA
BRANCH  28  31
ATOM     31  C   UNL     1       7.730   4.340   3.224  1.00  0.00     0.039 A 
ATOM     32  C   UNL     1       8.101   5.085   4.345  1.00  0.00     0.014 A 
ATOM     33  C   UNL     1       7.807   4.895   1.944  1.00  0.00     0.014 A 
ATOM     34  C   UNL     1       8.630   6.366   4.174  1.00  0.00     0.010 A 
ATOM     35  C   UNL     1       8.387   6.149   1.772  1.00  0.00     0.010 A 
ATOM     36  C   UNL     1       8.816   6.889   2.884  1.00  0.00    -0.014 A 
BRANCH  36  37
ATOM     37  C   UNL     1       9.485   8.197   2.675  1.00  0.00     0.031 A 
ATOM     38  C   UNL     1       8.722   9.350   2.086  1.00  0.00     0.074 A 
ATOM     39  C   UNL     1      10.800   8.319   2.943  1.00  0.00     0.049 A 
ATOM     40  N   UNL     1       9.155  10.533   1.738  1.00  0.00    -0.248 NA
ATOM     41  C   UNL     1       7.288   9.136   1.833  1.00  0.00     0.031 C 
ATOM     42  C   UNL     1      11.662   7.255   3.467  1.00  0.00     0.029 A 
ATOM     43  N   UNL     1      11.649   9.388   2.797  1.00  0.00    -0.354 N 
ATOM     44  C   UNL     1       8.055  11.200   1.214  1.00  0.00     0.074 A 
ATOM     45  C   UNL     1       6.943  10.275   1.250  1.00  0.00     0.031 C 
ATOM     46  C   UNL     1      12.911   7.728   3.608  1.00  0.00     0.029 A 
ATOM     47  C   UNL     1      12.948   9.116   3.157  1.00  0.00     0.049 A 
ATOM     48  H   UNL     1      11.355  10.267   2.466  1.00  0.00     0.167 HD
ATOM     49  C   UNL     1       7.975  12.475   0.763  1.00  0.00     0.037 A 
ATOM     50  C   UNL     1      14.047   9.893   3.117  1.00  0.00     0.037 A 
ATOM     51  C   UNL     1       9.076  13.402   0.756  1.00  0.00     0.049 A 
ATOM     52  C   UNL     1      13.926  11.311   2.629  1.00  0.00     0.074 A 
ATOM     53  C   UNL     1       9.082  14.729   0.364  1.00  0.00     0.029 A 
ATOM     54  N   UNL     1      10.366  13.101   1.168  1.00  0.00    -0.354 N 
ATOM     55  N   UNL     1      12.866  11.939   2.182  1.00  0.00    -0.248 NA
ATOM     56  C   UNL     1      15.149  12.127   2.646  1.00  0.00     0.031 C 
ATOM     57  C   UNL     1      10.382  15.225   0.516  1.00  0.00     0.029 A 
ATOM     58  C   UNL     1      11.177  14.215   1.032  1.00  0.00     0.049 A 
ATOM     59  H   UNL     1      10.662  12.225   1.507  1.00  0.00     0.167 HD
ATOM     60  C   UNL     1      13.289  13.229   1.881  1.00  0.00     0.074 A 
ATOM     61  C   UNL     1      14.698  13.296   2.211  1.00  0.00     0.031 C 
ATOM     62  C   UNL     1      12.576  14.264   1.375  1.00  0.00     0.037 A 
BRANCH  49  63
ATOM     63  C   UNL     1       6.644  12.950   0.257  1.00  0.00     0.058 A 
ATOM     64  C   UNL     1       5.586  13.229   1.137  1.00  0.00     0.135 A 
ATOM     65  C   UNL     1       6.435  13.172  -1.113  1.00  0.00     0.135 A 
ATOM     66  F   UNL     1       5.729  13.017   2.454  1.00  0.00    -0.206 F 
ATOM     67  C   UNL     1       4.360  13.694   0.674  1.00  0.00     0.059 A 
ATOM     68  C   UNL     1       5.223  13.657  -1.597  1.00  0.00     0.059 A 
ATOM     69  F   UNL     1       7.413  12.917  -1.997  1.00  0.00    -0.206 F 
ATOM     70  C   UNL     1       4.188  13.905  -0.695  1.00  0.00     0.060 A 
BRANCH  70  71
ATOM     71  S   UNL     1       2.596  14.523  -1.280  1.00  0.00     0.124 S 
ATOM     72  O   UNL     1       1.767  13.325  -1.185  1.00  0.00    -0.237 OA
ATOM     73  O   UNL     1       2.295  15.578  -0.316  1.00  0.00    -0.237 OA
ATOM     74  O   UNL     1       2.886  14.981  -2.635  1.00  0.00    -0.744 OA
ENDBRANCH  70  71
ENDBRANCH  49  63
BRANCH  50  75
ATOM     75  C   UNL     1      15.358   9.355   3.562  1.00  0.00     0.058 A 
ATOM     76  C   UNL     1      15.937   9.774   4.768  1.00  0.00     0.135 A 
ATOM     77  C   UNL     1      16.060   8.418   2.788  1.00  0.00     0.135 A 
ATOM     78  F   UNL     1      15.304  10.672   5.538  1.00  0.00    -0.206 F 
ATOM     79  C   UNL     1      17.177   9.302   5.184  1.00  0.00     0.059 A 
ATOM     80  C   UNL     1      17.292   7.915   3.193  1.00  0.00     0.059 A 
ATOM     81  F   UNL     1      15.539   7.972   1.635  1.00  0.00    -0.206 F 
ATOM     82  C   UNL     1      17.850   8.374   4.386  1.00  0.00     0.060 A 
BRANCH  82  83
ATOM     83  S   UNL     1      19.446   7.740   4.944  1.00  0.00     0.124 S 
ATOM     84  O   UNL     1      20.335   8.842   4.597  1.00  0.00    -0.237 OA
ATOM     85  O   UNL     1      19.215   7.530   6.370  1.00  0.00    -0.237 OA
ATOM     86  O   UNL     1      19.611   6.520   4.159  1.00  0.00    -0.744 OA
ENDBRANCH  82  83
ENDBRANCH  50  75
BRANCH  62  87
ATOM     87  C   UNL     1      13.300  15.564   1.172  1.00  0.00     0.058 A 
ATOM     88  C   UNL     1      14.182  15.750   0.097  1.00  0.00     0.135 A 
ATOM     89  C   UNL     1      13.071  16.648   2.033  1.00  0.00     0.135 A 
ATOM     90  F   UNL     1      14.438  14.740  -0.749  1.00  0.00    -0.206 F 
ATOM     91  C   UNL     1      14.828  16.964  -0.108  1.00  0.00     0.059 A 
ATOM     92  C   UNL     1      13.690  17.878   1.835  1.00  0.00     0.059 A 
ATOM     93  F   UNL     1      12.229  16.521   3.071  1.00  0.00    -0.206 F 
ATOM     94  C   UNL     1      14.575  18.023   0.767  1.00  0.00     0.060 A 
BRANCH  94  95
ATOM     95  S   UNL     1      15.390  19.607   0.472  1.00  0.00     0.124 S 
ATOM     96  O   UNL     1      16.732  19.346   0.982  1.00  0.00    -0.237 OA
ATOM     97  O   UNL     1      15.280  19.753  -0.976  1.00  0.00    -0.237 OA
ATOM     98  O   UNL     1      14.592  20.548   1.252  1.00  0.00    -0.744 OA
ENDBRANCH  94  95
ENDBRANCH  62  87
ENDBRANCH  36  37
ENDBRANCH  28  31
ENDBRANCH  26  27
ENDBRANCH   1  26
TORSDOF 16
