REMARK SMILES O=C(NCCCCNC(=O)[C@H]1C=C[C@H](Nc2ccc([N+](=O)[O-])cc2C(F)F)C1)c1ccc(-c2c3nc(c(-c4c(F)cc(S(=O)(=O)[O-])cc4F)c4ccc([nH]4)c(-c4c(F)cc(S(=O)(=O)[O-])cc4F)c4nc(c(-c5c(F)cc(S(=O)(=O)[O-])cc5F)c5ccc2[nH]5)C=C4)C=C3)cc1
REMARK SMILES IDX 5 1 4 2 3 3 1 4 2 5 29 7 30 8 94 9 31 10 93 11 32 12 33 13
REMARK SMILES IDX 34 14 87 15 35 16 92 17 86 18 88 19 36 20 91 21 85 22 84 23
REMARK SMILES IDX 37 25 71 26 50 27 70 28 51 29 54 30 69 31 89 32 52 33 53 34
REMARK SMILES IDX 68 36 90 37 55 38 38 39 39 40 48 41 40 42 41 43 47 44 49 45
REMARK SMILES IDX 42 46 43 47 44 48 45 49 46 50 72 51 73 52 82 53 74 54 75 55
REMARK SMILES IDX 81 56 83 57 76 58 77 59 78 60 79 61 80 62 56 63 57 64 66 65
REMARK SMILES IDX 58 66 59 67 65 68 67 69 60 70 61 71 62 72 63 73 64 74 6 75
REMARK SMILES IDX 7 76 8 77 9 78 10 80 11 81 12 82 28 83 13 84 14 85 15 86
REMARK SMILES IDX 16 88 17 89 24 90 18 91 23 92 19 93 25 94 26 95 27 96 20 97
REMARK SMILES IDX 21 98 22 99
REMARK H PARENT 3 6 88 24 54 35 8 79 15 87
REMARK Flexibility Score: inf
ROOT
ATOM      1  C   UNL     1       5.078  -2.099  -1.617  1.00  0.00     0.023 C 
ENDROOT
BRANCH   1   2
ATOM      2  C   UNL     1       4.723  -0.752  -1.001  1.00  0.00     0.116 C 
BRANCH   2   3
ATOM      3  N   UNL     1       3.293  -0.487  -0.972  1.00  0.00    -0.352 N 
ATOM      4  O   UNL     1       1.294   0.006  -0.043  1.00  0.00    -0.269 OA
ATOM      5  C   UNL     1       2.512  -0.074   0.084  1.00  0.00     0.251 C 
ATOM      6  H   UNL     1       2.818  -0.621  -1.824  1.00  0.00     0.163 HD
BRANCH   5   7
ATOM      7  C   UNL     1       3.152   0.234   1.379  1.00  0.00     0.039 A 
ATOM      8  C   UNL     1       4.285   1.047   1.431  1.00  0.00     0.014 A 
ATOM      9  C   UNL     1       2.638  -0.337   2.547  1.00  0.00     0.014 A 
ATOM     10  C   UNL     1       4.995   1.159   2.619  1.00  0.00     0.010 A 
ATOM     11  C   UNL     1       3.307  -0.152   3.760  1.00  0.00     0.010 A 
ATOM     12  C   UNL     1       4.513   0.565   3.798  1.00  0.00    -0.014 A 
BRANCH  12  13
ATOM     13  C   UNL     1       5.268   0.752   5.062  1.00  0.00     0.031 A 
ATOM     14  C   UNL     1       5.918  -0.409   5.763  1.00  0.00     0.074 A 
ATOM     15  C   UNL     1       5.398   2.001   5.552  1.00  0.00     0.049 A 
ATOM     16  N   UNL     1       6.635  -0.409   6.858  1.00  0.00    -0.248 NA
ATOM     17  C   UNL     1       5.735  -1.742   5.168  1.00  0.00     0.031 C 
ATOM     18  C   UNL     1       4.796   3.201   4.962  1.00  0.00     0.029 A 
ATOM     19  N   UNL     1       6.090   2.475   6.635  1.00  0.00    -0.354 N 
ATOM     20  C   UNL     1       6.970  -1.737   7.098  1.00  0.00     0.074 A 
ATOM     21  C   UNL     1       6.363  -2.519   6.042  1.00  0.00     0.031 C 
ATOM     22  C   UNL     1       5.186   4.277   5.660  1.00  0.00     0.029 A 
ATOM     23  C   UNL     1       6.016   3.840   6.777  1.00  0.00     0.049 A 
ATOM     24  H   UNL     1       6.591   1.894   7.251  1.00  0.00     0.167 HD
ATOM     25  C   UNL     1       7.718  -2.251   8.104  1.00  0.00     0.037 A 
ATOM     26  C   UNL     1       6.548   4.652   7.709  1.00  0.00     0.037 A 
ATOM     27  C   UNL     1       8.338  -1.462   9.138  1.00  0.00     0.049 A 
ATOM     28  C   UNL     1       7.382   4.058   8.803  1.00  0.00     0.074 A 
ATOM     29  C   UNL     1       9.142  -1.887  10.182  1.00  0.00     0.029 A 
ATOM     30  N   UNL     1       8.228  -0.084   9.257  1.00  0.00    -0.354 N 
ATOM     31  N   UNL     1       7.700   2.801   9.003  1.00  0.00    -0.248 NA
ATOM     32  C   UNL     1       7.926   4.987   9.801  1.00  0.00     0.031 C 
ATOM     33  C   UNL     1       9.491  -0.770  10.950  1.00  0.00     0.029 A 
ATOM     34  C   UNL     1       8.935   0.355  10.364  1.00  0.00     0.049 A 
ATOM     35  H   UNL     1       7.721   0.497   8.645  1.00  0.00     0.167 HD
ATOM     36  C   UNL     1       8.484   2.787  10.148  1.00  0.00     0.074 A 
ATOM     37  C   UNL     1       8.611   4.164  10.584  1.00  0.00     0.031 C 
ATOM     38  C   UNL     1       9.043   1.730  10.786  1.00  0.00     0.037 A 
BRANCH  25  39
ATOM     39  C   UNL     1       7.898  -3.744   8.150  1.00  0.00     0.058 A 
ATOM     40  C   UNL     1       8.755  -4.411   7.261  1.00  0.00     0.135 A 
ATOM     41  C   UNL     1       7.241  -4.511   9.126  1.00  0.00     0.135 A 
ATOM     42  F   UNL     1       9.396  -3.729   6.299  1.00  0.00    -0.206 F 
ATOM     43  C   UNL     1       8.939  -5.790   7.326  1.00  0.00     0.059 A 
ATOM     44  C   UNL     1       7.426  -5.887   9.222  1.00  0.00     0.059 A 
ATOM     45  F   UNL     1       6.411  -3.922  10.001  1.00  0.00    -0.206 F 
ATOM     46  C   UNL     1       8.268  -6.520   8.308  1.00  0.00     0.060 A 
BRANCH  46  47
ATOM     47  S   UNL     1       8.519  -8.306   8.384  1.00  0.00     0.124 S 
ATOM     48  O   UNL     1       7.711  -8.761   7.257  1.00  0.00    -0.237 OA
ATOM     49  O   UNL     1       9.964  -8.429   8.217  1.00  0.00    -0.237 OA
ATOM     50  O   UNL     1       8.012  -8.665   9.705  1.00  0.00    -0.744 OA
ENDBRANCH  46  47
ENDBRANCH  25  39
BRANCH  26  51
ATOM     51  C   UNL     1       6.295   6.113   7.633  1.00  0.00     0.058 A 
ATOM     52  C   UNL     1       7.306   7.002   7.245  1.00  0.00     0.135 A 
ATOM     53  C   UNL     1       5.020   6.639   7.894  1.00  0.00     0.135 A 
ATOM     54  F   UNL     1       8.540   6.543   6.987  1.00  0.00    -0.206 F 
ATOM     55  C   UNL     1       7.065   8.366   7.121  1.00  0.00     0.059 A 
ATOM     56  C   UNL     1       4.749   7.995   7.754  1.00  0.00     0.059 A 
ATOM     57  F   UNL     1       4.015   5.823   8.248  1.00  0.00    -0.206 F 
ATOM     58  C   UNL     1       5.781   8.852   7.373  1.00  0.00     0.060 A 
BRANCH  58  59
ATOM     59  S   UNL     1       5.452  10.612   7.136  1.00  0.00     0.124 S 
ATOM     60  O   UNL     1       6.007  11.180   8.359  1.00  0.00    -0.237 OA
ATOM     61  O   UNL     1       6.185  10.902   5.907  1.00  0.00    -0.237 OA
ATOM     62  O   UNL     1       3.998  10.665   7.014  1.00  0.00    -0.744 OA
ENDBRANCH  58  59
ENDBRANCH  26  51
BRANCH  38  63
ATOM     63  C   UNL     1       9.850   2.028  12.016  1.00  0.00     0.058 A 
ATOM     64  C   UNL     1       9.232   2.352  13.233  1.00  0.00     0.135 A 
ATOM     65  C   UNL     1      11.251   1.965  11.983  1.00  0.00     0.135 A 
ATOM     66  F   UNL     1       7.894   2.433  13.311  1.00  0.00    -0.206 F 
ATOM     67  C   UNL     1       9.978   2.630  14.373  1.00  0.00     0.059 A 
ATOM     68  C   UNL     1      12.017   2.218  13.116  1.00  0.00     0.059 A 
ATOM     69  F   UNL     1      11.888   1.652  10.844  1.00  0.00    -0.206 F 
ATOM     70  C   UNL     1      11.371   2.563  14.304  1.00  0.00     0.060 A 
BRANCH  70  71
ATOM     71  S   UNL     1      12.333   2.906  15.792  1.00  0.00     0.124 S 
ATOM     72  O   UNL     1      12.293   4.364  15.836  1.00  0.00    -0.237 OA
ATOM     73  O   UNL     1      11.568   2.220  16.829  1.00  0.00    -0.237 OA
ATOM     74  O   UNL     1      13.636   2.321  15.494  1.00  0.00    -0.744 OA
ENDBRANCH  70  71
ENDBRANCH  38  63
ENDBRANCH  12  13
ENDBRANCH   5   7
ENDBRANCH   2   3
ENDBRANCH   1   2
BRANCH   1  75
ATOM     75  C   UNL     1       4.594  -2.311  -3.048  1.00  0.00     0.023 C 
BRANCH  75  76
ATOM     76  C   UNL     1       4.934  -1.188  -4.019  1.00  0.00     0.116 C 
BRANCH  76  77
ATOM     77  N   UNL     1       6.357  -1.015  -4.222  1.00  0.00    -0.356 N 
ATOM     78  C   UNL     1       7.109  -1.022  -5.355  1.00  0.00     0.227 C 
ATOM     79  H   UNL     1       6.870  -0.867  -3.395  1.00  0.00     0.163 HD
ATOM     80  O   UNL     1       8.322  -0.822  -5.226  1.00  0.00    -0.274 OA
BRANCH  78  81
ATOM     81  C   UNL     1       6.532  -1.298  -6.747  1.00  0.00     0.103 C 
ATOM     82  C   UNL     1       6.062  -2.708  -6.906  1.00  0.00    -0.016 C 
ATOM     83  C   UNL     1       5.339  -0.439  -7.185  1.00  0.00     0.046 C 
ATOM     84  C   UNL     1       4.796  -2.764  -7.330  1.00  0.00    -0.006 C 
ATOM     85  C   UNL     1       4.181  -1.412  -7.500  1.00  0.00     0.103 C 
BRANCH  85  86
ATOM     86  N   UNL     1       3.712  -1.244  -8.867  1.00  0.00    -0.378 N 
ATOM     87  H   UNL     1       4.126  -0.552  -9.431  1.00  0.00     0.161 HD
BRANCH  86  88
ATOM     88  C   UNL     1       2.695  -2.030  -9.403  1.00  0.00     0.044 A 
ATOM     89  C   UNL     1       3.010  -2.763 -10.565  1.00  0.00     0.033 A 
ATOM     90  C   UNL     1       1.417  -2.197  -8.835  1.00  0.00     0.048 A 
ATOM     91  C   UNL     1       2.105  -3.650 -11.150  1.00  0.00     0.088 A 
ATOM     92  C   UNL     1       0.507  -3.109  -9.417  1.00  0.00     0.097 A 
ATOM     93  C   UNL     1       0.852  -3.825 -10.568  1.00  0.00     0.270 A 
BRANCH  90  94
ATOM     94  C   UNL     1       0.945  -1.424  -7.629  1.00  0.00     0.375 C 
ATOM     95  F   UNL     1      -0.408  -1.234  -7.623  1.00  0.00    -0.205 F 
ATOM     96  F   UNL     1       1.222  -2.070  -6.461  1.00  0.00    -0.205 F 
ENDBRANCH  90  94
BRANCH  93  97
ATOM     97  N   UNL     1      -0.109  -4.756 -11.171  1.00  0.00     0.062 N 
ATOM     98  O   UNL     1       0.235  -5.348 -12.205  1.00  0.00    -0.258 OA
ATOM     99  O   UNL     1      -1.209  -4.893 -10.618  1.00  0.00    -0.258 OA
ENDBRANCH  93  97
ENDBRANCH  86  88
ENDBRANCH  85  86
ENDBRANCH  78  81
ENDBRANCH  76  77
ENDBRANCH  75  76
ENDBRANCH   1  75
TORSDOF 18
