REMARK SMILES O=C(NCCCCNC(=O)c1c(F)cccc1NC(=O)c1ccc(Cl)nc1)c1ccc(-c2c3nc(c(-c4c(F)cc(S(=O)(=O)[O-])cc4F)c4ccc([nH]4)c(-c4c(F)cc(S(=O)(=O)[O-])cc4F)c4nc(c(-c5c(F)cc(S(=O)(=O)[O-])cc5F)c5ccc2[nH]5)C=C4)C=C3)cc1
REMARK SMILES IDX 5 1 4 2 3 3 1 4 2 5 28 7 29 8 93 9 30 10 92 11 31 12 32 13
REMARK SMILES IDX 33 14 86 15 34 16 91 17 85 18 87 19 35 20 90 21 84 22 83 23
REMARK SMILES IDX 36 25 70 26 49 27 69 28 50 29 53 30 68 31 88 32 51 33 52 34
REMARK SMILES IDX 67 36 89 37 54 38 37 39 38 40 47 41 39 42 40 43 46 44 48 45
REMARK SMILES IDX 41 46 42 47 43 48 44 49 45 50 71 51 72 52 81 53 73 54 74 55
REMARK SMILES IDX 80 56 82 57 75 58 76 59 77 60 78 61 79 62 55 63 56 64 65 65
REMARK SMILES IDX 57 66 58 67 64 68 66 69 59 70 60 71 61 72 62 73 63 74 6 75
REMARK SMILES IDX 7 76 8 77 9 78 10 80 11 81 12 82 17 83 13 84 14 85 16 86
REMARK SMILES IDX 15 87 18 88 19 89 20 91 21 92 22 93 27 94 23 95 26 96 24 97
REMARK SMILES IDX 25 98
REMARK H PARENT 3 6 87 24 53 35 8 79 18 90
REMARK Flexibility Score: inf
ROOT
ATOM      1  C   UNL     1       4.923  -2.681  -0.185  1.00  0.00     0.023 C 
ENDROOT
BRANCH   1   2
ATOM      2  C   UNL     1       4.629  -1.204  -0.431  1.00  0.00     0.116 C 
BRANCH   2   3
ATOM      3  N   UNL     1       3.213  -0.913  -0.611  1.00  0.00    -0.352 N 
ATOM      4  O   UNL     1       1.239   0.116  -0.255  1.00  0.00    -0.269 OA
ATOM      5  C   UNL     1       2.448   0.082  -0.046  1.00  0.00     0.251 C 
ATOM      6  H   UNL     1       2.734  -1.514  -1.226  1.00  0.00     0.163 HD
BRANCH   5   7
ATOM      7  C   UNL     1       3.078   1.080   0.846  1.00  0.00     0.039 A 
ATOM      8  C   UNL     1       4.274   1.705   0.489  1.00  0.00     0.014 A 
ATOM      9  C   UNL     1       2.476   1.367   2.076  1.00  0.00     0.014 A 
ATOM     10  C   UNL     1       4.952   2.477   1.426  1.00  0.00     0.010 A 
ATOM     11  C   UNL     1       3.124   2.205   2.989  1.00  0.00     0.010 A 
ATOM     12  C   UNL     1       4.393   2.723   2.692  1.00  0.00    -0.014 A 
BRANCH  12  13
ATOM     13  C   UNL     1       5.170   3.511   3.683  1.00  0.00     0.031 A 
ATOM     14  C   UNL     1       5.717   2.862   4.926  1.00  0.00     0.074 A 
ATOM     15  C   UNL     1       5.455   4.799   3.414  1.00  0.00     0.049 A 
ATOM     16  N   UNL     1       6.485   3.378   5.852  1.00  0.00    -0.248 NA
ATOM     17  C   UNL     1       5.354   1.456   5.166  1.00  0.00     0.031 C 
ATOM     18  C   UNL     1       4.979   5.539   2.244  1.00  0.00     0.029 A 
ATOM     19  N   UNL     1       6.246   5.700   4.080  1.00  0.00    -0.354 N 
ATOM     20  C   UNL     1       6.679   2.373   6.792  1.00  0.00     0.074 A 
ATOM     21  C   UNL     1       5.936   1.219   6.334  1.00  0.00     0.031 C 
ATOM     22  C   UNL     1       5.545   6.755   2.235  1.00  0.00     0.029 A 
ATOM     23  C   UNL     1       6.390   6.895   3.418  1.00  0.00     0.049 A 
ATOM     24  H   UNL     1       6.670   5.509   4.948  1.00  0.00     0.167 HD
ATOM     25  C   UNL     1       7.415   2.406   7.929  1.00  0.00     0.037 A 
ATOM     26  C   UNL     1       7.132   7.978   3.717  1.00  0.00     0.037 A 
ATOM     27  C   UNL     1       8.178   3.544   8.372  1.00  0.00     0.049 A 
ATOM     28  C   UNL     1       7.974   7.977   4.957  1.00  0.00     0.074 A 
ATOM     29  C   UNL     1       8.944   3.676   9.518  1.00  0.00     0.029 A 
ATOM     30  N   UNL     1       8.285   4.741   7.680  1.00  0.00    -0.354 N 
ATOM     31  N   UNL     1       8.124   7.024   5.845  1.00  0.00    -0.248 NA
ATOM     32  C   UNL     1       8.743   9.196   5.240  1.00  0.00     0.031 C 
ATOM     33  C   UNL     1       9.505   4.959   9.524  1.00  0.00     0.029 A 
ATOM     34  C   UNL     1       9.107   5.616   8.371  1.00  0.00     0.049 A 
ATOM     35  H   UNL     1       7.842   4.940   6.824  1.00  0.00     0.167 HD
ATOM     36  C   UNL     1       9.002   7.529   6.795  1.00  0.00     0.074 A 
ATOM     37  C   UNL     1       9.367   8.863   6.363  1.00  0.00     0.031 C 
ATOM     38  C   UNL     1       9.456   6.941   7.929  1.00  0.00     0.037 A 
BRANCH  25  39
ATOM     39  C   UNL     1       7.423   1.172   8.784  1.00  0.00     0.058 A 
ATOM     40  C   UNL     1       6.668   1.118   9.965  1.00  0.00     0.135 A 
ATOM     41  C   UNL     1       8.198   0.052   8.447  1.00  0.00     0.135 A 
ATOM     42  F   UNL     1       5.902   2.160  10.326  1.00  0.00    -0.206 F 
ATOM     43  C   UNL     1       6.683  -0.004  10.787  1.00  0.00     0.059 A 
ATOM     44  C   UNL     1       8.217  -1.087   9.247  1.00  0.00     0.059 A 
ATOM     45  F   UNL     1       8.918   0.045   7.314  1.00  0.00    -0.206 F 
ATOM     46  C   UNL     1       7.462  -1.102  10.421  1.00  0.00     0.060 A 
BRANCH  46  47
ATOM     47  S   UNL     1       7.425  -2.582  11.456  1.00  0.00     0.124 S 
ATOM     48  O   UNL     1       8.337  -2.217  12.533  1.00  0.00    -0.237 OA
ATOM     49  O   UNL     1       6.013  -2.675  11.820  1.00  0.00    -0.237 OA
ATOM     50  O   UNL     1       7.896  -3.630  10.554  1.00  0.00    -0.744 OA
ENDBRANCH  46  47
ENDBRANCH  25  39
BRANCH  26  51
ATOM     51  C   UNL     1       7.129   9.132   2.785  1.00  0.00     0.058 A 
ATOM     52  C   UNL     1       6.020   9.986   2.694  1.00  0.00     0.135 A 
ATOM     53  C   UNL     1       8.203   9.349   1.911  1.00  0.00     0.135 A 
ATOM     54  F   UNL     1       4.966   9.808   3.504  1.00  0.00    -0.206 F 
ATOM     55  C   UNL     1       5.960  10.996   1.741  1.00  0.00     0.059 A 
ATOM     56  C   UNL     1       8.174  10.364   0.961  1.00  0.00     0.059 A 
ATOM     57  F   UNL     1       9.287   8.560   1.972  1.00  0.00    -0.206 F 
ATOM     58  C   UNL     1       7.037  11.167   0.869  1.00  0.00     0.060 A 
BRANCH  58  59
ATOM     59  S   UNL     1       6.929  12.450  -0.397  1.00  0.00     0.124 S 
ATOM     60  O   UNL     1       6.071  11.808  -1.386  1.00  0.00    -0.237 OA
ATOM     61  O   UNL     1       6.333  13.563   0.335  1.00  0.00    -0.237 OA
ATOM     62  O   UNL     1       8.320  12.642  -0.797  1.00  0.00    -0.744 OA
ENDBRANCH  58  59
ENDBRANCH  26  51
BRANCH  38  63
ATOM     63  C   UNL     1      10.395   7.738   8.784  1.00  0.00     0.058 A 
ATOM     64  C   UNL     1      11.773   7.473   8.773  1.00  0.00     0.135 A 
ATOM     65  C   UNL     1       9.920   8.734   9.650  1.00  0.00     0.135 A 
ATOM     66  F   UNL     1      12.274   6.529   7.960  1.00  0.00    -0.206 F 
ATOM     67  C   UNL     1      12.650   8.168   9.598  1.00  0.00     0.059 A 
ATOM     68  C   UNL     1      10.781   9.450  10.475  1.00  0.00     0.059 A 
ATOM     69  F   UNL     1       8.611   9.028   9.685  1.00  0.00    -0.206 F 
ATOM     70  C   UNL     1      12.144   9.151  10.450  1.00  0.00     0.060 A 
BRANCH  70  71
ATOM     71  S   UNL     1      13.292  10.072  11.497  1.00  0.00     0.124 S 
ATOM     72  O   UNL     1      13.512   9.134  12.592  1.00  0.00    -0.237 OA
ATOM     73  O   UNL     1      14.429  10.286  10.606  1.00  0.00    -0.237 OA
ATOM     74  O   UNL     1      12.541  11.276  11.838  1.00  0.00    -0.744 OA
ENDBRANCH  70  71
ENDBRANCH  38  63
ENDBRANCH  12  13
ENDBRANCH   5   7
ENDBRANCH   2   3
ENDBRANCH   1   2
BRANCH   1  75
ATOM     75  C   UNL     1       4.414  -3.644  -1.255  1.00  0.00     0.023 C 
BRANCH  75  76
ATOM     76  C   UNL     1       4.814  -3.302  -2.686  1.00  0.00     0.116 C 
BRANCH  76  77
ATOM     77  N   UNL     1       6.244  -3.440  -2.926  1.00  0.00    -0.352 N 
ATOM     78  C   UNL     1       6.883  -4.245  -3.840  1.00  0.00     0.256 C 
ATOM     79  H   UNL     1       6.829  -2.885  -2.361  1.00  0.00     0.163 HD
ATOM     80  O   UNL     1       8.106  -4.338  -3.863  1.00  0.00    -0.269 OA
BRANCH  78  81
ATOM     81  C   UNL     1       6.079  -5.101  -4.726  1.00  0.00     0.099 A 
ATOM     82  C   UNL     1       5.200  -4.490  -5.624  1.00  0.00     0.138 A 
ATOM     83  C   UNL     1       6.128  -6.503  -4.603  1.00  0.00     0.057 A 
ATOM     84  F   UNL     1       5.197  -3.158  -5.784  1.00  0.00    -0.206 F 
ATOM     85  C   UNL     1       4.265  -5.242  -6.321  1.00  0.00     0.040 A 
ATOM     86  C   UNL     1       5.118  -7.232  -5.240  1.00  0.00     0.027 A 
ATOM     87  C   UNL     1       4.199  -6.611  -6.096  1.00  0.00     0.005 A 
BRANCH  83  88
ATOM     88  N   UNL     1       7.161  -7.092  -3.829  1.00  0.00    -0.321 N 
ATOM     89  C   UNL     1       7.590  -8.386  -3.643  1.00  0.00     0.257 C 
ATOM     90  H   UNL     1       7.683  -6.434  -3.316  1.00  0.00     0.170 HD
ATOM     91  O   UNL     1       8.427  -8.650  -2.782  1.00  0.00    -0.269 OA
BRANCH  89  92
ATOM     92  C   UNL     1       7.112  -9.494  -4.473  1.00  0.00     0.058 A 
ATOM     93  C   UNL     1       7.228  -9.494  -5.865  1.00  0.00     0.018 A 
ATOM     94  C   UNL     1       6.538 -10.593  -3.849  1.00  0.00     0.126 A 
ATOM     95  C   UNL     1       6.686 -10.559  -6.582  1.00  0.00     0.042 A 
ATOM     96  N   UNL     1       6.000 -11.638  -4.524  1.00  0.00    -0.244 NA
ATOM     97  C   UNL     1       6.083 -11.586  -5.870  1.00  0.00     0.129 A 
ATOM     98  Cl  UNL     1       5.342 -12.901  -6.683  1.00  0.00    -0.062 Cl
ENDBRANCH  89  92
ENDBRANCH  83  88
ENDBRANCH  78  81
ENDBRANCH  76  77
ENDBRANCH  75  76
ENDBRANCH   1  75
TORSDOF 16
