REMARK SMILES O=C(NCCCCNC(=O)c1cc(N2CCN(c3ccc(F)cc3)CC2)ccc1NC(=O)C1CCCC1)c1ccc(-c2c3nc(c(-c4c(F)cc(S(=O)(=O)[O-])cc4F)c4ccc([nH]4)c(-c4c(F)cc(S(=O)(=O)[O-])cc4F)c4nc(c(-c5c(F)cc(S(=O)(=O)[O-])cc5F)c5ccc2[nH]5)C=C4)C=C3)cc1
REMARK SMILES IDX 5 1 4 2 3 3 1 4 2 5 38 7 39 8 103 9 40 10 102 11 41 12 42 13
REMARK SMILES IDX 43 14 96 15 44 16 101 17 95 18 97 19 45 20 100 21 94 22
REMARK SMILES IDX 93 23 46 25 80 26 59 27 79 28 60 29 63 30 78 31 98 32 61 33
REMARK SMILES IDX 62 34 77 36 99 37 64 38 47 39 48 40 57 41 49 42 50 43 56 44
REMARK SMILES IDX 58 45 51 46 52 47 53 48 54 49 55 50 81 51 82 52 91 53 83 54
REMARK SMILES IDX 84 55 90 56 92 57 85 58 86 59 87 60 88 61 89 62 65 63 66 64
REMARK SMILES IDX 75 65 67 66 68 67 74 68 76 69 69 70 70 71 71 72 72 73 73 74
REMARK SMILES IDX 6 75 7 76 8 77 9 78 10 80 11 81 12 82 29 83 13 84 28 85
REMARK SMILES IDX 27 86 30 87 31 88 32 90 33 91 34 92 37 93 35 94 36 95 14 96
REMARK SMILES IDX 15 97 26 98 16 99 25 100 17 101 18 102 19 103 24 104 20 105
REMARK SMILES IDX 23 106 21 107 22 108
REMARK H PARENT 3 6 97 24 63 35 8 79 30 89
REMARK Flexibility Score: inf
ROOT
ATOM      1  C   UNL     1       4.912   2.442  -0.684  1.00  0.00     0.023 C 
ENDROOT
BRANCH   1   2
ATOM      2  C   UNL     1       4.584   1.285   0.251  1.00  0.00     0.116 C 
BRANCH   2   3
ATOM      3  N   UNL     1       3.154   1.055   0.381  1.00  0.00    -0.352 N 
ATOM      4  O   UNL     1       1.196  -0.013   0.038  1.00  0.00    -0.269 OA
ATOM      5  C   UNL     1       2.417  -0.054   0.027  1.00  0.00     0.251 C 
ATOM      6  H   UNL     1       2.641   1.796   0.778  1.00  0.00     0.163 HD
BRANCH   5   7
ATOM      7  C   UNL     1       3.124  -1.286  -0.388  1.00  0.00     0.039 A 
ATOM      8  C   UNL     1       4.211  -1.754   0.352  1.00  0.00     0.014 A 
ATOM      9  C   UNL     1       2.704  -1.973  -1.531  1.00  0.00     0.014 A 
ATOM     10  C   UNL     1       4.972  -2.808  -0.132  1.00  0.00     0.010 A 
ATOM     11  C   UNL     1       3.411  -3.101  -1.960  1.00  0.00     0.010 A 
ATOM     12  C   UNL     1       4.565  -3.515  -1.276  1.00  0.00    -0.014 A 
BRANCH  12  13
ATOM     13  C   UNL     1       5.303  -4.746  -1.660  1.00  0.00     0.031 A 
ATOM     14  C   UNL     1       6.028  -4.857  -2.973  1.00  0.00     0.074 A 
ATOM     15  C   UNL     1       5.322  -5.769  -0.781  1.00  0.00     0.049 A 
ATOM     16  N   UNL     1       6.715  -5.866  -3.445  1.00  0.00    -0.248 NA
ATOM     17  C   UNL     1       5.976  -3.696  -3.875  1.00  0.00     0.031 C 
ATOM     18  C   UNL     1       4.636  -5.775   0.517  1.00  0.00     0.029 A 
ATOM     19  N   UNL     1       5.943  -6.990  -0.828  1.00  0.00    -0.354 N 
ATOM     20  C   UNL     1       7.160  -5.475  -4.703  1.00  0.00     0.074 A 
ATOM     21  C   UNL     1       6.652  -4.139  -4.929  1.00  0.00     0.031 C 
ATOM     22  C   UNL     1       4.907  -6.921   1.156  1.00  0.00     0.029 A 
ATOM     23  C   UNL     1       5.717  -7.764   0.287  1.00  0.00     0.049 A 
ATOM     24  H   UNL     1       6.496  -7.285  -1.587  1.00  0.00     0.167 HD
ATOM     25  C   UNL     1       7.922  -6.172  -5.580  1.00  0.00     0.037 A 
ATOM     26  C   UNL     1       6.087  -9.026   0.568  1.00  0.00     0.037 A 
ATOM     27  C   UNL     1       8.435  -7.497  -5.329  1.00  0.00     0.049 A 
ATOM     28  C   UNL     1       6.907  -9.780  -0.439  1.00  0.00     0.074 A 
ATOM     29  C   UNL     1       9.262  -8.263  -6.134  1.00  0.00     0.029 A 
ATOM     30  N   UNL     1       8.166  -8.257  -4.200  1.00  0.00    -0.354 N 
ATOM     31  N   UNL     1       7.362  -9.371  -1.600  1.00  0.00    -0.248 NA
ATOM     32  C   UNL     1       7.260 -11.164  -0.104  1.00  0.00     0.031 C 
ATOM     33  C   UNL     1       9.442  -9.507  -5.521  1.00  0.00     0.029 A 
ATOM     34  C   UNL     1       8.780  -9.496  -4.304  1.00  0.00     0.049 A 
ATOM     35  H   UNL     1       7.619  -7.961  -3.437  1.00  0.00     0.167 HD
ATOM     36  C   UNL     1       8.070 -10.444  -2.125  1.00  0.00     0.074 A 
ATOM     37  C   UNL     1       8.007 -11.508  -1.144  1.00  0.00     0.031 C 
ATOM     38  C   UNL     1       8.711 -10.543  -3.316  1.00  0.00     0.037 A 
BRANCH  25  39
ATOM     39  C   UNL     1       8.251  -5.542  -6.907  1.00  0.00     0.058 A 
ATOM     40  C   UNL     1       9.179  -4.496  -7.024  1.00  0.00     0.135 A 
ATOM     41  C   UNL     1       7.711  -6.070  -8.093  1.00  0.00     0.135 A 
ATOM     42  F   UNL     1       9.716  -3.943  -5.925  1.00  0.00    -0.206 F 
ATOM     43  C   UNL     1       9.561  -3.997  -8.266  1.00  0.00     0.059 A 
ATOM     44  C   UNL     1       8.097  -5.604  -9.347  1.00  0.00     0.059 A 
ATOM     45  F   UNL     1       6.818  -7.071  -8.041  1.00  0.00    -0.206 F 
ATOM     46  C   UNL     1       9.023  -4.564  -9.423  1.00  0.00     0.060 A 
BRANCH  46  47
ATOM     47  S   UNL     1       9.572  -3.940 -11.026  1.00  0.00     0.124 S 
ATOM     48  O   UNL     1       8.960  -2.615 -11.049  1.00  0.00    -0.237 OA
ATOM     49  O   UNL     1      11.024  -3.965 -10.889  1.00  0.00    -0.237 OA
ATOM     50  O   UNL     1       9.018  -4.901 -11.976  1.00  0.00    -0.744 OA
ENDBRANCH  46  47
ENDBRANCH  25  39
BRANCH  26  51
ATOM     51  C   UNL     1       5.649  -9.667   1.837  1.00  0.00     0.058 A 
ATOM     52  C   UNL     1       6.574 -10.032   2.826  1.00  0.00     0.135 A 
ATOM     53  C   UNL     1       4.292  -9.939   2.079  1.00  0.00     0.135 A 
ATOM     54  F   UNL     1       7.881  -9.793   2.643  1.00  0.00    -0.206 F 
ATOM     55  C   UNL     1       6.175 -10.676   3.992  1.00  0.00     0.059 A 
ATOM     56  C   UNL     1       3.865 -10.549   3.252  1.00  0.00     0.059 A 
ATOM     57  F   UNL     1       3.363  -9.591   1.175  1.00  0.00    -0.206 F 
ATOM     58  C   UNL     1       4.817 -10.934   4.194  1.00  0.00     0.060 A 
BRANCH  58  59
ATOM     59  S   UNL     1       4.309 -11.771   5.710  1.00  0.00     0.124 S 
ATOM     60  O   UNL     1       4.756 -13.135   5.454  1.00  0.00    -0.237 OA
ATOM     61  O   UNL     1       5.050 -11.036   6.730  1.00  0.00    -0.237 OA
ATOM     62  O   UNL     1       2.862 -11.573   5.732  1.00  0.00    -0.744 OA
ENDBRANCH  58  59
ENDBRANCH  26  51
BRANCH  38  63
ATOM     63  C   UNL     1       9.419 -11.837  -3.608  1.00  0.00     0.058 A 
ATOM     64  C   UNL     1       8.713 -13.019  -3.883  1.00  0.00     0.135 A 
ATOM     65  C   UNL     1      10.822 -11.887  -3.644  1.00  0.00     0.135 A 
ATOM     66  F   UNL     1       7.371 -13.028  -3.850  1.00  0.00    -0.206 F 
ATOM     67  C   UNL     1       9.373 -14.212  -4.155  1.00  0.00     0.059 A 
ATOM     68  C   UNL     1      11.502 -13.062  -3.947  1.00  0.00     0.059 A 
ATOM     69  F   UNL     1      11.545 -10.784  -3.397  1.00  0.00    -0.206 F 
ATOM     70  C   UNL     1      10.769 -14.223  -4.188  1.00  0.00     0.060 A 
BRANCH  70  71
ATOM     71  S   UNL     1      11.612 -15.771  -4.572  1.00  0.00     0.124 S 
ATOM     72  O   UNL     1      11.401 -16.533  -3.346  1.00  0.00    -0.237 OA
ATOM     73  O   UNL     1      10.880 -16.242  -5.745  1.00  0.00    -0.237 OA
ATOM     74  O   UNL     1      12.988 -15.357  -4.824  1.00  0.00    -0.744 OA
ENDBRANCH  70  71
ENDBRANCH  38  63
ENDBRANCH  12  13
ENDBRANCH   5   7
ENDBRANCH   2   3
ENDBRANCH   1   2
BRANCH   1  75
ATOM     75  C   UNL     1       4.425   3.818  -0.221  1.00  0.00     0.023 C 
BRANCH  75  76
ATOM     76  C   UNL     1       4.812   4.200   1.206  1.00  0.00     0.116 C 
BRANCH  76  77
ATOM     77  N   UNL     1       6.250   4.176   1.403  1.00  0.00    -0.352 N 
ATOM     78  C   UNL     1       7.092   5.127   1.909  1.00  0.00     0.253 C 
ATOM     79  H   UNL     1       6.690   3.340   1.127  1.00  0.00     0.163 HD
ATOM     80  O   UNL     1       8.301   5.000   1.717  1.00  0.00    -0.269 OA
BRANCH  78  81
ATOM     81  C   UNL     1       6.630   6.275   2.724  1.00  0.00     0.065 A 
ATOM     82  C   UNL     1       7.223   7.530   2.432  1.00  0.00     0.042 A 
ATOM     83  C   UNL     1       5.841   6.128   3.877  1.00  0.00     0.054 A 
ATOM     84  C   UNL     1       7.099   8.610   3.308  1.00  0.00     0.038 A 
ATOM     85  C   UNL     1       5.889   7.125   4.825  1.00  0.00     0.029 A 
ATOM     86  C   UNL     1       6.430   8.361   4.512  1.00  0.00     0.028 A 
BRANCH  83  87
ATOM     87  N   UNL     1       5.030   5.018   4.126  1.00  0.00    -0.325 N 
ATOM     88  C   UNL     1       3.784   4.922   4.681  1.00  0.00     0.227 C 
ATOM     89  H   UNL     1       5.423   4.157   3.856  1.00  0.00     0.169 HD
ATOM     90  O   UNL     1       3.325   3.770   4.722  1.00  0.00    -0.274 OA
BRANCH  88  91
ATOM     91  C   UNL     1       2.913   6.080   5.243  1.00  0.00     0.079 C 
ATOM     92  C   UNL     1       3.044   7.546   4.829  1.00  0.00     0.013 C 
ATOM     93  C   UNL     1       1.445   5.817   4.839  1.00  0.00     0.013 C 
ATOM     94  C   UNL     1       1.724   8.203   5.197  1.00  0.00     0.001 C 
ATOM     95  C   UNL     1       0.678   7.122   5.037  1.00  0.00     0.001 C 
ENDBRANCH  88  91
ENDBRANCH  83  87
BRANCH  84  96
ATOM     96  N   UNL     1       7.664   9.844   3.103  1.00  0.00    -0.368 N 
ATOM     97  C   UNL     1       7.816  10.553   1.817  1.00  0.00     0.138 C 
ATOM     98  C   UNL     1       8.250  10.547   4.254  1.00  0.00     0.138 C 
ATOM     99  C   UNL     1       7.388  12.067   1.925  1.00  0.00     0.138 C 
ATOM    100  C   UNL     1       7.544  11.896   4.406  1.00  0.00     0.138 C 
ATOM    101  N   UNL     1       7.790  12.701   3.205  1.00  0.00    -0.368 N 
BRANCH 101 102
ATOM    102  C   UNL     1       8.729  13.711   3.264  1.00  0.00     0.037 A 
ATOM    103  C   UNL     1       8.454  14.965   2.704  1.00  0.00     0.029 A 
ATOM    104  C   UNL     1       9.941  13.560   3.959  1.00  0.00     0.029 A 
ATOM    105  C   UNL     1       9.338  16.037   2.868  1.00  0.00     0.041 A 
ATOM    106  C   UNL     1      10.838  14.618   4.111  1.00  0.00     0.041 A 
ATOM    107  C   UNL     1      10.521  15.853   3.572  1.00  0.00     0.123 A 
ATOM    108  F   UNL     1      11.362  16.881   3.743  1.00  0.00    -0.207 F 
ENDBRANCH 101 102
ENDBRANCH  84  96
ENDBRANCH  78  81
ENDBRANCH  76  77
ENDBRANCH  75  76
ENDBRANCH   1  75
TORSDOF 18
