REMARK SMILES C[C@@H](C(=O)NCCCCNC(=O)c1ccc(-c2c3nc(c(-c4c(F)cc(S(=O)(=O)[O-])cc4F)c4ccc([nH]4)c(-c4c(F)cc(S(=O)(=O)[O-])cc4F)c4nc(c(-c5c(F)cc(S(=O)(=O)[O-])cc5F)c5ccc2[nH]5)C=C4)C=C3)cc1)N1C(=O)/C(=C/c2ccc(-c3ccc([N+](=O)[O-])cc3Cl)o2)SC1=S
REMARK SMILES IDX 7 1 6 2 5 3 3 4 4 5 2 7 1 8 79 9 80 10 100 11 81 12 82 13
REMARK SMILES IDX 99 14 101 15 83 16 84 17 85 18 98 19 86 20 87 21 88 22 89 23
REMARK SMILES IDX 96 24 90 25 95 26 97 27 91 28 92 29 93 30 94 31 8 32 9 33
REMARK SMILES IDX 10 34 11 35 12 37 13 38 14 39 78 40 15 41 77 42 16 43 17 44
REMARK SMILES IDX 18 45 71 46 19 47 76 48 70 49 72 50 20 51 75 52 69 53 68 54
REMARK SMILES IDX 21 56 55 57 34 58 54 59 35 60 38 61 53 62 73 63 36 64 37 65
REMARK SMILES IDX 52 67 74 68 39 69 22 70 23 71 32 72 24 73 25 74 31 75 33 76
REMARK SMILES IDX 26 77 27 78 28 79 29 80 30 81 56 82 57 83 66 84 58 85 59 86
REMARK SMILES IDX 65 87 67 88 60 89 61 90 62 91 63 92 64 93 40 94 41 95 50 96
REMARK SMILES IDX 42 97 43 98 49 99 51 100 44 101 45 102 46 103 47 104 48 105
REMARK H PARENT 5 6 10 36 72 55 38 66
REMARK Flexibility Score: inf
ROOT
ATOM      1  C   UNL     1       4.281  -1.194   0.037  1.00  0.00     0.023 C 
ENDROOT
BRANCH   1   2
ATOM      2  C   UNL     1       3.317  -1.595  -1.085  1.00  0.00     0.116 C 
BRANCH   2   3
ATOM      3  N   UNL     1       2.245  -2.439  -0.582  1.00  0.00    -0.354 N 
ATOM      4  C   UNL     1       0.957  -2.108  -0.250  1.00  0.00     0.242 C 
ATOM      5  O   UNL     1       0.341  -2.863   0.506  1.00  0.00    -0.273 OA
ATOM      6  H   UNL     1       2.479  -3.388  -0.461  1.00  0.00     0.163 HD
BRANCH   4   7
ATOM      7  C   UNL     1       0.371  -0.753  -0.724  1.00  0.00     0.178 C 
ATOM      8  C   UNL     1       0.773   0.216   0.405  1.00  0.00     0.042 C 
BRANCH   7   9
ATOM      9  N   UNL     1      -1.102  -0.749  -0.940  1.00  0.00    -0.281 N 
ATOM     10  C   UNL     1      -1.769  -1.919  -1.275  1.00  0.00     0.267 C 
ATOM     11  C   UNL     1      -1.844   0.382  -1.229  1.00  0.00     0.149 C 
ATOM     12  O   UNL     1      -1.273  -2.950  -1.711  1.00  0.00    -0.268 OA
ATOM     13  C   UNL     1      -3.241  -1.698  -1.260  1.00  0.00     0.084 C 
ATOM     14  S   UNL     1      -3.556  -0.012  -1.272  1.00  0.00    -0.054 SA
ATOM     15  S   UNL     1      -1.336   1.930  -1.600  1.00  0.00    -0.052 S 
ATOM     16  C   UNL     1      -4.128  -2.703  -1.250  1.00  0.00     0.068 C 
BRANCH  16  17
ATOM     17  C   UNL     1      -5.530  -2.478  -1.339  1.00  0.00     0.128 A 
ATOM     18  C   UNL     1      -6.244  -1.882  -2.374  1.00  0.00     0.051 A 
ATOM     19  O   UNL     1      -6.435  -2.839  -0.363  1.00  0.00    -0.457 OA
ATOM     20  C   UNL     1      -7.601  -1.837  -1.997  1.00  0.00     0.051 A 
ATOM     21  C   UNL     1      -7.671  -2.412  -0.749  1.00  0.00     0.136 A 
BRANCH  21  22
ATOM     22  C   UNL     1      -8.784  -2.653   0.159  1.00  0.00     0.036 A 
ATOM     23  C   UNL     1      -9.928  -3.288  -0.360  1.00  0.00     0.020 A 
ATOM     24  C   UNL     1      -8.811  -2.202   1.491  1.00  0.00     0.058 A 
ATOM     25  C   UNL     1     -11.079  -3.454   0.415  1.00  0.00     0.086 A 
ATOM     26  C   UNL     1      -9.961  -2.365   2.277  1.00  0.00     0.106 A 
ATOM     27  Cl  UNL     1      -7.485  -1.356   2.212  1.00  0.00    -0.083 Cl
ATOM     28  C   UNL     1     -11.093  -2.980   1.731  1.00  0.00     0.270 A 
BRANCH  28  29
ATOM     29  N   UNL     1     -12.319  -3.097   2.530  1.00  0.00     0.062 N 
ATOM     30  O   UNL     1     -13.306  -3.623   1.995  1.00  0.00    -0.258 OA
ATOM     31  O   UNL     1     -12.301  -2.649   3.684  1.00  0.00    -0.258 OA
ENDBRANCH  28  29
ENDBRANCH  21  22
ENDBRANCH  16  17
ENDBRANCH   7   9
ENDBRANCH   4   7
ENDBRANCH   2   3
ENDBRANCH   1   2
BRANCH   1  32
ATOM     32  C   UNL     1       5.108  -2.343   0.620  1.00  0.00     0.023 C 
BRANCH  32  33
ATOM     33  C   UNL     1       6.079  -3.002  -0.353  1.00  0.00     0.116 C 
BRANCH  33  34
ATOM     34  N   UNL     1       7.067  -2.073  -0.876  1.00  0.00    -0.352 N 
ATOM     35  C   UNL     1       8.422  -2.243  -1.044  1.00  0.00     0.251 C 
ATOM     36  H   UNL     1       6.716  -1.195  -1.150  1.00  0.00     0.163 HD
ATOM     37  O   UNL     1       9.114  -1.288  -1.377  1.00  0.00    -0.269 OA
BRANCH  35  38
ATOM     38  C   UNL     1       9.043  -3.563  -0.791  1.00  0.00     0.039 A 
ATOM     39  C   UNL     1      10.234  -3.613  -0.062  1.00  0.00     0.014 A 
ATOM     40  C   UNL     1       8.462  -4.742  -1.266  1.00  0.00     0.014 A 
ATOM     41  C   UNL     1      10.804  -4.849   0.251  1.00  0.00     0.010 A 
ATOM     42  C   UNL     1       8.997  -5.976  -0.900  1.00  0.00     0.010 A 
ATOM     43  C   UNL     1      10.170  -6.041  -0.135  1.00  0.00    -0.014 A 
BRANCH  43  44
ATOM     44  C   UNL     1      10.713  -7.362   0.273  1.00  0.00     0.031 A 
ATOM     45  C   UNL     1      11.233  -8.324  -0.760  1.00  0.00     0.074 A 
ATOM     46  C   UNL     1      10.680  -7.718   1.573  1.00  0.00     0.049 A 
ATOM     47  N   UNL     1      11.689  -9.539  -0.600  1.00  0.00    -0.248 NA
ATOM     48  C   UNL     1      11.215  -7.869  -2.160  1.00  0.00     0.031 C 
ATOM     49  C   UNL     1      10.147  -6.896   2.663  1.00  0.00     0.029 A 
ATOM     50  N   UNL     1      11.093  -8.867   2.198  1.00  0.00    -0.354 N 
ATOM     51  C   UNL     1      12.004  -9.999  -1.873  1.00  0.00     0.074 A 
ATOM     52  C   UNL     1      11.643  -8.948  -2.801  1.00  0.00     0.031 C 
ATOM     53  C   UNL     1      10.283  -7.560   3.822  1.00  0.00     0.029 A 
ATOM     54  C   UNL     1      10.884  -8.863   3.557  1.00  0.00     0.049 A 
ATOM     55  H   UNL     1      11.501  -9.624   1.719  1.00  0.00     0.167 HD
ATOM     56  C   UNL     1      12.562 -11.179  -2.233  1.00  0.00     0.037 A 
ATOM     57  C   UNL     1      11.144  -9.804   4.485  1.00  0.00     0.037 A 
ATOM     58  C   UNL     1      12.947 -12.210  -1.305  1.00  0.00     0.049 A 
ATOM     59  C   UNL     1      11.784 -11.097   4.060  1.00  0.00     0.074 A 
ATOM     60  C   UNL     1      13.571 -13.417  -1.569  1.00  0.00     0.029 A 
ATOM     61  N   UNL     1      12.750 -12.154   0.067  1.00  0.00    -0.354 N 
ATOM     62  N   UNL     1      12.126 -11.490   2.857  1.00  0.00    -0.248 NA
ATOM     63  C   UNL     1      12.081 -12.071   5.120  1.00  0.00     0.031 C 
ATOM     64  C   UNL     1      13.726 -14.104  -0.359  1.00  0.00     0.029 A 
ATOM     65  C   UNL     1      13.230 -13.310   0.661  1.00  0.00     0.049 A 
ATOM     66  H   UNL     1      12.331 -11.404   0.547  1.00  0.00     0.167 HD
ATOM     67  C   UNL     1      12.697 -12.747   3.017  1.00  0.00     0.074 A 
ATOM     68  C   UNL     1      12.668 -13.042   4.435  1.00  0.00     0.031 C 
ATOM     69  C   UNL     1      13.197 -13.584   2.075  1.00  0.00     0.037 A 
BRANCH  56  70
ATOM     70  C   UNL     1      12.810 -11.413  -3.697  1.00  0.00     0.058 A 
ATOM     71  C   UNL     1      13.837 -10.744  -4.381  1.00  0.00     0.135 A 
ATOM     72  C   UNL     1      12.046 -12.348  -4.413  1.00  0.00     0.135 A 
ATOM     73  F   UNL     1      14.586  -9.828  -3.748  1.00  0.00    -0.206 F 
ATOM     74  C   UNL     1      14.085 -10.978  -5.730  1.00  0.00     0.059 A 
ATOM     75  C   UNL     1      12.291 -12.615  -5.757  1.00  0.00     0.059 A 
ATOM     76  F   UNL     1      11.050 -13.014  -3.807  1.00  0.00    -0.206 F 
ATOM     77  C   UNL     1      13.306 -11.916  -6.410  1.00  0.00     0.060 A 
BRANCH  77  78
ATOM     78  S   UNL     1      13.651 -12.221  -8.155  1.00  0.00     0.124 S 
ATOM     79  O   UNL     1      13.083 -11.027  -8.775  1.00  0.00    -0.237 OA
ATOM     80  O   UNL     1      15.107 -12.313  -8.177  1.00  0.00    -0.237 OA
ATOM     81  O   UNL     1      12.943 -13.467  -8.429  1.00  0.00    -0.744 OA
ENDBRANCH  77  78
ENDBRANCH  56  70
BRANCH  57  82
ATOM     82  C   UNL     1      10.819  -9.553   5.913  1.00  0.00     0.058 A 
ATOM     83  C   UNL     1      11.834  -9.323   6.852  1.00  0.00     0.135 A 
ATOM     84  C   UNL     1       9.491  -9.540   6.366  1.00  0.00     0.135 A 
ATOM     85  F   UNL     1      13.119  -9.330   6.465  1.00  0.00    -0.206 F 
ATOM     86  C   UNL     1      11.549  -9.112   8.197  1.00  0.00     0.059 A 
ATOM     87  C   UNL     1       9.179  -9.310   7.702  1.00  0.00     0.059 A 
ATOM     88  F   UNL     1       8.483  -9.737   5.502  1.00  0.00    -0.206 F 
ATOM     89  C   UNL     1      10.216  -9.110   8.613  1.00  0.00     0.060 A 
BRANCH  89  90
ATOM     90  S   UNL     1       9.849  -8.801  10.354  1.00  0.00     0.124 S 
ATOM     91  O   UNL     1      10.163 -10.093  10.952  1.00  0.00    -0.237 OA
ATOM     92  O   UNL     1      10.763  -7.709  10.674  1.00  0.00    -0.237 OA
ATOM     93  O   UNL     1       8.435  -8.438  10.336  1.00  0.00    -0.744 OA
ENDBRANCH  89  90
ENDBRANCH  57  82
BRANCH  69  94
ATOM     94  C   UNL     1      13.776 -14.885   2.553  1.00  0.00     0.058 A 
ATOM     95  C   UNL     1      12.955 -15.940   2.981  1.00  0.00     0.135 A 
ATOM     96  C   UNL     1      15.165 -15.089   2.555  1.00  0.00     0.135 A 
ATOM     97  F   UNL     1      11.621 -15.792   3.004  1.00  0.00    -0.206 F 
ATOM     98  C   UNL     1      13.493 -17.145   3.422  1.00  0.00     0.059 A 
ATOM     99  C   UNL     1      15.723 -16.294   2.970  1.00  0.00     0.059 A 
ATOM    100  F   UNL     1      15.992 -14.114   2.146  1.00  0.00    -0.206 F 
ATOM    101  C   UNL     1      14.880 -17.310   3.416  1.00  0.00     0.060 A 
BRANCH 101 102
ATOM    102  S   UNL     1      15.569 -18.884   3.972  1.00  0.00     0.124 S 
ATOM    103  O   UNL     1      15.469 -18.751   5.421  1.00  0.00    -0.237 OA
ATOM    104  O   UNL     1      14.669 -19.857   3.360  1.00  0.00    -0.237 OA
ATOM    105  O   UNL     1      16.925 -18.868   3.431  1.00  0.00    -0.744 OA
ENDBRANCH 101 102
ENDBRANCH  69  94
ENDBRANCH  43  44
ENDBRANCH  35  38
ENDBRANCH  33  34
ENDBRANCH  32  33
ENDBRANCH   1  32
TORSDOF 18
