REMARK SMILES CCn1nc(C)c(NS(=O)(=O)c2cc(C(=O)NCCCCNC(=O)c3ccc(-c4c5nc(c(-c6c(F)cc(S(=O)(=O)[O-])cc6F)c6ccc([nH]6)c(-c6c(F)cc(S(=O)(=O)[O-])cc6F)c6nc(c(-c7c(F)cc(S(=O)(=O)[O-])cc7F)c7ccc4[nH]7)C=C6)C=C5)cc3)cc(F)c2C)c1C
REMARK SMILES IDX 19 1 18 2 17 3 15 4 16 5 14 7 12 8 13 9 94 10 92 11 95 12
REMARK SMILES IDX 91 13 93 14 9 15 10 16 11 17 8 18 7 20 3 21 4 22 96 23 5 24
REMARK SMILES IDX 97 25 6 26 2 27 1 28 20 29 21 30 22 31 23 32 24 34 25 35
REMARK SMILES IDX 26 36 90 37 27 38 89 39 28 40 29 41 30 42 83 43 31 44 88 45
REMARK SMILES IDX 82 46 84 47 32 48 87 49 81 50 80 51 33 53 67 54 46 55 66 56
REMARK SMILES IDX 47 57 50 58 65 59 85 60 48 61 49 62 64 64 86 65 51 66 34 67
REMARK SMILES IDX 35 68 44 69 36 70 37 71 43 72 45 73 38 74 39 75 40 76 41 77
REMARK SMILES IDX 42 78 68 79 69 80 78 81 70 82 71 83 77 84 79 85 72 86 73 87
REMARK SMILES IDX 74 88 75 89 76 90 52 91 53 92 62 93 54 94 55 95 61 96 63 97
REMARK SMILES IDX 56 98 57 99 58 100 59 101 60 102
REMARK H PARENT 17 6 8 19 22 33 84 52 50 63
REMARK Flexibility Score: inf
ROOT
ATOM      1  C   UNL     1       5.205   6.888   7.448  1.00  0.00     0.023 C 
ENDROOT
BRANCH   1   2
ATOM      2  C   UNL     1       3.805   7.429   7.788  1.00  0.00     0.116 C 
BRANCH   2   3
ATOM      3  N   UNL     1       3.297   8.301   6.726  1.00  0.00    -0.352 N 
ATOM      4  C   UNL     1       2.453   8.095   5.663  1.00  0.00     0.251 C 
ATOM      5  O   UNL     1       2.204   9.038   4.912  1.00  0.00    -0.269 OA
ATOM      6  H   UNL     1       3.629   9.226   6.788  1.00  0.00     0.163 HD
BRANCH   4   7
ATOM      7  C   UNL     1       1.778   6.795   5.415  1.00  0.00     0.044 A 
ATOM      8  C   UNL     1       1.590   4.378   5.738  1.00  0.00     0.094 A 
ATOM      9  C   UNL     1       2.312   5.580   5.818  1.00  0.00     0.036 A 
ATOM     10  C   UNL     1       0.320   4.368   5.154  1.00  0.00     0.005 A 
ATOM     11  C   UNL     1      -0.143   5.581   4.614  1.00  0.00     0.128 A 
ATOM     12  C   UNL     1      -0.553   3.162   5.005  1.00  0.00     0.049 C 
ATOM     13  C   UNL     1       0.556   6.781   4.749  1.00  0.00     0.053 A 
ATOM     14  F   UNL     1      -1.311   5.602   3.952  1.00  0.00    -0.207 F 
BRANCH   8  15
ATOM     15  S   UNL     1       2.396   3.003   6.525  1.00  0.00     0.262 S 
ATOM     16  O   UNL     1       1.531   2.627   7.635  1.00  0.00    -0.201 OA
ATOM     17  O   UNL     1       3.773   3.354   6.741  1.00  0.00    -0.201 OA
BRANCH  15  18
ATOM     18  N   UNL     1       2.417   1.675   5.530  1.00  0.00    -0.276 N 
ATOM     19  H   UNL     1       2.566   0.823   6.000  1.00  0.00     0.180 HD
BRANCH  18  20
ATOM     20  C   UNL     1       2.263   1.544   4.155  1.00  0.00     0.093 A 
ATOM     21  N   UNL     1       1.590   0.605   2.297  1.00  0.00    -0.268 N 
ATOM     22  N   UNL     1       1.897   1.862   1.936  1.00  0.00    -0.176 NA
ATOM     23  C   UNL     1       1.948   0.323   3.587  1.00  0.00     0.060 A 
ATOM     24  C   UNL     1       2.390   2.424   3.049  1.00  0.00     0.084 A 
ATOM     25  C   UNL     1       1.958  -1.029   4.205  1.00  0.00     0.069 C 
ATOM     26  C   UNL     1       2.947   3.793   2.937  1.00  0.00     0.071 C 
BRANCH  21  27
ATOM     27  C   UNL     1       0.828  -0.228   1.386  1.00  0.00     0.141 C 
ATOM     28  C   UNL     1       1.156  -0.015  -0.082  1.00  0.00     0.029 C 
ENDBRANCH  21  27
ENDBRANCH  18  20
ENDBRANCH  15  18
ENDBRANCH   8  15
ENDBRANCH   4   7
ENDBRANCH   2   3
ENDBRANCH   1   2
BRANCH   1  29
ATOM     29  C   UNL     1       6.276   7.962   7.320  1.00  0.00     0.023 C 
BRANCH  29  30
ATOM     30  C   UNL     1       6.557   8.685   8.613  1.00  0.00     0.116 C 
BRANCH  30  31
ATOM     31  N   UNL     1       7.557   8.061   9.453  1.00  0.00    -0.352 N 
ATOM     32  C   UNL     1       8.408   8.695  10.340  1.00  0.00     0.251 C 
ATOM     33  H   UNL     1       7.640   7.082   9.386  1.00  0.00     0.163 HD
ATOM     34  O   UNL     1       9.532   8.272  10.586  1.00  0.00    -0.269 OA
BRANCH  32  35
ATOM     35  C   UNL     1       7.846   9.787  11.174  1.00  0.00     0.039 A 
ATOM     36  C   UNL     1       8.159   9.767  12.541  1.00  0.00     0.014 A 
ATOM     37  C   UNL     1       6.770  10.532  10.714  1.00  0.00     0.014 A 
ATOM     38  C   UNL     1       7.252  10.299  13.439  1.00  0.00     0.010 A 
ATOM     39  C   UNL     1       5.758  10.800  11.575  1.00  0.00     0.010 A 
ATOM     40  C   UNL     1       6.020  10.697  12.932  1.00  0.00    -0.014 A 
BRANCH  40  41
ATOM     41  C   UNL     1       4.986  11.333  13.700  1.00  0.00     0.031 A 
ATOM     42  C   UNL     1       5.236  12.770  13.881  1.00  0.00     0.074 A 
ATOM     43  C   UNL     1       3.899  10.578  13.947  1.00  0.00     0.049 A 
ATOM     44  N   UNL     1       5.046  13.446  14.952  1.00  0.00    -0.248 NA
ATOM     45  C   UNL     1       5.934  13.560  12.848  1.00  0.00     0.031 C 
ATOM     46  C   UNL     1       2.608  10.921  14.511  1.00  0.00     0.029 A 
ATOM     47  N   UNL     1       3.886   9.178  13.902  1.00  0.00    -0.354 N 
ATOM     48  C   UNL     1       5.102  14.770  14.553  1.00  0.00     0.074 A 
ATOM     49  C   UNL     1       5.936  14.775  13.390  1.00  0.00     0.031 C 
ATOM     50  C   UNL     1       2.103   9.817  15.100  1.00  0.00     0.029 A 
ATOM     51  C   UNL     1       3.095   8.751  14.976  1.00  0.00     0.049 A 
ATOM     52  H   UNL     1       4.343   8.606  13.244  1.00  0.00     0.167 HD
ATOM     53  C   UNL     1       4.152  15.627  15.027  1.00  0.00     0.037 A 
ATOM     54  C   UNL     1       3.752   8.165  16.022  1.00  0.00     0.037 A 
ATOM     55  C   UNL     1       3.284  14.882  15.954  1.00  0.00     0.049 A 
ATOM     56  C   UNL     1       3.834   9.121  17.196  1.00  0.00     0.074 A 
ATOM     57  C   UNL     1       2.031  14.309  15.793  1.00  0.00     0.029 A 
ATOM     58  N   UNL     1       3.858  14.247  17.055  1.00  0.00    -0.354 N 
ATOM     59  N   UNL     1       3.857  10.429  17.094  1.00  0.00    -0.248 NA
ATOM     60  C   UNL     1       3.697   8.671  18.577  1.00  0.00     0.031 C 
ATOM     61  C   UNL     1       1.908  13.254  16.743  1.00  0.00     0.029 A 
ATOM     62  C   UNL     1       3.090  13.168  17.462  1.00  0.00     0.049 A 
ATOM     63  H   UNL     1       4.697  14.528  17.487  1.00  0.00     0.167 HD
ATOM     64  C   UNL     1       3.669  10.989  18.335  1.00  0.00     0.074 A 
ATOM     65  C   UNL     1       3.582   9.842  19.226  1.00  0.00     0.031 C 
ATOM     66  C   UNL     1       3.530  12.332  18.573  1.00  0.00     0.037 A 
BRANCH  53  67
ATOM     67  C   UNL     1       3.786  16.968  14.403  1.00  0.00     0.058 A 
ATOM     68  C   UNL     1       2.552  17.578  14.720  1.00  0.00     0.135 A 
ATOM     69  C   UNL     1       4.575  17.714  13.497  1.00  0.00     0.135 A 
ATOM     70  F   UNL     1       1.709  17.031  15.606  1.00  0.00    -0.206 F 
ATOM     71  C   UNL     1       2.125  18.787  14.161  1.00  0.00     0.059 A 
ATOM     72  C   UNL     1       4.155  18.905  12.896  1.00  0.00     0.059 A 
ATOM     73  F   UNL     1       5.827  17.369  13.185  1.00  0.00    -0.206 F 
ATOM     74  C   UNL     1       2.931  19.444  13.243  1.00  0.00     0.060 A 
BRANCH  74  75
ATOM     75  S   UNL     1       2.395  21.031  12.582  1.00  0.00     0.124 S 
ATOM     76  O   UNL     1       1.131  20.685  11.940  1.00  0.00    -0.237 OA
ATOM     77  O   UNL     1       2.295  21.843  13.790  1.00  0.00    -0.237 OA
ATOM     78  O   UNL     1       3.474  21.404  11.670  1.00  0.00    -0.744 OA
ENDBRANCH  74  75
ENDBRANCH  53  67
BRANCH  54  79
ATOM     79  C   UNL     1       4.724   7.117  15.543  1.00  0.00     0.058 A 
ATOM     80  C   UNL     1       4.140   5.969  14.960  1.00  0.00     0.135 A 
ATOM     81  C   UNL     1       6.046   7.400  15.157  1.00  0.00     0.135 A 
ATOM     82  F   UNL     1       2.893   5.610  15.309  1.00  0.00    -0.206 F 
ATOM     83  C   UNL     1       4.743   5.268  13.917  1.00  0.00     0.059 A 
ATOM     84  C   UNL     1       6.672   6.711  14.099  1.00  0.00     0.059 A 
ATOM     85  F   UNL     1       6.701   8.423  15.724  1.00  0.00    -0.206 F 
ATOM     86  C   UNL     1       5.978   5.695  13.440  1.00  0.00     0.060 A 
BRANCH  86  87
ATOM     87  S   UNL     1       6.561   4.977  11.880  1.00  0.00     0.124 S 
ATOM     88  O   UNL     1       6.532   3.547  12.169  1.00  0.00    -0.237 OA
ATOM     89  O   UNL     1       5.554   5.454  10.933  1.00  0.00    -0.237 OA
ATOM     90  O   UNL     1       7.885   5.553  11.696  1.00  0.00    -0.744 OA
ENDBRANCH  86  87
ENDBRANCH  54  79
BRANCH  66  91
ATOM     91  C   UNL     1       3.724  13.001  19.923  1.00  0.00     0.058 A 
ATOM     92  C   UNL     1       4.466  12.438  20.975  1.00  0.00     0.135 A 
ATOM     93  C   UNL     1       3.307  14.343  20.134  1.00  0.00     0.135 A 
ATOM     94  F   UNL     1       5.032  11.228  20.872  1.00  0.00    -0.206 F 
ATOM     95  C   UNL     1       4.705  13.115  22.168  1.00  0.00     0.059 A 
ATOM     96  C   UNL     1       3.618  15.069  21.277  1.00  0.00     0.059 A 
ATOM     97  F   UNL     1       2.594  15.019  19.221  1.00  0.00    -0.206 F 
ATOM     98  C   UNL     1       4.286  14.433  22.308  1.00  0.00     0.060 A 
BRANCH  98  99
ATOM     99  S   UNL     1       4.650  15.316  23.829  1.00  0.00     0.124 S 
ATOM    100  O   UNL     1       3.573  14.849  24.695  1.00  0.00    -0.237 OA
ATOM    101  O   UNL     1       5.986  14.833  24.164  1.00  0.00    -0.237 OA
ATOM    102  O   UNL     1       4.579  16.719  23.432  1.00  0.00    -0.744 OA
ENDBRANCH  98  99
ENDBRANCH  66  91
ENDBRANCH  40  41
ENDBRANCH  32  35
ENDBRANCH  30  31
ENDBRANCH  29  30
ENDBRANCH   1  29
TORSDOF 18
