REMARK SMILES O=C(CN1C(=O)/C(=C2/Sc3ccccc3N2CCCS(=O)(=O)[O-])SC1=S)NCCCCNC(=O)c1ccc(-c2c3nc(c(-c4c(F)cc(S(=O)(=O)[O-])cc4F)c4ccc([nH]4)c(-c4c(F)cc(S(=O)(=O)[O-])cc4F)c4nc(c(-c5c(F)cc(S(=O)(=O)[O-])cc5F)c5ccc2[nH]5)C=C4)C=C3)cc1
REMARK SMILES IDX 28 1 27 2 1 3 2 4 3 6 4 7 5 8 25 9 6 10 7 11 24 12 26 13
REMARK SMILES IDX 8 14 9 15 16 16 10 17 15 18 11 19 14 20 12 21 13 22 17 23
REMARK SMILES IDX 18 24 19 25 20 26 21 27 22 28 23 29 29 30 30 31 31 32 32 33
REMARK SMILES IDX 33 34 34 36 35 37 36 38 100 39 37 40 99 41 38 42 39 43 40 44
REMARK SMILES IDX 93 45 41 46 98 47 92 48 94 49 42 50 97 51 91 52 90 53 43 55
REMARK SMILES IDX 77 56 56 57 76 58 57 59 60 60 75 61 95 62 58 63 59 64 74 66
REMARK SMILES IDX 96 67 61 68 44 69 45 70 54 71 46 72 47 73 53 74 55 75 48 76
REMARK SMILES IDX 49 77 50 78 51 79 52 80 78 81 79 82 88 83 80 84 81 85 87 86
REMARK SMILES IDX 89 87 82 88 83 89 84 90 85 91 86 92 62 93 63 94 72 95 64 96
REMARK SMILES IDX 65 97 71 98 73 99 66 100 67 101 68 102 69 103 70 104
REMARK H PARENT 27 5 32 35 94 54 60 65
REMARK Flexibility Score: inf
ROOT
ATOM      1  C   UNL     1       1.866   1.799   1.067  1.00  0.00     0.116 C 
ENDROOT
BRANCH   1   2
ATOM      2  N   UNL     1       2.677   0.576   0.803  1.00  0.00    -0.355 N 
ATOM      3  O   UNL     1       1.213  -0.171  -0.804  1.00  0.00    -0.273 OA
ATOM      4  C   UNL     1       2.269  -0.350  -0.190  1.00  0.00     0.240 C 
ATOM      5  H   UNL     1       3.499   0.412   1.319  1.00  0.00     0.163 HD
BRANCH   4   6
ATOM      6  C   UNL     1       3.190  -1.585  -0.575  1.00  0.00     0.227 C 
BRANCH   6   7
ATOM      7  N   UNL     1       3.374  -1.824  -2.067  1.00  0.00    -0.283 N 
ATOM      8  C   UNL     1       4.207  -1.068  -2.862  1.00  0.00     0.269 C 
ATOM      9  C   UNL     1       3.027  -2.973  -2.743  1.00  0.00     0.148 C 
ATOM     10  O   UNL     1       5.279  -0.578  -2.545  1.00  0.00    -0.268 OA
ATOM     11  C   UNL     1       3.839  -1.136  -4.287  1.00  0.00     0.111 C 
ATOM     12  S   UNL     1       3.297  -2.766  -4.496  1.00  0.00    -0.052 SA
ATOM     13  S   UNL     1       2.504  -4.426  -2.112  1.00  0.00    -0.052 S 
ATOM     14  C   UNL     1       3.855  -0.105  -5.171  1.00  0.00     0.100 C 
ATOM     15  S   UNL     1       3.585  -0.501  -6.929  1.00  0.00    -0.068 SA
ATOM     16  N   UNL     1       4.009   1.298  -4.979  1.00  0.00    -0.334 N 
ATOM     17  C   UNL     1       3.643   1.236  -7.326  1.00  0.00     0.037 A 
ATOM     18  C   UNL     1       3.756   2.031  -6.176  1.00  0.00     0.056 A 
ATOM     19  C   UNL     1       3.595   1.800  -8.596  1.00  0.00     0.017 A 
ATOM     20  C   UNL     1       3.634   3.417  -6.301  1.00  0.00     0.027 A 
ATOM     21  C   UNL     1       3.557   3.191  -8.714  1.00  0.00     0.001 A 
ATOM     22  C   UNL     1       3.533   3.994  -7.570  1.00  0.00     0.002 A 
BRANCH  16  23
ATOM     23  C   UNL     1       4.817   2.024  -3.991  1.00  0.00     0.124 C 
BRANCH  23  24
ATOM     24  C   UNL     1       3.986   2.611  -2.860  1.00  0.00     0.037 C 
BRANCH  24  25
ATOM     25  C   UNL     1       3.958   1.765  -1.617  1.00  0.00     0.124 C 
BRANCH  25  26
ATOM     26  S   UNL     1       5.458   1.508  -0.617  1.00  0.00     0.095 S 
ATOM     27  O   UNL     1       5.528   2.479   0.441  1.00  0.00    -0.243 OA
ATOM     28  O   UNL     1       5.641   0.133  -0.232  1.00  0.00    -0.243 OA
ATOM     29  O   UNL     1       6.611   1.905  -1.659  1.00  0.00    -0.748 OA
ENDBRANCH  25  26
ENDBRANCH  24  25
ENDBRANCH  23  24
ENDBRANCH  16  23
ENDBRANCH   6   7
ENDBRANCH   4   6
ENDBRANCH   1   2
BRANCH   1  30
ATOM     30  C   UNL     1       2.276   2.924   2.074  1.00  0.00     0.023 C 
BRANCH  30  31
ATOM     31  C   UNL     1       3.539   3.827   2.041  1.00  0.00     0.023 C 
BRANCH  31  32
ATOM     32  C   UNL     1       3.999   4.554   0.763  1.00  0.00     0.116 C 
BRANCH  32  33
ATOM     33  N   UNL     1       3.661   5.950   0.584  1.00  0.00    -0.352 N 
ATOM     34  C   UNL     1       4.503   7.015   0.298  1.00  0.00     0.251 C 
ATOM     35  H   UNL     1       2.707   6.173   0.677  1.00  0.00     0.163 HD
ATOM     36  O   UNL     1       4.006   8.124   0.105  1.00  0.00    -0.269 OA
BRANCH  34  37
ATOM     37  C   UNL     1       5.995   6.884   0.269  1.00  0.00     0.039 A 
ATOM     38  C   UNL     1       6.672   5.933  -0.502  1.00  0.00     0.014 A 
ATOM     39  C   UNL     1       6.750   7.797   1.018  1.00  0.00     0.014 A 
ATOM     40  C   UNL     1       8.070   5.805  -0.406  1.00  0.00     0.010 A 
ATOM     41  C   UNL     1       8.152   7.701   1.073  1.00  0.00     0.010 A 
ATOM     42  C   UNL     1       8.829   6.669   0.404  1.00  0.00    -0.014 A 
BRANCH  42  43
ATOM     43  C   UNL     1      10.303   6.464   0.586  1.00  0.00     0.031 A 
ATOM     44  C   UNL     1      10.863   6.092   1.944  1.00  0.00     0.074 A 
ATOM     45  C   UNL     1      11.152   6.572  -0.458  1.00  0.00     0.049 A 
ATOM     46  N   UNL     1      12.107   5.872   2.299  1.00  0.00    -0.248 NA
ATOM     47  C   UNL     1       9.901   5.950   3.049  1.00  0.00     0.031 C 
ATOM     48  C   UNL     1      10.764   6.919  -1.825  1.00  0.00     0.029 A 
ATOM     49  N   UNL     1      12.515   6.393  -0.540  1.00  0.00    -0.354 N 
ATOM     50  C   UNL     1      12.075   5.569   3.657  1.00  0.00     0.074 A 
ATOM     51  C   UNL     1      10.694   5.678   4.076  1.00  0.00     0.031 C 
ATOM     52  C   UNL     1      11.851   6.891  -2.614  1.00  0.00     0.029 A 
ATOM     53  C   UNL     1      13.027   6.576  -1.805  1.00  0.00     0.049 A 
ATOM     54  H   UNL     1      13.073   6.156   0.236  1.00  0.00     0.167 HD
ATOM     55  C   UNL     1      13.092   5.209   4.479  1.00  0.00     0.037 A 
ATOM     56  C   UNL     1      14.294   6.511  -2.267  1.00  0.00     0.037 A 
ATOM     57  C   UNL     1      14.468   5.081   4.067  1.00  0.00     0.049 A 
ATOM     58  C   UNL     1      15.417   6.175  -1.318  1.00  0.00     0.074 A 
ATOM     59  C   UNL     1      15.560   4.702   4.831  1.00  0.00     0.029 A 
ATOM     60  N   UNL     1      14.944   5.324   2.788  1.00  0.00    -0.354 N 
ATOM     61  N   UNL     1      15.357   5.870  -0.044  1.00  0.00    -0.248 NA
ATOM     62  C   UNL     1      16.781   6.178  -1.869  1.00  0.00     0.031 C 
ATOM     63  C   UNL     1      16.702   4.766   4.028  1.00  0.00     0.029 A 
ATOM     64  C   UNL     1      16.315   5.127   2.749  1.00  0.00     0.049 A 
ATOM     65  H   UNL     1      14.389   5.596   2.022  1.00  0.00     0.167 HD
ATOM     66  C   UNL     1      16.668   5.623   0.351  1.00  0.00     0.074 A 
ATOM     67  C   UNL     1      17.499   5.795  -0.822  1.00  0.00     0.031 C 
ATOM     68  C   UNL     1      17.140   5.288   1.577  1.00  0.00     0.037 A 
BRANCH  55  69
ATOM     69  C   UNL     1      12.771   4.906   5.921  1.00  0.00     0.058 A 
ATOM     70  C   UNL     1      12.093   3.734   6.290  1.00  0.00     0.135 A 
ATOM     71  C   UNL     1      13.235   5.744   6.950  1.00  0.00     0.135 A 
ATOM     72  F   UNL     1      11.618   2.903   5.349  1.00  0.00    -0.206 F 
ATOM     73  C   UNL     1      11.878   3.407   7.626  1.00  0.00     0.059 A 
ATOM     74  C   UNL     1      13.055   5.423   8.293  1.00  0.00     0.059 A 
ATOM     75  F   UNL     1      13.893   6.876   6.655  1.00  0.00    -0.206 F 
ATOM     76  C   UNL     1      12.370   4.254   8.621  1.00  0.00     0.060 A 
BRANCH  76  77
ATOM     77  S   UNL     1      12.111   3.790  10.347  1.00  0.00     0.124 S 
ATOM     78  O   UNL     1      10.663   3.923  10.471  1.00  0.00    -0.237 OA
ATOM     79  O   UNL     1      12.626   2.425  10.380  1.00  0.00    -0.237 OA
ATOM     80  O   UNL     1      12.896   4.773  11.087  1.00  0.00    -0.744 OA
ENDBRANCH  76  77
ENDBRANCH  55  69
BRANCH  56  81
ATOM     81  C   UNL     1      14.580   6.771  -3.707  1.00  0.00     0.058 A 
ATOM     82  C   UNL     1      15.045   5.749  -4.549  1.00  0.00     0.135 A 
ATOM     83  C   UNL     1      14.402   8.045  -4.269  1.00  0.00     0.135 A 
ATOM     84  F   UNL     1      15.247   4.516  -4.060  1.00  0.00    -0.206 F 
ATOM     85  C   UNL     1      15.337   5.983  -5.890  1.00  0.00     0.059 A 
ATOM     86  C   UNL     1      14.656   8.296  -5.614  1.00  0.00     0.059 A 
ATOM     87  F   UNL     1      13.954   9.058  -3.511  1.00  0.00    -0.206 F 
ATOM     88  C   UNL     1      15.133   7.260  -6.414  1.00  0.00     0.060 A 
BRANCH  88  89
ATOM     89  S   UNL     1      15.475   7.540  -8.166  1.00  0.00     0.124 S 
ATOM     90  O   UNL     1      16.928   7.428  -8.204  1.00  0.00    -0.237 OA
ATOM     91  O   UNL     1      14.733   6.453  -8.796  1.00  0.00    -0.237 OA
ATOM     92  O   UNL     1      14.938   8.877  -8.404  1.00  0.00    -0.744 OA
ENDBRANCH  88  89
ENDBRANCH  56  81
BRANCH  68  93
ATOM     93  C   UNL     1      18.620   5.056   1.726  1.00  0.00     0.058 A 
ATOM     94  C   UNL     1      19.540   6.116   1.686  1.00  0.00     0.135 A 
ATOM     95  C   UNL     1      19.118   3.769   1.989  1.00  0.00     0.135 A 
ATOM     96  F   UNL     1      19.120   7.366   1.433  1.00  0.00    -0.206 F 
ATOM     97  C   UNL     1      20.901   5.906   1.885  1.00  0.00     0.059 A 
ATOM     98  C   UNL     1      20.472   3.541   2.221  1.00  0.00     0.059 A 
ATOM     99  F   UNL     1      18.283   2.720   2.049  1.00  0.00    -0.206 F 
ATOM    100  C   UNL     1      21.357   4.615   2.159  1.00  0.00     0.060 A 
BRANCH 100 101
ATOM    101  S   UNL     1      23.120   4.370   2.459  1.00  0.00     0.124 S 
ATOM    102  O   UNL     1      23.682   4.615   1.135  1.00  0.00    -0.237 OA
ATOM    103  O   UNL     1      23.407   5.386   3.467  1.00  0.00    -0.237 OA
ATOM    104  O   UNL     1      23.199   2.990   2.928  1.00  0.00    -0.744 OA
ENDBRANCH 100 101
ENDBRANCH  68  93
ENDBRANCH  42  43
ENDBRANCH  34  37
ENDBRANCH  32  33
ENDBRANCH  31  32
ENDBRANCH  30  31
ENDBRANCH   1  30
TORSDOF 19
