REMARK SMILES Cc1c(CC(=O)NCCCCNC(=O)c2ccc(-c3c4nc(c(-c5c(F)cc(S(=O)(=O)[O-])cc5F)c5ccc([nH]5)c(-c5c(F)cc(S(=O)(=O)[O-])cc5F)c5nc(c(-c6c(F)cc(S(=O)(=O)[O-])cc6F)c6ccc3[nH]6)C=C5)C=C4)cc2)cccc1-c1ccn(C(F)F)c(=O)c1
REMARK SMILES IDX 9 1 8 2 7 3 5 4 6 5 4 7 3 8 1 9 2 10 84 11 81 12 83 13 82 14
REMARK SMILES IDX 85 15 86 16 94 17 87 18 92 19 88 20 93 21 89 22 90 23 91 24
REMARK SMILES IDX 10 25 11 26 12 27 13 28 14 30 15 31 16 32 80 33 17 34 79 35
REMARK SMILES IDX 18 36 19 37 20 38 73 39 21 40 78 41 72 42 74 43 22 44 77 45
REMARK SMILES IDX 71 46 70 47 23 49 57 50 36 51 56 52 37 53 40 54 55 55 75 56
REMARK SMILES IDX 38 57 39 58 54 60 76 61 41 62 24 63 25 64 34 65 26 66 27 67
REMARK SMILES IDX 33 68 35 69 28 70 29 71 30 72 31 73 32 74 58 75 59 76 68 77
REMARK SMILES IDX 60 78 61 79 67 80 69 81 62 82 63 83 64 84 65 85 66 86 42 87
REMARK SMILES IDX 43 88 52 89 44 90 45 91 51 92 53 93 46 94 47 95 48 96 49 97
REMARK SMILES IDX 50 98
REMARK H PARENT 7 6 12 29 74 48 40 59
REMARK Flexibility Score: inf
ROOT
ATOM      1  C   UNL     1       0.543  -0.310   3.284  1.00  0.00     0.023 C 
ENDROOT
BRANCH   1   2
ATOM      2  C   UNL     1       1.443  -1.501   2.916  1.00  0.00     0.116 C 
BRANCH   2   3
ATOM      3  N   UNL     1       0.703  -2.691   2.522  1.00  0.00    -0.356 N 
ATOM      4  C   UNL     1       0.441  -3.185   1.276  1.00  0.00     0.224 C 
ATOM      5  O   UNL     1      -0.200  -4.236   1.183  1.00  0.00    -0.275 OA
ATOM      6  H   UNL     1       0.336  -3.220   3.267  1.00  0.00     0.163 HD
BRANCH   4   7
ATOM      7  C   UNL     1       0.942  -2.466   0.029  1.00  0.00     0.135 C 
BRANCH   7   8
ATOM      8  C   UNL     1       0.304  -1.105  -0.177  1.00  0.00    -0.035 A 
ATOM      9  C   UNL     1       2.556   0.076  -0.383  1.00  0.00     0.045 C 
ATOM     10  C   UNL     1       1.048   0.099  -0.269  1.00  0.00    -0.040 A 
ATOM     11  C   UNL     1       0.344   1.332  -0.292  1.00  0.00    -0.015 A 
ATOM     12  C   UNL     1      -1.105  -1.058  -0.208  1.00  0.00     0.004 A 
ATOM     13  C   UNL     1      -1.062   1.342  -0.290  1.00  0.00     0.009 A 
ATOM     14  C   UNL     1      -1.782   0.154  -0.265  1.00  0.00     0.001 A 
BRANCH  11  15
ATOM     15  C   UNL     1       1.039   2.639  -0.246  1.00  0.00    -0.011 A 
ATOM     16  C   UNL     1       1.878   3.130  -1.322  1.00  0.00     0.027 A 
ATOM     17  C   UNL     1       0.934   3.363   0.883  1.00  0.00     0.080 A 
ATOM     18  C   UNL     1       2.623   4.229  -1.151  1.00  0.00     0.095 A 
ATOM     19  C   UNL     1       1.655   4.657   1.031  1.00  0.00     0.255 A 
ATOM     20  N   UNL     1       2.547   4.965   0.016  1.00  0.00    -0.258 N 
ATOM     21  O   UNL     1       1.410   5.362   2.003  1.00  0.00    -0.269 OA
BRANCH  20  22
ATOM     22  C   UNL     1       3.369   6.130   0.206  1.00  0.00     0.451 C 
ATOM     23  F   UNL     1       2.621   7.261   0.227  1.00  0.00    -0.185 F 
ATOM     24  F   UNL     1       4.075   6.063   1.357  1.00  0.00    -0.185 F 
ENDBRANCH  20  22
ENDBRANCH  11  15
ENDBRANCH   7   8
ENDBRANCH   4   7
ENDBRANCH   2   3
ENDBRANCH   1   2
BRANCH   1  25
ATOM     25  C   UNL     1      -0.380  -0.529   4.485  1.00  0.00     0.023 C 
BRANCH  25  26
ATOM     26  C   UNL     1       0.368  -0.756   5.790  1.00  0.00     0.116 C 
BRANCH  26  27
ATOM     27  N   UNL     1       0.528   0.414   6.629  1.00  0.00    -0.352 N 
ATOM     28  C   UNL     1       0.998   0.393   7.936  1.00  0.00     0.251 C 
ATOM     29  H   UNL     1       0.287   1.288   6.244  1.00  0.00     0.163 HD
ATOM     30  O   UNL     1       0.574   1.134   8.806  1.00  0.00    -0.269 OA
BRANCH  28  31
ATOM     31  C   UNL     1       2.174  -0.476   8.187  1.00  0.00     0.039 A 
ATOM     32  C   UNL     1       3.408   0.141   8.430  1.00  0.00     0.014 A 
ATOM     33  C   UNL     1       2.103  -1.843   7.940  1.00  0.00     0.014 A 
ATOM     34  C   UNL     1       4.589  -0.590   8.275  1.00  0.00     0.010 A 
ATOM     35  C   UNL     1       3.273  -2.536   7.687  1.00  0.00     0.010 A 
ATOM     36  C   UNL     1       4.520  -1.911   7.824  1.00  0.00    -0.014 A 
BRANCH  36  37
ATOM     37  C   UNL     1       5.674  -2.689   7.371  1.00  0.00     0.031 A 
ATOM     38  C   UNL     1       6.161  -3.864   8.143  1.00  0.00     0.074 A 
ATOM     39  C   UNL     1       6.265  -2.420   6.184  1.00  0.00     0.049 A 
ATOM     40  N   UNL     1       7.383  -4.293   8.108  1.00  0.00    -0.248 NA
ATOM     41  C   UNL     1       5.308  -4.642   9.038  1.00  0.00     0.031 C 
ATOM     42  C   UNL     1       7.163  -3.308   5.448  1.00  0.00     0.029 A 
ATOM     43  N   UNL     1       6.338  -1.215   5.482  1.00  0.00    -0.354 N 
ATOM     44  C   UNL     1       7.410  -5.522   8.728  1.00  0.00     0.074 A 
ATOM     45  C   UNL     1       6.111  -5.666   9.344  1.00  0.00     0.031 C 
ATOM     46  C   UNL     1       7.911  -2.571   4.616  1.00  0.00     0.029 A 
ATOM     47  C   UNL     1       7.607  -1.175   4.880  1.00  0.00     0.049 A 
ATOM     48  H   UNL     1       5.636  -0.528   5.420  1.00  0.00     0.167 HD
ATOM     49  C   UNL     1       8.463  -6.370   8.550  1.00  0.00     0.037 A 
ATOM     50  C   UNL     1       8.531  -0.183   5.029  1.00  0.00     0.037 A 
ATOM     51  C   UNL     1       9.461  -5.825   7.640  1.00  0.00     0.049 A 
ATOM     52  C   UNL     1       9.882  -0.680   5.488  1.00  0.00     0.074 A 
ATOM     53  C   UNL     1       9.663  -6.002   6.281  1.00  0.00     0.029 A 
ATOM     54  N   UNL     1      10.259  -4.756   8.023  1.00  0.00    -0.354 N 
ATOM     55  N   UNL     1      10.084  -1.872   5.972  1.00  0.00    -0.248 NA
ATOM     56  C   UNL     1      11.094   0.136   5.504  1.00  0.00     0.031 C 
ATOM     57  C   UNL     1      10.579  -5.024   5.838  1.00  0.00     0.029 A 
ATOM     58  C   UNL     1      10.929  -4.246   6.926  1.00  0.00     0.049 A 
ATOM     59  H   UNL     1      10.337  -4.411   8.942  1.00  0.00     0.167 HD
ATOM     60  C   UNL     1      11.377  -1.978   6.414  1.00  0.00     0.074 A 
ATOM     61  C   UNL     1      11.979  -0.705   6.068  1.00  0.00     0.031 C 
ATOM     62  C   UNL     1      11.822  -3.104   7.046  1.00  0.00     0.037 A 
BRANCH  49  63
ATOM     63  C   UNL     1       8.409  -7.825   8.962  1.00  0.00     0.058 A 
ATOM     64  C   UNL     1       8.940  -8.841   8.138  1.00  0.00     0.135 A 
ATOM     65  C   UNL     1       7.800  -8.276  10.149  1.00  0.00     0.135 A 
ATOM     66  F   UNL     1       9.621  -8.560   7.020  1.00  0.00    -0.206 F 
ATOM     67  C   UNL     1       8.774 -10.198   8.408  1.00  0.00     0.059 A 
ATOM     68  C   UNL     1       7.579  -9.632  10.418  1.00  0.00     0.059 A 
ATOM     69  F   UNL     1       7.400  -7.405  11.089  1.00  0.00    -0.206 F 
ATOM     70  C   UNL     1       8.057 -10.587   9.530  1.00  0.00     0.060 A 
BRANCH  70  71
ATOM     71  S   UNL     1       7.730 -12.344   9.774  1.00  0.00     0.124 S 
ATOM     72  O   UNL     1       7.230 -12.751   8.464  1.00  0.00    -0.237 OA
ATOM     73  O   UNL     1       9.049 -12.851  10.134  1.00  0.00    -0.237 OA
ATOM     74  O   UNL     1       6.736 -12.356  10.843  1.00  0.00    -0.744 OA
ENDBRANCH  70  71
ENDBRANCH  49  63
BRANCH  50  75
ATOM     75  C   UNL     1       7.962   1.139   5.383  1.00  0.00     0.058 A 
ATOM     76  C   UNL     1       7.235   1.828   4.396  1.00  0.00     0.135 A 
ATOM     77  C   UNL     1       7.735   1.472   6.726  1.00  0.00     0.135 A 
ATOM     78  F   UNL     1       7.447   1.562   3.097  1.00  0.00    -0.206 F 
ATOM     79  C   UNL     1       6.186   2.673   4.733  1.00  0.00     0.059 A 
ATOM     80  C   UNL     1       6.690   2.318   7.086  1.00  0.00     0.059 A 
ATOM     81  F   UNL     1       8.399   0.836   7.701  1.00  0.00    -0.206 F 
ATOM     82  C   UNL     1       5.875   2.844   6.082  1.00  0.00     0.060 A 
BRANCH  82  83
ATOM     83  S   UNL     1       4.274   3.577   6.494  1.00  0.00     0.124 S 
ATOM     84  O   UNL     1       4.358   4.869   5.827  1.00  0.00    -0.237 OA
ATOM     85  O   UNL     1       3.355   2.603   5.907  1.00  0.00    -0.237 OA
ATOM     86  O   UNL     1       4.297   3.612   7.952  1.00  0.00    -0.744 OA
ENDBRANCH  82  83
ENDBRANCH  50  75
BRANCH  62  87
ATOM     87  C   UNL     1      13.154  -3.281   7.732  1.00  0.00     0.058 A 
ATOM     88  C   UNL     1      13.862  -2.241   8.356  1.00  0.00     0.135 A 
ATOM     89  C   UNL     1      13.705  -4.576   7.894  1.00  0.00     0.135 A 
ATOM     90  F   UNL     1      13.389  -0.987   8.369  1.00  0.00    -0.206 F 
ATOM     91  C   UNL     1      15.066  -2.455   9.034  1.00  0.00     0.059 A 
ATOM     92  C   UNL     1      14.876  -4.819   8.607  1.00  0.00     0.059 A 
ATOM     93  F   UNL     1      13.113  -5.659   7.366  1.00  0.00    -0.206 F 
ATOM     94  C   UNL     1      15.566  -3.748   9.153  1.00  0.00     0.060 A 
BRANCH  94  95
ATOM     95  S   UNL     1      17.087  -4.052  10.072  1.00  0.00     0.124 S 
ATOM     96  O   UNL     1      18.078  -4.063   9.000  1.00  0.00    -0.237 OA
ATOM     97  O   UNL     1      17.157  -2.911  10.980  1.00  0.00    -0.237 OA
ATOM     98  O   UNL     1      16.832  -5.338  10.713  1.00  0.00    -0.744 OA
ENDBRANCH  94  95
ENDBRANCH  62  87
ENDBRANCH  36  37
ENDBRANCH  28  31
ENDBRANCH  26  27
ENDBRANCH  25  26
ENDBRANCH   1  25
TORSDOF 17
