REMARK SMILES O=C(NCCCCNC(=O)[C@@H]1CCC[C@@H](C(=O)N2CCN3C(=O)NC[C@@H]3C2)C1)c1ccc(-c2c3nc(c(-c4c(F)cc(S(=O)(=O)[O-])cc4F)c4ccc([nH]4)c(-c4c(F)cc(S(=O)(=O)[O-])cc4F)c4nc(c(-c5c(F)cc(S(=O)(=O)[O-])cc5F)c5ccc2[nH]5)C=C4)C=C3)cc1
REMARK SMILES IDX 5 1 4 2 3 3 1 4 2 5 29 7 30 8 94 9 31 10 93 11 32 12 33 13
REMARK SMILES IDX 34 14 87 15 35 16 92 17 86 18 88 19 36 20 91 21 85 22 84 23
REMARK SMILES IDX 37 25 71 26 50 27 70 28 51 29 54 30 69 31 89 32 52 33 53 34
REMARK SMILES IDX 68 36 90 37 55 38 38 39 39 40 48 41 40 42 41 43 47 44 49 45
REMARK SMILES IDX 42 46 43 47 44 48 45 49 46 50 72 51 73 52 82 53 74 54 75 55
REMARK SMILES IDX 81 56 83 57 76 58 77 59 78 60 79 61 80 62 56 63 57 64 66 65
REMARK SMILES IDX 58 66 59 67 65 68 67 69 60 70 61 71 62 72 63 73 64 74 6 75
REMARK SMILES IDX 7 76 8 77 9 78 10 80 11 81 12 82 28 83 13 84 15 85 14 86
REMARK SMILES IDX 16 87 17 88 18 89 19 90 27 91 20 92 26 93 21 94 25 95 22 96
REMARK SMILES IDX 24 97 23 98
REMARK H PARENT 3 6 88 24 54 35 8 79 24 99
REMARK Flexibility Score: inf
ROOT
ATOM      1  C   UNL     1       5.035  -2.236   0.672  1.00  0.00     0.023 C 
ENDROOT
BRANCH   1   2
ATOM      2  C   UNL     1       4.604  -0.974  -0.041  1.00  0.00     0.116 C 
BRANCH   2   3
ATOM      3  N   UNL     1       3.167  -0.903  -0.275  1.00  0.00    -0.352 N 
ATOM      4  O   UNL     1       1.132   0.091  -0.251  1.00  0.00    -0.269 OA
ATOM      5  C   UNL     1       2.347   0.194  -0.132  1.00  0.00     0.251 C 
ATOM      6  H   UNL     1       2.732  -1.736  -0.569  1.00  0.00     0.163 HD
BRANCH   5   7
ATOM      7  C   UNL     1       2.977   1.483   0.211  1.00  0.00     0.039 A 
ATOM      8  C   UNL     1       4.108   1.902  -0.493  1.00  0.00     0.014 A 
ATOM      9  C   UNL     1       2.513   2.200   1.314  1.00  0.00     0.014 A 
ATOM     10  C   UNL     1       4.883   2.929   0.019  1.00  0.00     0.010 A 
ATOM     11  C   UNL     1       3.232   3.314   1.752  1.00  0.00     0.010 A 
ATOM     12  C   UNL     1       4.443   3.662   1.133  1.00  0.00    -0.014 A 
BRANCH  12  13
ATOM     13  C   UNL     1       5.240   4.829   1.586  1.00  0.00     0.031 A 
ATOM     14  C   UNL     1       5.843   4.881   2.962  1.00  0.00     0.074 A 
ATOM     15  C   UNL     1       5.428   5.842   0.719  1.00  0.00     0.049 A 
ATOM     16  N   UNL     1       6.560   5.830   3.508  1.00  0.00    -0.248 NA
ATOM     17  C   UNL     1       5.603   3.729   3.844  1.00  0.00     0.031 C 
ATOM     18  C   UNL     1       4.888   5.895  -0.644  1.00  0.00     0.029 A 
ATOM     19  N   UNL     1       6.134   7.009   0.838  1.00  0.00    -0.354 N 
ATOM     20  C   UNL     1       6.834   5.406   4.804  1.00  0.00     0.074 A 
ATOM     21  C   UNL     1       6.182   4.124   4.970  1.00  0.00     0.031 C 
ATOM     22  C   UNL     1       5.329   7.004  -1.251  1.00  0.00     0.029 A 
ATOM     23  C   UNL     1       6.108   7.782  -0.298  1.00  0.00     0.049 A 
ATOM     24  H   UNL     1       6.613   7.269   1.658  1.00  0.00     0.167 HD
ATOM     25  C   UNL     1       7.564   6.030   5.761  1.00  0.00     0.037 A 
ATOM     26  C   UNL     1       6.633   8.996  -0.543  1.00  0.00     0.037 A 
ATOM     27  C   UNL     1       8.209   7.307   5.573  1.00  0.00     0.049 A 
ATOM     28  C   UNL     1       7.401   9.683   0.546  1.00  0.00     0.074 A 
ATOM     29  C   UNL     1       9.000   8.012   6.464  1.00  0.00     0.029 A 
ATOM     30  N   UNL     1       8.127   8.079   4.421  1.00  0.00    -0.354 N 
ATOM     31  N   UNL     1       7.673   9.257   1.756  1.00  0.00    -0.248 NA
ATOM     32  C   UNL     1       7.932  11.015   0.237  1.00  0.00     0.031 C 
ATOM     33  C   UNL     1       9.341   9.235   5.876  1.00  0.00     0.029 A 
ATOM     34  C   UNL     1       8.826   9.265   4.590  1.00  0.00     0.049 A 
ATOM     35  H   UNL     1       7.643   7.822   3.603  1.00  0.00     0.167 HD
ATOM     36  C   UNL     1       8.436  10.257   2.346  1.00  0.00     0.074 A 
ATOM     37  C   UNL     1       8.586  11.304   1.354  1.00  0.00     0.031 C 
ATOM     38  C   UNL     1       8.969  10.300   3.593  1.00  0.00     0.037 A 
BRANCH  25  39
ATOM     39  C   UNL     1       7.668   5.363   7.109  1.00  0.00     0.058 A 
ATOM     40  C   UNL     1       8.369   4.161   7.298  1.00  0.00     0.135 A 
ATOM     41  C   UNL     1       7.063   5.945   8.236  1.00  0.00     0.135 A 
ATOM     42  F   UNL     1       8.961   3.552   6.258  1.00  0.00    -0.206 F 
ATOM     43  C   UNL     1       8.425   3.536   8.542  1.00  0.00     0.059 A 
ATOM     44  C   UNL     1       7.134   5.355   9.496  1.00  0.00     0.059 A 
ATOM     45  F   UNL     1       6.384   7.097   8.121  1.00  0.00    -0.206 F 
ATOM     46  C   UNL     1       7.798   4.138   9.633  1.00  0.00     0.060 A 
BRANCH  46  47
ATOM     47  S   UNL     1       7.846   3.296  11.230  1.00  0.00     0.124 S 
ATOM     48  O   UNL     1       6.945   2.172  10.992  1.00  0.00    -0.237 OA
ATOM     49  O   UNL     1       9.259   2.957  11.361  1.00  0.00    -0.237 OA
ATOM     50  O   UNL     1       7.356   4.305  12.163  1.00  0.00    -0.744 OA
ENDBRANCH  46  47
ENDBRANCH  25  39
BRANCH  26  51
ATOM     51  C   UNL     1       6.448   9.615  -1.880  1.00  0.00     0.058 A 
ATOM     52  C   UNL     1       7.529   9.759  -2.760  1.00  0.00     0.135 A 
ATOM     53  C   UNL     1       5.179  10.019  -2.328  1.00  0.00     0.135 A 
ATOM     54  F   UNL     1       8.760   9.387  -2.377  1.00  0.00    -0.206 F 
ATOM     55  C   UNL     1       7.362  10.286  -4.036  1.00  0.00     0.059 A 
ATOM     56  C   UNL     1       4.982  10.520  -3.609  1.00  0.00     0.059 A 
ATOM     57  F   UNL     1       4.108   9.881  -1.530  1.00  0.00    -0.206 F 
ATOM     58  C   UNL     1       6.082  10.656  -4.454  1.00  0.00     0.060 A 
BRANCH  58  59
ATOM     59  S   UNL     1       5.870  11.273  -6.137  1.00  0.00     0.124 S 
ATOM     60  O   UNL     1       6.517  12.577  -6.055  1.00  0.00    -0.237 OA
ATOM     61  O   UNL     1       6.569  10.260  -6.922  1.00  0.00    -0.237 OA
ATOM     62  O   UNL     1       4.420  11.297  -6.306  1.00  0.00    -0.744 OA
ENDBRANCH  58  59
ENDBRANCH  26  51
BRANCH  38  63
ATOM     63  C   UNL     1       9.809  11.499   3.939  1.00  0.00     0.058 A 
ATOM     64  C   UNL     1       9.251  12.774   4.125  1.00  0.00     0.135 A 
ATOM     65  C   UNL     1      11.195  11.359   4.121  1.00  0.00     0.135 A 
ATOM     66  F   UNL     1       7.933  12.967   3.953  1.00  0.00    -0.206 F 
ATOM     67  C   UNL     1      10.041  13.873   4.448  1.00  0.00     0.059 A 
ATOM     68  C   UNL     1      11.999  12.436   4.478  1.00  0.00     0.059 A 
ATOM     69  F   UNL     1      11.780  10.161   3.964  1.00  0.00    -0.206 F 
ATOM     70  C   UNL     1      11.414  13.693   4.625  1.00  0.00     0.060 A 
BRANCH  70  71
ATOM     71  S   UNL     1      12.423  15.121   5.072  1.00  0.00     0.124 S 
ATOM     72  O   UNL     1      12.439  15.873   3.822  1.00  0.00    -0.237 OA
ATOM     73  O   UNL     1      11.655  15.716   6.161  1.00  0.00    -0.237 OA
ATOM     74  O   UNL     1      13.698  14.527   5.463  1.00  0.00    -0.744 OA
ENDBRANCH  70  71
ENDBRANCH  38  63
ENDBRANCH  12  13
ENDBRANCH   5   7
ENDBRANCH   2   3
ENDBRANCH   1   2
BRANCH   1  75
ATOM     75  C   UNL     1       4.641  -3.518  -0.039  1.00  0.00     0.023 C 
BRANCH  75  76
ATOM     76  C   UNL     1       5.217  -3.683  -1.449  1.00  0.00     0.116 C 
BRANCH  76  77
ATOM     77  N   UNL     1       6.610  -4.069  -1.406  1.00  0.00    -0.356 N 
ATOM     78  C   UNL     1       7.156  -5.319  -1.439  1.00  0.00     0.223 C 
ATOM     79  H   UNL     1       7.254  -3.327  -1.345  1.00  0.00     0.163 HD
ATOM     80  O   UNL     1       8.381  -5.409  -1.350  1.00  0.00    -0.275 OA
BRANCH  78  81
ATOM     81  C   UNL     1       6.249  -6.548  -1.617  1.00  0.00     0.079 C 
ATOM     82  C   UNL     1       5.334  -6.762  -0.408  1.00  0.00     0.013 C 
ATOM     83  C   UNL     1       7.114  -7.793  -1.825  1.00  0.00     0.027 C 
ATOM     84  C   UNL     1       4.504  -8.030  -0.431  1.00  0.00     0.002 C 
ATOM     85  C   UNL     1       6.302  -9.081  -1.957  1.00  0.00     0.079 C 
ATOM     86  C   UNL     1       5.267  -9.274  -0.849  1.00  0.00     0.013 C 
BRANCH  85  87
ATOM     87  C   UNL     1       5.962  -9.432  -3.416  1.00  0.00     0.225 C 
ATOM     88  O   UNL     1       6.892  -9.704  -4.187  1.00  0.00    -0.275 OA
BRANCH  87  89
ATOM     89  N   UNL     1       4.663  -9.589  -3.841  1.00  0.00    -0.339 N 
ATOM     90  C   UNL     1       3.512  -8.755  -3.467  1.00  0.00     0.141 C 
ATOM     91  C   UNL     1       4.383 -10.710  -4.747  1.00  0.00     0.146 C 
ATOM     92  C   UNL     1       2.498  -8.464  -4.599  1.00  0.00     0.143 C 
ATOM     93  C   UNL     1       3.595 -10.257  -5.963  1.00  0.00     0.125 C 
ATOM     94  N   UNL     1       2.403  -9.541  -5.557  1.00  0.00    -0.317 N 
ATOM     95  C   UNL     1       3.031 -11.386  -6.818  1.00  0.00     0.144 C 
ATOM     96  C   UNL     1       1.340  -9.825  -6.396  1.00  0.00     0.317 C 
ATOM     97  N   UNL     1       1.736 -10.885  -7.204  1.00  0.00    -0.336 N 
ATOM     98  O   UNL     1       0.259  -9.276  -6.438  1.00  0.00    -0.249 OA
ATOM     99  H   UNL     1       1.199 -11.247  -7.946  1.00  0.00     0.165 HD
ENDBRANCH  87  89
ENDBRANCH  85  87
ENDBRANCH  78  81
ENDBRANCH  76  77
ENDBRANCH  75  76
ENDBRANCH   1  75
TORSDOF 16
