REMARK SMILES C[N@@H+](CCCCC(=O)NCCCCNC(=O)c1ccc(-c2c3nc(c(-c4c(F)cc(S(=O)(=O)[O-])cc4F)c4ccc([nH]4)c(-c4c(F)cc(S(=O)(=O)[O-])cc4F)c4nc(c(-c5c(F)cc(S(=O)(=O)[O-])cc5F)c5ccc2[nH]5)C=C4)C=C3)cc1)CC(C)(C)O
REMARK SMILES IDX 7 1 8 2 9 3 6 5 5 6 4 7 3 8 2 9 1 10 83 12 84 13 85 14 86 15
REMARK SMILES IDX 87 16 10 18 11 19 12 20 13 21 14 22 15 23 16 25 17 26 18 27
REMARK SMILES IDX 82 28 19 29 81 30 20 31 21 32 22 33 75 34 23 35 80 36 74 37
REMARK SMILES IDX 76 38 24 39 79 40 73 41 72 42 25 44 59 45 38 46 58 47 39 48
REMARK SMILES IDX 42 49 57 50 77 51 40 52 41 53 56 55 78 56 43 57 26 58 27 59
REMARK SMILES IDX 36 60 28 61 29 62 35 63 37 64 30 65 31 66 32 67 33 68 34 69
REMARK SMILES IDX 60 70 61 71 70 72 62 73 63 74 69 75 71 76 64 77 65 78 66 79
REMARK SMILES IDX 67 80 68 81 44 82 45 83 54 84 46 85 47 86 53 87 55 88 48 89
REMARK SMILES IDX 49 90 50 91 51 92 52 93
REMARK H PARENT 9 4 2 11 87 17 14 24 76 43 42 54
REMARK Flexibility Score: inf
ROOT
ATOM      1  C   UNL     1      -3.757  -0.646   3.856  1.00  0.00     0.219 C 
ATOM      2  O   UNL     1      -4.280  -1.413   4.667  1.00  0.00    -0.275 OA
ATOM      3  N   UNL     1      -4.551  -0.020   2.943  1.00  0.00    -0.356 N 
ATOM      4  H   UNL     1      -5.517  -0.177   3.049  1.00  0.00     0.163 HD
ENDROOT
BRANCH   1   5
ATOM      5  C   UNL     1      -2.261  -0.391   3.881  1.00  0.00     0.100 C 
BRANCH   5   6
ATOM      6  C   UNL     1      -1.461  -1.342   2.986  1.00  0.00     0.016 C 
BRANCH   6   7
ATOM      7  C   UNL     1      -1.114  -0.797   1.596  1.00  0.00     0.062 C 
BRANCH   7   8
ATOM      8  C   UNL     1      -0.177   0.412   1.551  1.00  0.00     0.262 C 
BRANCH   8   9
ATOM      9  N   UNL     1       1.232   0.160   1.244  1.00  0.00    -0.335 N 
ATOM     10  C   UNL     1       1.463  -0.157  -0.152  1.00  0.00     0.332 C 
ATOM     11  H   UNL     1       1.708   1.054   1.359  1.00  0.00     0.347 HD
BRANCH   9  12
ATOM     12  C   UNL     1       1.939  -0.660   2.237  1.00  0.00     0.296 C 
BRANCH  12  13
ATOM     13  C   UNL     1       2.135  -2.213   2.113  1.00  0.00     0.108 C 
ATOM     14  C   UNL     1       3.197  -2.602   1.083  1.00  0.00     0.048 C 
ATOM     15  C   UNL     1       2.541  -2.752   3.493  1.00  0.00     0.048 C 
BRANCH  13  16
ATOM     16  O   UNL     1       0.927  -2.882   1.759  1.00  0.00    -0.385 OA
ATOM     17  H   UNL     1       0.629  -2.573   0.889  1.00  0.00     0.211 HD
ENDBRANCH  13  16
ENDBRANCH  12  13
ENDBRANCH   9  12
ENDBRANCH   8   9
ENDBRANCH   7   8
ENDBRANCH   6   7
ENDBRANCH   5   6
ENDBRANCH   1   5
BRANCH   3  18
ATOM     18  C   UNL     1      -4.181   0.843   1.841  1.00  0.00     0.116 C 
BRANCH  18  19
ATOM     19  C   UNL     1      -4.218   0.081   0.513  1.00  0.00     0.023 C 
BRANCH  19  20
ATOM     20  C   UNL     1      -5.546   0.094  -0.221  1.00  0.00     0.023 C 
BRANCH  20  21
ATOM     21  C   UNL     1      -6.020   1.477  -0.617  1.00  0.00     0.116 C 
BRANCH  21  22
ATOM     22  N   UNL     1      -5.083   2.237  -1.439  1.00  0.00    -0.352 N 
ATOM     23  C   UNL     1      -5.409   3.241  -2.328  1.00  0.00     0.251 C 
ATOM     24  H   UNL     1      -4.128   2.013  -1.350  1.00  0.00     0.163 HD
ATOM     25  O   UNL     1      -4.560   3.798  -3.013  1.00  0.00    -0.269 OA
BRANCH  23  26
ATOM     26  C   UNL     1      -6.840   3.570  -2.459  1.00  0.00     0.039 A 
ATOM     27  C   UNL     1      -7.483   3.311  -3.670  1.00  0.00     0.014 A 
ATOM     28  C   UNL     1      -7.564   3.888  -1.308  1.00  0.00     0.014 A 
ATOM     29  C   UNL     1      -8.877   3.281  -3.702  1.00  0.00     0.010 A 
ATOM     30  C   UNL     1      -8.943   3.743  -1.321  1.00  0.00     0.010 A 
ATOM     31  C   UNL     1      -9.614   3.441  -2.517  1.00  0.00    -0.014 A 
BRANCH  31  32
ATOM     32  C   UNL     1     -11.094   3.322  -2.498  1.00  0.00     0.031 A 
ATOM     33  C   UNL     1     -11.917   4.498  -2.044  1.00  0.00     0.074 A 
ATOM     34  C   UNL     1     -11.687   2.150  -2.801  1.00  0.00     0.049 A 
ATOM     35  N   UNL     1     -13.206   4.577  -1.847  1.00  0.00    -0.248 NA
ATOM     36  C   UNL     1     -11.184   5.734  -1.720  1.00  0.00     0.031 C 
ATOM     37  C   UNL     1     -10.995   0.915  -3.181  1.00  0.00     0.029 A 
ATOM     38  N   UNL     1     -13.015   1.802  -2.829  1.00  0.00    -0.354 N 
ATOM     39  C   UNL     1     -13.429   5.852  -1.341  1.00  0.00     0.074 A 
ATOM     40  C   UNL     1     -12.139   6.487  -1.199  1.00  0.00     0.031 C 
ATOM     41  C   UNL     1     -11.904  -0.040  -3.440  1.00  0.00     0.029 A 
ATOM     42  C   UNL     1     -13.240   0.501  -3.215  1.00  0.00     0.049 A 
ATOM     43  H   UNL     1     -13.739   2.426  -2.594  1.00  0.00     0.167 HD
ATOM     44  C   UNL     1     -14.605   6.456  -1.055  1.00  0.00     0.037 A 
ATOM     45  C   UNL     1     -14.396  -0.173  -3.374  1.00  0.00     0.037 A 
ATOM     46  C   UNL     1     -15.888   5.846  -1.270  1.00  0.00     0.049 A 
ATOM     47  C   UNL     1     -15.696   0.540  -3.115  1.00  0.00     0.074 A 
ATOM     48  C   UNL     1     -17.144   6.398  -1.100  1.00  0.00     0.029 A 
ATOM     49  N   UNL     1     -16.075   4.547  -1.720  1.00  0.00    -0.354 N 
ATOM     50  N   UNL     1     -15.893   1.770  -2.702  1.00  0.00    -0.248 NA
ATOM     51  C   UNL     1     -16.931  -0.221  -3.349  1.00  0.00     0.031 C 
ATOM     52  C   UNL     1     -18.094   5.425  -1.427  1.00  0.00     0.029 A 
ATOM     53  C   UNL     1     -17.428   4.277  -1.830  1.00  0.00     0.049 A 
ATOM     54  H   UNL     1     -15.353   3.912  -1.930  1.00  0.00     0.167 HD
ATOM     55  C   UNL     1     -17.272   1.938  -2.652  1.00  0.00     0.074 A 
ATOM     56  C   UNL     1     -17.861   0.688  -3.086  1.00  0.00     0.031 C 
ATOM     57  C   UNL     1     -17.987   3.029  -2.281  1.00  0.00     0.037 A 
BRANCH  44  58
ATOM     58  C   UNL     1     -14.548   7.853  -0.506  1.00  0.00     0.058 A 
ATOM     59  C   UNL     1     -14.151   8.940  -1.302  1.00  0.00     0.135 A 
ATOM     60  C   UNL     1     -14.890   8.110   0.831  1.00  0.00     0.135 A 
ATOM     61  F   UNL     1     -13.792   8.746  -2.581  1.00  0.00    -0.206 F 
ATOM     62  C   UNL     1     -14.057  10.226  -0.782  1.00  0.00     0.059 A 
ATOM     63  C   UNL     1     -14.832   9.394   1.365  1.00  0.00     0.059 A 
ATOM     64  F   UNL     1     -15.273   7.107   1.636  1.00  0.00    -0.206 F 
ATOM     65  C   UNL     1     -14.396  10.442   0.554  1.00  0.00     0.060 A 
BRANCH  65  66
ATOM     66  S   UNL     1     -14.264  12.116   1.218  1.00  0.00     0.124 S 
ATOM     67  O   UNL     1     -12.820  12.241   1.400  1.00  0.00    -0.237 OA
ATOM     68  O   UNL     1     -14.839  12.925   0.148  1.00  0.00    -0.237 OA
ATOM     69  O   UNL     1     -15.049  12.056   2.446  1.00  0.00    -0.744 OA
ENDBRANCH  65  66
ENDBRANCH  44  58
BRANCH  45  70
ATOM     70  C   UNL     1     -14.383  -1.582  -3.851  1.00  0.00     0.058 A 
ATOM     71  C   UNL     1     -14.789  -1.901  -5.156  1.00  0.00     0.135 A 
ATOM     72  C   UNL     1     -13.960  -2.634  -3.024  1.00  0.00     0.135 A 
ATOM     73  F   UNL     1     -15.207  -0.930  -5.982  1.00  0.00    -0.206 F 
ATOM     74  C   UNL     1     -14.794  -3.212  -5.620  1.00  0.00     0.059 A 
ATOM     75  C   UNL     1     -13.936  -3.952  -3.473  1.00  0.00     0.059 A 
ATOM     76  F   UNL     1     -13.544  -2.380  -1.774  1.00  0.00    -0.206 F 
ATOM     77  C   UNL     1     -14.365  -4.232  -4.770  1.00  0.00     0.060 A 
BRANCH  77  78
ATOM     78  S   UNL     1     -14.330  -5.926  -5.397  1.00  0.00     0.124 S 
ATOM     79  O   UNL     1     -15.745  -6.276  -5.376  1.00  0.00    -0.237 OA
ATOM     80  O   UNL     1     -13.735  -5.753  -6.719  1.00  0.00    -0.237 OA
ATOM     81  O   UNL     1     -13.491  -6.624  -4.428  1.00  0.00    -0.744 OA
ENDBRANCH  77  78
ENDBRANCH  45  70
BRANCH  57  82
ATOM     82  C   UNL     1     -19.483   2.933  -2.362  1.00  0.00     0.058 A 
ATOM     83  C   UNL     1     -20.224   2.219  -1.409  1.00  0.00     0.135 A 
ATOM     84  C   UNL     1     -20.184   3.619  -3.366  1.00  0.00     0.135 A 
ATOM     85  F   UNL     1     -19.597   1.542  -0.433  1.00  0.00    -0.206 F 
ATOM     86  C   UNL     1     -21.613   2.175  -1.458  1.00  0.00     0.059 A 
ATOM     87  C   UNL     1     -21.573   3.608  -3.420  1.00  0.00     0.059 A 
ATOM     88  F   UNL     1     -19.518   4.326  -4.293  1.00  0.00    -0.206 F 
ATOM     89  C   UNL     1     -22.279   2.875  -2.466  1.00  0.00     0.060 A 
BRANCH  89  90
ATOM     90  S   UNL     1     -24.083   2.848  -2.495  1.00  0.00     0.124 S 
ATOM     91  O   UNL     1     -24.348   1.524  -3.047  1.00  0.00    -0.237 OA
ATOM     92  O   UNL     1     -24.423   3.027  -1.086  1.00  0.00    -0.237 OA
ATOM     93  O   UNL     1     -24.425   3.971  -3.362  1.00  0.00    -0.744 OA
ENDBRANCH  89  90
ENDBRANCH  57  82
ENDBRANCH  31  32
ENDBRANCH  23  26
ENDBRANCH  21  22
ENDBRANCH  20  21
ENDBRANCH  19  20
ENDBRANCH  18  19
ENDBRANCH   3  18
TORSDOF 21
