REMARK SMILES COc1ccccc1C(=O)N/C(=C/c1ccc2c(c1)OCO2)C(=O)Nc1ccc(C(=O)NCCCCNC(=O)c2ccc(-c3c4nc(c(-c5c(F)cc(S(=O)(=O)[O-])cc5F)c5ccc([nH]5)c(-c5c(F)cc(S(=O)(=O)[O-])cc5F)c5nc(c(-c6c(F)cc(S(=O)(=O)[O-])cc6F)c6ccc3[nH]6)C=C5)C=C4)cc2)cc1
REMARK SMILES IDX 33 1 32 2 30 3 31 4 29 6 26 7 27 8 107 9 28 10 106 11 25 12
REMARK SMILES IDX 23 13 24 14 12 16 13 17 11 18 9 19 10 20 8 22 3 23 4 24 5 25
REMARK SMILES IDX 7 26 6 27 2 28 1 29 14 30 15 31 19 32 16 33 18 34 17 35
REMARK SMILES IDX 20 36 22 37 21 38 34 39 35 40 36 41 37 42 38 43 39 45 40 46
REMARK SMILES IDX 41 47 105 48 42 49 104 50 43 51 44 52 45 53 98 54 46 55
REMARK SMILES IDX 103 56 97 57 99 58 47 59 102 60 96 61 95 62 48 64 82 65
REMARK SMILES IDX 61 66 81 67 62 68 65 69 80 70 100 71 63 72 64 73 79 75
REMARK SMILES IDX 101 76 66 77 49 78 50 79 59 80 51 81 52 82 58 83 60 84 53 85
REMARK SMILES IDX 54 86 55 87 56 88 57 89 83 90 84 91 93 92 85 93 86 94 92 95
REMARK SMILES IDX 94 96 87 97 88 98 89 99 90 100 91 101 67 102 68 103 77 104
REMARK SMILES IDX 69 105 70 106 76 107 78 108 71 109 72 110 73 111 74 112
REMARK SMILES IDX 75 113
REMARK H PARENT 32 5 25 15 11 21 37 44 99 63 65 74
REMARK Flexibility Score: inf
ROOT
ATOM      1  C   UNL     1      -1.350  -5.590  -0.526  1.00  0.00     0.116 C 
ENDROOT
BRANCH   1   2
ATOM      2  N   UNL     1      -2.191  -5.564  -1.704  1.00  0.00    -0.352 N 
ATOM      3  C   UNL     1      -2.738  -4.492  -2.356  1.00  0.00     0.251 C 
ATOM      4  O   UNL     1      -3.330  -4.643  -3.419  1.00  0.00    -0.269 OA
ATOM      5  H   UNL     1      -2.399  -6.444  -2.093  1.00  0.00     0.163 HD
BRANCH   3   6
ATOM      6  C   UNL     1      -2.561  -3.132  -1.836  1.00  0.00     0.039 A 
ATOM      7  C   UNL     1      -1.871   0.292  -0.546  1.00  0.00     0.041 A 
ATOM      8  C   UNL     1      -1.733   0.002  -2.285  1.00  0.00     0.027 A 
ATOM      9  C   UNL     1      -2.409  -1.022   0.486  1.00  0.00     0.027 A 
ATOM     10  C   UNL     1      -2.046  -1.863  -3.005  1.00  0.00     0.016 A 
ATOM     11  C   UNL     1      -2.749  -2.663  -0.137  1.00  0.00     0.016 A 
BRANCH   7  12
ATOM     12  N   UNL     1      -0.893   1.191  -0.090  1.00  0.00    -0.321 N 
ATOM     13  C   UNL     1       0.224   1.495  -0.861  1.00  0.00     0.272 C 
ATOM     14  O   UNL     1       0.459   2.658  -1.195  1.00  0.00    -0.267 OA
ATOM     15  H   UNL     1      -1.000   1.614   0.793  1.00  0.00     0.170 HD
BRANCH  13  16
ATOM     16  C   UNL     1       1.301   0.409  -1.102  1.00  0.00     0.108 C 
ATOM     17  C   UNL     1       1.219  -0.660  -1.948  1.00  0.00     0.040 C 
BRANCH  16  18
ATOM     18  N   UNL     1       2.512   0.539  -0.428  1.00  0.00    -0.317 N 
ATOM     19  C   UNL     1       3.021   1.388   0.532  1.00  0.00     0.259 C 
ATOM     20  O   UNL     1       4.181   1.198   0.908  1.00  0.00    -0.269 OA
ATOM     21  H   UNL     1       3.167  -0.142  -0.705  1.00  0.00     0.170 HD
BRANCH  19  22
ATOM     22  C   UNL     1       2.308   2.535   1.122  1.00  0.00     0.082 A 
ATOM     23  C   UNL     1       1.147   2.480   1.903  1.00  0.00     0.131 A 
ATOM     24  C   UNL     1       0.523   3.686   2.267  1.00  0.00     0.047 A 
ATOM     25  C   UNL     1       1.100   4.921   1.969  1.00  0.00     0.004 A 
ATOM     26  C   UNL     1       2.918   3.783   0.883  1.00  0.00     0.018 A 
ATOM     27  C   UNL     1       2.322   4.969   1.310  1.00  0.00     0.001 A 
BRANCH  23  28
ATOM     28  O   UNL     1       0.455   1.387   2.344  1.00  0.00    -0.496 OA
ATOM     29  C   UNL     1       1.179   0.190   2.590  1.00  0.00     0.278 C 
ENDBRANCH  23  28
ENDBRANCH  19  22
ENDBRANCH  16  18
BRANCH  17  30
ATOM     30  C   UNL     1      -0.013  -1.157  -2.605  1.00  0.00    -0.019 A 
ATOM     31  C   UNL     1      -1.221  -1.558  -1.336  1.00  0.00     0.012 A 
ATOM     32  C   UNL     1      -0.601  -0.484  -4.139  1.00  0.00     0.058 A 
ATOM     33  C   UNL     1      -3.162  -1.081  -1.669  1.00  0.00     0.051 A 
ATOM     34  C   UNL     1      -2.318  -0.127  -4.412  1.00  0.00     0.166 A 
ATOM     35  C   UNL     1      -3.573  -0.388  -3.260  1.00  0.00     0.165 A 
ATOM     36  O   UNL     1      -2.798   0.832  -5.273  1.00  0.00    -0.454 OA
ATOM     37  O   UNL     1      -4.621   0.417  -3.575  1.00  0.00    -0.454 OA
ATOM     38  C   UNL     1      -3.985   1.309  -4.547  1.00  0.00     0.468 C 
ENDBRANCH  17  30
ENDBRANCH  13  16
ENDBRANCH   7  12
ENDBRANCH   3   6
ENDBRANCH   1   2
BRANCH   1  39
ATOM     39  C   UNL     1      -2.136  -6.034   0.705  1.00  0.00     0.023 C 
BRANCH  39  40
ATOM     40  C   UNL     1      -2.559  -7.500   0.698  1.00  0.00     0.023 C 
BRANCH  40  41
ATOM     41  C   UNL     1      -1.418  -8.489   0.543  1.00  0.00     0.116 C 
BRANCH  41  42
ATOM     42  N   UNL     1      -0.381  -8.339   1.556  1.00  0.00    -0.352 N 
ATOM     43  C   UNL     1       0.413  -9.337   2.074  1.00  0.00     0.251 C 
ATOM     44  H   UNL     1      -0.234  -7.431   1.906  1.00  0.00     0.163 HD
ATOM     45  O   UNL     1       1.199  -9.118   2.987  1.00  0.00    -0.269 OA
BRANCH  43  46
ATOM     46  C   UNL     1       0.248 -10.688   1.509  1.00  0.00     0.039 A 
ATOM     47  C   UNL     1      -0.205 -11.719   2.332  1.00  0.00     0.014 A 
ATOM     48  C   UNL     1       0.387 -10.867   0.131  1.00  0.00     0.014 A 
ATOM     49  C   UNL     1      -0.585 -12.931   1.755  1.00  0.00     0.010 A 
ATOM     50  C   UNL     1      -0.068 -12.043  -0.446  1.00  0.00     0.010 A 
ATOM     51  C   UNL     1      -0.552 -13.087   0.360  1.00  0.00    -0.014 A 
BRANCH  51  52
ATOM     52  C   UNL     1      -0.970 -14.347  -0.301  1.00  0.00     0.031 A 
ATOM     53  C   UNL     1       0.051 -15.120  -1.088  1.00  0.00     0.074 A 
ATOM     54  C   UNL     1      -2.260 -14.735  -0.281  1.00  0.00     0.049 A 
ATOM     55  N   UNL     1      -0.118 -16.133  -1.895  1.00  0.00    -0.248 NA
ATOM     56  C   UNL     1       1.446 -14.657  -0.987  1.00  0.00     0.031 C 
ATOM     57  C   UNL     1      -3.346 -14.045   0.420  1.00  0.00     0.029 A 
ATOM     58  N   UNL     1      -2.882 -15.796  -0.890  1.00  0.00    -0.354 N 
ATOM     59  C   UNL     1       1.138 -16.403  -2.424  1.00  0.00     0.074 A 
ATOM     60  C   UNL     1       2.049 -15.418  -1.887  1.00  0.00     0.031 C 
ATOM     61  C   UNL     1      -4.496 -14.707   0.210  1.00  0.00     0.029 A 
ATOM     62  C   UNL     1      -4.240 -15.841  -0.673  1.00  0.00     0.049 A 
ATOM     63  H   UNL     1      -2.401 -16.463  -1.432  1.00  0.00     0.167 HD
ATOM     64  C   UNL     1       1.502 -17.400  -3.263  1.00  0.00     0.037 A 
ATOM     65  C   UNL     1      -5.171 -16.693  -1.148  1.00  0.00     0.037 A 
ATOM     66  C   UNL     1       0.596 -18.404  -3.748  1.00  0.00     0.049 A 
ATOM     67  C   UNL     1      -4.738 -17.809  -2.063  1.00  0.00     0.074 A 
ATOM     68  C   UNL     1       0.870 -19.491  -4.557  1.00  0.00     0.029 A 
ATOM     69  N   UNL     1      -0.760 -18.449  -3.456  1.00  0.00    -0.354 N 
ATOM     70  N   UNL     1      -3.539 -18.078  -2.523  1.00  0.00    -0.248 NA
ATOM     71  C   UNL     1      -5.779 -18.741  -2.521  1.00  0.00     0.031 C 
ATOM     72  C   UNL     1      -0.327 -20.178  -4.780  1.00  0.00     0.029 A 
ATOM     73  C   UNL     1      -1.337 -19.544  -4.072  1.00  0.00     0.049 A 
ATOM     74  H   UNL     1      -1.239 -17.798  -2.894  1.00  0.00     0.167 HD
ATOM     75  C   UNL     1      -3.674 -19.230  -3.289  1.00  0.00     0.074 A 
ATOM     76  C   UNL     1      -5.072 -19.606  -3.236  1.00  0.00     0.031 C 
ATOM     77  C   UNL     1      -2.726 -19.918  -3.971  1.00  0.00     0.037 A 
BRANCH  64  78
ATOM     78  C   UNL     1       2.940 -17.452  -3.696  1.00  0.00     0.058 A 
ATOM     79  C   UNL     1       3.968 -17.791  -2.801  1.00  0.00     0.135 A 
ATOM     80  C   UNL     1       3.295 -17.175  -5.026  1.00  0.00     0.135 A 
ATOM     81  F   UNL     1       3.687 -18.045  -1.513  1.00  0.00    -0.206 F 
ATOM     82  C   UNL     1       5.300 -17.817  -3.200  1.00  0.00     0.059 A 
ATOM     83  C   UNL     1       4.618 -17.227  -5.455  1.00  0.00     0.059 A 
ATOM     84  F   UNL     1       2.352 -16.844  -5.923  1.00  0.00    -0.206 F 
ATOM     85  C   UNL     1       5.615 -17.532  -4.529  1.00  0.00     0.060 A 
BRANCH  85  86
ATOM     86  S   UNL     1       7.348 -17.570  -5.030  1.00  0.00     0.124 S 
ATOM     87  O   UNL     1       7.849 -16.334  -4.434  1.00  0.00    -0.237 OA
ATOM     88  O   UNL     1       7.824 -18.806  -4.418  1.00  0.00    -0.237 OA
ATOM     89  O   UNL     1       7.280 -17.581  -6.488  1.00  0.00    -0.744 OA
ENDBRANCH  85  86
ENDBRANCH  64  78
BRANCH  65  90
ATOM     90  C   UNL     1      -6.595 -16.542  -0.747  1.00  0.00     0.058 A 
ATOM     91  C   UNL     1      -7.199 -17.465   0.121  1.00  0.00     0.135 A 
ATOM     92  C   UNL     1      -7.378 -15.473  -1.209  1.00  0.00     0.135 A 
ATOM     93  F   UNL     1      -6.493 -18.507   0.587  1.00  0.00    -0.206 F 
ATOM     94  C   UNL     1      -8.531 -17.344   0.505  1.00  0.00     0.059 A 
ATOM     95  C   UNL     1      -8.707 -15.318  -0.822  1.00  0.00     0.059 A 
ATOM     96  F   UNL     1      -6.845 -14.553  -2.027  1.00  0.00    -0.206 F 
ATOM     97  C   UNL     1      -9.277 -16.265   0.028  1.00  0.00     0.060 A 
BRANCH  97  98
ATOM     98  S   UNL     1     -10.992 -16.093   0.569  1.00  0.00     0.124 S 
ATOM     99  O   UNL     1     -11.647 -17.152  -0.191  1.00  0.00    -0.237 OA
ATOM    100  O   UNL     1     -10.883 -16.313   2.008  1.00  0.00    -0.237 OA
ATOM    101  O   UNL     1     -11.332 -14.729   0.175  1.00  0.00    -0.744 OA
ENDBRANCH  97  98
ENDBRANCH  65  90
BRANCH  77 102
ATOM    102  C   UNL     1      -3.137 -21.187  -4.661  1.00  0.00     0.058 A 
ATOM    103  C   UNL     1      -3.840 -21.174  -5.874  1.00  0.00     0.135 A 
ATOM    104  C   UNL     1      -2.715 -22.428  -4.154  1.00  0.00     0.135 A 
ATOM    105  F   UNL     1      -4.270 -20.014  -6.394  1.00  0.00    -0.206 F 
ATOM    106  C   UNL     1      -4.109 -22.351  -6.565  1.00  0.00     0.059 A 
ATOM    107  C   UNL     1      -2.953 -23.613  -4.840  1.00  0.00     0.059 A 
ATOM    108  F   UNL     1      -2.031 -22.489  -3.001  1.00  0.00    -0.206 F 
ATOM    109  C   UNL     1      -3.652 -23.565  -6.045  1.00  0.00     0.060 A 
BRANCH 109 110
ATOM    110  S   UNL     1      -3.933 -25.074  -6.995  1.00  0.00     0.124 S 
ATOM    111  O   UNL     1      -5.358 -25.299  -6.776  1.00  0.00    -0.237 OA
ATOM    112  O   UNL     1      -3.554 -24.668  -8.345  1.00  0.00    -0.237 OA
ATOM    113  O   UNL     1      -3.040 -26.043  -6.365  1.00  0.00    -0.744 OA
ENDBRANCH 109 110
ENDBRANCH  77 102
ENDBRANCH  51  52
ENDBRANCH  43  46
ENDBRANCH  41  42
ENDBRANCH  40  41
ENDBRANCH  39  40
ENDBRANCH   1  39
TORSDOF 20
