REMARK SMILES CC(=O)Nc1ccc(/C=C2/CCc3oc(C(=O)NCCCCNC(=O)c4ccc(-c5c6nc(c(-c7c(F)cc(S(=O)(=O)[O-])cc7F)c7ccc([nH]7)c(-c7c(F)cc(S(=O)(=O)[O-])cc7F)c7nc(c(-c8c(F)cc(S(=O)(=O)[O-])cc8F)c8ccc5[nH]8)C=C7)C=C6)cc4)c(C)c3C2=O)cc1
REMARK SMILES IDX 21 1 20 2 19 3 18 4 16 5 17 6 15 8 9 9 10 10 11 11 95 12
REMARK SMILES IDX 12 13 94 14 96 15 13 16 92 17 14 18 93 19 8 20 5 21 6 22
REMARK SMILES IDX 98 23 7 24 97 25 4 26 1 27 2 28 3 29 22 31 23 32 24 33 25 35
REMARK SMILES IDX 26 36 27 37 91 38 28 39 90 40 29 41 30 42 31 43 84 44 32 45
REMARK SMILES IDX 89 46 83 47 85 48 33 49 88 50 82 51 81 52 34 54 68 55 47 56
REMARK SMILES IDX 67 57 48 58 51 59 66 60 86 61 49 62 50 63 65 65 87 66 52 67
REMARK SMILES IDX 35 68 36 69 45 70 37 71 38 72 44 73 46 74 39 75 40 76 41 77
REMARK SMILES IDX 42 78 43 79 69 80 70 81 79 82 71 83 72 84 78 85 80 86 73 87
REMARK SMILES IDX 74 88 75 89 76 90 77 91 53 92 54 93 63 94 55 95 56 96 62 97
REMARK SMILES IDX 64 98 57 99 58 100 59 101 60 102 61 103
REMARK H PARENT 18 7 4 30 23 34 85 53 51 64
REMARK Flexibility Score: inf
ROOT
ATOM      1  C   UNL     1       1.288  -5.217 -14.105  1.00  0.00     0.023 C 
ENDROOT
BRANCH   1   2
ATOM      2  C   UNL     1       1.951  -4.863 -12.765  1.00  0.00     0.023 C 
BRANCH   2   3
ATOM      3  C   UNL     1       1.121  -3.969 -11.837  1.00  0.00     0.116 C 
BRANCH   3   4
ATOM      4  N   UNL     1       0.009  -4.681 -11.225  1.00  0.00    -0.349 N 
ATOM      5  C   UNL     1      -0.201  -5.155  -9.945  1.00  0.00     0.287 C 
ATOM      6  O   UNL     1      -1.273  -5.737  -9.761  1.00  0.00    -0.266 OA
ATOM      7  H   UNL     1      -0.737  -4.858 -11.841  1.00  0.00     0.163 HD
BRANCH   5   8
ATOM      8  C   UNL     1       0.793  -4.994  -8.892  1.00  0.00     0.195 A 
ATOM      9  C   UNL     1       3.939  -3.306  -4.501  1.00  0.00     0.016 C 
ATOM     10  C   UNL     1       3.822  -4.126  -5.565  1.00  0.00     0.001 C 
ATOM     11  C   UNL     1       4.749  -4.013  -6.771  1.00  0.00     0.048 C 
ATOM     12  C   UNL     1       2.736  -5.150  -5.753  1.00  0.00     0.192 C 
ATOM     13  C   UNL     1       3.975  -3.576  -8.027  1.00  0.00     0.081 C 
ATOM     14  C   UNL     1       2.078  -4.991  -7.030  1.00  0.00     0.067 A 
ATOM     15  O   UNL     1       2.500  -6.056  -4.955  1.00  0.00    -0.289 OA
ATOM     16  C   UNL     1       2.685  -4.295  -8.045  1.00  0.00     0.116 A 
ATOM     17  C   UNL     1       0.815  -5.413  -7.554  1.00  0.00     0.012 A 
ATOM     18  O   UNL     1       1.948  -4.311  -9.162  1.00  0.00    -0.455 OA
ATOM     19  C   UNL     1      -0.246  -6.119  -6.784  1.00  0.00     0.049 C 
BRANCH   9  20
ATOM     20  C   UNL     1       3.099  -3.108  -3.300  1.00  0.00    -0.025 A 
ATOM     21  C   UNL     1       1.547  -2.518  -1.000  1.00  0.00     0.041 A 
ATOM     22  C   UNL     1       1.142  -3.499  -1.897  1.00  0.00     0.027 A 
ATOM     23  C   UNL     1       2.751  -1.856  -1.224  1.00  0.00     0.027 A 
ATOM     24  C   UNL     1       1.887  -3.755  -3.051  1.00  0.00     0.010 A 
ATOM     25  C   UNL     1       3.522  -2.157  -2.357  1.00  0.00     0.010 A 
BRANCH  21  26
ATOM     26  N   UNL     1       0.725  -2.291   0.110  1.00  0.00    -0.326 N 
ATOM     27  C   UNL     1       0.868   0.183   0.197  1.00  0.00     0.114 C 
ATOM     28  C   UNL     1       0.476  -1.139   0.800  1.00  0.00     0.221 C 
ATOM     29  O   UNL     1      -0.136  -1.196   1.869  1.00  0.00    -0.275 OA
ATOM     30  H   UNL     1       0.253  -3.086   0.447  1.00  0.00     0.169 HD
ENDBRANCH  21  26
ENDBRANCH   9  20
ENDBRANCH   5   8
ENDBRANCH   3   4
ENDBRANCH   2   3
ENDBRANCH   1   2
BRANCH   1  31
ATOM     31  C   UNL     1       0.947  -4.019 -14.984  1.00  0.00     0.116 C 
BRANCH  31  32
ATOM     32  N   UNL     1       2.121  -3.260 -15.420  1.00  0.00    -0.352 N 
ATOM     33  C   UNL     1       2.144  -2.121 -16.209  1.00  0.00     0.251 C 
ATOM     34  H   UNL     1       2.995  -3.598 -15.117  1.00  0.00     0.163 HD
ATOM     35  O   UNL     1       3.151  -1.816 -16.838  1.00  0.00    -0.269 OA
BRANCH  33  36
ATOM     36  C   UNL     1       0.939  -1.272 -16.259  1.00  0.00     0.039 A 
ATOM     37  C   UNL     1       0.496  -0.666 -17.439  1.00  0.00     0.014 A 
ATOM     38  C   UNL     1       0.230  -1.111 -15.072  1.00  0.00     0.014 A 
ATOM     39  C   UNL     1      -0.710   0.036 -17.420  1.00  0.00     0.010 A 
ATOM     40  C   UNL     1      -1.031  -0.580 -15.095  1.00  0.00     0.010 A 
ATOM     41  C   UNL     1      -1.477   0.059 -16.243  1.00  0.00    -0.014 A 
BRANCH  41  42
ATOM     42  C   UNL     1      -2.828   0.612 -16.212  1.00  0.00     0.031 A 
ATOM     43  C   UNL     1      -3.747  -0.046 -17.182  1.00  0.00     0.074 A 
ATOM     44  C   UNL     1      -3.252   1.435 -15.223  1.00  0.00     0.049 A 
ATOM     45  N   UNL     1      -4.234   0.453 -18.268  1.00  0.00    -0.248 NA
ATOM     46  C   UNL     1      -3.989  -1.495 -17.044  1.00  0.00     0.031 C 
ATOM     47  C   UNL     1      -2.503   1.878 -14.038  1.00  0.00     0.029 A 
ATOM     48  N   UNL     1      -4.483   1.975 -14.999  1.00  0.00    -0.354 N 
ATOM     49  C   UNL     1      -5.074  -0.529 -18.789  1.00  0.00     0.074 A 
ATOM     50  C   UNL     1      -4.684  -1.757 -18.154  1.00  0.00     0.031 C 
ATOM     51  C   UNL     1      -3.349   2.404 -13.126  1.00  0.00     0.029 A 
ATOM     52  C   UNL     1      -4.670   2.498 -13.717  1.00  0.00     0.049 A 
ATOM     53  H   UNL     1      -5.187   1.994 -15.688  1.00  0.00     0.167 HD
ATOM     54  C   UNL     1      -6.211  -0.185 -19.457  1.00  0.00     0.037 A 
ATOM     55  C   UNL     1      -5.829   2.966 -13.178  1.00  0.00     0.037 A 
ATOM     56  C   UNL     1      -6.181   1.216 -19.805  1.00  0.00     0.049 A 
ATOM     57  C   UNL     1      -6.734   3.265 -14.315  1.00  0.00     0.074 A 
ATOM     58  C   UNL     1      -5.365   2.018 -20.576  1.00  0.00     0.029 A 
ATOM     59  N   UNL     1      -6.879   2.058 -18.975  1.00  0.00    -0.354 N 
ATOM     60  N   UNL     1      -6.499   4.197 -15.200  1.00  0.00    -0.248 NA
ATOM     61  C   UNL     1      -7.645   2.217 -14.742  1.00  0.00     0.031 C 
ATOM     62  C   UNL     1      -5.295   3.259 -19.876  1.00  0.00     0.029 A 
ATOM     63  C   UNL     1      -6.140   3.191 -18.766  1.00  0.00     0.049 A 
ATOM     64  H   UNL     1      -7.768   1.877 -18.592  1.00  0.00     0.167 HD
ATOM     65  C   UNL     1      -6.859   3.630 -16.413  1.00  0.00     0.074 A 
ATOM     66  C   UNL     1      -7.649   2.451 -16.057  1.00  0.00     0.031 C 
ATOM     67  C   UNL     1      -6.233   4.003 -17.569  1.00  0.00     0.037 A 
BRANCH  54  68
ATOM     68  C   UNL     1      -7.518  -0.958 -19.413  1.00  0.00     0.058 A 
ATOM     69  C   UNL     1      -8.601  -0.503 -20.198  1.00  0.00     0.135 A 
ATOM     70  C   UNL     1      -7.850  -1.927 -18.440  1.00  0.00     0.135 A 
ATOM     71  F   UNL     1      -8.412   0.416 -21.159  1.00  0.00    -0.206 F 
ATOM     72  C   UNL     1      -9.917  -0.912 -19.976  1.00  0.00     0.059 A 
ATOM     73  C   UNL     1      -9.148  -2.386 -18.236  1.00  0.00     0.059 A 
ATOM     74  F   UNL     1      -6.959  -2.418 -17.573  1.00  0.00    -0.206 F 
ATOM     75  C   UNL     1     -10.181  -1.846 -18.980  1.00  0.00     0.060 A 
BRANCH  75  76
ATOM     76  S   UNL     1     -11.883  -2.321 -18.639  1.00  0.00     0.124 S 
ATOM     77  O   UNL     1     -12.426  -1.086 -18.086  1.00  0.00    -0.237 OA
ATOM     78  O   UNL     1     -12.361  -2.695 -19.966  1.00  0.00    -0.237 OA
ATOM     79  O   UNL     1     -11.739  -3.427 -17.697  1.00  0.00    -0.744 OA
ENDBRANCH  75  76
ENDBRANCH  54  68
BRANCH  55  80
ATOM     80  C   UNL     1      -6.322   2.855 -11.774  1.00  0.00     0.058 A 
ATOM     81  C   UNL     1      -7.408   3.618 -11.301  1.00  0.00     0.135 A 
ATOM     82  C   UNL     1      -5.921   1.784 -10.950  1.00  0.00     0.135 A 
ATOM     83  F   UNL     1      -7.882   4.638 -12.032  1.00  0.00    -0.206 F 
ATOM     84  C   UNL     1      -8.076   3.317 -10.104  1.00  0.00     0.059 A 
ATOM     85  C   UNL     1      -6.567   1.467  -9.753  1.00  0.00     0.059 A 
ATOM     86  F   UNL     1      -4.939   0.954 -11.333  1.00  0.00    -0.206 F 
ATOM     87  C   UNL     1      -7.657   2.226  -9.343  1.00  0.00     0.060 A 
BRANCH  87  88
ATOM     88  S   UNL     1      -8.598   1.740  -7.873  1.00  0.00     0.124 S 
ATOM     89  O   UNL     1      -8.329   2.846  -6.961  1.00  0.00    -0.237 OA
ATOM     90  O   UNL     1      -9.960   1.657  -8.389  1.00  0.00    -0.237 OA
ATOM     91  O   UNL     1      -8.000   0.462  -7.494  1.00  0.00    -0.744 OA
ENDBRANCH  87  88
ENDBRANCH  55  80
BRANCH  67  92
ATOM     92  C   UNL     1      -5.429   5.280 -17.565  1.00  0.00     0.058 A 
ATOM     93  C   UNL     1      -4.249   5.499 -16.832  1.00  0.00     0.135 A 
ATOM     94  C   UNL     1      -5.806   6.276 -18.480  1.00  0.00     0.135 A 
ATOM     95  F   UNL     1      -3.766   4.563 -16.003  1.00  0.00    -0.206 F 
ATOM     96  C   UNL     1      -3.498   6.670 -16.981  1.00  0.00     0.059 A 
ATOM     97  C   UNL     1      -5.057   7.431 -18.669  1.00  0.00     0.059 A 
ATOM     98  F   UNL     1      -6.893   6.102 -19.250  1.00  0.00    -0.206 F 
ATOM     99  C   UNL     1      -3.909   7.629 -17.907  1.00  0.00     0.060 A 
BRANCH  99 100
ATOM    100  S   UNL     1      -2.908   9.111 -18.157  1.00  0.00     0.124 S 
ATOM    101  O   UNL     1      -3.122   9.840 -16.911  1.00  0.00    -0.237 OA
ATOM    102  O   UNL     1      -1.569   8.562 -18.349  1.00  0.00    -0.237 OA
ATOM    103  O   UNL     1      -3.496   9.725 -19.346  1.00  0.00    -0.744 OA
ENDBRANCH  99 100
ENDBRANCH  67  92
ENDBRANCH  41  42
ENDBRANCH  33  36
ENDBRANCH  31  32
ENDBRANCH   1  31
TORSDOF 16
