REMARK SMILES CCc1cc(C(=O)N2CCO[C@@H](CC(=O)NCCCCNC(=O)c3ccc(-c4c5nc(c(-c6c(F)cc(S(=O)(=O)[O-])cc6F)c6ccc([nH]6)c(-c6c(F)cc(S(=O)(=O)[O-])cc6F)c6nc(c(-c7c(F)cc(S(=O)(=O)[O-])cc7F)c7ccc4[nH]7)C=C6)C=C5)cc3)C2)sc1C
REMARK SMILES IDX 18 1 17 2 16 3 14 4 15 5 13 7 12 8 8 9 9 10 90 11 10 12
REMARK SMILES IDX 11 13 6 14 7 15 5 16 3 17 4 18 92 19 91 20 93 21 2 22 1 23
REMARK SMILES IDX 19 24 20 25 21 26 22 27 23 29 24 30 25 31 89 32 26 33 88 34
REMARK SMILES IDX 27 35 28 36 29 37 82 38 30 39 87 40 81 41 83 42 31 43 86 44
REMARK SMILES IDX 80 45 79 46 32 48 66 49 45 50 65 51 46 52 49 53 64 54 84 55
REMARK SMILES IDX 47 56 48 57 63 59 85 60 50 61 33 62 34 63 43 64 35 65 36 66
REMARK SMILES IDX 42 67 44 68 37 69 38 70 39 71 40 72 41 73 67 74 68 75 77 76
REMARK SMILES IDX 69 77 70 78 76 79 78 80 71 81 72 82 73 83 74 84 75 85 51 86
REMARK SMILES IDX 52 87 61 88 53 89 54 90 60 91 62 92 55 93 56 94 57 95 58 96
REMARK SMILES IDX 59 97
REMARK H PARENT 16 6 21 28 83 47 49 58
REMARK Flexibility Score: inf
ROOT
ATOM      1  C   UNL     1      -0.966  -8.013   3.686  1.00  0.00     0.023 C 
ENDROOT
BRANCH   1   2
ATOM      2  C   UNL     1      -2.190  -8.732   3.117  1.00  0.00     0.116 C 
BRANCH   2   3
ATOM      3  N   UNL     1      -3.193  -7.789   2.644  1.00  0.00    -0.356 N 
ATOM      4  C   UNL     1      -3.550  -7.438   1.376  1.00  0.00     0.222 C 
ATOM      5  O   UNL     1      -4.387  -6.549   1.220  1.00  0.00    -0.275 OA
ATOM      6  H   UNL     1      -3.696  -7.331   3.356  1.00  0.00     0.163 HD
BRANCH   4   7
ATOM      7  C   UNL     1      -2.903  -8.100   0.181  1.00  0.00     0.133 C 
BRANCH   7   8
ATOM      8  C   UNL     1      -1.896  -7.179  -0.511  1.00  0.00     0.147 C 
ATOM      9  N   UNL     1       0.359  -6.121  -0.228  1.00  0.00    -0.333 N 
ATOM     10  C   UNL     1       0.821  -6.867  -1.388  1.00  0.00     0.148 C 
ATOM     11  C   UNL     1      -0.769  -6.750   0.445  1.00  0.00     0.152 C 
ATOM     12  C   UNL     1      -0.347  -7.176  -2.321  1.00  0.00     0.182 C 
ATOM     13  O   UNL     1      -1.360  -7.923  -1.631  1.00  0.00    -0.374 OA
BRANCH   9  14
ATOM     14  C   UNL     1       1.354  -5.630   0.626  1.00  0.00     0.264 C 
ATOM     15  O   UNL     1       2.174  -6.396   1.127  1.00  0.00    -0.268 OA
BRANCH  14  16
ATOM     16  C   UNL     1       1.311  -4.189   0.831  1.00  0.00     0.093 A 
ATOM     17  C   UNL     1       0.850  -1.881   0.603  1.00  0.00    -0.034 A 
ATOM     18  C   UNL     1       0.623  -3.222   0.126  1.00  0.00     0.029 A 
ATOM     19  C   UNL     1       1.683  -1.901   1.713  1.00  0.00     0.005 A 
ATOM     20  S   UNL     1       2.226  -3.485   2.085  1.00  0.00    -0.135 S 
ATOM     21  C   UNL     1       2.153  -0.772   2.574  1.00  0.00     0.056 C 
BRANCH  17  22
ATOM     22  C   UNL     1       0.194  -0.684  -0.045  1.00  0.00     0.033 C 
ATOM     23  C   UNL     1       1.053   0.568  -0.146  1.00  0.00     0.009 C 
ENDBRANCH  17  22
ENDBRANCH  14  16
ENDBRANCH   9  14
ENDBRANCH   7   8
ENDBRANCH   4   7
ENDBRANCH   2   3
ENDBRANCH   1   2
BRANCH   1  24
ATOM     24  C   UNL     1      -1.074  -7.622   5.159  1.00  0.00     0.023 C 
BRANCH  24  25
ATOM     25  C   UNL     1      -1.079  -8.790   6.141  1.00  0.00     0.116 C 
BRANCH  25  26
ATOM     26  N   UNL     1       0.107  -9.628   6.043  1.00  0.00    -0.352 N 
ATOM     27  C   UNL     1       0.864 -10.190   7.042  1.00  0.00     0.251 C 
ATOM     28  H   UNL     1       0.411  -9.820   5.127  1.00  0.00     0.163 HD
ATOM     29  O   UNL     1       1.895 -10.795   6.761  1.00  0.00    -0.269 OA
BRANCH  27  30
ATOM     30  C   UNL     1       0.458 -10.037   8.455  1.00  0.00     0.039 A 
ATOM     31  C   UNL     1       1.425  -9.656   9.391  1.00  0.00     0.014 A 
ATOM     32  C   UNL     1      -0.861 -10.261   8.857  1.00  0.00     0.014 A 
ATOM     33  C   UNL     1       1.054  -9.427  10.717  1.00  0.00     0.010 A 
ATOM     34  C   UNL     1      -1.241  -9.984  10.167  1.00  0.00     0.010 A 
ATOM     35  C   UNL     1      -0.289  -9.555  11.105  1.00  0.00    -0.014 A 
BRANCH  35  36
ATOM     36  C   UNL     1      -0.726  -9.243  12.486  1.00  0.00     0.031 A 
ATOM     37  C   UNL     1      -1.253 -10.335  13.370  1.00  0.00     0.074 A 
ATOM     38  C   UNL     1      -0.735  -7.965  12.910  1.00  0.00     0.049 A 
ATOM     39  N   UNL     1      -1.849 -10.241  14.531  1.00  0.00    -0.248 NA
ATOM     40  C   UNL     1      -1.125 -11.711  12.865  1.00  0.00     0.031 C 
ATOM     41  C   UNL     1      -0.293  -6.806  12.131  1.00  0.00     0.029 A 
ATOM     42  N   UNL     1      -1.145  -7.427  14.103  1.00  0.00    -0.354 N 
ATOM     43  C   UNL     1      -2.232 -11.534  14.862  1.00  0.00     0.074 A 
ATOM     44  C   UNL     1      -1.779 -12.398  13.791  1.00  0.00     0.031 C 
ATOM     45  C   UNL     1      -0.436  -5.697  12.874  1.00  0.00     0.029 A 
ATOM     46  C   UNL     1      -1.002  -6.062  14.169  1.00  0.00     0.049 A 
ATOM     47  H   UNL     1      -1.506  -7.967  14.842  1.00  0.00     0.167 HD
ATOM     48  C   UNL     1      -2.914 -11.959  15.953  1.00  0.00     0.037 A 
ATOM     49  C   UNL     1      -1.296  -5.204  15.163  1.00  0.00     0.037 A 
ATOM     50  C   UNL     1      -3.308 -11.111  17.045  1.00  0.00     0.049 A 
ATOM     51  C   UNL     1      -1.889  -5.726  16.438  1.00  0.00     0.074 A 
ATOM     52  C   UNL     1      -4.003 -11.443  18.195  1.00  0.00     0.029 A 
ATOM     53  N   UNL     1      -3.008  -9.760  17.135  1.00  0.00    -0.354 N 
ATOM     54  N   UNL     1      -2.272  -6.946  16.724  1.00  0.00    -0.248 NA
ATOM     55  C   UNL     1      -2.082  -4.758  17.527  1.00  0.00     0.031 C 
ATOM     56  C   UNL     1      -4.107 -10.293  18.990  1.00  0.00     0.029 A 
ATOM     57  C   UNL     1      -3.473  -9.250  18.334  1.00  0.00     0.049 A 
ATOM     58  H   UNL     1      -2.533  -9.241  16.447  1.00  0.00     0.167 HD
ATOM     59  C   UNL     1      -2.752  -6.896  18.026  1.00  0.00     0.074 A 
ATOM     60  C   UNL     1      -2.598  -5.527  18.478  1.00  0.00     0.031 C 
ATOM     61  C   UNL     1      -3.285  -7.892  18.773  1.00  0.00     0.037 A 
BRANCH  48  62
ATOM     62  C   UNL     1      -3.294 -13.407  15.982  1.00  0.00     0.058 A 
ATOM     63  C   UNL     1      -2.376 -14.400  16.354  1.00  0.00     0.135 A 
ATOM     64  C   UNL     1      -4.580 -13.808  15.584  1.00  0.00     0.135 A 
ATOM     65  F   UNL     1      -1.129 -14.065  16.718  1.00  0.00    -0.206 F 
ATOM     66  C   UNL     1      -2.708 -15.750  16.297  1.00  0.00     0.059 A 
ATOM     67  C   UNL     1      -4.937 -15.150  15.531  1.00  0.00     0.059 A 
ATOM     68  F   UNL     1      -5.489 -12.893  15.211  1.00  0.00    -0.206 F 
ATOM     69  C   UNL     1      -3.986 -16.115  15.867  1.00  0.00     0.060 A 
BRANCH  69  70
ATOM     70  S   UNL     1      -4.419 -17.863  15.734  1.00  0.00     0.124 S 
ATOM     71  O   UNL     1      -4.074 -18.139  14.343  1.00  0.00    -0.237 OA
ATOM     72  O   UNL     1      -3.560 -18.492  16.733  1.00  0.00    -0.237 OA
ATOM     73  O   UNL     1      -5.845 -17.872  16.046  1.00  0.00    -0.744 OA
ENDBRANCH  69  70
ENDBRANCH  48  62
BRANCH  49  74
ATOM     74  C   UNL     1      -0.993  -3.764  14.996  1.00  0.00     0.058 A 
ATOM     75  C   UNL     1       0.200  -3.227  15.500  1.00  0.00     0.135 A 
ATOM     76  C   UNL     1      -1.860  -2.913  14.298  1.00  0.00     0.135 A 
ATOM     77  F   UNL     1       1.056  -4.010  16.174  1.00  0.00    -0.206 F 
ATOM     78  C   UNL     1       0.527  -1.888  15.319  1.00  0.00     0.059 A 
ATOM     79  C   UNL     1      -1.551  -1.571  14.097  1.00  0.00     0.059 A 
ATOM     80  F   UNL     1      -3.004  -3.391  13.786  1.00  0.00    -0.206 F 
ATOM     81  C   UNL     1      -0.357  -1.067  14.615  1.00  0.00     0.060 A 
BRANCH  81  82
ATOM     82  S   UNL     1       0.094   0.656  14.309  1.00  0.00     0.124 S 
ATOM     83  O   UNL     1      -0.434   1.312  15.499  1.00  0.00    -0.237 OA
ATOM     84  O   UNL     1       1.549   0.593  14.209  1.00  0.00    -0.237 OA
ATOM     85  O   UNL     1      -0.597   0.955  13.058  1.00  0.00    -0.744 OA
ENDBRANCH  81  82
ENDBRANCH  49  74
BRANCH  61  86
ATOM     86  C   UNL     1      -3.715  -7.539  20.163  1.00  0.00     0.058 A 
ATOM     87  C   UNL     1      -4.986  -7.003  20.415  1.00  0.00     0.135 A 
ATOM     88  C   UNL     1      -2.861  -7.767  21.253  1.00  0.00     0.135 A 
ATOM     89  F   UNL     1      -5.832  -6.766  19.400  1.00  0.00    -0.206 F 
ATOM     90  C   UNL     1      -5.397  -6.695  21.707  1.00  0.00     0.059 A 
ATOM     91  C   UNL     1      -3.253  -7.469  22.553  1.00  0.00     0.059 A 
ATOM     92  F   UNL     1      -1.635  -8.276  21.056  1.00  0.00    -0.206 F 
ATOM     93  C   UNL     1      -4.521  -6.926  22.769  1.00  0.00     0.060 A 
BRANCH  93  94
ATOM     94  S   UNL     1      -5.057  -6.556  24.454  1.00  0.00     0.124 S 
ATOM     95  O   UNL     1      -4.674  -5.154  24.581  1.00  0.00    -0.237 OA
ATOM     96  O   UNL     1      -6.492  -6.818  24.403  1.00  0.00    -0.237 OA
ATOM     97  O   UNL     1      -4.285  -7.497  25.260  1.00  0.00    -0.744 OA
ENDBRANCH  93  94
ENDBRANCH  61  86
ENDBRANCH  35  36
ENDBRANCH  27  30
ENDBRANCH  25  26
ENDBRANCH  24  25
ENDBRANCH   1  24
TORSDOF 18
