REMARK SMILES Cc1ccc(-c2cc(Cl)cc3c2O[C@H](C(F)(F)F)C(C(=O)NCCCCNC(=O)c2ccc(-c4c5nc(c(-c6c(F)cc(S(=O)(=O)[O-])cc6F)c6ccc([nH]6)c(-c6c(F)cc(S(=O)(=O)[O-])cc6F)c6nc(c(-c7c(F)cc(S(=O)(=O)[O-])cc7F)c7ccc4[nH]7)C=C6)C=C5)cc2)=C3)cc1F
REMARK SMILES IDX 25 1 24 2 23 3 22 4 20 5 21 6 19 8 6 9 7 10 12 11 8 12 11 13
REMARK SMILES IDX 13 14 9 15 10 16 96 17 14 18 5 19 1 20 2 21 3 22 98 23 4 24
REMARK SMILES IDX 97 25 99 26 15 27 16 28 17 29 18 30 26 31 27 32 28 33 29 35
REMARK SMILES IDX 30 36 31 37 95 38 32 39 94 40 33 41 34 42 35 43 88 44 36 45
REMARK SMILES IDX 93 46 87 47 89 48 37 49 92 50 86 51 85 52 38 54 72 55 51 56
REMARK SMILES IDX 71 57 52 58 55 59 70 60 90 61 53 62 54 63 69 65 91 66 56 67
REMARK SMILES IDX 39 68 40 69 49 70 41 71 42 72 48 73 50 74 43 75 44 76 45 77
REMARK SMILES IDX 46 78 47 79 73 80 74 81 83 82 75 83 76 84 82 85 84 86 77 87
REMARK SMILES IDX 78 88 79 89 80 90 81 91 57 92 58 93 67 94 59 95 60 96 66 97
REMARK SMILES IDX 68 98 61 99 62 100 63 101 64 102 65 103
REMARK H PARENT 22 7 27 34 89 53 55 64
REMARK Flexibility Score: inf
ROOT
ATOM      1  C   UNL     1      -1.415  -6.188   7.777  1.00  0.00     0.023 C 
ENDROOT
BRANCH   1   2
ATOM      2  C   UNL     1      -1.812  -4.899   7.073  1.00  0.00     0.023 C 
BRANCH   2   3
ATOM      3  C   UNL     1      -1.815  -4.915   5.561  1.00  0.00     0.116 C 
BRANCH   3   4
ATOM      4  N   UNL     1      -2.960  -5.629   5.032  1.00  0.00    -0.352 N 
ATOM      5  C   UNL     1      -3.747  -5.487   3.942  1.00  0.00     0.251 C 
ATOM      6  O   UNL     1      -4.686  -6.285   3.850  1.00  0.00    -0.270 OA
ATOM      7  H   UNL     1      -3.225  -6.392   5.595  1.00  0.00     0.163 HD
BRANCH   5   8
ATOM      8  C   UNL     1      -3.536  -4.469   2.870  1.00  0.00     0.067 C 
ATOM      9  C   UNL     1      -3.116  -1.693  -0.270  1.00  0.00     0.026 A 
ATOM     10  C   UNL     1      -4.068  -1.687  -1.299  1.00  0.00     0.033 A 
ATOM     11  C   UNL     1      -3.307  -2.585   0.803  1.00  0.00     0.135 A 
ATOM     12  C   UNL     1      -5.167  -2.548  -1.247  1.00  0.00     0.042 A 
ATOM     13  C   UNL     1      -4.405  -3.446   0.858  1.00  0.00     0.019 A 
ATOM     14  O   UNL     1      -2.401  -2.522   1.824  1.00  0.00    -0.475 OA
ATOM     15  Cl  UNL     1      -6.324  -2.526  -2.523  1.00  0.00    -0.084 Cl
ATOM     16  C   UNL     1      -5.342  -3.425  -0.176  1.00  0.00     0.032 A 
ATOM     17  C   UNL     1      -4.556  -4.338   2.000  1.00  0.00     0.025 C 
ATOM     18  C   UNL     1      -2.263  -3.688   2.673  1.00  0.00     0.314 C 
BRANCH   9  19
ATOM     19  C   UNL     1      -1.946  -0.799  -0.304  1.00  0.00    -0.012 A 
ATOM     20  C   UNL     1       1.524   1.767  -0.004  1.00  0.00     0.047 C 
ATOM     21  C   UNL     1       0.313   0.898  -0.145  1.00  0.00    -0.015 A 
ATOM     22  C   UNL     1      -0.979   1.435  -0.141  1.00  0.00     0.007 A 
ATOM     23  C   UNL     1       0.460  -0.485  -0.246  1.00  0.00     0.126 A 
ATOM     24  C   UNL     1      -2.096   0.594  -0.223  1.00  0.00     0.009 A 
ATOM     25  C   UNL     1      -0.645  -1.326  -0.330  1.00  0.00     0.048 A 
ATOM     26  F   UNL     1       1.687  -1.027  -0.252  1.00  0.00    -0.207 F 
ENDBRANCH   9  19
BRANCH  18  27
ATOM     27  C   UNL     1      -1.091  -4.546   2.173  1.00  0.00     0.429 C 
ATOM     28  F   UNL     1       0.088  -3.897   2.316  1.00  0.00    -0.167 F 
ATOM     29  F   UNL     1      -0.979  -5.720   2.833  1.00  0.00    -0.167 F 
ATOM     30  F   UNL     1      -1.218  -4.851   0.857  1.00  0.00    -0.167 F 
ENDBRANCH  18  27
ENDBRANCH   5   8
ENDBRANCH   3   4
ENDBRANCH   2   3
ENDBRANCH   1   2
BRANCH   1  31
ATOM     31  C   UNL     1      -0.076  -6.782   7.339  1.00  0.00     0.116 C 
BRANCH  31  32
ATOM     32  N   UNL     1       1.040  -5.863   7.398  1.00  0.00    -0.352 N 
ATOM     33  C   UNL     1       2.170  -6.038   8.161  1.00  0.00     0.251 C 
ATOM     34  H   UNL     1       0.986  -5.048   6.848  1.00  0.00     0.163 HD
ATOM     35  O   UNL     1       3.284  -6.149   7.655  1.00  0.00    -0.269 OA
BRANCH  33  36
ATOM     36  C   UNL     1       2.016  -5.774   9.608  1.00  0.00     0.039 A 
ATOM     37  C   UNL     1       0.967  -6.294  10.368  1.00  0.00     0.014 A 
ATOM     38  C   UNL     1       2.851  -4.785  10.138  1.00  0.00     0.014 A 
ATOM     39  C   UNL     1       0.652  -5.709  11.591  1.00  0.00     0.010 A 
ATOM     40  C   UNL     1       2.547  -4.213  11.364  1.00  0.00     0.010 A 
ATOM     41  C   UNL     1       1.416  -4.633  12.062  1.00  0.00    -0.014 A 
BRANCH  41  42
ATOM     42  C   UNL     1       1.110  -3.985  13.334  1.00  0.00     0.031 A 
ATOM     43  C   UNL     1       1.178  -4.820  14.557  1.00  0.00     0.074 A 
ATOM     44  C   UNL     1       0.639  -2.718  13.409  1.00  0.00     0.049 A 
ATOM     45  N   UNL     1       0.398  -4.709  15.578  1.00  0.00    -0.248 NA
ATOM     46  C   UNL     1       2.095  -5.951  14.662  1.00  0.00     0.031 C 
ATOM     47  C   UNL     1       0.343  -1.970  14.624  1.00  0.00     0.029 A 
ATOM     48  N   UNL     1       0.104  -1.911  12.406  1.00  0.00    -0.354 N 
ATOM     49  C   UNL     1       0.897  -5.519  16.579  1.00  0.00     0.074 A 
ATOM     50  C   UNL     1       1.847  -6.371  15.906  1.00  0.00     0.031 C 
ATOM     51  C   UNL     1      -0.590  -1.047  14.338  1.00  0.00     0.029 A 
ATOM     52  C   UNL     1      -1.008  -1.265  12.962  1.00  0.00     0.049 A 
ATOM     53  H   UNL     1       0.441  -1.814  11.486  1.00  0.00     0.167 HD
ATOM     54  C   UNL     1       0.556  -5.254  17.876  1.00  0.00     0.037 A 
ATOM     55  C   UNL     1      -2.311  -1.363  12.552  1.00  0.00     0.037 A 
ATOM     56  C   UNL     1      -0.452  -4.192  17.923  1.00  0.00     0.049 A 
ATOM     57  C   UNL     1      -3.252  -1.750  13.661  1.00  0.00     0.074 A 
ATOM     58  C   UNL     1      -0.342  -2.823  18.104  1.00  0.00     0.029 A 
ATOM     59  N   UNL     1      -1.741  -4.433  17.464  1.00  0.00    -0.354 N 
ATOM     60  N   UNL     1      -2.859  -2.376  14.734  1.00  0.00    -0.248 NA
ATOM     61  C   UNL     1      -4.689  -1.495  13.658  1.00  0.00     0.031 C 
ATOM     62  C   UNL     1      -1.554  -2.230  17.674  1.00  0.00     0.029 A 
ATOM     63  C   UNL     1      -2.411  -3.240  17.267  1.00  0.00     0.049 A 
ATOM     64  H   UNL     1      -2.123  -5.325  17.302  1.00  0.00     0.167 HD
ATOM     65  C   UNL     1      -3.928  -2.588  15.562  1.00  0.00     0.074 A 
ATOM     66  C   UNL     1      -5.053  -2.018  14.844  1.00  0.00     0.031 C 
ATOM     67  C   UNL     1      -3.781  -3.209  16.770  1.00  0.00     0.037 A 
BRANCH  54  68
ATOM     68  C   UNL     1       1.321  -5.703  19.120  1.00  0.00     0.058 A 
ATOM     69  C   UNL     1       1.149  -5.014  20.347  1.00  0.00     0.135 A 
ATOM     70  C   UNL     1       2.287  -6.728  19.176  1.00  0.00     0.135 A 
ATOM     71  F   UNL     1       0.213  -4.066  20.494  1.00  0.00    -0.206 F 
ATOM     72  C   UNL     1       1.928  -5.255  21.485  1.00  0.00     0.059 A 
ATOM     73  C   UNL     1       3.096  -6.971  20.292  1.00  0.00     0.059 A 
ATOM     74  F   UNL     1       2.475  -7.585  18.172  1.00  0.00    -0.206 F 
ATOM     75  C   UNL     1       2.922  -6.219  21.441  1.00  0.00     0.060 A 
BRANCH  75  76
ATOM     76  S   UNL     1       3.949  -6.499  22.894  1.00  0.00     0.124 S 
ATOM     77  O   UNL     1       4.627  -5.215  23.040  1.00  0.00    -0.237 OA
ATOM     78  O   UNL     1       2.958  -6.817  23.916  1.00  0.00    -0.237 OA
ATOM     79  O   UNL     1       4.808  -7.612  22.495  1.00  0.00    -0.744 OA
ENDBRANCH  75  76
ENDBRANCH  54  68
BRANCH  55  80
ATOM     80  C   UNL     1      -2.539  -1.665  11.109  1.00  0.00     0.058 A 
ATOM     81  C   UNL     1      -2.456  -0.566  10.239  1.00  0.00     0.135 A 
ATOM     82  C   UNL     1      -2.087  -2.904  10.646  1.00  0.00     0.135 A 
ATOM     83  F   UNL     1      -3.011   0.605  10.588  1.00  0.00    -0.206 F 
ATOM     84  C   UNL     1      -1.638  -0.603   9.117  1.00  0.00     0.059 A 
ATOM     85  C   UNL     1      -1.182  -2.935   9.592  1.00  0.00     0.059 A 
ATOM     86  F   UNL     1      -2.235  -4.007  11.394  1.00  0.00    -0.206 F 
ATOM     87  C   UNL     1      -0.902  -1.760   8.885  1.00  0.00     0.060 A 
BRANCH  87  88
ATOM     88  S   UNL     1       0.674  -1.648   7.982  1.00  0.00     0.124 S 
ATOM     89  O   UNL     1       0.454  -2.520   6.833  1.00  0.00    -0.237 OA
ATOM     90  O   UNL     1       0.781  -0.226   7.675  1.00  0.00    -0.237 OA
ATOM     91  O   UNL     1       1.605  -2.136   8.992  1.00  0.00    -0.744 OA
ENDBRANCH  87  88
ENDBRANCH  55  80
BRANCH  67  92
ATOM     92  C   UNL     1      -4.897  -3.721  17.649  1.00  0.00     0.058 A 
ATOM     93  C   UNL     1      -6.164  -4.099  17.173  1.00  0.00     0.135 A 
ATOM     94  C   UNL     1      -4.667  -3.977  19.024  1.00  0.00     0.135 A 
ATOM     95  F   UNL     1      -6.469  -4.037  15.869  1.00  0.00    -0.206 F 
ATOM     96  C   UNL     1      -7.159  -4.606  18.010  1.00  0.00     0.059 A 
ATOM     97  C   UNL     1      -5.624  -4.538  19.865  1.00  0.00     0.059 A 
ATOM     98  F   UNL     1      -3.488  -3.703  19.603  1.00  0.00    -0.206 F 
ATOM     99  C   UNL     1      -6.882  -4.818  19.357  1.00  0.00     0.060 A 
BRANCH  99 100
ATOM    100  S   UNL     1      -8.152  -5.513  20.428  1.00  0.00     0.124 S 
ATOM    101  O   UNL     1      -8.874  -4.312  20.837  1.00  0.00    -0.237 OA
ATOM    102  O   UNL     1      -8.876  -6.407  19.529  1.00  0.00    -0.237 OA
ATOM    103  O   UNL     1      -7.383  -6.178  21.474  1.00  0.00    -0.744 OA
ENDBRANCH  99 100
ENDBRANCH  67  92
ENDBRANCH  41  42
ENDBRANCH  33  36
ENDBRANCH  31  32
ENDBRANCH   1  31
TORSDOF 16
