REMARK SMILES CCCc1cc(OC(F)(F)F)cc2c1O[C@@H](C(F)(F)F)C(C(=O)NCCCCNC(=O)c1ccc(-c3c4nc(c(-c5c(F)cc(S(=O)(=O)[O-])cc5F)c5ccc([nH]5)c(-c5c(F)cc(S(=O)(=O)[O-])cc5F)c5nc(c(-c6c(F)cc(S(=O)(=O)[O-])cc6F)c6ccc3[nH]6)C=C5)C=C4)cc1)=C2
REMARK SMILES IDX 27 1 26 2 25 3 24 4 22 5 23 6 21 8 4 9 5 10 14 11 6 12 13 13
REMARK SMILES IDX 15 14 12 15 98 16 16 17 3 18 2 19 1 20 7 21 8 22 9 23 10 24
REMARK SMILES IDX 11 25 17 26 18 27 19 28 20 29 28 30 29 31 30 32 31 34 32 35
REMARK SMILES IDX 33 36 97 37 34 38 96 39 35 40 36 41 37 42 90 43 38 44 95 45
REMARK SMILES IDX 89 46 91 47 39 48 94 49 88 50 87 51 40 53 74 54 53 55 73 56
REMARK SMILES IDX 54 57 57 58 72 59 92 60 55 61 56 62 71 64 93 65 58 66 41 67
REMARK SMILES IDX 42 68 51 69 43 70 44 71 50 72 52 73 45 74 46 75 47 76 48 77
REMARK SMILES IDX 49 78 75 79 76 80 85 81 77 82 78 83 84 84 86 85 79 86 80 87
REMARK SMILES IDX 81 88 82 89 83 90 59 91 60 92 69 93 61 94 62 95 68 96 70 97
REMARK SMILES IDX 63 98 64 99 65 100 66 101 67 102
REMARK H PARENT 24 7 29 33 91 52 57 63
REMARK Flexibility Score: inf
ROOT
ATOM      1  C   UNL     1      -2.068  -7.173   7.971  1.00  0.00     0.023 C 
ENDROOT
BRANCH   1   2
ATOM      2  C   UNL     1      -1.449  -6.146   7.021  1.00  0.00     0.023 C 
BRANCH   2   3
ATOM      3  C   UNL     1      -0.111  -6.574   6.404  1.00  0.00     0.116 C 
BRANCH   3   4
ATOM      4  N   UNL     1      -0.336  -7.472   5.284  1.00  0.00    -0.352 N 
ATOM      5  C   UNL     1      -0.529  -7.253   3.956  1.00  0.00     0.251 C 
ATOM      6  O   UNL     1      -0.828  -8.212   3.249  1.00  0.00    -0.270 OA
ATOM      7  H   UNL     1      -0.351  -8.424   5.536  1.00  0.00     0.163 HD
BRANCH   5   8
ATOM      8  C   UNL     1      -0.340  -5.923   3.315  1.00  0.00     0.067 C 
ATOM      9  C   UNL     1       0.413  -2.264   1.344  1.00  0.00    -0.002 A 
ATOM     10  C   UNL     1       0.103  -1.073   2.029  1.00  0.00     0.054 A 
ATOM     11  C   UNL     1       0.158  -3.489   1.989  1.00  0.00     0.131 A 
ATOM     12  C   UNL     1      -0.455  -1.090   3.308  1.00  0.00     0.130 A 
ATOM     13  C   UNL     1      -0.428  -3.512   3.252  1.00  0.00     0.021 A 
ATOM     14  O   UNL     1       0.566  -4.636   1.368  1.00  0.00    -0.475 OA
ATOM     15  C   UNL     1      -0.735  -2.315   3.905  1.00  0.00     0.058 A 
ATOM     16  C   UNL     1      -0.650  -4.775   3.929  1.00  0.00     0.025 C 
ATOM     17  C   UNL     1       0.063  -5.922   1.845  1.00  0.00     0.314 C 
BRANCH   9  18
ATOM     18  C   UNL     1       1.075  -2.248  -0.023  1.00  0.00     0.039 C 
BRANCH  18  19
ATOM     19  C   UNL     1       0.690  -1.108  -0.979  1.00  0.00     0.001 C 
ATOM     20  C   UNL     1       1.608   0.106  -0.900  1.00  0.00     0.004 C 
ENDBRANCH  18  19
ENDBRANCH   9  18
BRANCH  12  21
ATOM     21  O   UNL     1      -0.760  -0.005   4.080  1.00  0.00    -0.406 OA
BRANCH  21  22
ATOM     22  C   UNL     1      -0.389   1.275   3.601  1.00  0.00     0.573 C 
ATOM     23  F   UNL     1       0.938   1.348   3.361  1.00  0.00    -0.132 F 
ATOM     24  F   UNL     1      -1.067   1.583   2.474  1.00  0.00    -0.132 F 
ATOM     25  F   UNL     1      -0.696   2.197   4.540  1.00  0.00    -0.132 F 
ENDBRANCH  21  22
ENDBRANCH  12  21
BRANCH  17  26
ATOM     26  C   UNL     1       1.088  -6.996   1.412  1.00  0.00     0.429 C 
ATOM     27  F   UNL     1       0.517  -8.185   1.120  1.00  0.00    -0.167 F 
ATOM     28  F   UNL     1       1.730  -6.618   0.272  1.00  0.00    -0.167 F 
ATOM     29  F   UNL     1       2.046  -7.202   2.345  1.00  0.00    -0.167 F 
ENDBRANCH  17  26
ENDBRANCH   5   8
ENDBRANCH   3   4
ENDBRANCH   2   3
ENDBRANCH   1   2
BRANCH   1  30
ATOM     30  C   UNL     1      -1.268  -7.432   9.240  1.00  0.00     0.116 C 
BRANCH  30  31
ATOM     31  N   UNL     1      -1.040  -6.230  10.029  1.00  0.00    -0.352 N 
ATOM     32  C   UNL     1      -0.907  -6.112  11.391  1.00  0.00     0.251 C 
ATOM     33  H   UNL     1      -0.972  -5.391   9.518  1.00  0.00     0.163 HD
ATOM     34  O   UNL     1      -0.825  -5.009  11.907  1.00  0.00    -0.269 OA
BRANCH  32  35
ATOM     35  C   UNL     1      -0.912  -7.336  12.224  1.00  0.00     0.039 A 
ATOM     36  C   UNL     1      -1.749  -7.380  13.341  1.00  0.00     0.014 A 
ATOM     37  C   UNL     1      -0.123  -8.438  11.885  1.00  0.00     0.014 A 
ATOM     38  C   UNL     1      -1.840  -8.557  14.084  1.00  0.00     0.010 A 
ATOM     39  C   UNL     1      -0.267  -9.631  12.586  1.00  0.00     0.010 A 
ATOM     40  C   UNL     1      -1.125  -9.702  13.693  1.00  0.00    -0.014 A 
BRANCH  40  41
ATOM     41  C   UNL     1      -1.267 -10.979  14.433  1.00  0.00     0.031 A 
ATOM     42  C   UNL     1      -0.095 -11.556  15.176  1.00  0.00     0.074 A 
ATOM     43  C   UNL     1      -2.438 -11.644  14.388  1.00  0.00     0.049 A 
ATOM     44  N   UNL     1      -0.017 -12.672  15.854  1.00  0.00    -0.248 NA
ATOM     45  C   UNL     1       1.163 -10.794  15.128  1.00  0.00     0.031 C 
ATOM     46  C   UNL     1      -3.627 -11.215  13.646  1.00  0.00     0.029 A 
ATOM     47  N   UNL     1      -2.821 -12.824  14.973  1.00  0.00    -0.354 N 
ATOM     48  C   UNL     1       1.296 -12.751  16.303  1.00  0.00     0.074 A 
ATOM     49  C   UNL     1       1.994 -11.599  15.775  1.00  0.00     0.031 C 
ATOM     50  C   UNL     1      -4.613 -12.106  13.842  1.00  0.00     0.029 A 
ATOM     51  C   UNL     1      -4.121 -13.180  14.699  1.00  0.00     0.049 A 
ATOM     52  H   UNL     1      -2.222 -13.365  15.536  1.00  0.00     0.167 HD
ATOM     53  C   UNL     1       1.861 -13.685  17.105  1.00  0.00     0.037 A 
ATOM     54  C   UNL     1      -4.835 -14.250  15.097  1.00  0.00     0.037 A 
ATOM     55  C   UNL     1       1.154 -14.813  17.651  1.00  0.00     0.049 A 
ATOM     56  C   UNL     1      -4.192 -15.260  16.007  1.00  0.00     0.074 A 
ATOM     57  C   UNL     1       1.617 -15.779  18.527  1.00  0.00     0.029 A 
ATOM     58  N   UNL     1      -0.169 -15.126  17.374  1.00  0.00    -0.354 N 
ATOM     59  N   UNL     1      -2.969 -15.281  16.482  1.00  0.00    -0.248 NA
ATOM     60  C   UNL     1      -5.027 -16.387  16.444  1.00  0.00     0.031 C 
ATOM     61  C   UNL     1       0.584 -16.697  18.752  1.00  0.00     0.029 A 
ATOM     62  C   UNL     1      -0.534 -16.279  18.048  1.00  0.00     0.049 A 
ATOM     63  H   UNL     1      -0.762 -14.605  16.785  1.00  0.00     0.167 HD
ATOM     64  C   UNL     1      -2.894 -16.411  17.288  1.00  0.00     0.074 A 
ATOM     65  C   UNL     1      -4.200 -17.037  17.251  1.00  0.00     0.031 C 
ATOM     66  C   UNL     1      -1.840 -16.889  17.995  1.00  0.00     0.037 A 
BRANCH  53  67
ATOM     67  C   UNL     1       3.316 -13.515  17.447  1.00  0.00     0.058 A 
ATOM     68  C   UNL     1       3.753 -12.493  18.307  1.00  0.00     0.135 A 
ATOM     69  C   UNL     1       4.281 -14.392  16.930  1.00  0.00     0.135 A 
ATOM     70  F   UNL     1       2.874 -11.616  18.816  1.00  0.00    -0.206 F 
ATOM     71  C   UNL     1       5.099 -12.327  18.614  1.00  0.00     0.059 A 
ATOM     72  C   UNL     1       5.631 -14.261  17.246  1.00  0.00     0.059 A 
ATOM     73  F   UNL     1       3.919 -15.385  16.103  1.00  0.00    -0.206 F 
ATOM     74  C   UNL     1       6.032 -13.215  18.076  1.00  0.00     0.060 A 
BRANCH  74  75
ATOM     75  S   UNL     1       7.776 -12.985  18.482  1.00  0.00     0.124 S 
ATOM     76  O   UNL     1       8.115 -11.829  17.659  1.00  0.00    -0.237 OA
ATOM     77  O   UNL     1       7.734 -12.747  19.922  1.00  0.00    -0.237 OA
ATOM     78  O   UNL     1       8.388 -14.246  18.076  1.00  0.00    -0.744 OA
ENDBRANCH  74  75
ENDBRANCH  53  67
BRANCH  54  79
ATOM     79  C   UNL     1      -6.249 -14.402  14.665  1.00  0.00     0.058 A 
ATOM     80  C   UNL     1      -7.302 -14.213  15.572  1.00  0.00     0.135 A 
ATOM     81  C   UNL     1      -6.576 -14.722  13.339  1.00  0.00     0.135 A 
ATOM     82  F   UNL     1      -7.038 -13.910  16.852  1.00  0.00    -0.206 F 
ATOM     83  C   UNL     1      -8.630 -14.352  15.184  1.00  0.00     0.059 A 
ATOM     84  C   UNL     1      -7.897 -14.844  12.922  1.00  0.00     0.059 A 
ATOM     85  F   UNL     1      -5.604 -14.894  12.429  1.00  0.00    -0.206 F 
ATOM     86  C   UNL     1      -8.918 -14.666  13.855  1.00  0.00     0.060 A 
BRANCH  86  87
ATOM     87  S   UNL     1     -10.648 -14.793  13.349  1.00  0.00     0.124 S 
ATOM     88  O   UNL     1     -11.025 -16.082  13.916  1.00  0.00    -0.237 OA
ATOM     89  O   UNL     1     -11.240 -13.619  13.981  1.00  0.00    -0.237 OA
ATOM     90  O   UNL     1     -10.573 -14.740  11.892  1.00  0.00    -0.744 OA
ENDBRANCH  86  87
ENDBRANCH  54  79
BRANCH  66  91
ATOM     91  C   UNL     1      -2.064 -18.140  18.797  1.00  0.00     0.058 A 
ATOM     92  C   UNL     1      -2.182 -19.395  18.181  1.00  0.00     0.135 A 
ATOM     93  C   UNL     1      -2.131 -18.086  20.198  1.00  0.00     0.135 A 
ATOM     94  F   UNL     1      -2.131 -19.500  16.844  1.00  0.00    -0.206 F 
ATOM     95  C   UNL     1      -2.388 -20.552  18.926  1.00  0.00     0.059 A 
ATOM     96  C   UNL     1      -2.311 -19.233  20.964  1.00  0.00     0.059 A 
ATOM     97  F   UNL     1      -2.012 -16.911  20.836  1.00  0.00    -0.206 F 
ATOM     98  C   UNL     1      -2.454 -20.460  20.317  1.00  0.00     0.060 A 
BRANCH  98  99
ATOM     99  S   UNL     1      -2.705 -21.970  21.275  1.00  0.00     0.124 S 
ATOM    100  O   UNL     1      -4.130 -22.210  21.074  1.00  0.00    -0.237 OA
ATOM    101  O   UNL     1      -1.805 -22.913  20.619  1.00  0.00    -0.237 OA
ATOM    102  O   UNL     1      -2.318 -21.580  22.628  1.00  0.00    -0.744 OA
ENDBRANCH  98  99
ENDBRANCH  66  91
ENDBRANCH  40  41
ENDBRANCH  32  35
ENDBRANCH  30  31
ENDBRANCH   1  30
TORSDOF 19
