REMARK SMILES CC(C)Cc1ccc([C@@H]2CC[NH2+][C@H]2C(=O)NCCCCNC(=O)c2ccc(-c3c4nc(c(-c5c(F)cc(S(=O)(=O)[O-])cc5F)c5ccc([nH]5)c(-c5c(F)cc(S(=O)(=O)[O-])cc5F)c5nc(c(-c6c(F)cc(S(=O)(=O)[O-])cc6F)c6ccc3[nH]6)C=C5)C=C4)cc2)cc1
REMARK SMILES IDX 18 1 17 2 16 3 14 4 15 5 13 7 9 8 10 9 11 10 12 11 8 14 5 15
REMARK SMILES IDX 6 16 91 17 7 18 90 19 4 20 2 21 1 22 3 23 19 24 20 25 21 26
REMARK SMILES IDX 22 27 23 29 24 30 25 31 89 32 26 33 88 34 27 35 28 36 29 37
REMARK SMILES IDX 82 38 30 39 87 40 81 41 83 42 31 43 86 44 80 45 79 46 32 48
REMARK SMILES IDX 66 49 45 50 65 51 46 52 49 53 64 54 84 55 47 56 48 57 63 59
REMARK SMILES IDX 85 60 50 61 33 62 34 63 43 64 35 65 36 66 42 67 44 68 37 69
REMARK SMILES IDX 38 70 39 71 40 72 41 73 67 74 68 75 77 76 69 77 70 78 76 79
REMARK SMILES IDX 78 80 71 81 72 82 73 83 74 84 75 85 51 86 52 87 61 88 53 89
REMARK SMILES IDX 54 90 60 91 62 92 55 93 56 94 57 95 58 96 59 97
REMARK H PARENT 16 6 12 12 12 13 21 28 83 47 49 58
REMARK Flexibility Score: inf
ROOT
ATOM      1  C   UNL     1      -4.994  -6.832  -3.421  1.00  0.00     0.023 C 
ENDROOT
BRANCH   1   2
ATOM      2  C   UNL     1      -3.600  -7.449  -3.506  1.00  0.00     0.116 C 
BRANCH   2   3
ATOM      3  N   UNL     1      -2.657  -6.574  -4.173  1.00  0.00    -0.351 N 
ATOM      4  C   UNL     1      -1.717  -5.708  -3.696  1.00  0.00     0.278 C 
ATOM      5  O   UNL     1      -1.104  -5.044  -4.538  1.00  0.00    -0.268 OA
ATOM      6  H   UNL     1      -2.703  -6.612  -5.155  1.00  0.00     0.163 HD
BRANCH   4   7
ATOM      7  C   UNL     1      -1.414  -5.529  -2.191  1.00  0.00     0.280 C 
ATOM      8  C   UNL     1      -2.555  -4.866  -1.406  1.00  0.00     0.093 C 
ATOM      9  C   UNL     1      -3.021  -5.939  -0.421  1.00  0.00     0.076 C 
ATOM     10  C   UNL     1      -1.872  -6.928  -0.317  1.00  0.00     0.262 C 
ATOM     11  N   UNL     1      -1.072  -6.817  -1.534  1.00  0.00    -0.335 N 
ATOM     12  H   UNL     1      -1.286  -7.593  -2.161  1.00  0.00     0.346 HD
ATOM     13  H   UNL     1      -0.077  -6.848  -1.309  1.00  0.00     0.346 HD
BRANCH   8  14
ATOM     14  C   UNL     1      -2.123  -3.597  -0.687  1.00  0.00    -0.038 A 
ATOM     15  C   UNL     1      -1.330  -1.225   0.635  1.00  0.00    -0.048 A 
ATOM     16  C   UNL     1      -2.327  -1.196  -0.348  1.00  0.00     0.004 A 
ATOM     17  C   UNL     1      -0.757  -2.455   0.969  1.00  0.00     0.004 A 
ATOM     18  C   UNL     1      -2.719  -2.369  -1.003  1.00  0.00     0.004 A 
ATOM     19  C   UNL     1      -1.132  -3.619   0.303  1.00  0.00     0.004 A 
BRANCH  15  20
ATOM     20  C   UNL     1      -0.891   0.044   1.328  1.00  0.00     0.038 C 
BRANCH  20  21
ATOM     21  C   UNL     1       0.637   0.265   1.338  1.00  0.00    -0.013 C 
ATOM     22  C   UNL     1       1.199   0.436  -0.076  1.00  0.00     0.008 C 
ATOM     23  C   UNL     1       0.987   1.484   2.192  1.00  0.00     0.008 C 
ENDBRANCH  20  21
ENDBRANCH  15  20
ENDBRANCH   8  14
ENDBRANCH   4   7
ENDBRANCH   2   3
ENDBRANCH   1   2
BRANCH   1  24
ATOM     24  C   UNL     1      -5.840  -6.994  -4.683  1.00  0.00     0.023 C 
BRANCH  24  25
ATOM     25  C   UNL     1      -6.098  -8.436  -5.111  1.00  0.00     0.116 C 
BRANCH  25  26
ATOM     26  N   UNL     1      -6.684  -9.263  -4.065  1.00  0.00    -0.352 N 
ATOM     27  C   UNL     1      -7.512 -10.350  -4.215  1.00  0.00     0.251 C 
ATOM     28  H   UNL     1      -6.459  -9.014  -3.139  1.00  0.00     0.163 HD
ATOM     29  O   UNL     1      -7.999 -10.905  -3.234  1.00  0.00    -0.269 OA
BRANCH  27  30
ATOM     30  C   UNL     1      -7.843 -10.805  -5.579  1.00  0.00     0.039 A 
ATOM     31  C   UNL     1      -9.186 -10.890  -5.954  1.00  0.00     0.014 A 
ATOM     32  C   UNL     1      -6.826 -11.061  -6.502  1.00  0.00     0.014 A 
ATOM     33  C   UNL     1      -9.510 -11.155  -7.286  1.00  0.00     0.010 A 
ATOM     34  C   UNL     1      -7.150 -11.265  -7.838  1.00  0.00     0.010 A 
ATOM     35  C   UNL     1      -8.494 -11.301  -8.244  1.00  0.00    -0.014 A 
BRANCH  35  36
ATOM     36  C   UNL     1      -8.807 -11.471  -9.684  1.00  0.00     0.031 A 
ATOM     37  C   UNL     1      -8.439 -12.748 -10.384  1.00  0.00     0.074 A 
ATOM     38  C   UNL     1      -9.332 -10.441 -10.376  1.00  0.00     0.049 A 
ATOM     39  N   UNL     1      -8.518 -13.044 -11.655  1.00  0.00    -0.248 NA
ATOM     40  C   UNL     1      -7.881 -13.823  -9.548  1.00  0.00     0.031 C 
ATOM     41  C   UNL     1      -9.680  -9.133  -9.817  1.00  0.00     0.029 A 
ATOM     42  N   UNL     1      -9.647 -10.326 -11.707  1.00  0.00    -0.354 N 
ATOM     43  C   UNL     1      -7.996 -14.325 -11.777  1.00  0.00     0.074 A 
ATOM     44  C   UNL     1      -7.571 -14.737 -10.456  1.00  0.00     0.031 C 
ATOM     45  C   UNL     1     -10.169  -8.352 -10.794  1.00  0.00     0.029 A 
ATOM     46  C   UNL     1     -10.140  -9.090 -12.053  1.00  0.00     0.049 A 
ATOM     47  H   UNL     1      -9.531 -11.059 -12.353  1.00  0.00     0.167 HD
ATOM     48  C   UNL     1      -7.898 -15.095 -12.886  1.00  0.00     0.037 A 
ATOM     49  C   UNL     1     -10.515  -8.604 -13.251  1.00  0.00     0.037 A 
ATOM     50  C   UNL     1      -8.360 -14.696 -14.189  1.00  0.00     0.049 A 
ATOM     51  C   UNL     1     -10.428  -9.489 -14.463  1.00  0.00     0.074 A 
ATOM     52  C   UNL     1      -8.368 -15.430 -15.362  1.00  0.00     0.029 A 
ATOM     53  N   UNL     1      -8.899 -13.454 -14.489  1.00  0.00    -0.354 N 
ATOM     54  N   UNL     1      -9.986 -10.721 -14.550  1.00  0.00    -0.248 NA
ATOM     55  C   UNL     1     -10.893  -8.924 -15.737  1.00  0.00     0.031 C 
ATOM     56  C   UNL     1      -8.891 -14.622 -16.378  1.00  0.00     0.029 A 
ATOM     57  C   UNL     1      -9.236 -13.396 -15.831  1.00  0.00     0.049 A 
ATOM     58  H   UNL     1      -9.025 -12.721 -13.844  1.00  0.00     0.167 HD
ATOM     59  C   UNL     1     -10.139 -11.085 -15.883  1.00  0.00     0.074 A 
ATOM     60  C   UNL     1     -10.722  -9.947 -16.564  1.00  0.00     0.031 C 
ATOM     61  C   UNL     1      -9.826 -12.257 -16.487  1.00  0.00     0.037 A 
BRANCH  48  62
ATOM     62  C   UNL     1      -7.274 -16.453 -12.732  1.00  0.00     0.058 A 
ATOM     63  C   UNL     1      -7.949 -17.501 -12.086  1.00  0.00     0.135 A 
ATOM     64  C   UNL     1      -5.997 -16.715 -13.253  1.00  0.00     0.135 A 
ATOM     65  F   UNL     1      -9.165 -17.297 -11.556  1.00  0.00    -0.206 F 
ATOM     66  C   UNL     1      -7.366 -18.754 -11.934  1.00  0.00     0.059 A 
ATOM     67  C   UNL     1      -5.405 -17.969 -13.133  1.00  0.00     0.059 A 
ATOM     68  F   UNL     1      -5.309 -15.747 -13.877  1.00  0.00    -0.206 F 
ATOM     69  C   UNL     1      -6.091 -18.977 -12.457  1.00  0.00     0.060 A 
BRANCH  69  70
ATOM     70  S   UNL     1      -5.344 -20.607 -12.248  1.00  0.00     0.124 S 
ATOM     71  O   UNL     1      -4.922 -20.555 -10.851  1.00  0.00    -0.237 OA
ATOM     72  O   UNL     1      -6.458 -21.505 -12.539  1.00  0.00    -0.237 OA
ATOM     73  O   UNL     1      -4.266 -20.614 -13.231  1.00  0.00    -0.744 OA
ENDBRANCH  69  70
ENDBRANCH  48  62
BRANCH  49  74
ATOM     74  C   UNL     1     -11.032  -7.215 -13.357  1.00  0.00     0.058 A 
ATOM     75  C   UNL     1     -12.399  -6.971 -13.552  1.00  0.00     0.135 A 
ATOM     76  C   UNL     1     -10.178  -6.107 -13.243  1.00  0.00     0.135 A 
ATOM     77  F   UNL     1     -13.252  -7.999 -13.672  1.00  0.00    -0.206 F 
ATOM     78  C   UNL     1     -12.903  -5.678 -13.641  1.00  0.00     0.059 A 
ATOM     79  C   UNL     1     -10.660  -4.804 -13.309  1.00  0.00     0.059 A 
ATOM     80  F   UNL     1      -8.864  -6.290 -13.038  1.00  0.00    -0.206 F 
ATOM     81  C   UNL     1     -12.024  -4.600 -13.517  1.00  0.00     0.060 A 
BRANCH  81  82
ATOM     82  S   UNL     1     -12.694  -2.923 -13.575  1.00  0.00     0.124 S 
ATOM     83  O   UNL     1     -12.918  -2.746 -15.005  1.00  0.00    -0.237 OA
ATOM     84  O   UNL     1     -13.892  -3.040 -12.749  1.00  0.00    -0.237 OA
ATOM     85  O   UNL     1     -11.623  -2.117 -12.997  1.00  0.00    -0.744 OA
ENDBRANCH  81  82
ENDBRANCH  49  74
BRANCH  61  86
ATOM     86  C   UNL     1     -10.132 -12.383 -17.951  1.00  0.00     0.058 A 
ATOM     87  C   UNL     1      -9.322 -11.780 -18.924  1.00  0.00     0.135 A 
ATOM     88  C   UNL     1     -11.209 -13.173 -18.386  1.00  0.00     0.135 A 
ATOM     89  F   UNL     1      -8.286 -11.009 -18.557  1.00  0.00    -0.206 F 
ATOM     90  C   UNL     1      -9.574 -11.947 -20.282  1.00  0.00     0.059 A 
ATOM     91  C   UNL     1     -11.467 -13.369 -19.738  1.00  0.00     0.059 A 
ATOM     92  F   UNL     1     -12.008 -13.777 -17.492  1.00  0.00    -0.206 F 
ATOM     93  C   UNL     1     -10.648 -12.746 -20.679  1.00  0.00     0.060 A 
BRANCH  93  94
ATOM     94  S   UNL     1     -10.936 -13.000 -22.443  1.00  0.00     0.124 S 
ATOM     95  O   UNL     1     -11.570 -11.741 -22.821  1.00  0.00    -0.237 OA
ATOM     96  O   UNL     1      -9.585 -13.208 -22.956  1.00  0.00    -0.237 OA
ATOM     97  O   UNL     1     -11.800 -14.176 -22.479  1.00  0.00    -0.744 OA
ENDBRANCH  93  94
ENDBRANCH  61  86
ENDBRANCH  35  36
ENDBRANCH  27  30
ENDBRANCH  25  26
ENDBRANCH  24  25
ENDBRANCH   1  24
TORSDOF 17
