REMARK SMILES CC1(C)CCC[C@@]1(NC(=O)OCc1ccccc1)C(=O)NCCCCNC(=O)c1ccc(-c2c3nc(c(-c4c(F)cc(S(=O)(=O)[O-])cc4F)c4ccc([nH]4)c(-c4c(F)cc(S(=O)(=O)[O-])cc4F)c4nc(c(-c5c(F)cc(S(=O)(=O)[O-])cc5F)c5ccc2[nH]5)C=C4)C=C3)cc1
REMARK SMILES IDX 23 1 22 2 21 3 19 4 20 5 7 7 1 8 2 9 3 10 4 11 5 12 6 13
REMARK SMILES IDX 8 14 9 15 10 17 11 18 12 19 13 20 14 21 18 22 15 23 17 24
REMARK SMILES IDX 16 25 24 26 25 27 26 28 27 29 28 31 29 32 30 33 94 34 31 35
REMARK SMILES IDX 93 36 32 37 33 38 34 39 87 40 35 41 92 42 86 43 88 44 36 45
REMARK SMILES IDX 91 46 85 47 84 48 37 50 71 51 50 52 70 53 51 54 54 55 69 56
REMARK SMILES IDX 89 57 52 58 53 59 68 61 90 62 55 63 38 64 39 65 48 66 40 67
REMARK SMILES IDX 41 68 47 69 49 70 42 71 43 72 44 73 45 74 46 75 72 76 73 77
REMARK SMILES IDX 82 78 74 79 75 80 81 81 83 82 76 83 77 84 78 85 79 86 80 87
REMARK SMILES IDX 56 88 57 89 66 90 58 91 59 92 65 93 67 94 60 95 61 96 62 97
REMARK SMILES IDX 63 98 64 99
REMARK H PARENT 21 6 8 16 26 30 88 49 54 60
REMARK Flexibility Score: inf
ROOT
ATOM      1  C   UNL     1      -3.548   0.967   2.433  1.00  0.00     0.023 C 
ENDROOT
BRANCH   1   2
ATOM      2  C   UNL     1      -2.619   2.135   2.112  1.00  0.00     0.116 C 
BRANCH   2   3
ATOM      3  N   UNL     1      -1.248   1.826   2.455  1.00  0.00    -0.354 N 
ATOM      4  C   UNL     1      -0.157   1.510   1.705  1.00  0.00     0.246 C 
ATOM      5  O   UNL     1       0.914   1.664   2.307  1.00  0.00    -0.272 OA
ATOM      6  H   UNL     1      -1.068   1.848   3.423  1.00  0.00     0.163 HD
BRANCH   4   7
ATOM      7  C   UNL     1      -0.189   1.151   0.159  1.00  0.00     0.127 C 
ATOM      8  C   UNL     1       2.209   0.012   0.588  1.00  0.00     0.014 C 
ATOM      9  C   UNL     1       0.855  -0.036  -0.138  1.00  0.00    -0.003 C 
ATOM     10  C   UNL     1       1.192  -0.197  -1.648  1.00  0.00     0.014 C 
ATOM     11  C   UNL     1       0.053  -1.266   0.326  1.00  0.00     0.009 C 
ATOM     12  C   UNL     1      -1.362  -1.019  -0.172  1.00  0.00     0.004 C 
ATOM     13  C   UNL     1      -1.481   0.492  -0.387  1.00  0.00     0.039 C 
BRANCH   7  14
ATOM     14  N   UNL     1       0.159   2.337  -0.659  1.00  0.00    -0.306 N 
ATOM     15  C   UNL     1      -0.279   3.622  -0.574  1.00  0.00     0.408 C 
ATOM     16  H   UNL     1       0.810   2.167  -1.378  1.00  0.00     0.168 HD
ATOM     17  O   UNL     1      -0.202   4.366  -1.546  1.00  0.00    -0.225 OA
BRANCH  15  18
ATOM     18  O   UNL     1      -0.687   3.985   0.655  1.00  0.00    -0.445 OA
BRANCH  18  19
ATOM     19  C   UNL     1      -0.959   5.379   0.864  1.00  0.00     0.270 C 
BRANCH  19  20
ATOM     20  C   UNL     1       0.235   6.163   1.367  1.00  0.00    -0.011 A 
ATOM     21  C   UNL     1       0.022   7.365   2.061  1.00  0.00     0.007 A 
ATOM     22  C   UNL     1       1.558   5.773   1.108  1.00  0.00     0.007 A 
ATOM     23  C   UNL     1       1.099   8.150   2.482  1.00  0.00     0.000 A 
ATOM     24  C   UNL     1       2.633   6.561   1.524  1.00  0.00     0.000 A 
ATOM     25  C   UNL     1       2.404   7.750   2.209  1.00  0.00     0.000 A 
ENDBRANCH  19  20
ENDBRANCH  18  19
ENDBRANCH  15  18
ENDBRANCH   7  14
ENDBRANCH   4   7
ENDBRANCH   2   3
ENDBRANCH   1   2
BRANCH   1  26
ATOM     26  C   UNL     1      -3.923   0.858   3.912  1.00  0.00     0.023 C 
BRANCH  26  27
ATOM     27  C   UNL     1      -4.718   2.039   4.454  1.00  0.00     0.116 C 
BRANCH  27  28
ATOM     28  N   UNL     1      -5.974   2.263   3.752  1.00  0.00    -0.352 N 
ATOM     29  C   UNL     1      -7.097   2.890   4.242  1.00  0.00     0.251 C 
ATOM     30  H   UNL     1      -6.026   1.929   2.828  1.00  0.00     0.163 HD
ATOM     31  O   UNL     1      -8.133   2.937   3.589  1.00  0.00    -0.269 OA
BRANCH  29  32
ATOM     32  C   UNL     1      -7.028   3.462   5.599  1.00  0.00     0.039 A 
ATOM     33  C   UNL     1      -7.883   2.970   6.587  1.00  0.00     0.014 A 
ATOM     34  C   UNL     1      -6.036   4.396   5.906  1.00  0.00     0.014 A 
ATOM     35  C   UNL     1      -7.692   3.363   7.912  1.00  0.00     0.010 A 
ATOM     36  C   UNL     1      -5.811   4.738   7.233  1.00  0.00     0.010 A 
ATOM     37  C   UNL     1      -6.629   4.217   8.248  1.00  0.00    -0.014 A 
BRANCH  37  38
ATOM     38  C   UNL     1      -6.338   4.586   9.655  1.00  0.00     0.031 A 
ATOM     39  C   UNL     1      -6.459   6.020  10.083  1.00  0.00     0.074 A 
ATOM     40  C   UNL     1      -5.865   3.656  10.508  1.00  0.00     0.049 A 
ATOM     41  N   UNL     1      -6.101   6.580  11.208  1.00  0.00    -0.248 NA
ATOM     42  C   UNL     1      -7.027   6.955   9.098  1.00  0.00     0.031 C 
ATOM     43  C   UNL     1      -5.671   2.238  10.197  1.00  0.00     0.029 A 
ATOM     44  N   UNL     1      -5.441   3.770  11.808  1.00  0.00    -0.354 N 
ATOM     45  C   UNL     1      -6.367   7.936  11.055  1.00  0.00     0.074 A 
ATOM     46  C   UNL     1      -6.884   8.118   9.716  1.00  0.00     0.031 C 
ATOM     47  C   UNL     1      -5.181   1.612  11.280  1.00  0.00     0.029 A 
ATOM     48  C   UNL     1      -4.984   2.589  12.347  1.00  0.00     0.049 A 
ATOM     49  H   UNL     1      -5.461   4.617  12.309  1.00  0.00     0.167 HD
ATOM     50  C   UNL     1      -6.206   8.934  11.955  1.00  0.00     0.037 A 
ATOM     51  C   UNL     1      -4.455   2.329  13.558  1.00  0.00     0.037 A 
ATOM     52  C   UNL     1      -5.730   8.736  13.298  1.00  0.00     0.049 A 
ATOM     53  C   UNL     1      -4.301   3.453  14.547  1.00  0.00     0.074 A 
ATOM     54  C   UNL     1      -5.596   9.670  14.310  1.00  0.00     0.029 A 
ATOM     55  N   UNL     1      -5.314   7.519  13.818  1.00  0.00    -0.354 N 
ATOM     56  N   UNL     1      -4.601   4.722  14.404  1.00  0.00    -0.248 NA
ATOM     57  C   UNL     1      -3.737   3.112  15.860  1.00  0.00     0.031 C 
ATOM     58  C   UNL     1      -5.069   9.023  15.433  1.00  0.00     0.029 A 
ATOM     59  C   UNL     1      -4.912   7.679  15.133  1.00  0.00     0.049 A 
ATOM     60  H   UNL     1      -5.307   6.667  13.325  1.00  0.00     0.167 HD
ATOM     61  C   UNL     1      -4.295   5.324  15.619  1.00  0.00     0.074 A 
ATOM     62  C   UNL     1      -3.786   4.280  16.486  1.00  0.00     0.031 C 
ATOM     63  C   UNL     1      -4.429   6.622  15.986  1.00  0.00     0.037 A 
BRANCH  50  64
ATOM     64  C   UNL     1      -6.544  10.329  11.510  1.00  0.00     0.058 A 
ATOM     65  C   UNL     1      -7.870  10.734  11.294  1.00  0.00     0.135 A 
ATOM     66  C   UNL     1      -5.528  11.277  11.310  1.00  0.00     0.135 A 
ATOM     67  F   UNL     1      -8.878   9.862  11.454  1.00  0.00    -0.206 F 
ATOM     68  C   UNL     1      -8.176  12.020  10.861  1.00  0.00     0.059 A 
ATOM     69  C   UNL     1      -5.813  12.578  10.903  1.00  0.00     0.059 A 
ATOM     70  F   UNL     1      -4.242  10.942  11.501  1.00  0.00    -0.206 F 
ATOM     71  C   UNL     1      -7.139  12.933  10.664  1.00  0.00     0.060 A 
BRANCH  71  72
ATOM     72  S   UNL     1      -7.549  14.596  10.093  1.00  0.00     0.124 S 
ATOM     73  O   UNL     1      -7.835  14.355   8.682  1.00  0.00    -0.237 OA
ATOM     74  O   UNL     1      -8.700  14.938  10.922  1.00  0.00    -0.237 OA
ATOM     75  O   UNL     1      -6.335  15.358  10.367  1.00  0.00    -0.744 OA
ENDBRANCH  71  72
ENDBRANCH  50  64
BRANCH  51  76
ATOM     76  C   UNL     1      -4.063   0.941  13.916  1.00  0.00     0.058 A 
ATOM     77  C   UNL     1      -4.824   0.197  14.830  1.00  0.00     0.135 A 
ATOM     78  C   UNL     1      -2.940   0.324  13.345  1.00  0.00     0.135 A 
ATOM     79  F   UNL     1      -5.903   0.747  15.407  1.00  0.00    -0.206 F 
ATOM     80  C   UNL     1      -4.480  -1.105  15.175  1.00  0.00     0.059 A 
ATOM     81  C   UNL     1      -2.587  -0.986  13.658  1.00  0.00     0.059 A 
ATOM     82  F   UNL     1      -2.189   0.988  12.452  1.00  0.00    -0.206 F 
ATOM     83  C   UNL     1      -3.360  -1.690  14.582  1.00  0.00     0.060 A 
BRANCH  83  84
ATOM     84  S   UNL     1      -2.956  -3.401  14.995  1.00  0.00     0.124 S 
ATOM     85  O   UNL     1      -2.401  -3.256  16.335  1.00  0.00    -0.237 OA
ATOM     86  O   UNL     1      -4.259  -4.054  14.910  1.00  0.00    -0.237 OA
ATOM     87  O   UNL     1      -2.005  -3.780  13.954  1.00  0.00    -0.744 OA
ENDBRANCH  83  84
ENDBRANCH  51  76
BRANCH  63  88
ATOM     88  C   UNL     1      -4.071   6.984  17.399  1.00  0.00     0.058 A 
ATOM     89  C   UNL     1      -2.737   7.093  17.818  1.00  0.00     0.135 A 
ATOM     90  C   UNL     1      -5.080   7.297  18.324  1.00  0.00     0.135 A 
ATOM     91  F   UNL     1      -1.736   6.797  16.973  1.00  0.00    -0.206 F 
ATOM     92  C   UNL     1      -2.414   7.488  19.113  1.00  0.00     0.059 A 
ATOM     93  C   UNL     1      -4.780   7.716  19.616  1.00  0.00     0.059 A 
ATOM     94  F   UNL     1      -6.372   7.217  17.968  1.00  0.00    -0.206 F 
ATOM     95  C   UNL     1      -3.444   7.802  20.003  1.00  0.00     0.060 A 
BRANCH  95  96
ATOM     96  S   UNL     1      -3.014   8.365  21.663  1.00  0.00     0.124 S 
ATOM     97  O   UNL     1      -2.629   7.114  22.308  1.00  0.00    -0.237 OA
ATOM     98  O   UNL     1      -1.928   9.306  21.405  1.00  0.00    -0.237 OA
ATOM     99  O   UNL     1      -4.253   8.967  22.148  1.00  0.00    -0.744 OA
ENDBRANCH  95  96
ENDBRANCH  63  88
ENDBRANCH  37  38
ENDBRANCH  29  32
ENDBRANCH  27  28
ENDBRANCH  26  27
ENDBRANCH   1  26
TORSDOF 18
