REMARK SMILES [NH3+][C@H]1CN(C(=O)OCC2c3ccccc3-c3ccccc32)C[C@@H]1C(=O)NCCCCNC(=O)c1ccc(-c2c3nc(c(-c4c(F)cc(S(=O)(=O)[O-])cc4F)c4ccc([nH]4)c(-c4c(F)cc(S(=O)(=O)[O-])cc4F)c4nc(c(-c5c(F)cc(S(=O)(=O)[O-])cc5F)c5ccc2[nH]5)C=C4)C=C3)cc1
REMARK SMILES IDX 28 1 27 2 26 3 24 4 25 5 23 7 2 8 3 9 4 10 22 11 1 12 5 16
REMARK SMILES IDX 6 17 7 18 8 19 9 20 10 21 21 22 11 23 15 24 16 25 20 26
REMARK SMILES IDX 12 27 14 28 17 29 19 30 13 31 18 32 29 33 30 34 31 35 32 36
REMARK SMILES IDX 33 38 34 39 35 40 99 41 36 42 98 43 37 44 38 45 39 46 92 47
REMARK SMILES IDX 40 48 97 49 91 50 93 51 41 52 96 53 90 54 89 55 42 57 76 58
REMARK SMILES IDX 55 59 75 60 56 61 59 62 74 63 94 64 57 65 58 66 73 68 95 69
REMARK SMILES IDX 60 70 43 71 44 72 53 73 45 74 46 75 52 76 54 77 47 78 48 79
REMARK SMILES IDX 49 80 50 81 51 82 77 83 78 84 87 85 79 86 80 87 86 88 88 89
REMARK SMILES IDX 81 90 82 91 83 92 84 93 85 94 61 95 62 96 71 97 63 98 64 99
REMARK SMILES IDX 70 100 72 101 65 102 66 103 67 104 68 105 69 106
REMARK H PARENT 26 6 1 13 1 14 1 15 31 37 93 56 59 67
REMARK Flexibility Score: inf
ROOT
ATOM      1  C   UNL     1       4.287  -3.180  -2.725  1.00  0.00     0.023 C 
ENDROOT
BRANCH   1   2
ATOM      2  C   UNL     1       3.473  -3.976  -1.704  1.00  0.00     0.116 C 
BRANCH   2   3
ATOM      3  N   UNL     1       3.497  -3.331  -0.403  1.00  0.00    -0.356 N 
ATOM      4  C   UNL     1       2.533  -2.594   0.222  1.00  0.00     0.231 C 
ATOM      5  O   UNL     1       2.838  -1.988   1.248  1.00  0.00    -0.274 OA
ATOM      6  H   UNL     1       4.333  -3.442   0.104  1.00  0.00     0.163 HD
BRANCH   4   7
ATOM      7  C   UNL     1       1.117  -2.602  -0.333  1.00  0.00     0.158 C 
ATOM      8  C   UNL     1       0.298  -1.383   0.129  1.00  0.00     0.215 C 
ATOM      9  C   UNL     1      -0.206  -1.806   1.522  1.00  0.00     0.188 C 
ATOM     10  N   UNL     1      -0.267  -3.259   1.466  1.00  0.00    -0.301 N 
ATOM     11  C   UNL     1       0.368  -3.786   0.271  1.00  0.00     0.143 C 
BRANCH   8  12
ATOM     12  N   UNL     1      -0.843  -1.132  -0.779  1.00  0.00    -0.353 N 
ATOM     13  H   UNL     1      -1.368  -0.321  -0.451  1.00  0.00     0.344 HD
ATOM     14  H   UNL     1      -1.454  -1.950  -0.792  1.00  0.00     0.344 HD
ATOM     15  H   UNL     1      -0.496  -0.953  -1.721  1.00  0.00     0.344 HD
ENDBRANCH   8  12
BRANCH  10  16
ATOM     16  C   UNL     1      -0.675  -4.073   2.486  1.00  0.00     0.410 C 
ATOM     17  O   UNL     1      -0.616  -5.297   2.429  1.00  0.00    -0.224 OA
BRANCH  16  18
ATOM     18  O   UNL     1      -1.148  -3.379   3.558  1.00  0.00    -0.448 OA
BRANCH  18  19
ATOM     19  C   UNL     1      -1.480  -4.188   4.710  1.00  0.00     0.248 C 
BRANCH  19  20
ATOM     20  C   UNL     1      -2.815  -4.922   4.505  1.00  0.00     0.088 C 
ATOM     21  C   UNL     1      -2.804  -6.368   4.992  1.00  0.00    -0.029 A 
ATOM     22  C   UNL     1      -3.958  -4.334   5.333  1.00  0.00    -0.029 A 
ATOM     23  C   UNL     1      -1.968  -7.403   4.599  1.00  0.00     0.005 A 
ATOM     24  C   UNL     1      -3.845  -6.584   5.920  1.00  0.00    -0.014 A 
ATOM     25  C   UNL     1      -4.548  -5.337   6.133  1.00  0.00    -0.014 A 
ATOM     26  C   UNL     1      -4.433  -3.031   5.346  1.00  0.00     0.005 A 
ATOM     27  C   UNL     1      -2.175  -8.668   5.150  1.00  0.00     0.000 A 
ATOM     28  C   UNL     1      -4.053  -7.842   6.463  1.00  0.00     0.009 A 
ATOM     29  C   UNL     1      -5.621  -5.041   6.958  1.00  0.00     0.009 A 
ATOM     30  C   UNL     1      -5.511  -2.733   6.182  1.00  0.00     0.000 A 
ATOM     31  C   UNL     1      -3.210  -8.887   6.072  1.00  0.00     0.001 A 
ATOM     32  C   UNL     1      -6.101  -3.728   6.979  1.00  0.00     0.001 A 
ENDBRANCH  19  20
ENDBRANCH  18  19
ENDBRANCH  16  18
ENDBRANCH  10  16
ENDBRANCH   4   7
ENDBRANCH   2   3
ENDBRANCH   1   2
BRANCH   1  33
ATOM     33  C   UNL     1       5.793  -3.140  -2.443  1.00  0.00     0.023 C 
BRANCH  33  34
ATOM     34  C   UNL     1       6.472  -4.502  -2.338  1.00  0.00     0.116 C 
BRANCH  34  35
ATOM     35  N   UNL     1       6.352  -5.289  -3.556  1.00  0.00    -0.352 N 
ATOM     36  C   UNL     1       7.324  -5.989  -4.233  1.00  0.00     0.251 C 
ATOM     37  H   UNL     1       5.451  -5.325  -3.950  1.00  0.00     0.163 HD
ATOM     38  O   UNL     1       7.072  -6.479  -5.329  1.00  0.00    -0.269 OA
BRANCH  36  39
ATOM     39  C   UNL     1       8.678  -6.116  -3.650  1.00  0.00     0.039 A 
ATOM     40  C   UNL     1       9.788  -5.869  -4.460  1.00  0.00     0.014 A 
ATOM     41  C   UNL     1       8.850  -6.451  -2.304  1.00  0.00     0.014 A 
ATOM     42  C   UNL     1      11.069  -5.885  -3.900  1.00  0.00     0.010 A 
ATOM     43  C   UNL     1      10.118  -6.390  -1.733  1.00  0.00     0.010 A 
ATOM     44  C   UNL     1      11.242  -6.102  -2.523  1.00  0.00    -0.014 A 
BRANCH  44  45
ATOM     45  C   UNL     1      12.584  -6.016  -1.889  1.00  0.00     0.031 A 
ATOM     46  C   UNL     1      13.185  -7.221  -1.218  1.00  0.00     0.074 A 
ATOM     47  C   UNL     1      13.233  -4.834  -1.861  1.00  0.00     0.049 A 
ATOM     48  N   UNL     1      14.307  -7.322  -0.552  1.00  0.00    -0.248 NA
ATOM     49  C   UNL     1      12.413  -8.473  -1.283  1.00  0.00     0.031 C 
ATOM     50  C   UNL     1      12.738  -3.583  -2.439  1.00  0.00     0.029 A 
ATOM     51  N   UNL     1      14.446  -4.488  -1.317  1.00  0.00    -0.354 N 
ATOM     52  C   UNL     1      14.372  -8.640  -0.115  1.00  0.00     0.074 A 
ATOM     53  C   UNL     1      13.149  -9.285  -0.539  1.00  0.00     0.031 C 
ATOM     54  C   UNL     1      13.648  -2.615  -2.243  1.00  0.00     0.029 A 
ATOM     55  C   UNL     1      14.770  -3.162  -1.485  1.00  0.00     0.049 A 
ATOM     56  H   UNL     1      15.029  -5.129  -0.850  1.00  0.00     0.167 HD
ATOM     57  C   UNL     1      15.370  -9.262   0.557  1.00  0.00     0.037 A 
ATOM     58  C   UNL     1      15.842  -2.460  -1.067  1.00  0.00     0.037 A 
ATOM     59  C   UNL     1      16.591  -8.616   0.966  1.00  0.00     0.049 A 
ATOM     60  C   UNL     1      16.924  -3.167  -0.295  1.00  0.00     0.074 A 
ATOM     61  C   UNL     1      17.682  -9.171   1.612  1.00  0.00     0.029 A 
ATOM     62  N   UNL     1      16.883  -7.273   0.775  1.00  0.00    -0.354 N 
ATOM     63  N   UNL     1      16.995  -4.428   0.059  1.00  0.00    -0.248 NA
ATOM     64  C   UNL     1      18.074  -2.357   0.132  1.00  0.00     0.031 C 
ATOM     65  C   UNL     1      18.609  -8.154   1.860  1.00  0.00     0.029 A 
ATOM     66  C   UNL     1      18.125  -6.976   1.313  1.00  0.00     0.049 A 
ATOM     67  H   UNL     1      16.294  -6.626   0.323  1.00  0.00     0.167 HD
ATOM     68  C   UNL     1      18.211  -4.569   0.721  1.00  0.00     0.074 A 
ATOM     69  C   UNL     1      18.846  -3.268   0.708  1.00  0.00     0.031 C 
ATOM     70  C   UNL     1      18.752  -5.677   1.286  1.00  0.00     0.037 A 
BRANCH  57  71
ATOM     71  C   UNL     1      15.187 -10.719   0.891  1.00  0.00     0.058 A 
ATOM     72  C   UNL     1      15.188 -11.710  -0.104  1.00  0.00     0.135 A 
ATOM     73  C   UNL     1      15.050 -11.136   2.226  1.00  0.00     0.135 A 
ATOM     74  F   UNL     1      15.301 -11.369  -1.398  1.00  0.00    -0.206 F 
ATOM     75  C   UNL     1      15.030 -13.056   0.208  1.00  0.00     0.059 A 
ATOM     76  C   UNL     1      14.923 -12.480   2.564  1.00  0.00     0.059 A 
ATOM     77  F   UNL     1      15.042 -10.233   3.219  1.00  0.00    -0.206 F 
ATOM     78  C   UNL     1      14.899 -13.432   1.545  1.00  0.00     0.060 A 
BRANCH  78  79
ATOM     79  S   UNL     1      14.703 -15.184   1.930  1.00  0.00     0.124 S 
ATOM     80  O   UNL     1      13.351 -15.440   1.441  1.00  0.00    -0.237 OA
ATOM     81  O   UNL     1      15.781 -15.795   1.160  1.00  0.00    -0.237 OA
ATOM     82  O   UNL     1      14.864 -15.236   3.380  1.00  0.00    -0.744 OA
ENDBRANCH  78  79
ENDBRANCH  57  71
BRANCH  58  83
ATOM     83  C   UNL     1      15.956  -1.011  -1.387  1.00  0.00     0.058 A 
ATOM     84  C   UNL     1      16.928  -0.544  -2.285  1.00  0.00     0.135 A 
ATOM     85  C   UNL     1      15.095  -0.064  -0.809  1.00  0.00     0.135 A 
ATOM     86  F   UNL     1      17.781  -1.407  -2.858  1.00  0.00    -0.206 F 
ATOM     87  C   UNL     1      17.055   0.808  -2.586  1.00  0.00     0.059 A 
ATOM     88  C   UNL     1      15.182   1.290  -1.117  1.00  0.00     0.059 A 
ATOM     89  F   UNL     1      14.137  -0.459   0.045  1.00  0.00    -0.206 F 
ATOM     90  C   UNL     1      16.173   1.718  -1.999  1.00  0.00     0.060 A 
BRANCH  90  91
ATOM     91  S   UNL     1      16.317   3.465  -2.434  1.00  0.00     0.124 S 
ATOM     92  O   UNL     1      17.557   3.834  -1.761  1.00  0.00    -0.237 OA
ATOM     93  O   UNL     1      16.372   3.412  -3.892  1.00  0.00    -0.237 OA
ATOM     94  O   UNL     1      15.099   4.050  -1.881  1.00  0.00    -0.744 OA
ENDBRANCH  90  91
ENDBRANCH  58  83
BRANCH  70  95
ATOM     95  C   UNL     1      20.119  -5.549   1.903  1.00  0.00     0.058 A 
ATOM     96  C   UNL     1      20.328  -4.849   3.102  1.00  0.00     0.135 A 
ATOM     97  C   UNL     1      21.224  -6.186   1.316  1.00  0.00     0.135 A 
ATOM     98  F   UNL     1      19.309  -4.215   3.702  1.00  0.00    -0.206 F 
ATOM     99  C   UNL     1      21.590  -4.768   3.684  1.00  0.00     0.059 A 
ATOM    100  C   UNL     1      22.487  -6.145   1.897  1.00  0.00     0.059 A 
ATOM    101  F   UNL     1      21.078  -6.877   0.174  1.00  0.00    -0.206 F 
ATOM    102  C   UNL     1      22.662  -5.424   3.077  1.00  0.00     0.060 A 
BRANCH 102 103
ATOM    103  S   UNL     1      24.284  -5.344   3.867  1.00  0.00     0.124 S 
ATOM    104  O   UNL     1      24.666  -3.958   3.614  1.00  0.00    -0.237 OA
ATOM    105  O   UNL     1      23.970  -5.673   5.254  1.00  0.00    -0.237 OA
ATOM    106  O   UNL     1      25.062  -6.350   3.150  1.00  0.00    -0.744 OA
ENDBRANCH 102 103
ENDBRANCH  70  95
ENDBRANCH  44  45
ENDBRANCH  36  39
ENDBRANCH  34  35
ENDBRANCH  33  34
ENDBRANCH   1  33
TORSDOF 19
