REMARK SMILES C[C@@]1(Oc2c[nH]c3ccc(Br)c(Cl)c23)O[C@@H](C(=O)NCCCCNC(=O)c2ccc(-c3c4nc(c(-c5c(F)cc(S(=O)(=O)[O-])cc5F)c5ccc([nH]5)c(-c5c(F)cc(S(=O)(=O)[O-])cc5F)c5nc(c(-c6c(F)cc(S(=O)(=O)[O-])cc6F)c6ccc3[nH]6)C=C5)C=C4)cc2)[C@@](C)(O)[C@@](C)(O)[C@@]1(C)O
REMARK SMILES IDX 22 1 21 2 20 3 19 4 17 5 18 6 16 8 1 9 2 10 15 11 99 12
REMARK SMILES IDX 96 13 100 14 93 15 97 16 94 17 3 18 4 19 5 20 14 21 6 22
REMARK SMILES IDX 7 23 12 24 8 26 10 27 13 28 9 29 11 30 101 31 98 33 95 35
REMARK SMILES IDX 23 37 24 38 25 39 26 41 27 42 28 43 92 44 29 45 91 46 30 47
REMARK SMILES IDX 31 48 32 49 85 50 33 51 90 52 84 53 86 54 34 55 89 56 83 57
REMARK SMILES IDX 82 58 35 60 69 61 48 62 68 63 49 64 52 65 67 66 87 67 50 68
REMARK SMILES IDX 51 69 66 71 88 72 53 73 36 74 37 75 46 76 38 77 39 78 45 79
REMARK SMILES IDX 47 80 40 81 41 82 42 83 43 84 44 85 70 86 71 87 80 88 72 89
REMARK SMILES IDX 73 90 79 91 81 92 74 93 75 94 76 95 77 96 78 97 54 98 55 99
REMARK SMILES IDX 64 100 56 101 57 102 63 103 65 104 58 105 59 106 60 107
REMARK SMILES IDX 61 108 62 109
REMARK H PARENT 19 7 6 25 101 32 98 34 95 36 24 40 86 59 52 70
REMARK Flexibility Score: inf
ROOT
ATOM      1  C   UNL     1       1.300  -2.932  -3.454  1.00  0.00     0.023 C 
ENDROOT
BRANCH   1   2
ATOM      2  C   UNL     1       0.283  -2.526  -2.389  1.00  0.00     0.023 C 
BRANCH   2   3
ATOM      3  C   UNL     1       0.478  -1.160  -1.703  1.00  0.00     0.116 C 
BRANCH   3   4
ATOM      4  N   UNL     1      -0.636  -0.182  -1.780  1.00  0.00    -0.354 N 
ATOM      5  C   UNL     1      -1.418   0.538  -0.909  1.00  0.00     0.252 C 
ATOM      6  O   UNL     1      -2.092   1.413  -1.486  1.00  0.00    -0.272 OA
ATOM      7  H   UNL     1      -0.884   0.003  -2.715  1.00  0.00     0.163 HD
BRANCH   5   8
ATOM      8  C   UNL     1      -1.693   0.348   0.699  1.00  0.00     0.246 C 
ATOM      9  C   UNL     1       1.252   0.222   0.758  1.00  0.00     0.094 C 
ATOM     10  C   UNL     1       0.294  -0.470   1.765  1.00  0.00     0.240 C 
ATOM     11  O   UNL     1      -0.765   0.494   1.815  1.00  0.00    -0.322 OA
ATOM     12  C   UNL     1      -0.440  -1.957   1.711  1.00  0.00     0.158 C 
ATOM     13  C   UNL     1      -1.800  -2.145   0.876  1.00  0.00     0.128 C 
ATOM     14  C   UNL     1      -0.888  -2.338   3.153  1.00  0.00     0.053 C 
ATOM     15  C   UNL     1      -2.659  -0.863   0.972  1.00  0.00     0.129 C 
ATOM     16  C   UNL     1      -2.541  -3.499   1.127  1.00  0.00     0.049 C 
ATOM     17  C   UNL     1      -3.400  -0.678   2.308  1.00  0.00     0.049 C 
BRANCH  10  18
ATOM     18  O   UNL     1       1.408  -0.517   2.745  1.00  0.00    -0.457 OA
BRANCH  18  19
ATOM     19  C   UNL     1       1.224  -0.510   4.066  1.00  0.00     0.150 A 
ATOM     20  C   UNL     1       0.882   0.577   4.822  1.00  0.00     0.130 A 
ATOM     21  C   UNL     1       1.433  -1.631   4.927  1.00  0.00     0.061 A 
ATOM     22  N   UNL     1       0.689   0.114   6.099  1.00  0.00    -0.358 N 
ATOM     23  C   UNL     1       0.832  -1.261   6.131  1.00  0.00     0.051 A 
ATOM     24  C   UNL     1       1.848  -2.972   4.761  1.00  0.00     0.068 A 
ATOM     25  H   UNL     1       0.479   0.677   6.879  1.00  0.00     0.166 HD
ATOM     26  C   UNL     1       0.460  -2.203   7.096  1.00  0.00     0.028 A 
ATOM     27  C   UNL     1       1.395  -3.940   5.660  1.00  0.00     0.037 A 
ATOM     28  Cl  UNL     1       2.761  -3.310   3.350  1.00  0.00    -0.082 Cl
ATOM     29  C   UNL     1       0.683  -3.555   6.798  1.00  0.00     0.019 A 
ATOM     30  Br  UNL     1       1.574  -5.800   5.311  1.00  0.00    -0.049 Br
ENDBRANCH  18  19
ENDBRANCH  10  18
BRANCH  12  31
ATOM     31  O   UNL     1       0.495  -2.956   1.273  1.00  0.00    -0.380 OA
ATOM     32  H   UNL     1       0.794  -2.746   0.374  1.00  0.00     0.211 HD
ENDBRANCH  12  31
BRANCH  13  33
ATOM     33  O   UNL     1      -1.550  -2.284  -0.524  1.00  0.00    -0.384 OA
ATOM     34  H   UNL     1      -1.080  -1.500  -0.848  1.00  0.00     0.211 HD
ENDBRANCH  13  33
BRANCH  15  35
ATOM     35  O   UNL     1      -3.731  -0.948   0.004  1.00  0.00    -0.384 OA
ATOM     36  H   UNL     1      -3.357  -1.067  -0.883  1.00  0.00     0.211 HD
ENDBRANCH  15  35
ENDBRANCH   5   8
ENDBRANCH   3   4
ENDBRANCH   2   3
ENDBRANCH   1   2
BRANCH   1  37
ATOM     37  C   UNL     1       2.767  -2.849  -3.051  1.00  0.00     0.116 C 
BRANCH  37  38
ATOM     38  N   UNL     1       3.186  -3.813  -2.042  1.00  0.00    -0.352 N 
ATOM     39  C   UNL     1       4.484  -3.967  -1.570  1.00  0.00     0.251 C 
ATOM     40  H   UNL     1       2.494  -4.403  -1.664  1.00  0.00     0.163 HD
ATOM     41  O   UNL     1       4.861  -4.994  -1.048  1.00  0.00    -0.269 OA
BRANCH  39  42
ATOM     42  C   UNL     1       5.394  -2.813  -1.733  1.00  0.00     0.039 A 
ATOM     43  C   UNL     1       6.620  -2.950  -2.385  1.00  0.00     0.014 A 
ATOM     44  C   UNL     1       4.940  -1.566  -1.295  1.00  0.00     0.014 A 
ATOM     45  C   UNL     1       7.354  -1.801  -2.670  1.00  0.00     0.010 A 
ATOM     46  C   UNL     1       5.625  -0.425  -1.655  1.00  0.00     0.010 A 
ATOM     47  C   UNL     1       6.842  -0.537  -2.325  1.00  0.00    -0.014 A 
BRANCH  47  48
ATOM     48  C   UNL     1       7.542   0.668  -2.764  1.00  0.00     0.031 A 
ATOM     49  C   UNL     1       7.778   0.774  -4.232  1.00  0.00     0.074 A 
ATOM     50  C   UNL     1       7.827   1.709  -1.954  1.00  0.00     0.049 A 
ATOM     51  N   UNL     1       8.897   0.643  -4.867  1.00  0.00    -0.248 NA
ATOM     52  C   UNL     1       6.612   0.927  -5.116  1.00  0.00     0.031 C 
ATOM     53  C   UNL     1       7.399   1.931  -0.568  1.00  0.00     0.029 A 
ATOM     54  N   UNL     1       8.515   2.847  -2.246  1.00  0.00    -0.354 N 
ATOM     55  C   UNL     1       8.620   0.918  -6.205  1.00  0.00     0.074 A 
ATOM     56  C   UNL     1       7.185   0.910  -6.322  1.00  0.00     0.031 C 
ATOM     57  C   UNL     1       7.660   3.210  -0.214  1.00  0.00     0.029 A 
ATOM     58  C   UNL     1       8.429   3.835  -1.274  1.00  0.00     0.049 A 
ATOM     59  H   UNL     1       9.031   2.960  -3.077  1.00  0.00     0.167 HD
ATOM     60  C   UNL     1       9.593   1.352  -7.056  1.00  0.00     0.037 A 
ATOM     61  C   UNL     1       8.954   5.082  -1.335  1.00  0.00     0.037 A 
ATOM     62  C   UNL     1      10.903   1.148  -6.490  1.00  0.00     0.049 A 
ATOM     63  C   UNL     1      10.073   5.026  -2.309  1.00  0.00     0.074 A 
ATOM     64  C   UNL     1      11.644   0.053  -6.093  1.00  0.00     0.029 A 
ATOM     65  N   UNL     1      11.508   2.242  -5.921  1.00  0.00    -0.354 N 
ATOM     66  N   UNL     1      11.162   4.327  -2.133  1.00  0.00    -0.248 NA
ATOM     67  C   UNL     1       9.814   5.439  -3.678  1.00  0.00     0.031 C 
ATOM     68  C   UNL     1      12.372   0.494  -4.947  1.00  0.00     0.029 A 
ATOM     69  C   UNL     1      12.079   1.844  -4.741  1.00  0.00     0.049 A 
ATOM     70  H   UNL     1      11.527   3.152  -6.295  1.00  0.00     0.167 HD
ATOM     71  C   UNL     1      11.492   3.859  -3.395  1.00  0.00     0.074 A 
ATOM     72  C   UNL     1      10.703   4.672  -4.315  1.00  0.00     0.031 C 
ATOM     73  C   UNL     1      12.166   2.682  -3.561  1.00  0.00     0.037 A 
BRANCH  60  74
ATOM     74  C   UNL     1       9.380   2.305  -8.217  1.00  0.00     0.058 A 
ATOM     75  C   UNL     1      10.459   2.584  -9.086  1.00  0.00     0.135 A 
ATOM     76  C   UNL     1       8.274   3.174  -8.332  1.00  0.00     0.135 A 
ATOM     77  F   UNL     1      11.566   1.823  -9.071  1.00  0.00    -0.206 F 
ATOM     78  C   UNL     1      10.475   3.694  -9.933  1.00  0.00     0.059 A 
ATOM     79  C   UNL     1       8.247   4.255  -9.208  1.00  0.00     0.059 A 
ATOM     80  F   UNL     1       7.205   3.081  -7.534  1.00  0.00    -0.206 F 
ATOM     81  C   UNL     1       9.369   4.536  -9.970  1.00  0.00     0.060 A 
BRANCH  81  82
ATOM     82  S   UNL     1       9.433   6.037 -10.964  1.00  0.00     0.124 S 
ATOM     83  O   UNL     1      10.430   6.820 -10.243  1.00  0.00    -0.237 OA
ATOM     84  O   UNL     1       9.843   5.520 -12.266  1.00  0.00    -0.237 OA
ATOM     85  O   UNL     1       8.065   6.541 -10.899  1.00  0.00    -0.744 OA
ENDBRANCH  81  82
ENDBRANCH  60  74
BRANCH  61  86
ATOM     86  C   UNL     1       8.318   6.356  -0.907  1.00  0.00     0.058 A 
ATOM     87  C   UNL     1       9.055   7.553  -0.869  1.00  0.00     0.135 A 
ATOM     88  C   UNL     1       6.916   6.485  -0.822  1.00  0.00     0.135 A 
ATOM     89  F   UNL     1      10.394   7.523  -0.955  1.00  0.00    -0.206 F 
ATOM     90  C   UNL     1       8.438   8.807  -0.820  1.00  0.00     0.059 A 
ATOM     91  C   UNL     1       6.279   7.724  -0.764  1.00  0.00     0.059 A 
ATOM     92  F   UNL     1       6.117   5.410  -0.889  1.00  0.00    -0.206 F 
ATOM     93  C   UNL     1       7.046   8.883  -0.795  1.00  0.00     0.060 A 
BRANCH  93  94
ATOM     94  S   UNL     1       6.245  10.500  -0.919  1.00  0.00     0.124 S 
ATOM     95  O   UNL     1       6.619  11.120   0.347  1.00  0.00    -0.237 OA
ATOM     96  O   UNL     1       6.870  11.060  -2.113  1.00  0.00    -0.237 OA
ATOM     97  O   UNL     1       4.829  10.168  -1.057  1.00  0.00    -0.744 OA
ENDBRANCH  93  94
ENDBRANCH  61  86
BRANCH  73  98
ATOM     98  C   UNL     1      12.883   2.091  -2.374  1.00  0.00     0.058 A 
ATOM     99  C   UNL     1      12.253   1.579  -1.226  1.00  0.00     0.135 A 
ATOM    100  C   UNL     1      14.267   1.884  -2.491  1.00  0.00     0.135 A 
ATOM    101  F   UNL     1      10.924   1.658  -1.074  1.00  0.00    -0.206 F 
ATOM    102  C   UNL     1      12.972   0.905  -0.234  1.00  0.00     0.059 A 
ATOM    103  C   UNL     1      14.997   1.190  -1.530  1.00  0.00     0.059 A 
ATOM    104  F   UNL     1      14.918   2.304  -3.588  1.00  0.00    -0.206 F 
ATOM    105  C   UNL     1      14.343   0.707  -0.400  1.00  0.00     0.060 A 
BRANCH 105 106
ATOM    106  S   UNL     1      15.252  -0.254   0.831  1.00  0.00     0.124 S 
ATOM    107  O   UNL     1      15.231   0.631   1.991  1.00  0.00    -0.237 OA
ATOM    108  O   UNL     1      14.448  -1.467   0.943  1.00  0.00    -0.237 OA
ATOM    109  O   UNL     1      16.565  -0.442   0.217  1.00  0.00    -0.744 OA
ENDBRANCH 105 106
ENDBRANCH  73  98
ENDBRANCH  47  48
ENDBRANCH  39  42
ENDBRANCH  37  38
ENDBRANCH   1  37
TORSDOF 19
