REMARK SMILES CC1=C(C(=O)OCC(C)C)[C@@H](c2ccc(C(=O)NCCCCNC(=O)c3ccc(-c4c5nc(c(-c6c(F)cc(S(=O)(=O)[O-])cc6F)c6ccc([nH]6)c(-c6c(F)cc(S(=O)(=O)[O-])cc6F)c6nc(c(-c7c(F)cc(S(=O)(=O)[O-])cc7F)c7ccc4[nH]7)C=C6)C=C5)cc3)cc2)c2c(n(C)c(=O)n(C)c2=O)N1
REMARK SMILES IDX 19 1 18 2 16 3 17 4 15 6 12 7 13 8 93 9 14 10 92 11 11 12
REMARK SMILES IDX 1 13 2 14 3 15 104 16 95 17 94 19 96 20 102 21 97 22 98 23
REMARK SMILES IDX 100 24 103 25 99 26 101 27 4 28 5 29 6 30 7 31 8 32 9 33
REMARK SMILES IDX 10 34 20 35 21 36 22 37 23 38 24 39 25 41 26 42 27 43 91 44
REMARK SMILES IDX 28 45 90 46 29 47 30 48 31 49 84 50 32 51 89 52 83 53 85 54
REMARK SMILES IDX 33 55 88 56 82 57 81 58 34 60 68 61 47 62 67 63 48 64 51 65
REMARK SMILES IDX 66 66 86 67 49 68 50 69 65 71 87 72 52 73 35 74 36 75 45 76
REMARK SMILES IDX 37 77 38 78 44 79 46 80 39 81 40 82 41 83 42 84 43 85 69 86
REMARK SMILES IDX 70 87 79 88 71 89 72 90 78 91 80 92 73 93 74 94 75 95 76 96
REMARK SMILES IDX 77 97 53 98 54 99 63 100 55 101 56 102 62 103 64 104 57 105
REMARK SMILES IDX 58 106 59 107 60 108 61 109
REMARK H PARENT 18 5 104 18 23 40 85 59 51 70
REMARK Flexibility Score: inf
ROOT
ATOM      1  C   UNL     1      -5.444  -4.526  -5.626  1.00  0.00     0.116 C 
ENDROOT
BRANCH   1   2
ATOM      2  N   UNL     1      -4.320  -4.029  -6.391  1.00  0.00    -0.352 N 
ATOM      3  C   UNL     1      -3.137  -3.451  -6.013  1.00  0.00     0.251 C 
ATOM      4  O   UNL     1      -2.359  -3.119  -6.909  1.00  0.00    -0.269 OA
ATOM      5  H   UNL     1      -4.425  -4.125  -7.365  1.00  0.00     0.163 HD
BRANCH   3   6
ATOM      6  C   UNL     1      -2.725  -3.255  -4.591  1.00  0.00     0.039 A 
ATOM      7  C   UNL     1      -1.728  -2.984  -1.956  1.00  0.00    -0.035 A 
ATOM      8  C   UNL     1      -0.854  -2.985  -3.054  1.00  0.00     0.005 A 
ATOM      9  C   UNL     1      -3.102  -3.061  -2.196  1.00  0.00     0.005 A 
ATOM     10  C   UNL     1      -1.349  -3.131  -4.352  1.00  0.00     0.014 A 
ATOM     11  C   UNL     1      -3.592  -3.165  -3.500  1.00  0.00     0.014 A 
BRANCH   7  12
ATOM     12  C   UNL     1      -1.215  -2.869  -0.519  1.00  0.00     0.098 C 
ATOM     13  C   UNL     1       1.246   0.103   0.162  1.00  0.00     0.065 C 
ATOM     14  C   UNL     1       0.632  -1.255  -0.053  1.00  0.00     0.025 C 
ATOM     15  C   UNL     1      -0.685  -1.462  -0.277  1.00  0.00     0.068 C 
ATOM     16  N   UNL     1       1.491  -2.344   0.028  1.00  0.00    -0.344 N 
ATOM     17  C   UNL     1       1.107  -3.678   0.004  1.00  0.00     0.123 A 
ATOM     18  H   UNL     1       2.454  -2.154   0.109  1.00  0.00     0.168 HD
ATOM     19  C   UNL     1      -0.188  -3.953  -0.231  1.00  0.00     0.071 A 
ATOM     20  N   UNL     1       1.998  -4.721   0.213  1.00  0.00    -0.282 N 
ATOM     21  C   UNL     1      -0.668  -5.349  -0.215  1.00  0.00     0.262 A 
ATOM     22  C   UNL     1       3.385  -4.427   0.548  1.00  0.00     0.157 C 
ATOM     23  C   UNL     1       1.637  -6.064   0.100  1.00  0.00     0.332 A 
ATOM     24  N   UNL     1       0.306  -6.320  -0.185  1.00  0.00    -0.263 N 
ATOM     25  O   UNL     1      -1.874  -5.588  -0.213  1.00  0.00    -0.269 OA
ATOM     26  O   UNL     1       2.448  -6.979   0.262  1.00  0.00    -0.247 OA
ATOM     27  C   UNL     1      -0.091  -7.708  -0.326  1.00  0.00     0.158 C 
BRANCH  15  28
ATOM     28  C   UNL     1      -1.736  -0.413  -0.266  1.00  0.00     0.336 C 
ATOM     29  O   UNL     1      -2.840  -0.598   0.219  1.00  0.00    -0.246 OA
BRANCH  28  30
ATOM     30  O   UNL     1      -1.323   0.709  -0.904  1.00  0.00    -0.462 OA
BRANCH  30  31
ATOM     31  C   UNL     1      -2.273   1.787  -0.984  1.00  0.00     0.236 C 
BRANCH  31  32
ATOM     32  C   UNL     1      -2.800   1.936  -2.418  1.00  0.00     0.021 C 
ATOM     33  C   UNL     1      -3.587   0.705  -2.865  1.00  0.00     0.011 C 
ATOM     34  C   UNL     1      -3.669   3.186  -2.538  1.00  0.00     0.011 C 
ENDBRANCH  31  32
ENDBRANCH  30  31
ENDBRANCH  28  30
ENDBRANCH  15  28
ENDBRANCH   7  12
ENDBRANCH   3   6
ENDBRANCH   1   2
BRANCH   1  35
ATOM     35  C   UNL     1      -6.505  -3.434  -5.471  1.00  0.00     0.023 C 
BRANCH  35  36
ATOM     36  C   UNL     1      -7.381  -3.243  -6.709  1.00  0.00     0.023 C 
BRANCH  36  37
ATOM     37  C   UNL     1      -8.178  -4.474  -7.117  1.00  0.00     0.116 C 
BRANCH  37  38
ATOM     38  N   UNL     1      -9.018  -4.993  -6.048  1.00  0.00    -0.352 N 
ATOM     39  C   UNL     1     -10.257  -5.578  -6.162  1.00  0.00     0.251 C 
ATOM     40  H   UNL     1      -8.657  -4.917  -5.135  1.00  0.00     0.163 HD
ATOM     41  O   UNL     1     -10.907  -5.873  -5.166  1.00  0.00    -0.269 OA
BRANCH  39  42
ATOM     42  C   UNL     1     -10.798  -5.802  -7.514  1.00  0.00     0.039 A 
ATOM     43  C   UNL     1     -12.040  -5.260  -7.843  1.00  0.00     0.014 A 
ATOM     44  C   UNL     1     -10.027  -6.465  -8.474  1.00  0.00     0.014 A 
ATOM     45  C   UNL     1     -12.485  -5.330  -9.162  1.00  0.00     0.010 A 
ATOM     46  C   UNL     1     -10.438  -6.467  -9.800  1.00  0.00     0.010 A 
ATOM     47  C   UNL     1     -11.673  -5.903 -10.156  1.00  0.00    -0.014 A 
BRANCH  47  48
ATOM     48  C   UNL     1     -12.114  -5.945 -11.571  1.00  0.00     0.031 A 
ATOM     49  C   UNL     1     -12.383  -7.274 -12.223  1.00  0.00     0.074 A 
ATOM     50  C   UNL     1     -12.250  -4.799 -12.268  1.00  0.00     0.049 A 
ATOM     51  N   UNL     1     -12.737  -7.530 -13.454  1.00  0.00    -0.248 NA
ATOM     52  C   UNL     1     -12.216  -8.475 -11.385  1.00  0.00     0.031 C 
ATOM     53  C   UNL     1     -11.993  -3.454 -11.746  1.00  0.00     0.029 A 
ATOM     54  N   UNL     1     -12.646  -4.579 -13.563  1.00  0.00    -0.354 N 
ATOM     55  C   UNL     1     -12.848  -8.912 -13.534  1.00  0.00     0.074 A 
ATOM     56  C   UNL     1     -12.451  -9.448 -12.252  1.00  0.00     0.031 C 
ATOM     57  C   UNL     1     -12.280  -2.549 -12.697  1.00  0.00     0.029 A 
ATOM     58  C   UNL     1     -12.703  -3.248 -13.907  1.00  0.00     0.049 A 
ATOM     59  H   UNL     1     -12.869  -5.306 -14.188  1.00  0.00     0.167 HD
ATOM     60  C   UNL     1     -13.284  -9.665 -14.570  1.00  0.00     0.037 A 
ATOM     61  C   UNL     1     -13.059  -2.662 -15.067  1.00  0.00     0.037 A 
ATOM     62  C   UNL     1     -13.701  -9.126 -15.836  1.00  0.00     0.049 A 
ATOM     63  C   UNL     1     -13.478  -3.533 -16.224  1.00  0.00     0.074 A 
ATOM     64  C   UNL     1     -14.168  -9.806 -16.946  1.00  0.00     0.029 A 
ATOM     65  N   UNL     1     -13.715  -7.777 -16.155  1.00  0.00    -0.354 N 
ATOM     66  N   UNL     1     -13.603  -4.838 -16.272  1.00  0.00    -0.248 NA
ATOM     67  C   UNL     1     -13.802  -2.852 -17.486  1.00  0.00     0.031 C 
ATOM     68  C   UNL     1     -14.432  -8.871 -17.950  1.00  0.00     0.029 A 
ATOM     69  C   UNL     1     -14.172  -7.605 -17.450  1.00  0.00     0.049 A 
ATOM     70  H   UNL     1     -13.441  -7.049 -15.551  1.00  0.00     0.167 HD
ATOM     71  C   UNL     1     -14.053  -5.130 -17.555  1.00  0.00     0.074 A 
ATOM     72  C   UNL     1     -14.191  -3.866 -18.247  1.00  0.00     0.031 C 
ATOM     73  C   UNL     1     -14.325  -6.335 -18.113  1.00  0.00     0.037 A 
BRANCH  60  74
ATOM     74  C   UNL     1     -13.380 -11.151 -14.368  1.00  0.00     0.058 A 
ATOM     75  C   UNL     1     -14.381 -11.707 -13.556  1.00  0.00     0.135 A 
ATOM     76  C   UNL     1     -12.527 -12.029 -15.054  1.00  0.00     0.135 A 
ATOM     77  F   UNL     1     -15.207 -10.910 -12.860  1.00  0.00    -0.206 F 
ATOM     78  C   UNL     1     -14.534 -13.082 -13.432  1.00  0.00     0.059 A 
ATOM     79  C   UNL     1     -12.678 -13.410 -14.965  1.00  0.00     0.059 A 
ATOM     80  F   UNL     1     -11.547 -11.548 -15.836  1.00  0.00    -0.206 F 
ATOM     81  C   UNL     1     -13.686 -13.926 -14.150  1.00  0.00     0.060 A 
BRANCH  81  82
ATOM     82  S   UNL     1     -13.943 -15.708 -14.021  1.00  0.00     0.124 S 
ATOM     83  O   UNL     1     -13.557 -15.959 -12.635  1.00  0.00    -0.237 OA
ATOM     84  O   UNL     1     -15.367 -15.835 -14.315  1.00  0.00    -0.237 OA
ATOM     85  O   UNL     1     -13.043 -16.257 -15.030  1.00  0.00    -0.744 OA
ENDBRANCH  81  82
ENDBRANCH  60  74
BRANCH  61  86
ATOM     86  C   UNL     1     -13.069  -1.179 -15.200  1.00  0.00     0.058 A 
ATOM     87  C   UNL     1     -14.275  -0.484 -15.378  1.00  0.00     0.135 A 
ATOM     88  C   UNL     1     -11.882  -0.430 -15.193  1.00  0.00     0.135 A 
ATOM     89  F   UNL     1     -15.438  -1.154 -15.397  1.00  0.00    -0.206 F 
ATOM     90  C   UNL     1     -14.304   0.892 -15.579  1.00  0.00     0.059 A 
ATOM     91  C   UNL     1     -11.886   0.951 -15.364  1.00  0.00     0.059 A 
ATOM     92  F   UNL     1     -10.701  -1.042 -15.012  1.00  0.00    -0.206 F 
ATOM     93  C   UNL     1     -13.102   1.601 -15.575  1.00  0.00     0.060 A 
BRANCH  93  94
ATOM     94  S   UNL     1     -13.152   3.387 -15.841  1.00  0.00     0.124 S 
ATOM     95  O   UNL     1     -13.515   3.463 -17.251  1.00  0.00    -0.237 OA
ATOM     96  O   UNL     1     -14.179   3.807 -14.892  1.00  0.00    -0.237 OA
ATOM     97  O   UNL     1     -11.794   3.813 -15.514  1.00  0.00    -0.744 OA
ENDBRANCH  93  94
ENDBRANCH  61  86
BRANCH  73  98
ATOM     98  C   UNL     1     -14.831  -6.352 -19.528  1.00  0.00     0.058 A 
ATOM     99  C   UNL     1     -13.983  -6.086 -20.613  1.00  0.00     0.135 A 
ATOM    100  C   UNL     1     -16.157  -6.723 -19.804  1.00  0.00     0.135 A 
ATOM    101  F   UNL     1     -12.708  -5.723 -20.402  1.00  0.00    -0.206 F 
ATOM    102  C   UNL     1     -14.436  -6.174 -21.925  1.00  0.00     0.059 A 
ATOM    103  C   UNL     1     -16.624  -6.845 -21.109  1.00  0.00     0.059 A 
ATOM    104  F   UNL     1     -17.006  -6.999 -18.801  1.00  0.00    -0.206 F 
ATOM    105  C   UNL     1     -15.756  -6.562 -22.163  1.00  0.00     0.060 A 
BRANCH 105 106
ATOM    106  S   UNL     1     -16.309  -6.724 -23.873  1.00  0.00     0.124 S 
ATOM    107  O   UNL     1     -16.349  -5.330 -24.303  1.00  0.00    -0.237 OA
ATOM    108  O   UNL     1     -15.254  -7.540 -24.464  1.00  0.00    -0.237 OA
ATOM    109  O   UNL     1     -17.608  -7.380 -23.751  1.00  0.00    -0.744 OA
ENDBRANCH 105 106
ENDBRANCH  73  98
ENDBRANCH  47  48
ENDBRANCH  39  42
ENDBRANCH  37  38
ENDBRANCH  36  37
ENDBRANCH  35  36
ENDBRANCH   1  35
TORSDOF 19
