REMARK SMILES C[NH+]1CCC([NH+]2CCC(Oc3ccc4ccccc4c3)(C(=O)NCCCCNC(=O)c3ccc(-c4c5nc(c(-c6c(F)cc(S(=O)(=O)[O-])cc6F)c6ccc([nH]6)c(-c6c(F)cc(S(=O)(=O)[O-])cc6F)c6nc(c(-c7c(F)cc(S(=O)(=O)[O-])cc7F)c7ccc4[nH]7)C=C6)C=C5)cc3)CC2)CC1
REMARK SMILES IDX 26 1 25 2 24 3 23 4 21 5 22 6 9 8 6 9 7 10 98 11 8 13 97 14
REMARK SMILES IDX 5 15 1 16 2 17 3 18 100 19 4 21 99 22 10 23 11 24 12 25
REMARK SMILES IDX 20 26 13 27 19 28 14 29 18 30 15 31 17 32 16 33 27 34 28 35
REMARK SMILES IDX 29 36 30 38 31 39 32 40 96 41 33 42 95 43 34 44 35 45 36 46
REMARK SMILES IDX 89 47 37 48 94 49 88 50 90 51 38 52 93 53 87 54 86 55 39 57
REMARK SMILES IDX 73 58 52 59 72 60 53 61 56 62 71 63 91 64 54 65 55 66 70 68
REMARK SMILES IDX 92 69 57 70 40 71 41 72 50 73 42 74 43 75 49 76 51 77 44 78
REMARK SMILES IDX 45 79 46 80 47 81 48 82 74 83 75 84 84 85 76 86 77 87 83 88
REMARK SMILES IDX 85 89 78 90 79 91 80 92 81 93 82 94 58 95 59 96 68 97 60 98
REMARK SMILES IDX 61 99 67 100 69 101 62 102 63 103 64 104 65 105 66 106
REMARK H PARENT 23 7 6 12 2 20 28 37 90 56 56 67
REMARK Flexibility Score: inf
ROOT
ATOM      1  C   UNL     1       3.811  -2.077   6.287  1.00  0.00     0.023 C 
ENDROOT
BRANCH   1   2
ATOM      2  C   UNL     1       4.485  -1.022   5.411  1.00  0.00     0.023 C 
BRANCH   2   3
ATOM      3  C   UNL     1       5.676  -1.537   4.602  1.00  0.00     0.116 C 
BRANCH   3   4
ATOM      4  N   UNL     1       5.254  -2.461   3.568  1.00  0.00    -0.353 N 
ATOM      5  C   UNL     1       5.211  -2.308   2.210  1.00  0.00     0.264 C 
ATOM      6  O   UNL     1       4.866  -3.302   1.563  1.00  0.00    -0.270 OA
ATOM      7  H   UNL     1       4.950  -3.338   3.896  1.00  0.00     0.163 HD
BRANCH   5   8
ATOM      8  C   UNL     1       5.578  -0.953   1.531  1.00  0.00     0.197 C 
ATOM      9  N   UNL     1       3.097  -0.107   0.183  1.00  0.00    -0.332 N 
ATOM     10  C   UNL     1       3.214  -0.101   1.644  1.00  0.00     0.267 C 
ATOM     11  C   UNL     1       3.921  -1.176  -0.412  1.00  0.00     0.267 C 
ATOM     12  H   UNL     1       3.471   0.784  -0.145  1.00  0.00     0.348 HD
ATOM     13  C   UNL     1       4.661   0.176   2.010  1.00  0.00     0.120 C 
ATOM     14  C   UNL     1       5.404  -1.083   0.002  1.00  0.00     0.120 C 
BRANCH   9  15
ATOM     15  C   UNL     1       1.693  -0.129  -0.296  1.00  0.00     0.195 C 
ATOM     16  C   UNL     1      -2.616   0.069  -0.212  1.00  0.00     0.332 C 
ATOM     17  N   UNL     1      -1.198   0.022   0.133  1.00  0.00    -0.337 N 
ATOM     18  C   UNL     1      -0.484   1.180  -0.416  1.00  0.00     0.268 C 
ATOM     19  C   UNL     1      -0.588  -1.231  -0.325  1.00  0.00     0.268 C 
ATOM     20  H   UNL     1      -1.122   0.058   1.150  1.00  0.00     0.347 HD
ATOM     21  C   UNL     1       0.966   1.186   0.061  1.00  0.00     0.126 C 
ATOM     22  C   UNL     1       0.857  -1.337   0.163  1.00  0.00     0.126 C 
ENDBRANCH   9  15
BRANCH   8  23
ATOM     23  O   UNL     1       6.972  -0.828   1.913  1.00  0.00    -0.477 OA
BRANCH  23  24
ATOM     24  C   UNL     1       7.686   0.255   1.502  1.00  0.00     0.121 A 
ATOM     25  C   UNL     1       7.446   1.539   1.977  1.00  0.00     0.047 A 
ATOM     26  C   UNL     1       8.801   0.011   0.700  1.00  0.00     0.055 A 
ATOM     27  C   UNL     1       8.232   2.606   1.545  1.00  0.00     0.012 A 
ATOM     28  C   UNL     1       9.633   1.067   0.294  1.00  0.00    -0.015 A 
ATOM     29  C   UNL     1       9.325   2.386   0.698  1.00  0.00    -0.018 A 
ATOM     30  C   UNL     1      10.771   0.843  -0.496  1.00  0.00     0.009 A 
ATOM     31  C   UNL     1      10.132   3.449   0.268  1.00  0.00     0.009 A 
ATOM     32  C   UNL     1      11.578   1.909  -0.899  1.00  0.00     0.001 A 
ATOM     33  C   UNL     1      11.253   3.210  -0.528  1.00  0.00     0.001 A 
ENDBRANCH  23  24
ENDBRANCH   8  23
ENDBRANCH   5   8
ENDBRANCH   3   4
ENDBRANCH   2   3
ENDBRANCH   1   2
BRANCH   1  34
ATOM     34  C   UNL     1       4.739  -2.784   7.264  1.00  0.00     0.116 C 
BRANCH  34  35
ATOM     35  N   UNL     1       5.431  -1.863   8.152  1.00  0.00    -0.352 N 
ATOM     36  C   UNL     1       5.676  -1.988   9.497  1.00  0.00     0.251 C 
ATOM     37  H   UNL     1       5.770  -1.040   7.732  1.00  0.00     0.163 HD
ATOM     38  O   UNL     1       6.144  -1.041  10.123  1.00  0.00    -0.269 OA
BRANCH  36  39
ATOM     39  C   UNL     1       5.348  -3.254  10.186  1.00  0.00     0.039 A 
ATOM     40  C   UNL     1       4.721  -3.201  11.432  1.00  0.00     0.014 A 
ATOM     41  C   UNL     1       5.656  -4.487   9.605  1.00  0.00     0.014 A 
ATOM     42  C   UNL     1       4.368  -4.388  12.077  1.00  0.00     0.010 A 
ATOM     43  C   UNL     1       5.222  -5.664  10.205  1.00  0.00     0.010 A 
ATOM     44  C   UNL     1       4.597  -5.629  11.460  1.00  0.00    -0.014 A 
BRANCH  44  45
ATOM     45  C   UNL     1       4.233  -6.900  12.136  1.00  0.00     0.031 A 
ATOM     46  C   UNL     1       5.308  -7.889  12.504  1.00  0.00     0.074 A 
ATOM     47  C   UNL     1       2.939  -7.181  12.386  1.00  0.00     0.049 A 
ATOM     48  N   UNL     1       5.194  -9.060  13.075  1.00  0.00    -0.248 NA
ATOM     49  C   UNL     1       6.693  -7.528  12.157  1.00  0.00     0.031 C 
ATOM     50  C   UNL     1       1.802  -6.329  12.028  1.00  0.00     0.029 A 
ATOM     51  N   UNL     1       2.360  -8.263  13.000  1.00  0.00    -0.354 N 
ATOM     52  C   UNL     1       6.484  -9.576  13.144  1.00  0.00     0.074 A 
ATOM     53  C   UNL     1       7.355  -8.624  12.495  1.00  0.00     0.031 C 
ATOM     54  C   UNL     1       0.668  -6.905  12.457  1.00  0.00     0.029 A 
ATOM     55  C   UNL     1       0.990  -8.181  13.088  1.00  0.00     0.049 A 
ATOM     56  H   UNL     1       2.877  -9.026  13.345  1.00  0.00     0.167 HD
ATOM     57  C   UNL     1       6.909 -10.724  13.724  1.00  0.00     0.037 A 
ATOM     58  C   UNL     1       0.097  -9.038  13.618  1.00  0.00     0.037 A 
ATOM     59  C   UNL     1       6.038 -11.656  14.392  1.00  0.00     0.049 A 
ATOM     60  C   UNL     1       0.595 -10.303  14.265  1.00  0.00     0.074 A 
ATOM     61  C   UNL     1       6.373 -12.821  15.058  1.00  0.00     0.029 A 
ATOM     62  N   UNL     1       4.659 -11.529  14.479  1.00  0.00    -0.354 N 
ATOM     63  N   UNL     1       1.825 -10.744  14.380  1.00  0.00    -0.248 NA
ATOM     64  C   UNL     1      -0.417 -11.180  14.870  1.00  0.00     0.031 C 
ATOM     65  C   UNL     1       5.192 -13.424  15.505  1.00  0.00     0.029 A 
ATOM     66  C   UNL     1       4.127 -12.604  15.171  1.00  0.00     0.049 A 
ATOM     67  H   UNL     1       4.136 -10.784  14.104  1.00  0.00     0.167 HD
ATOM     68  C   UNL     1       1.738 -11.934  15.097  1.00  0.00     0.074 A 
ATOM     69  C   UNL     1       0.336 -12.130  15.404  1.00  0.00     0.031 C 
ATOM     70  C   UNL     1       2.727 -12.785  15.469  1.00  0.00     0.037 A 
BRANCH  57  71
ATOM     71  C   UNL     1       8.383 -11.030  13.665  1.00  0.00     0.058 A 
ATOM     72  C   UNL     1       9.326 -10.266  14.372  1.00  0.00     0.135 A 
ATOM     73  C   UNL     1       8.857 -12.117  12.913  1.00  0.00     0.135 A 
ATOM     74  F   UNL     1       8.933  -9.204  15.093  1.00  0.00    -0.206 F 
ATOM     75  C   UNL     1      10.687 -10.547  14.309  1.00  0.00     0.059 A 
ATOM     76  C   UNL     1      10.211 -12.437  12.863  1.00  0.00     0.059 A 
ATOM     77  F   UNL     1       8.002 -12.882  12.216  1.00  0.00    -0.206 F 
ATOM     78  C   UNL     1      11.120 -11.636  13.552  1.00  0.00     0.060 A 
BRANCH  78  79
ATOM     79  S   UNL     1      12.889 -11.991  13.488  1.00  0.00     0.124 S 
ATOM     80  O   UNL     1      13.376 -10.893  12.659  1.00  0.00    -0.237 OA
ATOM     81  O   UNL     1      13.268 -11.938  14.896  1.00  0.00    -0.237 OA
ATOM     82  O   UNL     1      12.949 -13.314  12.875  1.00  0.00    -0.744 OA
ENDBRANCH  78  79
ENDBRANCH  57  71
BRANCH  58  83
ATOM     83  C   UNL     1      -1.356  -8.715  13.590  1.00  0.00     0.058 A 
ATOM     84  C   UNL     1      -2.053  -8.408  14.768  1.00  0.00     0.135 A 
ATOM     85  C   UNL     1      -2.076  -8.703  12.385  1.00  0.00     0.135 A 
ATOM     86  F   UNL     1      -1.411  -8.410  15.947  1.00  0.00    -0.206 F 
ATOM     87  C   UNL     1      -3.415  -8.125  14.759  1.00  0.00     0.059 A 
ATOM     88  C   UNL     1      -3.433  -8.395  12.346  1.00  0.00     0.059 A 
ATOM     89  F   UNL     1      -1.454  -8.972  11.227  1.00  0.00    -0.206 F 
ATOM     90  C   UNL     1      -4.096  -8.119  13.541  1.00  0.00     0.060 A 
BRANCH  90  91
ATOM     91  S   UNL     1      -5.855  -7.709  13.536  1.00  0.00     0.124 S 
ATOM     92  O   UNL     1      -6.437  -8.905  14.135  1.00  0.00    -0.237 OA
ATOM     93  O   UNL     1      -5.890  -6.502  14.354  1.00  0.00    -0.237 OA
ATOM     94  O   UNL     1      -6.148  -7.506  12.120  1.00  0.00    -0.744 OA
ENDBRANCH  90  91
ENDBRANCH  58  83
BRANCH  70  95
ATOM     95  C   UNL     1       2.330 -13.985  16.288  1.00  0.00     0.058 A 
ATOM     96  C   UNL     1       1.585 -15.043  15.743  1.00  0.00     0.135 A 
ATOM     97  C   UNL     1       2.713 -14.081  17.636  1.00  0.00     0.135 A 
ATOM     98  F   UNL     1       1.192 -15.003  14.460  1.00  0.00    -0.206 F 
ATOM     99  C   UNL     1       1.193 -16.130  16.518  1.00  0.00     0.059 A 
ATOM    100  C   UNL     1       2.363 -15.175  18.420  1.00  0.00     0.059 A 
ATOM    101  F   UNL     1       3.441 -13.106  18.204  1.00  0.00    -0.206 F 
ATOM    102  C   UNL     1       1.583 -16.184  17.858  1.00  0.00     0.060 A 
BRANCH 102 103
ATOM    103  S   UNL     1       1.060 -17.594  18.856  1.00  0.00     0.124 S 
ATOM    104  O   UNL     1      -0.355 -17.301  19.059  1.00  0.00    -0.237 OA
ATOM    105  O   UNL     1       1.354 -18.724  17.979  1.00  0.00    -0.237 OA
ATOM    106  O   UNL     1       1.899 -17.498  20.047  1.00  0.00    -0.744 OA
ENDBRANCH 102 103
ENDBRANCH  70  95
ENDBRANCH  44  45
ENDBRANCH  36  39
ENDBRANCH  34  35
ENDBRANCH   1  34
TORSDOF 17
