REMARK SMILES O=C(Cn1nc(-c2ccc(Br)cc2)ccc1=O)N[C@H](C(=O)NCCCCNC(=O)c1ccc(-c2c3nc(c(-c4c(F)cc(S(=O)(=O)[O-])cc4F)c4ccc([nH]4)c(-c4c(F)cc(S(=O)(=O)[O-])cc4F)c4nc(c(-c5c(F)cc(S(=O)(=O)[O-])cc5F)c5ccc2[nH]5)C=C4)C=C3)cc1)c1ccccc1
REMARK SMILES IDX 24 1 23 2 22 3 20 4 21 5 19 7 18 8 1 9 2 10 3 12 4 13 5 14
REMARK SMILES IDX 16 15 6 16 15 17 17 18 14 19 7 20 8 21 13 22 9 23 12 24
REMARK SMILES IDX 10 25 11 26 96 27 97 28 101 29 98 30 100 31 99 32 25 33
REMARK SMILES IDX 26 34 27 35 28 36 29 38 30 39 31 40 95 41 32 42 94 43 33 44
REMARK SMILES IDX 34 45 35 46 88 47 36 48 93 49 87 50 89 51 37 52 92 53 86 54
REMARK SMILES IDX 85 55 38 57 72 58 51 59 71 60 52 61 55 62 70 63 90 64 53 65
REMARK SMILES IDX 54 66 69 68 91 69 56 70 39 71 40 72 49 73 41 74 42 75 48 76
REMARK SMILES IDX 50 77 43 78 44 79 45 80 46 81 47 82 73 83 74 84 83 85 75 86
REMARK SMILES IDX 76 87 82 88 84 89 77 90 78 91 79 92 80 93 81 94 57 95 58 96
REMARK SMILES IDX 67 97 59 98 60 99 66 100 68 101 61 102 62 103 63 104 64 105
REMARK SMILES IDX 65 106
REMARK H PARENT 22 6 18 11 27 37 89 56 55 67
REMARK Flexibility Score: inf
ROOT
ATOM      1  C   UNL     1       0.402   1.897  -0.328  1.00  0.00     0.023 C 
ENDROOT
BRANCH   1   2
ATOM      2  C   UNL     1       1.554   1.658  -1.306  1.00  0.00     0.116 C 
BRANCH   2   3
ATOM      3  N   UNL     1       2.549   0.763  -0.752  1.00  0.00    -0.354 N 
ATOM      4  C   UNL     1       2.966  -0.467  -1.197  1.00  0.00     0.247 C 
ATOM      5  O   UNL     1       3.680  -1.120  -0.432  1.00  0.00    -0.272 OA
ATOM      6  H   UNL     1       2.993   1.085   0.066  1.00  0.00     0.163 HD
BRANCH   4   7
ATOM      7  C   UNL     1       2.422  -1.014  -2.548  1.00  0.00     0.202 C 
BRANCH   7   8
ATOM      8  N   UNL     1       2.761  -0.181  -3.713  1.00  0.00    -0.339 N 
ATOM      9  O   UNL     1       4.975   0.082  -3.207  1.00  0.00    -0.273 OA
ATOM     10  C   UNL     1       4.056   0.179  -4.018  1.00  0.00     0.242 C 
ATOM     11  H   UNL     1       2.034   0.131  -4.298  1.00  0.00     0.164 HD
BRANCH  10  12
ATOM     12  C   UNL     1       4.271   0.882  -5.363  1.00  0.00     0.248 C 
BRANCH  12  13
ATOM     13  N   UNL     1       3.300   0.532  -6.400  1.00  0.00    -0.220 N 
ATOM     14  N   UNL     1       2.667   1.592  -7.025  1.00  0.00    -0.169 NA
ATOM     15  C   UNL     1       3.344  -0.739  -6.963  1.00  0.00     0.267 A 
ATOM     16  C   UNL     1       1.918   1.313  -8.045  1.00  0.00     0.091 A 
ATOM     17  C   UNL     1       2.297  -1.034  -7.962  1.00  0.00     0.075 A 
ATOM     18  O   UNL     1       4.146  -1.617  -6.670  1.00  0.00    -0.268 OA
ATOM     19  C   UNL     1       1.579  -0.049  -8.500  1.00  0.00     0.036 A 
BRANCH  16  20
ATOM     20  C   UNL     1       1.420   2.404  -8.903  1.00  0.00     0.002 A 
ATOM     21  C   UNL     1       2.364   3.114  -9.655  1.00  0.00     0.011 A 
ATOM     22  C   UNL     1       0.059   2.692  -9.005  1.00  0.00     0.011 A 
ATOM     23  C   UNL     1       1.942   4.115 -10.528  1.00  0.00     0.016 A 
ATOM     24  C   UNL     1      -0.359   3.705  -9.873  1.00  0.00     0.016 A 
ATOM     25  C   UNL     1       0.583   4.406 -10.632  1.00  0.00     0.018 A 
ATOM     26  Br  UNL     1       0.009   5.764 -11.817  1.00  0.00    -0.051 Br
ENDBRANCH  16  20
ENDBRANCH  12  13
ENDBRANCH  10  12
ENDBRANCH   7   8
BRANCH   7  27
ATOM     27  C   UNL     1       2.612  -2.515  -2.754  1.00  0.00    -0.016 A 
ATOM     28  C   UNL     1       3.326  -3.055  -3.830  1.00  0.00     0.006 A 
ATOM     29  C   UNL     1       2.016  -3.418  -1.854  1.00  0.00     0.006 A 
ATOM     30  C   UNL     1       3.408  -4.434  -4.036  1.00  0.00     0.000 A 
ATOM     31  C   UNL     1       2.114  -4.800  -2.043  1.00  0.00     0.000 A 
ATOM     32  C   UNL     1       2.798  -5.308  -3.144  1.00  0.00     0.000 A 
ENDBRANCH   7  27
ENDBRANCH   4   7
ENDBRANCH   2   3
ENDBRANCH   1   2
BRANCH   1  33
ATOM     33  C   UNL     1       0.800   2.553   0.995  1.00  0.00     0.023 C 
BRANCH  33  34
ATOM     34  C   UNL     1       1.540   3.879   0.867  1.00  0.00     0.116 C 
BRANCH  34  35
ATOM     35  N   UNL     1       0.733   4.935   0.270  1.00  0.00    -0.352 N 
ATOM     36  C   UNL     1       0.521   6.221   0.726  1.00  0.00     0.251 C 
ATOM     37  H   UNL     1       0.277   4.701  -0.570  1.00  0.00     0.163 HD
ATOM     38  O   UNL     1      -0.269   6.961   0.160  1.00  0.00    -0.269 OA
BRANCH  36  39
ATOM     39  C   UNL     1       1.231   6.666   1.947  1.00  0.00     0.039 A 
ATOM     40  C   UNL     1       2.609   6.478   2.066  1.00  0.00     0.014 A 
ATOM     41  C   UNL     1       0.488   7.163   3.020  1.00  0.00     0.014 A 
ATOM     42  C   UNL     1       3.207   6.587   3.317  1.00  0.00     0.010 A 
ATOM     43  C   UNL     1       1.111   7.355   4.256  1.00  0.00     0.010 A 
ATOM     44  C   UNL     1       2.459   6.999   4.432  1.00  0.00    -0.014 A 
BRANCH  44  45
ATOM     45  C   UNL     1       3.080   6.989   5.784  1.00  0.00     0.031 A 
ATOM     46  C   UNL     1       2.561   6.062   6.856  1.00  0.00     0.074 A 
ATOM     47  C   UNL     1       4.149   7.770   6.034  1.00  0.00     0.049 A 
ATOM     48  N   UNL     1       2.941   5.944   8.103  1.00  0.00    -0.248 NA
ATOM     49  C   UNL     1       1.470   5.147   6.479  1.00  0.00     0.031 C 
ATOM     50  C   UNL     1       4.771   8.682   5.071  1.00  0.00     0.029 A 
ATOM     51  N   UNL     1       4.913   7.910   7.164  1.00  0.00    -0.354 N 
ATOM     52  C   UNL     1       2.128   4.964   8.663  1.00  0.00     0.074 A 
ATOM     53  C   UNL     1       1.212   4.537   7.628  1.00  0.00     0.031 C 
ATOM     54  C   UNL     1       5.843   9.255   5.638  1.00  0.00     0.029 A 
ATOM     55  C   UNL     1       5.945   8.806   7.023  1.00  0.00     0.049 A 
ATOM     56  H   UNL     1       4.739   7.415   7.997  1.00  0.00     0.167 HD
ATOM     57  C   UNL     1       2.151   4.457   9.920  1.00  0.00     0.037 A 
ATOM     58  C   UNL     1       6.857   9.240   7.913  1.00  0.00     0.037 A 
ATOM     59  C   UNL     1       3.085   4.865  10.940  1.00  0.00     0.049 A 
ATOM     60  C   UNL     1       6.823   8.706   9.317  1.00  0.00     0.074 A 
ATOM     61  C   UNL     1       3.194   4.403  12.240  1.00  0.00     0.029 A 
ATOM     62  N   UNL     1       4.075   5.822  10.773  1.00  0.00    -0.354 N 
ATOM     63  N   UNL     1       6.026   7.803   9.837  1.00  0.00    -0.248 NA
ATOM     64  C   UNL     1       7.805   9.260  10.259  1.00  0.00     0.031 C 
ATOM     65  C   UNL     1       4.222   5.110  12.873  1.00  0.00     0.029 A 
ATOM     66  C   UNL     1       4.785   5.980  11.953  1.00  0.00     0.049 A 
ATOM     67  H   UNL     1       4.247   6.317   9.940  1.00  0.00     0.167 HD
ATOM     68  C   UNL     1       6.415   7.675  11.165  1.00  0.00     0.074 A 
ATOM     69  C   UNL     1       7.535   8.574  11.361  1.00  0.00     0.031 C 
ATOM     70  C   UNL     1       5.889   6.889  12.137  1.00  0.00     0.037 A 
BRANCH  57  71
ATOM     71  C   UNL     1       1.131   3.409  10.277  1.00  0.00     0.058 A 
ATOM     72  C   UNL     1       1.219   2.096   9.789  1.00  0.00     0.135 A 
ATOM     73  C   UNL     1       0.086   3.707  11.168  1.00  0.00     0.135 A 
ATOM     74  F   UNL     1       2.186   1.760   8.921  1.00  0.00    -0.206 F 
ATOM     75  C   UNL     1       0.299   1.119  10.160  1.00  0.00     0.059 A 
ATOM     76  C   UNL     1      -0.831   2.740  11.571  1.00  0.00     0.059 A 
ATOM     77  F   UNL     1      -0.047   4.947  11.663  1.00  0.00    -0.206 F 
ATOM     78  C   UNL     1      -0.721   1.450  11.054  1.00  0.00     0.060 A 
BRANCH  78  79
ATOM     79  S   UNL     1      -1.895   0.165  11.535  1.00  0.00     0.124 S 
ATOM     80  O   UNL     1      -2.646  -0.022  10.297  1.00  0.00    -0.237 OA
ATOM     81  O   UNL     1      -1.015  -0.935  11.914  1.00  0.00    -0.237 OA
ATOM     82  O   UNL     1      -2.639   0.775  12.632  1.00  0.00    -0.744 OA
ENDBRANCH  78  79
ENDBRANCH  57  71
BRANCH  58  83
ATOM     83  C   UNL     1       7.866  10.250   7.500  1.00  0.00     0.058 A 
ATOM     84  C   UNL     1       9.220   9.908   7.377  1.00  0.00     0.135 A 
ATOM     85  C   UNL     1       7.492  11.568   7.193  1.00  0.00     0.135 A 
ATOM     86  F   UNL     1       9.628   8.664   7.670  1.00  0.00    -0.206 F 
ATOM     87  C   UNL     1      10.170  10.838   6.968  1.00  0.00     0.059 A 
ATOM     88  C   UNL     1       8.418  12.507   6.755  1.00  0.00     0.059 A 
ATOM     89  F   UNL     1       6.206  11.941   7.283  1.00  0.00    -0.206 F 
ATOM     90  C   UNL     1       9.758  12.134   6.652  1.00  0.00     0.060 A 
BRANCH  90  91
ATOM     91  S   UNL     1      10.990  13.314   6.062  1.00  0.00     0.124 S 
ATOM     92  O   UNL     1      11.744  13.585   7.279  1.00  0.00    -0.237 OA
ATOM     93  O   UNL     1      11.685  12.542   5.037  1.00  0.00    -0.237 OA
ATOM     94  O   UNL     1      10.181  14.422   5.560  1.00  0.00    -0.744 OA
ENDBRANCH  90  91
ENDBRANCH  58  83
BRANCH  70  95
ATOM     95  C   UNL     1       6.523   6.964  13.498  1.00  0.00     0.058 A 
ATOM     96  C   UNL     1       6.346   8.082  14.328  1.00  0.00     0.135 A 
ATOM     97  C   UNL     1       7.292   5.897  13.990  1.00  0.00     0.135 A 
ATOM     98  F   UNL     1       5.625   9.131  13.902  1.00  0.00    -0.206 F 
ATOM     99  C   UNL     1       6.934   8.153  15.586  1.00  0.00     0.059 A 
ATOM    100  C   UNL     1       7.867   5.935  15.257  1.00  0.00     0.059 A 
ATOM    101  F   UNL     1       7.483   4.799  13.242  1.00  0.00    -0.206 F 
ATOM    102  C   UNL     1       7.694   7.074  16.041  1.00  0.00     0.060 A 
BRANCH 102 103
ATOM    103  S   UNL     1       8.443   7.177  17.681  1.00  0.00     0.124 S 
ATOM    104  O   UNL     1       9.515   8.140  17.455  1.00  0.00    -0.237 OA
ATOM    105  O   UNL     1       7.331   7.648  18.502  1.00  0.00    -0.237 OA
ATOM    106  O   UNL     1       8.874   5.808  17.945  1.00  0.00    -0.744 OA
ENDBRANCH 102 103
ENDBRANCH  70  95
ENDBRANCH  44  45
ENDBRANCH  36  39
ENDBRANCH  34  35
ENDBRANCH  33  34
ENDBRANCH   1  33
TORSDOF 19
