REMARK SMILES CC[C@]1(C(=O)NCCCCNC(=O)c2ccc(-c3c4nc(c(-c5c(F)cc(S(=O)(=O)[O-])cc5F)c5ccc([nH]5)c(-c5c(F)cc(S(=O)(=O)[O-])cc5F)c5nc(c(-c6c(F)cc(S(=O)(=O)[O-])cc6F)c6ccc3[nH]6)C=C5)C=C4)cc2)CCC[N@@H+](Cc2cc(OC)ccc2F)C1
REMARK SMILES IDX 8 1 7 2 6 3 4 4 5 5 3 7 80 8 94 9 81 10 83 11 82 12 2 14
REMARK SMILES IDX 1 15 84 16 85 17 86 18 92 19 87 20 91 21 93 22 90 23 88 24
REMARK SMILES IDX 89 25 9 26 10 27 11 28 12 29 13 31 14 32 15 33 79 34 16 35
REMARK SMILES IDX 78 36 17 37 18 38 19 39 72 40 20 41 77 42 71 43 73 44 21 45
REMARK SMILES IDX 76 46 70 47 69 48 22 50 56 51 35 52 55 53 36 54 39 55 54 56
REMARK SMILES IDX 74 57 37 58 38 59 53 61 75 62 40 63 23 64 24 65 33 66 25 67
REMARK SMILES IDX 26 68 32 69 34 70 27 71 28 72 29 73 30 74 31 75 57 76 58 77
REMARK SMILES IDX 67 78 59 79 60 80 66 81 68 82 61 83 62 84 63 85 64 86 65 87
REMARK SMILES IDX 41 88 42 89 51 90 43 91 44 92 50 93 52 94 45 95 46 96 47 97
REMARK SMILES IDX 48 98 49 99
REMARK H PARENT 6 6 83 13 11 30 73 49 39 60
REMARK Flexibility Score: inf
ROOT
ATOM      1  C   UNL     1       1.204   5.760   1.967  1.00  0.00     0.023 C 
ENDROOT
BRANCH   1   2
ATOM      2  C   UNL     1       2.086   4.538   2.250  1.00  0.00     0.116 C 
BRANCH   2   3
ATOM      3  N   UNL     1       1.425   3.521   3.047  1.00  0.00    -0.355 N 
ATOM      4  C   UNL     1       0.812   2.341   2.750  1.00  0.00     0.231 C 
ATOM      5  O   UNL     1       0.403   1.721   3.740  1.00  0.00    -0.274 OA
ATOM      6  H   UNL     1       1.418   3.728   4.010  1.00  0.00     0.163 HD
BRANCH   4   7
ATOM      7  C   UNL     1       0.627   1.772   1.304  1.00  0.00     0.098 C 
ATOM      8  C   UNL     1      -0.077   2.825   0.413  1.00  0.00     0.028 C 
ATOM      9  C   UNL     1       2.005   1.364   0.729  1.00  0.00     0.279 C 
ATOM     10  C   UNL     1       0.146   2.709  -1.091  1.00  0.00     0.063 C 
ATOM     11  N   UNL     1       1.942   1.156  -0.723  1.00  0.00    -0.330 N 
ATOM     12  C   UNL     1       1.593   2.369  -1.441  1.00  0.00     0.262 C 
ATOM     13  H   UNL     1       1.150   0.528  -0.862  1.00  0.00     0.348 HD
BRANCH   7  14
ATOM     14  C   UNL     1      -0.293   0.497   1.437  1.00  0.00     0.019 C 
ATOM     15  C   UNL     1      -0.318  -0.514   0.296  1.00  0.00     0.005 C 
ENDBRANCH   7  14
BRANCH  11  16
ATOM     16  C   UNL     1       2.997   0.339  -1.310  1.00  0.00     0.302 C 
BRANCH  16  17
ATOM     17  C   UNL     1       4.410   0.842  -1.212  1.00  0.00     0.046 A 
ATOM     18  C   UNL     1       5.058   1.401  -2.324  1.00  0.00     0.059 A 
ATOM     19  C   UNL     1       5.142   0.686  -0.032  1.00  0.00     0.132 A 
ATOM     20  C   UNL     1       6.403   1.781  -2.251  1.00  0.00     0.119 A 
ATOM     21  C   UNL     1       6.455   1.125   0.072  1.00  0.00     0.043 A 
ATOM     22  F   UNL     1       4.594   0.079   1.029  1.00  0.00    -0.206 F 
ATOM     23  C   UNL     1       7.087   1.681  -1.037  1.00  0.00     0.049 A 
BRANCH  20  24
ATOM     24  O   UNL     1       6.952   2.227  -3.422  1.00  0.00    -0.497 OA
ATOM     25  C   UNL     1       8.370   2.118  -3.510  1.00  0.00     0.278 C 
ENDBRANCH  20  24
ENDBRANCH  16  17
ENDBRANCH  11  16
ENDBRANCH   4   7
ENDBRANCH   2   3
ENDBRANCH   1   2
BRANCH   1  26
ATOM     26  C   UNL     1       0.906   6.668   3.153  1.00  0.00     0.023 C 
BRANCH  26  27
ATOM     27  C   UNL     1       2.120   7.269   3.837  1.00  0.00     0.116 C 
BRANCH  27  28
ATOM     28  N   UNL     1       3.017   7.958   2.922  1.00  0.00    -0.352 N 
ATOM     29  C   UNL     1       3.683   9.150   3.093  1.00  0.00     0.251 C 
ATOM     30  H   UNL     1       3.169   7.509   2.060  1.00  0.00     0.163 HD
ATOM     31  O   UNL     1       4.315   9.633   2.164  1.00  0.00    -0.269 OA
BRANCH  29  32
ATOM     32  C   UNL     1       3.599   9.854   4.392  1.00  0.00     0.039 A 
ATOM     33  C   UNL     1       3.404  11.237   4.396  1.00  0.00     0.014 A 
ATOM     34  C   UNL     1       3.686   9.154   5.598  1.00  0.00     0.014 A 
ATOM     35  C   UNL     1       3.239  11.905   5.610  1.00  0.00     0.010 A 
ATOM     36  C   UNL     1       3.420   9.803   6.797  1.00  0.00     0.010 A 
ATOM     37  C   UNL     1       3.212  11.189   6.819  1.00  0.00    -0.014 A 
BRANCH  37  38
ATOM     38  C   UNL     1       2.988  11.881   8.113  1.00  0.00     0.031 A 
ATOM     39  C   UNL     1       4.056  11.859   9.174  1.00  0.00     0.074 A 
ATOM     40  C   UNL     1       1.811  12.494   8.344  1.00  0.00     0.049 A 
ATOM     41  N   UNL     1       4.048  12.402  10.364  1.00  0.00    -0.248 NA
ATOM     42  C   UNL     1       5.284  11.104   8.872  1.00  0.00     0.031 C 
ATOM     43  C   UNL     1       0.676  12.525   7.418  1.00  0.00     0.029 A 
ATOM     44  N   UNL     1       1.371  13.210   9.428  1.00  0.00    -0.354 N 
ATOM     45  C   UNL     1       5.258  12.049  10.950  1.00  0.00     0.074 A 
ATOM     46  C   UNL     1       5.945  11.187  10.016  1.00  0.00     0.031 C 
ATOM     47  C   UNL     1      -0.312  13.258   7.955  1.00  0.00     0.029 A 
ATOM     48  C   UNL     1       0.102  13.719   9.277  1.00  0.00     0.049 A 
ATOM     49  H   UNL     1       1.913  13.348  10.238  1.00  0.00     0.167 HD
ATOM     50  C   UNL     1       5.765  12.434  12.146  1.00  0.00     0.037 A 
ATOM     51  C   UNL     1      -0.641  14.475  10.107  1.00  0.00     0.037 A 
ATOM     52  C   UNL     1       5.080  13.310  13.060  1.00  0.00     0.049 A 
ATOM     53  C   UNL     1      -0.052  14.901  11.425  1.00  0.00     0.074 A 
ATOM     54  C   UNL     1       5.524  13.805  14.273  1.00  0.00     0.029 A 
ATOM     55  N   UNL     1       3.805  13.822  12.862  1.00  0.00    -0.354 N 
ATOM     56  N   UNL     1       1.124  14.617  11.934  1.00  0.00    -0.248 NA
ATOM     57  C   UNL     1      -0.884  15.762  12.276  1.00  0.00     0.031 C 
ATOM     58  C   UNL     1       4.499  14.576  14.832  1.00  0.00     0.029 A 
ATOM     59  C   UNL     1       3.440  14.612  13.939  1.00  0.00     0.049 A 
ATOM     60  H   UNL     1       3.243  13.648  12.073  1.00  0.00     0.167 HD
ATOM     61  C   UNL     1       1.187  15.293  13.148  1.00  0.00     0.074 A 
ATOM     62  C   UNL     1      -0.065  16.008  13.290  1.00  0.00     0.031 C 
ATOM     63  C   UNL     1       2.191  15.324  14.059  1.00  0.00     0.037 A 
BRANCH  50  64
ATOM     64  C   UNL     1       7.127  11.917  12.525  1.00  0.00     0.058 A 
ATOM     65  C   UNL     1       8.287  12.324  11.847  1.00  0.00     0.135 A 
ATOM     66  C   UNL     1       7.279  11.024  13.599  1.00  0.00     0.135 A 
ATOM     67  F   UNL     1       8.201  13.163  10.802  1.00  0.00    -0.206 F 
ATOM     68  C   UNL     1       9.544  11.841  12.196  1.00  0.00     0.059 A 
ATOM     69  C   UNL     1       8.530  10.552  13.986  1.00  0.00     0.059 A 
ATOM     70  F   UNL     1       6.205  10.599  14.283  1.00  0.00    -0.206 F 
ATOM     71  C   UNL     1       9.655  10.955  13.268  1.00  0.00     0.060 A 
BRANCH  71  72
ATOM     72  S   UNL     1      11.294  10.341  13.710  1.00  0.00     0.124 S 
ATOM     73  O   UNL     1      11.574   9.433  12.602  1.00  0.00    -0.237 OA
ATOM     74  O   UNL     1      12.088  11.566  13.741  1.00  0.00    -0.237 OA
ATOM     75  O   UNL     1      11.081   9.703  15.005  1.00  0.00    -0.744 OA
ENDBRANCH  71  72
ENDBRANCH  50  64
BRANCH  51  76
ATOM     76  C   UNL     1      -2.003  14.912   9.698  1.00  0.00     0.058 A 
ATOM     77  C   UNL     1      -2.273  16.256   9.397  1.00  0.00     0.135 A 
ATOM     78  C   UNL     1      -3.059  13.994   9.584  1.00  0.00     0.135 A 
ATOM     79  F   UNL     1      -1.298  17.173   9.494  1.00  0.00    -0.206 F 
ATOM     80  C   UNL     1      -3.543  16.678   9.018  1.00  0.00     0.059 A 
ATOM     81  C   UNL     1      -4.331  14.388   9.179  1.00  0.00     0.059 A 
ATOM     82  F   UNL     1      -2.850  12.693   9.841  1.00  0.00    -0.206 F 
ATOM     83  C   UNL     1      -4.566  15.735   8.909  1.00  0.00     0.060 A 
BRANCH  83  84
ATOM     84  S   UNL     1      -6.199  16.288   8.373  1.00  0.00     0.124 S 
ATOM     85  O   UNL     1      -6.666  17.012   9.549  1.00  0.00    -0.237 OA
ATOM     86  O   UNL     1      -5.878  17.103   7.205  1.00  0.00    -0.237 OA
ATOM     87  O   UNL     1      -6.897  15.039   8.082  1.00  0.00    -0.744 OA
ENDBRANCH  83  84
ENDBRANCH  51  76
BRANCH  63  88
ATOM     88  C   UNL     1       1.999  16.198  15.269  1.00  0.00     0.058 A 
ATOM     89  C   UNL     1       1.087  15.873  16.285  1.00  0.00     0.135 A 
ATOM     90  C   UNL     1       2.771  17.361  15.429  1.00  0.00     0.135 A 
ATOM     91  F   UNL     1       0.322  14.775  16.181  1.00  0.00    -0.206 F 
ATOM     92  C   UNL     1       0.920  16.689  17.399  1.00  0.00     0.059 A 
ATOM     93  C   UNL     1       2.645  18.174  16.550  1.00  0.00     0.059 A 
ATOM     94  F   UNL     1       3.670  17.711  14.494  1.00  0.00    -0.206 F 
ATOM     95  C   UNL     1       1.704  17.838  17.522  1.00  0.00     0.060 A 
BRANCH  95  96
ATOM     96  S   UNL     1       1.488  18.881  18.979  1.00  0.00     0.124 S 
ATOM     97  O   UNL     1       0.209  19.523  18.694  1.00  0.00    -0.237 OA
ATOM     98  O   UNL     1       1.481  17.905  20.064  1.00  0.00    -0.237 OA
ATOM     99  O   UNL     1       2.653  19.761  18.944  1.00  0.00    -0.744 OA
ENDBRANCH  95  96
ENDBRANCH  63  88
ENDBRANCH  37  38
ENDBRANCH  29  32
ENDBRANCH  27  28
ENDBRANCH  26  27
ENDBRANCH   1  26
TORSDOF 18
