REMARK SMILES CC(C)[C@H](NC(=O)OCc1ccccc1)C(=O)NCC(=O)NCCCCNC(=O)c1ccc(-c2c3nc(c(-c4c(F)cc(S(=O)(=O)[O-])cc4F)c4ccc([nH]4)c(-c4c(F)cc(S(=O)(=O)[O-])cc4F)c4nc(c(-c5c(F)cc(S(=O)(=O)[O-])cc5F)c5ccc2[nH]5)C=C4)C=C3)cc1
REMARK SMILES IDX 23 1 22 2 20 3 21 4 19 6 18 7 16 8 17 9 4 11 2 12 1 13 3 14
REMARK SMILES IDX 5 15 6 16 7 18 8 19 9 20 10 21 11 22 15 23 12 24 14 25 13 26
REMARK SMILES IDX 24 27 25 28 26 29 27 30 28 31 29 33 30 34 31 35 95 36 32 37
REMARK SMILES IDX 94 38 33 39 34 40 35 41 88 42 36 43 93 44 87 45 89 46 37 47
REMARK SMILES IDX 92 48 86 49 85 50 38 52 72 53 51 54 71 55 52 56 55 57 70 58
REMARK SMILES IDX 90 59 53 60 54 61 69 63 91 64 56 65 39 66 40 67 49 68 41 69
REMARK SMILES IDX 42 70 48 71 50 72 43 73 44 74 45 75 46 76 47 77 73 78 74 79
REMARK SMILES IDX 83 80 75 81 76 82 82 83 84 84 77 85 78 86 79 87 80 88 81 89
REMARK SMILES IDX 57 90 58 91 67 92 59 93 60 94 66 95 68 96 61 97 62 98 63 99
REMARK SMILES IDX 64 100 65 101
REMARK H PARENT 22 5 18 10 5 17 27 32 89 51 55 62
REMARK Flexibility Score: inf
ROOT
ATOM      1  C   UNL     1       2.211  -3.379   1.882  1.00  0.00     0.116 C 
ENDROOT
BRANCH   1   2
ATOM      2  N   UNL     1       2.001  -4.681   1.300  1.00  0.00    -0.355 N 
ATOM      3  C   UNL     1       0.854  -5.130   0.707  1.00  0.00     0.239 C 
ATOM      4  O   UNL     1       0.784  -6.298   0.327  1.00  0.00    -0.273 OA
ATOM      5  H   UNL     1       2.758  -5.309   1.334  1.00  0.00     0.163 HD
BRANCH   3   6
ATOM      6  C   UNL     1      -0.261  -4.118   0.410  1.00  0.00     0.216 C 
BRANCH   6   7
ATOM      7  N   UNL     1      -0.945  -3.551   1.558  1.00  0.00    -0.345 N 
ATOM      8  C   UNL     1      -1.380  -2.290   1.819  1.00  0.00     0.243 C 
ATOM      9  O   UNL     1      -2.021  -2.148   2.869  1.00  0.00    -0.273 OA
ATOM     10  H   UNL     1      -1.126  -4.198   2.278  1.00  0.00     0.164 HD
BRANCH   8  11
ATOM     11  C   UNL     1      -1.088  -1.044   0.926  1.00  0.00     0.177 C 
BRANCH  11  12
ATOM     12  C   UNL     1      -1.672  -1.006  -0.516  1.00  0.00     0.015 C 
ATOM     13  C   UNL     1      -0.910  -1.714  -1.643  1.00  0.00     0.010 C 
ATOM     14  C   UNL     1      -3.134  -1.459  -0.544  1.00  0.00     0.010 C 
ENDBRANCH  11  12
BRANCH  11  15
ATOM     15  N   UNL     1       0.319  -0.650   0.990  1.00  0.00    -0.309 N 
ATOM     16  C   UNL     1       0.958  -0.005   2.015  1.00  0.00     0.408 C 
ATOM     17  H   UNL     1       0.870  -0.875   0.206  1.00  0.00     0.167 HD
ATOM     18  O   UNL     1       2.177   0.139   1.966  1.00  0.00    -0.225 OA
BRANCH  16  19
ATOM     19  O   UNL     1       0.158   0.398   3.027  1.00  0.00    -0.445 OA
BRANCH  19  20
ATOM     20  C   UNL     1       0.793   1.168   4.077  1.00  0.00     0.270 C 
BRANCH  20  21
ATOM     21  C   UNL     1       1.210   0.354   5.284  1.00  0.00    -0.011 A 
ATOM     22  C   UNL     1       0.763  -0.952   5.499  1.00  0.00     0.007 A 
ATOM     23  C   UNL     1       2.095   0.911   6.222  1.00  0.00     0.007 A 
ATOM     24  C   UNL     1       1.300  -1.730   6.531  1.00  0.00     0.000 A 
ATOM     25  C   UNL     1       2.607   0.145   7.274  1.00  0.00     0.000 A 
ATOM     26  C   UNL     1       2.239  -1.189   7.405  1.00  0.00     0.000 A 
ENDBRANCH  20  21
ENDBRANCH  19  20
ENDBRANCH  16  19
ENDBRANCH  11  15
ENDBRANCH   8  11
ENDBRANCH   6   7
ENDBRANCH   3   6
ENDBRANCH   1   2
BRANCH   1  27
ATOM     27  C   UNL     1       2.148  -3.432   3.396  1.00  0.00     0.023 C 
BRANCH  27  28
ATOM     28  C   UNL     1       3.497  -3.534   4.083  1.00  0.00     0.023 C 
BRANCH  28  29
ATOM     29  C   UNL     1       4.544  -2.509   3.665  1.00  0.00     0.116 C 
BRANCH  29  30
ATOM     30  N   UNL     1       4.214  -1.106   3.882  1.00  0.00    -0.352 N 
ATOM     31  C   UNL     1       4.963  -0.138   4.524  1.00  0.00     0.251 C 
ATOM     32  H   UNL     1       3.345  -0.810   3.526  1.00  0.00     0.163 HD
ATOM     33  O   UNL     1       4.617   1.039   4.556  1.00  0.00    -0.269 OA
BRANCH  31  34
ATOM     34  C   UNL     1       6.211  -0.539   5.202  1.00  0.00     0.039 A 
ATOM     35  C   UNL     1       6.399  -0.238   6.553  1.00  0.00     0.014 A 
ATOM     36  C   UNL     1       7.165  -1.275   4.501  1.00  0.00     0.014 A 
ATOM     37  C   UNL     1       7.507  -0.760   7.226  1.00  0.00     0.010 A 
ATOM     38  C   UNL     1       8.194  -1.890   5.195  1.00  0.00     0.010 A 
ATOM     39  C   UNL     1       8.388  -1.625   6.560  1.00  0.00    -0.014 A 
BRANCH  39  40
ATOM     40  C   UNL     1       9.568  -2.229   7.224  1.00  0.00     0.031 A 
ATOM     41  C   UNL     1      10.937  -1.917   6.679  1.00  0.00     0.074 A 
ATOM     42  C   UNL     1       9.409  -3.126   8.218  1.00  0.00     0.049 A 
ATOM     43  N   UNL     1      12.087  -2.466   6.965  1.00  0.00    -0.248 NA
ATOM     44  C   UNL     1      11.013  -0.879   5.634  1.00  0.00     0.031 C 
ATOM     45  C   UNL     1       8.127  -3.539   8.794  1.00  0.00     0.029 A 
ATOM     46  N   UNL     1      10.334  -3.878   8.899  1.00  0.00    -0.354 N 
ATOM     47  C   UNL     1      13.010  -1.869   6.114  1.00  0.00     0.074 A 
ATOM     48  C   UNL     1      12.282  -0.955   5.265  1.00  0.00     0.031 C 
ATOM     49  C   UNL     1       8.348  -4.467   9.741  1.00  0.00     0.029 A 
ATOM     50  C   UNL     1       9.778  -4.749   9.808  1.00  0.00     0.049 A 
ATOM     51  H   UNL     1      11.304  -3.801   8.751  1.00  0.00     0.167 HD
ATOM     52  C   UNL     1      14.349  -2.054   6.061  1.00  0.00     0.037 A 
ATOM     53  C   UNL     1      10.358  -5.686  10.585  1.00  0.00     0.037 A 
ATOM     54  C   UNL     1      15.065  -2.931   6.947  1.00  0.00     0.049 A 
ATOM     55  C   UNL     1      11.855  -5.855  10.521  1.00  0.00     0.074 A 
ATOM     56  C   UNL     1      16.430  -3.130   7.038  1.00  0.00     0.029 A 
ATOM     57  N   UNL     1      14.474  -3.753   7.895  1.00  0.00    -0.354 N 
ATOM     58  N   UNL     1      12.724  -5.230   9.761  1.00  0.00    -0.248 NA
ATOM     59  C   UNL     1      12.453  -6.849  11.423  1.00  0.00     0.031 C 
ATOM     60  C   UNL     1      16.662  -4.114   8.003  1.00  0.00     0.029 A 
ATOM     61  C   UNL     1      15.446  -4.481   8.558  1.00  0.00     0.049 A 
ATOM     62  H   UNL     1      13.507  -3.809   8.070  1.00  0.00     0.167 HD
ATOM     63  C   UNL     1      13.972  -5.734  10.115  1.00  0.00     0.074 A 
ATOM     64  C   UNL     1      13.745  -6.701  11.169  1.00  0.00     0.031 C 
ATOM     65  C   UNL     1      15.195  -5.429   9.615  1.00  0.00     0.037 A 
BRANCH  52  66
ATOM     66  C   UNL     1      15.129  -1.295   5.024  1.00  0.00     0.058 A 
ATOM     67  C   UNL     1      15.312   0.095   5.101  1.00  0.00     0.135 A 
ATOM     68  C   UNL     1      15.759  -1.979   3.971  1.00  0.00     0.135 A 
ATOM     69  F   UNL     1      14.714   0.804   6.072  1.00  0.00    -0.206 F 
ATOM     70  C   UNL     1      16.084   0.780   4.169  1.00  0.00     0.059 A 
ATOM     71  C   UNL     1      16.561  -1.319   3.046  1.00  0.00     0.059 A 
ATOM     72  F   UNL     1      15.608  -3.307   3.842  1.00  0.00    -0.206 F 
ATOM     73  C   UNL     1      16.713   0.062   3.151  1.00  0.00     0.060 A 
BRANCH  73  74
ATOM     74  S   UNL     1      17.757   0.961   1.984  1.00  0.00     0.124 S 
ATOM     75  O   UNL     1      16.763   1.708   1.218  1.00  0.00    -0.237 OA
ATOM     76  O   UNL     1      18.601   1.755   2.871  1.00  0.00    -0.237 OA
ATOM     77  O   UNL     1      18.443  -0.099   1.253  1.00  0.00    -0.744 OA
ENDBRANCH  73  74
ENDBRANCH  52  66
BRANCH  53  78
ATOM     78  C   UNL     1       9.532  -6.538  11.487  1.00  0.00     0.058 A 
ATOM     79  C   UNL     1       9.631  -6.428  12.882  1.00  0.00     0.135 A 
ATOM     80  C   UNL     1       8.642  -7.495  10.973  1.00  0.00     0.135 A 
ATOM     81  F   UNL     1      10.471  -5.533  13.426  1.00  0.00    -0.206 F 
ATOM     82  C   UNL     1       8.907  -7.255  13.735  1.00  0.00     0.059 A 
ATOM     83  C   UNL     1       7.882  -8.312  11.806  1.00  0.00     0.059 A 
ATOM     84  F   UNL     1       8.493  -7.631   9.646  1.00  0.00    -0.206 F 
ATOM     85  C   UNL     1       8.035  -8.196  13.186  1.00  0.00     0.060 A 
BRANCH  85  86
ATOM     86  S   UNL     1       7.085  -9.252  14.302  1.00  0.00     0.124 S 
ATOM     87  O   UNL     1       8.118 -10.146  14.811  1.00  0.00    -0.237 OA
ATOM     88  O   UNL     1       6.549  -8.286  15.256  1.00  0.00    -0.237 OA
ATOM     89  O   UNL     1       6.096  -9.867  13.421  1.00  0.00    -0.744 OA
ENDBRANCH  85  86
ENDBRANCH  53  78
BRANCH  65  90
ATOM     90  C   UNL     1      16.386  -6.112  10.230  1.00  0.00     0.058 A 
ATOM     91  C   UNL     1      16.647  -7.474  10.022  1.00  0.00     0.135 A 
ATOM     92  C   UNL     1      17.306  -5.375  10.993  1.00  0.00     0.135 A 
ATOM     93  F   UNL     1      15.797  -8.224   9.302  1.00  0.00    -0.206 F 
ATOM     94  C   UNL     1      17.763  -8.091  10.576  1.00  0.00     0.059 A 
ATOM     95  C   UNL     1      18.447  -5.963  11.528  1.00  0.00     0.059 A 
ATOM     96  F   UNL     1      17.111  -4.064  11.210  1.00  0.00    -0.206 F 
ATOM     97  C   UNL     1      18.659  -7.326  11.326  1.00  0.00     0.060 A 
BRANCH  97  98
ATOM     98  S   UNL     1      20.116  -8.134  12.018  1.00  0.00     0.124 S 
ATOM     99  O   UNL     1      19.529  -8.929  13.091  1.00  0.00    -0.237 OA
ATOM    100  O   UNL     1      20.627  -8.887  10.877  1.00  0.00    -0.237 OA
ATOM    101  O   UNL     1      20.952  -7.018  12.450  1.00  0.00    -0.744 OA
ENDBRANCH  97  98
ENDBRANCH  65  90
ENDBRANCH  39  40
ENDBRANCH  31  34
ENDBRANCH  29  30
ENDBRANCH  28  29
ENDBRANCH  27  28
ENDBRANCH   1  27
TORSDOF 21
