REMARK SMILES C[C@]1(C(=O)NCCCCNC(=O)c2ccc(-c3c4nc(c(-c5c(F)cc(S(=O)(=O)[O-])cc5F)c5ccc([nH]5)c(-c5c(F)cc(S(=O)(=O)[O-])cc5F)c5nc(c(-c6c(F)cc(S(=O)(=O)[O-])cc6F)c6ccc3[nH]6)C=C5)C=C4)cc2)[NH2+]C2(C(=O)c3ccccc3C2=O)[C@@H]2C(=O)N(c3ccccc3)C(=O)[C@H]21
REMARK SMILES IDX 8 1 7 2 6 3 5 4 3 5 4 6 2 8 1 9 79 10 103 11 80 12 91 15
REMARK SMILES IDX 101 16 81 17 89 18 92 19 94 20 102 21 82 22 83 23 88 24
REMARK SMILES IDX 90 25 93 26 84 27 87 28 85 29 86 30 95 31 96 32 100 33 97 34
REMARK SMILES IDX 99 35 98 36 9 37 10 38 11 39 12 41 13 42 14 43 78 44 15 45
REMARK SMILES IDX 77 46 16 47 17 48 18 49 71 50 19 51 76 52 70 53 72 54 20 55
REMARK SMILES IDX 75 56 69 57 68 58 21 60 55 61 34 62 54 63 35 64 38 65 53 66
REMARK SMILES IDX 73 67 36 68 37 69 52 71 74 72 39 73 22 74 23 75 32 76 24 77
REMARK SMILES IDX 25 78 31 79 33 80 26 81 27 82 28 83 29 84 30 85 56 86 57 87
REMARK SMILES IDX 66 88 58 89 59 90 65 91 67 92 60 93 61 94 62 95 63 96 64 97
REMARK SMILES IDX 40 98 41 99 50 100 42 101 43 102 49 103 51 104 44 105 45 106
REMARK SMILES IDX 46 107 47 108 48 109
REMARK H PARENT 5 7 79 13 79 14 10 40 72 59 38 70
REMARK Flexibility Score: inf
ROOT
ATOM      1  C   UNL     1      -1.953   4.473   4.611  1.00  0.00     0.023 C 
ENDROOT
BRANCH   1   2
ATOM      2  C   UNL     1      -2.201   3.692   3.337  1.00  0.00     0.023 C 
BRANCH   2   3
ATOM      3  C   UNL     1      -0.979   3.321   2.518  1.00  0.00     0.116 C 
BRANCH   3   4
ATOM      4  N   UNL     1      -0.243   2.128   2.778  1.00  0.00    -0.351 N 
ATOM      5  C   UNL     1       0.414   1.332   1.877  1.00  0.00     0.281 C 
ATOM      6  O   UNL     1       0.979   0.348   2.378  1.00  0.00    -0.268 OA
ATOM      7  H   UNL     1      -0.203   1.841   3.719  1.00  0.00     0.163 HD
BRANCH   5   8
ATOM      8  C   UNL     1       0.494   1.579   0.292  1.00  0.00     0.186 C 
ATOM      9  C   UNL     1       1.278   0.365  -0.275  1.00  0.00     0.091 C 
ATOM     10  N   UNL     1      -0.864   1.617  -0.393  1.00  0.00    -0.314 N 
ATOM     11  C   UNL     1       1.139   2.832  -0.241  1.00  0.00     0.170 C 
ATOM     12  C   UNL     1      -1.064   2.981  -1.050  1.00  0.00     0.236 C 
ATOM     13  H   UNL     1      -1.598   1.461   0.297  1.00  0.00     0.348 HD
ATOM     14  H   UNL     1      -0.906   0.887  -1.105  1.00  0.00     0.348 HD
ATOM     15  C   UNL     1       0.010   3.821  -0.434  1.00  0.00     0.177 C 
ATOM     16  C   UNL     1       2.139   3.668   0.469  1.00  0.00     0.244 C 
ATOM     17  C   UNL     1      -1.079   2.926  -2.578  1.00  0.00     0.232 C 
ATOM     18  C   UNL     1      -2.500   3.448  -0.733  1.00  0.00     0.232 C 
ATOM     19  C   UNL     1       0.794   5.019  -0.851  1.00  0.00     0.245 C 
ATOM     20  N   UNL     1       1.942   4.949  -0.050  1.00  0.00    -0.250 N 
ATOM     21  O   UNL     1       2.946   3.261   1.283  1.00  0.00    -0.273 OA
ATOM     22  O   UNL     1      -0.173   2.558  -3.302  1.00  0.00    -0.286 OA
ATOM     23  C   UNL     1      -2.412   3.346  -3.051  1.00  0.00     0.036 A 
ATOM     24  C   UNL     1      -3.235   3.606  -1.969  1.00  0.00     0.036 A 
ATOM     25  O   UNL     1      -3.037   3.682   0.333  1.00  0.00    -0.286 OA
ATOM     26  O   UNL     1       0.382   5.904  -1.577  1.00  0.00    -0.273 OA
ATOM     27  C   UNL     1      -2.898   3.484  -4.336  1.00  0.00     0.013 A 
ATOM     28  C   UNL     1      -4.564   3.974  -2.092  1.00  0.00     0.013 A 
ATOM     29  C   UNL     1      -4.239   3.877  -4.493  1.00  0.00     0.001 A 
ATOM     30  C   UNL     1      -5.068   4.110  -3.380  1.00  0.00     0.001 A 
BRANCH  20  31
ATOM     31  C   UNL     1       2.662   6.050   0.454  1.00  0.00     0.052 A 
ATOM     32  C   UNL     1       4.057   5.988   0.565  1.00  0.00     0.027 A 
ATOM     33  C   UNL     1       1.976   7.128   1.026  1.00  0.00     0.027 A 
ATOM     34  C   UNL     1       4.759   6.989   1.236  1.00  0.00     0.002 A 
ATOM     35  C   UNL     1       2.678   8.101   1.745  1.00  0.00     0.002 A 
ATOM     36  C   UNL     1       4.067   8.034   1.844  1.00  0.00     0.000 A 
ENDBRANCH  20  31
ENDBRANCH   5   8
ENDBRANCH   3   4
ENDBRANCH   2   3
ENDBRANCH   1   2
BRANCH   1  37
ATOM     37  C   UNL     1      -1.017   5.670   4.492  1.00  0.00     0.116 C 
BRANCH  37  38
ATOM     38  N   UNL     1      -1.496   6.772   3.655  1.00  0.00    -0.352 N 
ATOM     39  C   UNL     1      -1.730   8.094   3.994  1.00  0.00     0.251 C 
ATOM     40  H   UNL     1      -1.679   6.540   2.716  1.00  0.00     0.163 HD
ATOM     41  O   UNL     1      -2.118   8.899   3.154  1.00  0.00    -0.269 OA
BRANCH  39  42
ATOM     42  C   UNL     1      -1.573   8.503   5.406  1.00  0.00     0.039 A 
ATOM     43  C   UNL     1      -0.418   8.155   6.098  1.00  0.00     0.014 A 
ATOM     44  C   UNL     1      -2.662   9.061   6.082  1.00  0.00     0.014 A 
ATOM     45  C   UNL     1      -0.474   8.065   7.481  1.00  0.00     0.010 A 
ATOM     46  C   UNL     1      -2.651   9.110   7.480  1.00  0.00     0.010 A 
ATOM     47  C   UNL     1      -1.597   8.521   8.195  1.00  0.00    -0.014 A 
BRANCH  47  48
ATOM     48  C   UNL     1      -1.649   8.326   9.673  1.00  0.00     0.031 A 
ATOM     49  C   UNL     1      -2.754   7.521  10.320  1.00  0.00     0.074 A 
ATOM     50  C   UNL     1      -0.638   8.800  10.430  1.00  0.00     0.049 A 
ATOM     51  N   UNL     1      -2.940   7.251  11.589  1.00  0.00    -0.248 NA
ATOM     52  C   UNL     1      -3.787   6.951   9.439  1.00  0.00     0.031 C 
ATOM     53  C   UNL     1       0.501   9.571   9.923  1.00  0.00     0.029 A 
ATOM     54  N   UNL     1      -0.377   8.671  11.770  1.00  0.00    -0.354 N 
ATOM     55  C   UNL     1      -4.117   6.511  11.660  1.00  0.00     0.074 A 
ATOM     56  C   UNL     1      -4.619   6.394  10.309  1.00  0.00     0.031 C 
ATOM     57  C   UNL     1       1.375   9.773  10.918  1.00  0.00     0.029 A 
ATOM     58  C   UNL     1       0.818   9.234  12.152  1.00  0.00     0.049 A 
ATOM     59  H   UNL     1      -0.987   8.220  12.397  1.00  0.00     0.167 HD
ATOM     60  C   UNL     1      -4.718   5.970  12.749  1.00  0.00     0.037 A 
ATOM     61  C   UNL     1       1.397   9.333  13.363  1.00  0.00     0.037 A 
ATOM     62  C   UNL     1      -4.191   6.055  14.088  1.00  0.00     0.049 A 
ATOM     63  C   UNL     1       0.692   8.763  14.557  1.00  0.00     0.074 A 
ATOM     64  C   UNL     1      -4.718   5.526  15.255  1.00  0.00     0.029 A 
ATOM     65  N   UNL     1      -3.014   6.699  14.441  1.00  0.00    -0.354 N 
ATOM     66  N   UNL     1      -0.435   8.094  14.604  1.00  0.00    -0.248 NA
ATOM     67  C   UNL     1       1.323   8.979  15.865  1.00  0.00     0.031 C 
ATOM     68  C   UNL     1      -3.883   5.886  16.317  1.00  0.00     0.029 A 
ATOM     69  C   UNL     1      -2.810   6.598  15.808  1.00  0.00     0.049 A 
ATOM     70  H   UNL     1      -2.412   7.159  13.812  1.00  0.00     0.167 HD
ATOM     71  C   UNL     1      -0.646   7.804  15.945  1.00  0.00     0.074 A 
ATOM     72  C   UNL     1       0.481   8.350  16.674  1.00  0.00     0.031 C 
ATOM     73  C   UNL     1      -1.685   7.151  16.521  1.00  0.00     0.037 A 
BRANCH  60  74
ATOM     74  C   UNL     1      -6.021   5.240  12.553  1.00  0.00     0.058 A 
ATOM     75  C   UNL     1      -6.078   3.974  11.949  1.00  0.00     0.135 A 
ATOM     76  C   UNL     1      -7.222   5.783  13.041  1.00  0.00     0.135 A 
ATOM     77  F   UNL     1      -4.965   3.412  11.453  1.00  0.00    -0.206 F 
ATOM     78  C   UNL     1      -7.279   3.281  11.820  1.00  0.00     0.059 A 
ATOM     79  C   UNL     1      -8.431   5.098  12.946  1.00  0.00     0.059 A 
ATOM     80  F   UNL     1      -7.227   6.989  13.631  1.00  0.00    -0.206 F 
ATOM     81  C   UNL     1      -8.451   3.851  12.324  1.00  0.00     0.060 A 
BRANCH  81  82
ATOM     82  S   UNL     1      -9.996   2.931  12.159  1.00  0.00     0.124 S 
ATOM     83  O   UNL     1     -10.234   3.016  10.721  1.00  0.00    -0.237 OA
ATOM     84  O   UNL     1      -9.629   1.612  12.662  1.00  0.00    -0.237 OA
ATOM     85  O   UNL     1     -10.931   3.680  12.993  1.00  0.00    -0.744 OA
ENDBRANCH  81  82
ENDBRANCH  60  74
BRANCH  61  86
ATOM     86  C   UNL     1       2.709  10.018  13.492  1.00  0.00     0.058 A 
ATOM     87  C   UNL     1       3.873   9.299  13.797  1.00  0.00     0.135 A 
ATOM     88  C   UNL     1       2.834  11.398  13.260  1.00  0.00     0.135 A 
ATOM     89  F   UNL     1       3.803   7.980  14.034  1.00  0.00    -0.206 F 
ATOM     90  C   UNL     1       5.115   9.921  13.866  1.00  0.00     0.059 A 
ATOM     91  C   UNL     1       4.068  12.037  13.293  1.00  0.00     0.059 A 
ATOM     92  F   UNL     1       1.751  12.128  12.948  1.00  0.00    -0.206 F 
ATOM     93  C   UNL     1       5.203  11.290  13.603  1.00  0.00     0.060 A 
BRANCH  93  94
ATOM     94  S   UNL     1       6.829  12.073  13.625  1.00  0.00     0.124 S 
ATOM     95  O   UNL     1       7.132  12.080  15.051  1.00  0.00    -0.237 OA
ATOM     96  O   UNL     1       7.619  11.157  12.807  1.00  0.00    -0.237 OA
ATOM     97  O   UNL     1       6.580  13.380  13.025  1.00  0.00    -0.744 OA
ENDBRANCH  93  94
ENDBRANCH  61  86
BRANCH  73  98
ATOM     98  C   UNL     1      -1.653   6.983  18.013  1.00  0.00     0.058 A 
ATOM     99  C   UNL     1      -1.915   8.059  18.875  1.00  0.00     0.135 A 
ATOM    100  C   UNL     1      -1.421   5.722  18.585  1.00  0.00     0.135 A 
ATOM    101  F   UNL     1      -2.133   9.286  18.378  1.00  0.00    -0.206 F 
ATOM    102  C   UNL     1      -1.937   7.893  20.256  1.00  0.00     0.059 A 
ATOM    103  C   UNL     1      -1.462   5.528  19.962  1.00  0.00     0.059 A 
ATOM    104  F   UNL     1      -1.171   4.660  17.803  1.00  0.00    -0.206 F 
ATOM    105  C   UNL     1      -1.715   6.622  20.790  1.00  0.00     0.060 A 
BRANCH 105 106
ATOM    106  S   UNL     1      -1.794   6.414  22.581  1.00  0.00     0.124 S 
ATOM    107  O   UNL     1      -0.573   7.087  23.010  1.00  0.00    -0.237 OA
ATOM    108  O   UNL     1      -3.043   7.091  22.917  1.00  0.00    -0.237 OA
ATOM    109  O   UNL     1      -1.807   4.965  22.756  1.00  0.00    -0.744 OA
ENDBRANCH 105 106
ENDBRANCH  73  98
ENDBRANCH  47  48
ENDBRANCH  39  42
ENDBRANCH  37  38
ENDBRANCH   1  37
TORSDOF 15
