REMARK SMILES O=C(NCCCCNC(=O)c1cccc(S(=O)(=O)Cc2cccc(O)c2)c1)c1ccc(-c2c3nc(c(-c4c(F)cc(S(=O)(=O)[O-])cc4F)c4ccc([nH]4)c(-c4c(F)cc(S(=O)(=O)[O-])cc4F)c4nc(c(-c5c(F)cc(S(=O)(=O)[O-])cc5F)c5ccc2[nH]5)C=C4)C=C3)cc1
REMARK SMILES IDX 6 1 5 2 4 3 3 4 1 5 2 6 28 8 29 9 93 10 30 11 92 12 31 13
REMARK SMILES IDX 32 14 33 15 86 16 34 17 91 18 85 19 87 20 35 21 90 22 84 23
REMARK SMILES IDX 83 24 36 26 70 27 49 28 69 29 50 30 53 31 68 32 88 33 51 34
REMARK SMILES IDX 52 35 67 37 89 38 54 39 37 40 38 41 47 42 39 43 40 44 46 45
REMARK SMILES IDX 48 46 41 47 42 48 43 49 44 50 45 51 71 52 72 53 81 54 73 55
REMARK SMILES IDX 74 56 80 57 82 58 75 59 76 60 77 61 78 62 79 63 55 64 56 65
REMARK SMILES IDX 65 66 57 67 58 68 64 69 66 70 59 71 60 72 61 73 62 74 63 75
REMARK SMILES IDX 7 76 8 77 9 78 10 80 11 81 12 82 27 83 13 84 15 85 14 86
REMARK SMILES IDX 16 87 17 88 18 89 19 90 20 91 21 92 26 93 22 94 24 95 23 96
REMARK SMILES IDX 25 97
REMARK H PARENT 3 7 87 25 53 36 8 79 25 98
REMARK Flexibility Score: inf
ROOT
ATOM      1  C   UNL     1       4.878   1.493  -3.579  1.00  0.00     0.023 C 
ENDROOT
BRANCH   1   2
ATOM      2  C   UNL     1       5.314   0.417  -2.592  1.00  0.00     0.023 C 
BRANCH   2   3
ATOM      3  C   UNL     1       4.852   0.619  -1.156  1.00  0.00     0.116 C 
BRANCH   3   4
ATOM      4  N   UNL     1       3.404   0.685  -1.003  1.00  0.00    -0.352 N 
ATOM      5  O   UNL     1       1.379   0.158  -0.142  1.00  0.00    -0.269 OA
ATOM      6  C   UNL     1       2.599   0.035  -0.091  1.00  0.00     0.251 C 
ATOM      7  H   UNL     1       2.936   1.274  -1.637  1.00  0.00     0.163 HD
BRANCH   6   8
ATOM      8  C   UNL     1       3.225  -0.842   0.924  1.00  0.00     0.039 A 
ATOM      9  C   UNL     1       4.339  -0.397   1.634  1.00  0.00     0.014 A 
ATOM     10  C   UNL     1       2.743  -2.141   1.112  1.00  0.00     0.014 A 
ATOM     11  C   UNL     1       5.087  -1.307   2.367  1.00  0.00     0.010 A 
ATOM     12  C   UNL     1       3.441  -3.027   1.943  1.00  0.00     0.010 A 
ATOM     13  C   UNL     1       4.648  -2.633   2.538  1.00  0.00    -0.014 A 
BRANCH  13  14
ATOM     14  C   UNL     1       5.473  -3.543   3.377  1.00  0.00     0.031 A 
ATOM     15  C   UNL     1       6.143  -4.763   2.801  1.00  0.00     0.074 A 
ATOM     16  C   UNL     1       5.700  -3.188   4.658  1.00  0.00     0.049 A 
ATOM     17  N   UNL     1       6.984  -5.585   3.378  1.00  0.00    -0.248 NA
ATOM     18  C   UNL     1       5.829  -5.115   1.407  1.00  0.00     0.031 C 
ATOM     19  C   UNL     1       5.082  -2.042   5.332  1.00  0.00     0.029 A 
ATOM     20  N   UNL     1       6.542  -3.712   5.604  1.00  0.00    -0.354 N 
ATOM     21  C   UNL     1       7.287  -6.557   2.430  1.00  0.00     0.074 A 
ATOM     22  C   UNL     1       6.521  -6.236   1.244  1.00  0.00     0.031 C 
ATOM     23  C   UNL     1       5.625  -1.900   6.548  1.00  0.00     0.029 A 
ATOM     24  C   UNL     1       6.580  -2.980   6.767  1.00  0.00     0.049 A 
ATOM     25  H   UNL     1       7.067  -4.533   5.465  1.00  0.00     0.167 HD
ATOM     26  C   UNL     1       8.130  -7.613   2.539  1.00  0.00     0.037 A 
ATOM     27  C   UNL     1       7.300  -3.154   7.890  1.00  0.00     0.037 A 
ATOM     28  C   UNL     1       8.903  -7.915   3.719  1.00  0.00     0.049 A 
ATOM     29  C   UNL     1       8.256  -4.307   7.967  1.00  0.00     0.074 A 
ATOM     30  C   UNL     1       9.783  -8.964   3.929  1.00  0.00     0.029 A 
ATOM     31  N   UNL     1       8.899  -7.161   4.884  1.00  0.00    -0.354 N 
ATOM     32  N   UNL     1       8.520  -5.215   7.059  1.00  0.00    -0.248 NA
ATOM     33  C   UNL     1       9.006  -4.463   9.219  1.00  0.00     0.031 C 
ATOM     34  C   UNL     1      10.291  -8.858   5.230  1.00  0.00     0.029 A 
ATOM     35  C   UNL     1       9.756  -7.724   5.817  1.00  0.00     0.049 A 
ATOM     36  H   UNL     1       8.366  -6.346   5.027  1.00  0.00     0.167 HD
ATOM     37  C   UNL     1       9.456  -6.062   7.636  1.00  0.00     0.074 A 
ATOM     38  C   UNL     1       9.745  -5.531   8.953  1.00  0.00     0.031 C 
ATOM     39  C   UNL     1      10.014  -7.189   7.129  1.00  0.00     0.037 A 
BRANCH  26  40
ATOM     40  C   UNL     1       8.264  -8.532   1.355  1.00  0.00     0.058 A 
ATOM     41  C   UNL     1       8.989  -8.158   0.212  1.00  0.00     0.135 A 
ATOM     42  C   UNL     1       7.718  -9.825   1.387  1.00  0.00     0.135 A 
ATOM     43  F   UNL     1       9.520  -6.928   0.122  1.00  0.00    -0.206 F 
ATOM     44  C   UNL     1       9.157  -9.029  -0.861  1.00  0.00     0.059 A 
ATOM     45  C   UNL     1       7.890 -10.720   0.334  1.00  0.00     0.059 A 
ATOM     46  F   UNL     1       7.015 -10.235   2.455  1.00  0.00    -0.206 F 
ATOM     47  C   UNL     1       8.604 -10.309  -0.791  1.00  0.00     0.060 A 
BRANCH  47  48
ATOM     48  S   UNL     1       8.848 -11.434  -2.182  1.00  0.00     0.124 S 
ATOM     49  O   UNL     1       7.927 -10.879  -3.170  1.00  0.00    -0.237 OA
ATOM     50  O   UNL     1      10.267 -11.267  -2.477  1.00  0.00    -0.237 OA
ATOM     51  O   UNL     1       8.473 -12.735  -1.637  1.00  0.00    -0.744 OA
ENDBRANCH  47  48
ENDBRANCH  26  40
BRANCH  27  52
ATOM     52  C   UNL     1       7.124  -2.217   9.029  1.00  0.00     0.058 A 
ATOM     53  C   UNL     1       8.127  -1.305   9.386  1.00  0.00     0.135 A 
ATOM     54  C   UNL     1       5.925  -2.193   9.759  1.00  0.00     0.135 A 
ATOM     55  F   UNL     1       9.290  -1.291   8.717  1.00  0.00    -0.206 F 
ATOM     56  C   UNL     1       7.953  -0.408  10.435  1.00  0.00     0.059 A 
ATOM     57  C   UNL     1       5.718  -1.287  10.793  1.00  0.00     0.059 A 
ATOM     58  F   UNL     1       4.927  -3.032   9.441  1.00  0.00    -0.206 F 
ATOM     59  C   UNL     1       6.743  -0.406  11.131  1.00  0.00     0.060 A 
BRANCH  59  60
ATOM     60  S   UNL     1       6.491   0.801  12.450  1.00  0.00     0.124 S 
ATOM     61  O   UNL     1       7.185   0.165  13.563  1.00  0.00    -0.237 OA
ATOM     62  O   UNL     1       7.122   1.998  11.904  1.00  0.00    -0.237 OA
ATOM     63  O   UNL     1       5.037   0.868  12.564  1.00  0.00    -0.744 OA
ENDBRANCH  59  60
ENDBRANCH  27  52
BRANCH  39  64
ATOM     64  C   UNL     1      10.981  -7.917   8.018  1.00  0.00     0.058 A 
ATOM     65  C   UNL     1      10.534  -8.667   9.117  1.00  0.00     0.135 A 
ATOM     66  C   UNL     1      12.361  -7.860   7.774  1.00  0.00     0.135 A 
ATOM     67  F   UNL     1       9.223  -8.745   9.394  1.00  0.00    -0.206 F 
ATOM     68  C   UNL     1      11.427  -9.305   9.970  1.00  0.00     0.059 A 
ATOM     69  C   UNL     1      13.271  -8.509   8.602  1.00  0.00     0.059 A 
ATOM     70  F   UNL     1      12.836  -7.162   6.731  1.00  0.00    -0.206 F 
ATOM     71  C   UNL     1      12.796  -9.212   9.709  1.00  0.00     0.060 A 
BRANCH  71  72
ATOM     72  S   UNL     1      13.950 -10.034  10.826  1.00  0.00     0.124 S 
ATOM     73  O   UNL     1      13.992  -9.097  11.944  1.00  0.00    -0.237 OA
ATOM     74  O   UNL     1      13.285 -11.307  11.090  1.00  0.00    -0.237 OA
ATOM     75  O   UNL     1      15.175 -10.127  10.037  1.00  0.00    -0.744 OA
ENDBRANCH  71  72
ENDBRANCH  39  64
ENDBRANCH  13  14
ENDBRANCH   6   8
ENDBRANCH   3   4
ENDBRANCH   2   3
ENDBRANCH   1   2
BRANCH   1  76
ATOM     76  C   UNL     1       5.201   2.924  -3.166  1.00  0.00     0.116 C 
BRANCH  76  77
ATOM     77  N   UNL     1       6.629   3.188  -3.096  1.00  0.00    -0.352 N 
ATOM     78  C   UNL     1       7.366   4.095  -3.817  1.00  0.00     0.251 C 
ATOM     79  H   UNL     1       7.133   2.646  -2.447  1.00  0.00     0.163 HD
ATOM     80  O   UNL     1       8.588   4.132  -3.739  1.00  0.00    -0.269 OA
BRANCH  78  81
ATOM     81  C   UNL     1       6.666   5.027  -4.721  1.00  0.00     0.041 A 
ATOM     82  C   UNL     1       6.947   4.963  -6.089  1.00  0.00     0.014 A 
ATOM     83  C   UNL     1       5.724   5.933  -4.216  1.00  0.00     0.034 A 
ATOM     84  C   UNL     1       6.246   5.778  -6.975  1.00  0.00     0.002 A 
ATOM     85  C   UNL     1       5.009   6.723  -5.114  1.00  0.00     0.068 A 
ATOM     86  C   UNL     1       5.267   6.647  -6.491  1.00  0.00     0.020 A 
BRANCH  85  87
ATOM     87  S   UNL     1       3.707   7.811  -4.578  1.00  0.00     0.182 S 
ATOM     88  O   UNL     1       4.357   9.086  -4.334  1.00  0.00    -0.223 OA
ATOM     89  O   UNL     1       2.653   7.715  -5.574  1.00  0.00    -0.223 OA
BRANCH  87  90
ATOM     90  C   UNL     1       3.064   7.240  -3.027  1.00  0.00     0.177 C 
BRANCH  90  91
ATOM     91  C   UNL     1       2.446   5.859  -2.970  1.00  0.00    -0.029 A 
ATOM     92  C   UNL     1       1.978   5.443  -1.704  1.00  0.00     0.005 A 
ATOM     93  C   UNL     1       2.283   4.973  -4.045  1.00  0.00     0.051 A 
ATOM     94  C   UNL     1       1.384   4.192  -1.517  1.00  0.00     0.004 A 
ATOM     95  C   UNL     1       1.709   3.715  -3.841  1.00  0.00     0.115 A 
ATOM     96  C   UNL     1       1.252   3.322  -2.591  1.00  0.00     0.046 A 
BRANCH  95  97
ATOM     97  O   UNL     1       1.603   2.813  -4.859  1.00  0.00    -0.508 OA
ATOM     98  H   UNL     1       1.216   1.974  -4.704  1.00  0.00     0.293 HD
ENDBRANCH  95  97
ENDBRANCH  90  91
ENDBRANCH  87  90
ENDBRANCH  85  87
ENDBRANCH  78  81
ENDBRANCH  76  77
ENDBRANCH   1  76
TORSDOF 18
