REMARK SMILES Cc1cc(N2CCC[C@H](C(=O)NCCCCNC(=O)c3ccc(-c4c5nc(c(-c6c(F)cc(S(=O)(=O)[O-])cc6F)c6ccc([nH]6)c(-c6c(F)cc(S(=O)(=O)[O-])cc6F)c6nc(c(-c7c(F)cc(S(=O)(=O)[O-])cc7F)c7ccc4[nH]7)C=C6)C=C5)cc3)C2)nc(C(C)C)n1
REMARK SMILES IDX 15 1 14 2 13 3 12 4 10 5 11 6 9 8 5 9 6 10 86 11 7 12 8 13
REMARK SMILES IDX 4 14 1 15 2 16 3 17 92 18 88 19 87 20 89 21 90 22 91 23
REMARK SMILES IDX 16 24 17 25 18 26 19 28 20 29 21 30 85 31 22 32 84 33 23 34
REMARK SMILES IDX 24 35 25 36 78 37 26 38 83 39 77 40 79 41 27 42 82 43 76 44
REMARK SMILES IDX 75 45 28 47 62 48 41 49 61 50 42 51 45 52 60 53 80 54 43 55
REMARK SMILES IDX 44 56 59 58 81 59 46 60 29 61 30 62 39 63 31 64 32 65 38 66
REMARK SMILES IDX 40 67 33 68 34 69 35 70 36 71 37 72 63 73 64 74 73 75 65 76
REMARK SMILES IDX 66 77 72 78 74 79 67 80 68 81 69 82 70 83 71 84 47 85 48 86
REMARK SMILES IDX 57 87 49 88 50 89 56 90 58 91 51 92 52 93 53 94 54 95 55 96
REMARK H PARENT 12 7 17 27 79 46 45 57
REMARK Flexibility Score: inf
ROOT
ATOM      1  C   UNL     1       6.546   0.132   0.524  1.00  0.00     0.023 C 
ENDROOT
BRANCH   1   2
ATOM      2  C   UNL     1       5.699  -1.134   0.418  1.00  0.00     0.023 C 
BRANCH   2   3
ATOM      3  C   UNL     1       4.472  -0.999  -0.480  1.00  0.00     0.116 C 
BRANCH   3   4
ATOM      4  N   UNL     1       4.671  -1.569  -1.793  1.00  0.00    -0.356 N 
ATOM      5  C   UNL     1       4.054  -2.605  -2.413  1.00  0.00     0.224 C 
ATOM      6  O   UNL     1       4.311  -2.762  -3.614  1.00  0.00    -0.275 OA
ATOM      7  H   UNL     1       5.373  -1.132  -2.328  1.00  0.00     0.163 HD
BRANCH   5   8
ATOM      8  C   UNL     1       3.081  -3.572  -1.733  1.00  0.00     0.098 C 
ATOM      9  N   UNL     1       1.570  -2.511  -0.107  1.00  0.00    -0.356 N 
ATOM     10  C   UNL     1       1.848  -3.426   0.980  1.00  0.00     0.118 C 
ATOM     11  C   UNL     1       1.704  -2.970  -1.478  1.00  0.00     0.131 C 
ATOM     12  C   UNL     1       3.268  -3.981   0.836  1.00  0.00     0.022 C 
ATOM     13  C   UNL     1       3.646  -4.415  -0.583  1.00  0.00     0.017 C 
BRANCH   9  14
ATOM     14  C   UNL     1       0.775  -1.402   0.084  1.00  0.00     0.132 A 
ATOM     15  C   UNL     1      -2.804  -0.304   0.130  1.00  0.00     0.067 C 
ATOM     16  C   UNL     1      -1.307  -0.313   0.163  1.00  0.00     0.043 A 
ATOM     17  C   UNL     1      -0.598  -1.498   0.133  1.00  0.00     0.070 A 
ATOM     18  N   UNL     1      -0.702   0.890   0.163  1.00  0.00    -0.238 NA
ATOM     19  C   UNL     1       0.642   0.894   0.128  1.00  0.00     0.133 A 
ATOM     20  N   UNL     1       1.399  -0.214   0.086  1.00  0.00    -0.216 NA
BRANCH  19  21
ATOM     21  C   UNL     1       1.363   2.222   0.046  1.00  0.00     0.051 C 
ATOM     22  C   UNL     1       1.044   2.928  -1.271  1.00  0.00     0.016 C 
ATOM     23  C   UNL     1       1.035   3.109   1.245  1.00  0.00     0.016 C 
ENDBRANCH  19  21
ENDBRANCH   9  14
ENDBRANCH   5   8
ENDBRANCH   3   4
ENDBRANCH   2   3
ENDBRANCH   1   2
BRANCH   1  24
ATOM     24  C   UNL     1       5.819   1.357   1.072  1.00  0.00     0.116 C 
BRANCH  24  25
ATOM     25  N   UNL     1       5.258   1.184   2.407  1.00  0.00    -0.352 N 
ATOM     26  C   UNL     1       5.080   2.160   3.364  1.00  0.00     0.251 C 
ATOM     27  H   UNL     1       4.977   0.273   2.651  1.00  0.00     0.163 HD
ATOM     28  O   UNL     1       4.659   1.891   4.483  1.00  0.00    -0.269 OA
BRANCH  26  29
ATOM     29  C   UNL     1       5.455   3.545   3.012  1.00  0.00     0.039 A 
ATOM     30  C   UNL     1       6.456   4.190   3.741  1.00  0.00     0.014 A 
ATOM     31  C   UNL     1       4.902   4.138   1.875  1.00  0.00     0.014 A 
ATOM     32  C   UNL     1       6.971   5.401   3.271  1.00  0.00     0.010 A 
ATOM     33  C   UNL     1       5.460   5.307   1.376  1.00  0.00     0.010 A 
ATOM     34  C   UNL     1       6.509   5.942   2.060  1.00  0.00    -0.014 A 
BRANCH  34  35
ATOM     35  C   UNL     1       7.101   7.167   1.467  1.00  0.00     0.031 A 
ATOM     36  C   UNL     1       6.244   8.390   1.296  1.00  0.00     0.074 A 
ATOM     37  C   UNL     1       8.357   7.142   0.980  1.00  0.00     0.049 A 
ATOM     38  N   UNL     1       6.500   9.495   0.647  1.00  0.00    -0.248 NA
ATOM     39  C   UNL     1       4.904   8.344   1.904  1.00  0.00     0.031 C 
ATOM     40  C   UNL     1       9.270   5.998   1.042  1.00  0.00     0.029 A 
ATOM     41  N   UNL     1       9.076   8.101   0.311  1.00  0.00    -0.354 N 
ATOM     42  C   UNL     1       5.345  10.260   0.738  1.00  0.00     0.074 A 
ATOM     43  C   UNL     1       4.374   9.478   1.473  1.00  0.00     0.031 C 
ATOM     44  C   UNL     1      10.429   6.325   0.446  1.00  0.00     0.029 A 
ATOM     45  C   UNL     1      10.330   7.686  -0.074  1.00  0.00     0.049 A 
ATOM     46  H   UNL     1       8.727   9.002   0.124  1.00  0.00     0.167 HD
ATOM     47  C   UNL     1       5.120  11.509   0.267  1.00  0.00     0.037 A 
ATOM     48  C   UNL     1      11.285   8.326  -0.776  1.00  0.00     0.037 A 
ATOM     49  C   UNL     1       6.105  12.297  -0.422  1.00  0.00     0.049 A 
ATOM     50  C   UNL     1      11.028   9.731  -1.252  1.00  0.00     0.074 A 
ATOM     51  C   UNL     1       5.995  13.593  -0.895  1.00  0.00     0.029 A 
ATOM     52  N   UNL     1       7.389  11.867  -0.725  1.00  0.00    -0.354 N 
ATOM     53  N   UNL     1       9.944  10.457  -1.122  1.00  0.00    -0.248 NA
ATOM     54  C   UNL     1      12.123  10.407  -1.964  1.00  0.00     0.031 C 
ATOM     55  C   UNL     1       7.207  13.940  -1.501  1.00  0.00     0.029 A 
ATOM     56  C   UNL     1       8.082  12.873  -1.375  1.00  0.00     0.049 A 
ATOM     57  H   UNL     1       7.752  10.978  -0.509  1.00  0.00     0.167 HD
ATOM     58  C   UNL     1      10.238  11.686  -1.702  1.00  0.00     0.074 A 
ATOM     59  C   UNL     1      11.599  11.606  -2.188  1.00  0.00     0.031 C 
ATOM     60  C   UNL     1       9.450  12.783  -1.818  1.00  0.00     0.037 A 
BRANCH  47  61
ATOM     61  C   UNL     1       3.756  12.098   0.493  1.00  0.00     0.058 A 
ATOM     62  C   UNL     1       3.335  12.503   1.769  1.00  0.00     0.135 A 
ATOM     63  C   UNL     1       2.865  12.268  -0.578  1.00  0.00     0.135 A 
ATOM     64  F   UNL     1       4.143  12.345   2.829  1.00  0.00    -0.206 F 
ATOM     65  C   UNL     1       2.064  13.024   1.982  1.00  0.00     0.059 A 
ATOM     66  C   UNL     1       1.597  12.812  -0.392  1.00  0.00     0.059 A 
ATOM     67  F   UNL     1       3.218  11.896  -1.819  1.00  0.00    -0.206 F 
ATOM     68  C   UNL     1       1.200  13.169   0.896  1.00  0.00     0.060 A 
BRANCH  68  69
ATOM     69  S   UNL     1      -0.451  13.838   1.188  1.00  0.00     0.124 S 
ATOM     70  O   UNL     1      -1.135  12.681   1.758  1.00  0.00    -0.237 OA
ATOM     71  O   UNL     1      -0.188  14.937   2.112  1.00  0.00    -0.237 OA
ATOM     72  O   UNL     1      -0.895  14.237  -0.144  1.00  0.00    -0.744 OA
ENDBRANCH  68  69
ENDBRANCH  47  61
BRANCH  48  73
ATOM     73  C   UNL     1      12.586   7.659  -1.043  1.00  0.00     0.058 A 
ATOM     74  C   UNL     1      13.746   8.052  -0.359  1.00  0.00     0.135 A 
ATOM     75  C   UNL     1      12.697   6.611  -1.970  1.00  0.00     0.135 A 
ATOM     76  F   UNL     1      13.690   9.053   0.533  1.00  0.00    -0.206 F 
ATOM     77  C   UNL     1      14.973   7.441  -0.593  1.00  0.00     0.059 A 
ATOM     78  C   UNL     1      13.910   5.971  -2.207  1.00  0.00     0.059 A 
ATOM     79  F   UNL     1      11.613   6.187  -2.637  1.00  0.00    -0.206 F 
ATOM     80  C   UNL     1      15.045   6.400  -1.519  1.00  0.00     0.060 A 
BRANCH  80  81
ATOM     81  S   UNL     1      16.633   5.580  -1.781  1.00  0.00     0.124 S 
ATOM     82  O   UNL     1      17.339   6.561  -2.596  1.00  0.00    -0.237 OA
ATOM     83  O   UNL     1      17.123   5.413  -0.416  1.00  0.00    -0.237 OA
ATOM     84  O   UNL     1      16.262   4.342  -2.459  1.00  0.00    -0.744 OA
ENDBRANCH  80  81
ENDBRANCH  48  73
BRANCH  60  85
ATOM     85  C   UNL     1      10.050  14.012  -2.437  1.00  0.00     0.058 A 
ATOM     86  C   UNL     1      10.201  14.139  -3.825  1.00  0.00     0.135 A 
ATOM     87  C   UNL     1      10.380  15.114  -1.633  1.00  0.00     0.135 A 
ATOM     88  F   UNL     1       9.904  13.109  -4.634  1.00  0.00    -0.206 F 
ATOM     89  C   UNL     1      10.659  15.320  -4.398  1.00  0.00     0.059 A 
ATOM     90  C   UNL     1      10.823  16.312  -2.185  1.00  0.00     0.059 A 
ATOM     91  F   UNL     1      10.245  15.042  -0.299  1.00  0.00    -0.206 F 
ATOM     92  C   UNL     1      10.960  16.404  -3.569  1.00  0.00     0.060 A 
BRANCH  92  93
ATOM     93  S   UNL     1      11.479  17.959  -4.327  1.00  0.00     0.124 S 
ATOM     94  O   UNL     1      12.864  17.667  -4.680  1.00  0.00    -0.237 OA
ATOM     95  O   UNL     1      10.553  18.087  -5.448  1.00  0.00    -0.237 OA
ATOM     96  O   UNL     1      11.295  18.936  -3.258  1.00  0.00    -0.744 OA
ENDBRANCH  92  93
ENDBRANCH  60  85
ENDBRANCH  34  35
ENDBRANCH  26  29
ENDBRANCH  24  25
ENDBRANCH   1  24
TORSDOF 16
