REMARK SMILES CC[NH2+][C@H](CC(=O)Nc1cc(C)cc(C)c1)C(=O)NCCCCNC(=O)c1ccc(-c2c3nc(c(-c4c(F)cc(S(=O)(=O)[O-])cc4F)c4ccc([nH]4)c(-c4c(F)cc(S(=O)(=O)[O-])cc4F)c4nc(c(-c5c(F)cc(S(=O)(=O)[O-])cc5F)c5ccc2[nH]5)C=C4)C=C3)cc1
REMARK SMILES IDX 21 1 20 2 19 3 17 4 18 5 4 7 3 8 2 11 1 12 5 13 6 14 7 15
REMARK SMILES IDX 8 16 9 18 10 19 16 20 11 21 14 22 12 23 13 24 15 25 22 26
REMARK SMILES IDX 23 27 24 28 25 29 26 31 27 32 28 33 92 34 29 35 91 36 30 37
REMARK SMILES IDX 31 38 32 39 85 40 33 41 90 42 84 43 86 44 34 45 89 46 83 47
REMARK SMILES IDX 82 48 35 50 69 51 48 52 68 53 49 54 52 55 67 56 87 57 50 58
REMARK SMILES IDX 51 59 66 61 88 62 53 63 36 64 37 65 46 66 38 67 39 68 45 69
REMARK SMILES IDX 47 70 40 71 41 72 42 73 43 74 44 75 70 76 71 77 80 78 72 79
REMARK SMILES IDX 73 80 79 81 81 82 74 83 75 84 76 85 77 86 78 87 54 88 55 89
REMARK SMILES IDX 64 90 56 91 57 92 63 93 65 94 58 95 59 96 60 97 61 98 62 99
REMARK H PARENT 19 6 3 9 3 10 8 17 24 30 86 49 52 60
REMARK Flexibility Score: inf
ROOT
ATOM      1  C   UNL     1       4.418   2.114  -2.829  1.00  0.00     0.023 C 
ENDROOT
BRANCH   1   2
ATOM      2  C   UNL     1       3.592   3.286  -2.317  1.00  0.00     0.116 C 
BRANCH   2   3
ATOM      3  N   UNL     1       2.445   3.551  -3.166  1.00  0.00    -0.351 N 
ATOM      4  C   UNL     1       1.119   3.539  -2.824  1.00  0.00     0.278 C 
ATOM      5  O   UNL     1       0.281   3.848  -3.674  1.00  0.00    -0.268 OA
ATOM      6  H   UNL     1       2.645   3.766  -4.105  1.00  0.00     0.163 HD
BRANCH   4   7
ATOM      7  C   UNL     1       0.692   3.175  -1.378  1.00  0.00     0.281 C 
BRANCH   7   8
ATOM      8  N   UNL     1       1.305   4.214  -0.501  1.00  0.00    -0.336 N 
ATOM      9  H   UNL     1       2.183   4.500  -0.934  1.00  0.00     0.346 HD
ATOM     10  H   UNL     1       0.593   4.942  -0.428  1.00  0.00     0.346 HD
BRANCH   8  11
ATOM     11  C   UNL     1       1.598   3.851   0.873  1.00  0.00     0.257 C 
ATOM     12  C   UNL     1       1.956   5.081   1.692  1.00  0.00     0.071 C 
ENDBRANCH   8  11
ENDBRANCH   7   8
BRANCH   7  13
ATOM     13  C   UNL     1       0.990   1.694  -1.105  1.00  0.00     0.175 C 
BRANCH  13  14
ATOM     14  C   UNL     1      -0.193   0.726  -1.075  1.00  0.00     0.230 C 
ATOM     15  O   UNL     1      -0.388  -0.064  -2.000  1.00  0.00    -0.274 OA
ATOM     16  N   UNL     1      -0.882   0.557   0.102  1.00  0.00    -0.326 N 
ATOM     17  H   UNL     1      -1.180  -0.359   0.304  1.00  0.00     0.169 HD
BRANCH  16  18
ATOM     18  C   UNL     1      -1.208   1.533   1.047  1.00  0.00     0.041 A 
ATOM     19  C   UNL     1      -1.820   2.721   0.645  1.00  0.00     0.029 A 
ATOM     20  C   UNL     1      -0.945   1.305   2.397  1.00  0.00     0.029 A 
ATOM     21  C   UNL     1      -2.046   3.753   1.559  1.00  0.00    -0.049 A 
ATOM     22  C   UNL     1      -1.174   2.325   3.333  1.00  0.00    -0.049 A 
ATOM     23  C   UNL     1      -2.553   5.084   1.090  1.00  0.00     0.044 C 
ATOM     24  C   UNL     1      -1.712   3.549   2.903  1.00  0.00     0.007 A 
ATOM     25  C   UNL     1      -0.748   2.166   4.763  1.00  0.00     0.044 C 
ENDBRANCH  16  18
ENDBRANCH  13  14
ENDBRANCH   7  13
ENDBRANCH   4   7
ENDBRANCH   2   3
ENDBRANCH   1   2
BRANCH   1  26
ATOM     26  C   UNL     1       5.223   2.416  -4.088  1.00  0.00     0.023 C 
BRANCH  26  27
ATOM     27  C   UNL     1       6.163   3.609  -3.976  1.00  0.00     0.116 C 
BRANCH  27  28
ATOM     28  N   UNL     1       7.108   3.496  -2.871  1.00  0.00    -0.352 N 
ATOM     29  C   UNL     1       8.450   3.794  -2.870  1.00  0.00     0.251 C 
ATOM     30  H   UNL     1       6.739   3.166  -2.020  1.00  0.00     0.163 HD
ATOM     31  O   UNL     1       9.150   3.549  -1.893  1.00  0.00    -0.269 OA
BRANCH  29  32
ATOM     32  C   UNL     1       9.036   4.383  -4.089  1.00  0.00     0.039 A 
ATOM     33  C   UNL     1      10.107   3.737  -4.709  1.00  0.00     0.014 A 
ATOM     34  C   UNL     1       8.449   5.513  -4.663  1.00  0.00     0.014 A 
ATOM     35  C   UNL     1      10.541   4.181  -5.959  1.00  0.00     0.010 A 
ATOM     36  C   UNL     1       8.837   5.908  -5.937  1.00  0.00     0.010 A 
ATOM     37  C   UNL     1       9.880   5.241  -6.600  1.00  0.00    -0.014 A 
BRANCH  37  38
ATOM     38  C   UNL     1      10.241   5.673  -7.973  1.00  0.00     0.031 A 
ATOM     39  C   UNL     1      10.758   7.064  -8.200  1.00  0.00     0.074 A 
ATOM     40  C   UNL     1       9.989   4.861  -9.019  1.00  0.00     0.049 A 
ATOM     41  N   UNL     1      10.980   7.690  -9.326  1.00  0.00    -0.248 NA
ATOM     42  C   UNL     1      11.023   7.871  -6.998  1.00  0.00     0.031 C 
ATOM     43  C   UNL     1       9.429   3.510  -8.928  1.00  0.00     0.029 A 
ATOM     44  N   UNL     1      10.139   5.067 -10.367  1.00  0.00    -0.354 N 
ATOM     45  C   UNL     1      11.374   8.974  -8.970  1.00  0.00     0.074 A 
ATOM     46  C   UNL     1      11.325   9.048  -7.526  1.00  0.00     0.031 C 
ATOM     47  C   UNL     1       9.281   3.011 -10.165  1.00  0.00     0.029 A 
ATOM     48  C   UNL     1       9.699   4.017 -11.138  1.00  0.00     0.049 A 
ATOM     49  H   UNL     1      10.526   5.889 -10.747  1.00  0.00     0.167 HD
ATOM     50  C   UNL     1      11.757   9.993  -9.775  1.00  0.00     0.037 A 
ATOM     51  C   UNL     1       9.620   3.886 -12.477  1.00  0.00     0.037 A 
ATOM     52  C   UNL     1      11.842   9.896 -11.208  1.00  0.00     0.049 A 
ATOM     53  C   UNL     1      10.089   5.014 -13.354  1.00  0.00     0.074 A 
ATOM     54  C   UNL     1      12.303  10.839 -12.108  1.00  0.00     0.029 A 
ATOM     55  N   UNL     1      11.453   8.789 -11.949  1.00  0.00    -0.354 N 
ATOM     56  N   UNL     1      10.537   6.196 -13.001  1.00  0.00    -0.248 NA
ATOM     57  C   UNL     1      10.050   4.794 -14.806  1.00  0.00     0.031 C 
ATOM     58  C   UNL     1      12.161  10.316 -13.398  1.00  0.00     0.029 A 
ATOM     59  C   UNL     1      11.647   9.032 -13.298  1.00  0.00     0.049 A 
ATOM     60  H   UNL     1      11.092   7.955 -11.572  1.00  0.00     0.167 HD
ATOM     61  C   UNL     1      10.853   6.852 -14.185  1.00  0.00     0.074 A 
ATOM     62  C   UNL     1      10.550   5.935 -15.264  1.00  0.00     0.031 C 
ATOM     63  C   UNL     1      11.350   8.101 -14.360  1.00  0.00     0.037 A 
BRANCH  50  64
ATOM     64  C   UNL     1      12.107  11.297  -9.117  1.00  0.00     0.058 A 
ATOM     65  C   UNL     1      13.270  11.446  -8.344  1.00  0.00     0.135 A 
ATOM     66  C   UNL     1      11.267  12.413  -9.256  1.00  0.00     0.135 A 
ATOM     67  F   UNL     1      14.101  10.406  -8.166  1.00  0.00    -0.206 F 
ATOM     68  C   UNL     1      13.563  12.639  -7.694  1.00  0.00     0.059 A 
ATOM     69  C   UNL     1      11.555  13.626  -8.637  1.00  0.00     0.059 A 
ATOM     70  F   UNL     1      10.143  12.326  -9.986  1.00  0.00    -0.206 F 
ATOM     71  C   UNL     1      12.694  13.722  -7.839  1.00  0.00     0.060 A 
BRANCH  71  72
ATOM     72  S   UNL     1      13.069  15.256  -6.966  1.00  0.00     0.124 S 
ATOM     73  O   UNL     1      12.667  14.919  -5.604  1.00  0.00    -0.237 OA
ATOM     74  O   UNL     1      14.505  15.400  -7.184  1.00  0.00    -0.237 OA
ATOM     75  O   UNL     1      12.234  16.244  -7.642  1.00  0.00    -0.744 OA
ENDBRANCH  71  72
ENDBRANCH  50  64
BRANCH  51  76
ATOM     76  C   UNL     1       9.086   2.627 -13.059  1.00  0.00     0.058 A 
ATOM     77  C   UNL     1       9.942   1.688 -13.651  1.00  0.00     0.135 A 
ATOM     78  C   UNL     1       7.720   2.314 -12.984  1.00  0.00     0.135 A 
ATOM     79  F   UNL     1      11.255   1.946 -13.751  1.00  0.00    -0.206 F 
ATOM     80  C   UNL     1       9.464   0.480 -14.149  1.00  0.00     0.059 A 
ATOM     81  C   UNL     1       7.221   1.104 -13.457  1.00  0.00     0.059 A 
ATOM     82  F   UNL     1       6.864   3.174 -12.411  1.00  0.00    -0.206 F 
ATOM     83  C   UNL     1       8.102   0.194 -14.040  1.00  0.00     0.060 A 
BRANCH  83  84
ATOM     84  S   UNL     1       7.505  -1.413 -14.613  1.00  0.00     0.124 S 
ATOM     85  O   UNL     1       7.531  -1.236 -16.060  1.00  0.00    -0.237 OA
ATOM     86  O   UNL     1       8.503  -2.325 -14.063  1.00  0.00    -0.237 OA
ATOM     87  O   UNL     1       6.179  -1.511 -14.011  1.00  0.00    -0.744 OA
ENDBRANCH  83  84
ENDBRANCH  51  76
BRANCH  63  88
ATOM     88  C   UNL     1      11.632   8.550 -15.765  1.00  0.00     0.058 A 
ATOM     89  C   UNL     1      10.602   8.955 -16.626  1.00  0.00     0.135 A 
ATOM     90  C   UNL     1      12.956   8.670 -16.218  1.00  0.00     0.135 A 
ATOM     91  F   UNL     1       9.320   8.852 -16.242  1.00  0.00    -0.206 F 
ATOM     92  C   UNL     1      10.874   9.465 -17.891  1.00  0.00     0.059 A 
ATOM     93  C   UNL     1      13.252   9.197 -17.471  1.00  0.00     0.059 A 
ATOM     94  F   UNL     1      13.976   8.303 -15.427  1.00  0.00    -0.206 F 
ATOM     95  C   UNL     1      12.203   9.590 -18.302  1.00  0.00     0.060 A 
BRANCH  95  96
ATOM     96  S   UNL     1      12.548  10.323 -19.915  1.00  0.00     0.124 S 
ATOM     97  O   UNL     1      12.200   9.230 -20.816  1.00  0.00    -0.237 OA
ATOM     98  O   UNL     1      11.649  11.473 -19.936  1.00  0.00    -0.237 OA
ATOM     99  O   UNL     1      13.969  10.650 -19.843  1.00  0.00    -0.744 OA
ENDBRANCH  95  96
ENDBRANCH  63  88
ENDBRANCH  37  38
ENDBRANCH  29  32
ENDBRANCH  27  28
ENDBRANCH  26  27
ENDBRANCH   1  26
TORSDOF 19
