REMARK SMILES Cc1cc(C(=O)NCCCCNC(=O)c2ccc(-c3c4nc(c(-c5c(F)cc(S(=O)(=O)[O-])cc5F)c5ccc([nH]5)c(-c5c(F)cc(S(=O)(=O)[O-])cc5F)c5nc(c(-c6c(F)cc(S(=O)(=O)[O-])cc6F)c6ccc3[nH]6)C=C5)C=C4)cc2)ccc1NS(=O)(=O)c1ccc2c(c1)CCC2
REMARK SMILES IDX 9 1 8 2 7 3 5 4 6 5 4 7 1 8 2 9 3 10 83 11 82 12 81 13 84 14
REMARK SMILES IDX 85 16 86 17 87 18 88 19 89 20 93 21 90 22 92 23 91 24 94 25
REMARK SMILES IDX 96 26 95 27 10 28 11 29 12 30 13 31 14 33 15 34 16 35 80 36
REMARK SMILES IDX 17 37 79 38 18 39 19 40 20 41 73 42 21 43 78 44 72 45 74 46
REMARK SMILES IDX 22 47 77 48 71 49 70 50 23 52 57 53 36 54 56 55 37 56 40 57
REMARK SMILES IDX 55 58 75 59 38 60 39 61 54 63 76 64 41 65 24 66 25 67 34 68
REMARK SMILES IDX 26 69 27 70 33 71 35 72 28 73 29 74 30 75 31 76 32 77 58 78
REMARK SMILES IDX 59 79 68 80 60 81 61 82 67 83 69 84 62 85 63 86 64 87 65 88
REMARK SMILES IDX 66 89 42 90 43 91 52 92 44 93 45 94 51 95 53 96 46 97 47 98
REMARK SMILES IDX 48 99 49 100 50 101
REMARK H PARENT 7 6 84 15 12 32 74 51 40 62
REMARK Flexibility Score: inf
ROOT
ATOM      1  C   UNL     1      -4.572  -1.058  -1.632  1.00  0.00     0.023 C 
ENDROOT
BRANCH   1   2
ATOM      2  C   UNL     1      -3.979  -1.171  -0.221  1.00  0.00     0.116 C 
BRANCH   2   3
ATOM      3  N   UNL     1      -3.109  -2.323  -0.018  1.00  0.00    -0.352 N 
ATOM      4  C   UNL     1      -1.786  -2.421   0.354  1.00  0.00     0.251 C 
ATOM      5  O   UNL     1      -1.259  -3.531   0.414  1.00  0.00    -0.269 OA
ATOM      6  H   UNL     1      -3.547  -3.190  -0.177  1.00  0.00     0.163 HD
BRANCH   4   7
ATOM      7  C   UNL     1      -0.946  -1.217   0.571  1.00  0.00     0.040 A 
ATOM      8  C   UNL     1       2.468  -0.072  -0.614  1.00  0.00     0.046 C 
ATOM      9  C   UNL     1       1.067  -0.012  -0.071  1.00  0.00    -0.026 A 
ATOM     10  C   UNL     1       0.331  -1.204   0.001  1.00  0.00     0.019 A 
ATOM     11  C   UNL     1       0.459   1.178   0.360  1.00  0.00     0.052 A 
ATOM     12  C   UNL     1      -0.659   1.099   1.193  1.00  0.00     0.028 A 
ATOM     13  C   UNL     1      -1.367  -0.105   1.296  1.00  0.00     0.016 A 
BRANCH  11  14
ATOM     14  N   UNL     1       0.882   2.390  -0.262  1.00  0.00    -0.279 N 
ATOM     15  H   UNL     1       1.629   2.305  -0.897  1.00  0.00     0.180 HD
BRANCH  14  16
ATOM     16  S   UNL     1       0.281   3.931  -0.057  1.00  0.00     0.261 S 
ATOM     17  O   UNL     1       0.415   4.278   1.342  1.00  0.00    -0.201 OA
ATOM     18  O   UNL     1       0.928   4.721  -1.085  1.00  0.00    -0.201 OA
BRANCH  16  19
ATOM     19  C   UNL     1      -1.461   3.950  -0.438  1.00  0.00     0.088 A 
ATOM     20  C   UNL     1      -2.158   2.813  -0.876  1.00  0.00     0.022 A 
ATOM     21  C   UNL     1      -2.151   5.126  -0.102  1.00  0.00     0.026 A 
ATOM     22  C   UNL     1      -3.551   2.770  -0.774  1.00  0.00     0.005 A 
ATOM     23  C   UNL     1      -3.531   5.079  -0.050  1.00  0.00    -0.043 A 
ATOM     24  C   UNL     1      -4.213   3.888  -0.302  1.00  0.00    -0.045 A 
ATOM     25  C   UNL     1      -4.496   6.168   0.294  1.00  0.00     0.036 C 
ATOM     26  C   UNL     1      -5.667   4.021   0.038  1.00  0.00     0.036 C 
ATOM     27  C   UNL     1      -5.667   5.339   0.833  1.00  0.00     0.010 C 
ENDBRANCH  16  19
ENDBRANCH  14  16
ENDBRANCH  11  14
ENDBRANCH   4   7
ENDBRANCH   2   3
ENDBRANCH   1   2
BRANCH   1  28
ATOM     28  C   UNL     1      -5.470  -2.207  -2.090  1.00  0.00     0.023 C 
BRANCH  28  29
ATOM     29  C   UNL     1      -6.741  -2.383  -1.260  1.00  0.00     0.116 C 
BRANCH  29  30
ATOM     30  N   UNL     1      -7.971  -2.125  -2.000  1.00  0.00    -0.352 N 
ATOM     31  C   UNL     1      -9.282  -2.370  -1.614  1.00  0.00     0.251 C 
ATOM     32  H   UNL     1      -7.856  -1.724  -2.892  1.00  0.00     0.163 HD
ATOM     33  O   UNL     1     -10.211  -2.221  -2.388  1.00  0.00    -0.269 OA
BRANCH  31  34
ATOM     34  C   UNL     1      -9.526  -2.747  -0.203  1.00  0.00     0.039 A 
ATOM     35  C   UNL     1     -10.283  -1.878   0.592  1.00  0.00     0.014 A 
ATOM     36  C   UNL     1      -8.814  -3.796   0.367  1.00  0.00     0.014 A 
ATOM     37  C   UNL     1     -10.148  -1.928   1.978  1.00  0.00     0.010 A 
ATOM     38  C   UNL     1      -8.600  -3.777   1.730  1.00  0.00     0.010 A 
ATOM     39  C   UNL     1      -9.221  -2.807   2.532  1.00  0.00    -0.014 A 
BRANCH  39  40
ATOM     40  C   UNL     1      -8.729  -2.723   3.904  1.00  0.00     0.031 A 
ATOM     41  C   UNL     1      -9.003  -3.812   4.872  1.00  0.00     0.074 A 
ATOM     42  C   UNL     1      -7.865  -1.736   4.229  1.00  0.00     0.049 A 
ATOM     43  N   UNL     1      -8.770  -3.755   6.140  1.00  0.00    -0.248 NA
ATOM     44  C   UNL     1      -9.636  -5.060   4.468  1.00  0.00     0.031 C 
ATOM     45  C   UNL     1      -6.914  -1.726   5.336  1.00  0.00     0.029 A 
ATOM     46  N   UNL     1      -7.797  -0.445   3.713  1.00  0.00    -0.354 N 
ATOM     47  C   UNL     1      -8.930  -5.023   6.661  1.00  0.00     0.074 A 
ATOM     48  C   UNL     1      -9.554  -5.770   5.596  1.00  0.00     0.031 C 
ATOM     49  C   UNL     1      -6.514  -0.466   5.559  1.00  0.00     0.029 A 
ATOM     50  C   UNL     1      -7.331   0.403   4.729  1.00  0.00     0.049 A 
ATOM     51  H   UNL     1      -8.033  -0.175   2.796  1.00  0.00     0.167 HD
ATOM     52  C   UNL     1      -8.383  -5.314   7.881  1.00  0.00     0.037 A 
ATOM     53  C   UNL     1      -8.119   1.404   5.227  1.00  0.00     0.037 A 
ATOM     54  C   UNL     1      -7.889  -4.093   8.528  1.00  0.00     0.049 A 
ATOM     55  C   UNL     1      -8.481   1.248   6.687  1.00  0.00     0.074 A 
ATOM     56  C   UNL     1      -6.626  -3.536   8.654  1.00  0.00     0.029 A 
ATOM     57  N   UNL     1      -8.791  -3.103   8.911  1.00  0.00    -0.354 N 
ATOM     58  N   UNL     1      -8.345   0.140   7.360  1.00  0.00    -0.248 NA
ATOM     59  C   UNL     1      -9.043   2.325   7.499  1.00  0.00     0.031 C 
ATOM     60  C   UNL     1      -6.779  -2.178   9.032  1.00  0.00     0.029 A 
ATOM     61  C   UNL     1      -8.132  -1.914   9.163  1.00  0.00     0.049 A 
ATOM     62  H   UNL     1      -9.764  -3.232   8.990  1.00  0.00     0.167 HD
ATOM     63  C   UNL     1      -8.822   0.311   8.632  1.00  0.00     0.074 A 
ATOM     64  C   UNL     1      -9.217   1.706   8.681  1.00  0.00     0.031 C 
ATOM     65  C   UNL     1      -8.870  -0.714   9.534  1.00  0.00     0.037 A 
BRANCH  52  66
ATOM     66  C   UNL     1      -8.010  -6.720   8.348  1.00  0.00     0.058 A 
ATOM     67  C   UNL     1      -6.983  -6.913   9.304  1.00  0.00     0.135 A 
ATOM     68  C   UNL     1      -8.540  -7.923   7.838  1.00  0.00     0.135 A 
ATOM     69  F   UNL     1      -6.452  -5.884   9.979  1.00  0.00    -0.206 F 
ATOM     70  C   UNL     1      -6.444  -8.167   9.615  1.00  0.00     0.059 A 
ATOM     71  C   UNL     1      -7.991  -9.184   8.096  1.00  0.00     0.059 A 
ATOM     72  F   UNL     1      -9.661  -7.949   7.113  1.00  0.00    -0.206 F 
ATOM     73  C   UNL     1      -6.927  -9.297   8.973  1.00  0.00     0.060 A 
BRANCH  73  74
ATOM     74  S   UNL     1      -6.173 -10.899   9.310  1.00  0.00     0.124 S 
ATOM     75  O   UNL     1      -4.778 -10.663   8.950  1.00  0.00    -0.237 OA
ATOM     76  O   UNL     1      -6.442 -11.071  10.733  1.00  0.00    -0.237 OA
ATOM     77  O   UNL     1      -6.894 -11.809   8.424  1.00  0.00    -0.744 OA
ENDBRANCH  73  74
ENDBRANCH  52  66
BRANCH  53  78
ATOM     78  C   UNL     1      -8.975   2.051   4.197  1.00  0.00     0.058 A 
ATOM     79  C   UNL     1      -8.337   2.874   3.253  1.00  0.00     0.135 A 
ATOM     80  C   UNL     1     -10.229   1.520   3.858  1.00  0.00     0.135 A 
ATOM     81  F   UNL     1      -7.144   3.424   3.535  1.00  0.00    -0.206 F 
ATOM     82  C   UNL     1      -8.829   3.011   1.963  1.00  0.00     0.059 A 
ATOM     83  C   UNL     1     -10.737   1.641   2.563  1.00  0.00     0.059 A 
ATOM     84  F   UNL     1     -10.888   0.737   4.726  1.00  0.00    -0.206 F 
ATOM     85  C   UNL     1      -9.981   2.316   1.607  1.00  0.00     0.060 A 
BRANCH  85  86
ATOM     86  S   UNL     1     -10.314   2.119  -0.160  1.00  0.00     0.124 S 
ATOM     87  O   UNL     1     -10.366   3.503  -0.617  1.00  0.00    -0.237 OA
ATOM     88  O   UNL     1      -9.137   1.360  -0.582  1.00  0.00    -0.237 OA
ATOM     89  O   UNL     1     -11.578   1.393  -0.184  1.00  0.00    -0.744 OA
ENDBRANCH  85  86
ENDBRANCH  53  78
BRANCH  65  90
ATOM     90  C   UNL     1      -9.551  -0.657  10.878  1.00  0.00     0.058 A 
ATOM     91  C   UNL     1     -10.717   0.083  11.134  1.00  0.00     0.135 A 
ATOM     92  C   UNL     1      -9.105  -1.485  11.936  1.00  0.00     0.135 A 
ATOM     93  F   UNL     1     -11.296   0.822  10.176  1.00  0.00    -0.206 F 
ATOM     94  C   UNL     1     -11.363   0.058  12.372  1.00  0.00     0.059 A 
ATOM     95  C   UNL     1      -9.764  -1.567  13.161  1.00  0.00     0.059 A 
ATOM     96  F   UNL     1      -8.014  -2.255  11.806  1.00  0.00    -0.206 F 
ATOM     97  C   UNL     1     -10.879  -0.771  13.380  1.00  0.00     0.060 A 
BRANCH  97  98
ATOM     98  S   UNL     1     -11.741  -0.864  14.961  1.00  0.00     0.124 S 
ATOM     99  O   UNL     1     -11.011   0.125  15.748  1.00  0.00    -0.237 OA
ATOM    100  O   UNL     1     -13.111  -0.501  14.610  1.00  0.00    -0.237 OA
ATOM    101  O   UNL     1     -11.552  -2.256  15.357  1.00  0.00    -0.744 OA
ENDBRANCH  97  98
ENDBRANCH  65  90
ENDBRANCH  39  40
ENDBRANCH  31  34
ENDBRANCH  29  30
ENDBRANCH  28  29
ENDBRANCH   1  28
TORSDOF 17
