REMARK SMILES CC[C@@H]1CCC[C@@](Cc2cccc(O)c2)(C(=O)NCCCCNC(=O)c2ccc(-c3c4nc(c(-c5c(F)cc(S(=O)(=O)[O-])cc5F)c5ccc([nH]5)c(-c5c(F)cc(S(=O)(=O)[O-])cc5F)c5nc(c(-c6c(F)cc(S(=O)(=O)[O-])cc6F)c6ccc3[nH]6)C=C5)C=C4)cc2)C1
REMARK SMILES IDX 20 1 19 2 18 3 16 4 17 5 7 7 3 8 4 9 92 10 5 11 6 12 2 13
REMARK SMILES IDX 1 14 8 15 9 16 10 17 15 18 11 19 13 20 12 21 14 22 21 24
REMARK SMILES IDX 22 25 23 26 24 27 25 29 26 30 27 31 91 32 28 33 90 34 29 35
REMARK SMILES IDX 30 36 31 37 84 38 32 39 89 40 83 41 85 42 33 43 88 44 82 45
REMARK SMILES IDX 81 46 34 48 68 49 47 50 67 51 48 52 51 53 66 54 86 55 49 56
REMARK SMILES IDX 50 57 65 59 87 60 52 61 35 62 36 63 45 64 37 65 38 66 44 67
REMARK SMILES IDX 46 68 39 69 40 70 41 71 42 72 43 73 69 74 70 75 79 76 71 77
REMARK SMILES IDX 72 78 78 79 80 80 73 81 74 82 75 83 76 84 77 85 53 86 54 87
REMARK SMILES IDX 63 88 55 89 56 90 62 91 64 92 57 93 58 94 59 95 60 96 61 97
REMARK H PARENT 18 6 14 23 23 28 85 47 51 58
REMARK Flexibility Score: inf
ROOT
ATOM      1  C   UNL     1       3.924   7.489  -0.848  1.00  0.00     0.023 C 
ENDROOT
BRANCH   1   2
ATOM      2  C   UNL     1       2.422   7.373  -0.627  1.00  0.00     0.116 C 
BRANCH   2   3
ATOM      3  N   UNL     1       1.830   6.197  -1.227  1.00  0.00    -0.356 N 
ATOM      4  C   UNL     1       0.942   5.285  -0.747  1.00  0.00     0.226 C 
ATOM      5  O   UNL     1       0.356   4.621  -1.611  1.00  0.00    -0.274 OA
ATOM      6  H   UNL     1       2.122   6.025  -2.151  1.00  0.00     0.163 HD
BRANCH   4   7
ATOM      7  C   UNL     1       0.622   5.073   0.761  1.00  0.00     0.053 C 
ATOM      8  C   UNL     1       1.030   2.490   0.604  1.00  0.00    -0.010 C 
ATOM      9  C   UNL     1       2.313   2.644   1.432  1.00  0.00     0.003 C 
ATOM     10  C   UNL     1       0.030   3.623   0.918  1.00  0.00     0.020 C 
ATOM     11  C   UNL     1       2.890   4.052   1.351  1.00  0.00     0.001 C 
ATOM     12  C   UNL     1       1.842   5.107   1.709  1.00  0.00     0.017 C 
BRANCH   8  13
ATOM     13  C   UNL     1       0.364   1.121   0.851  1.00  0.00     0.000 C 
ATOM     14  C   UNL     1       1.072  -0.019   0.132  1.00  0.00     0.004 C 
ENDBRANCH   8  13
BRANCH   7  15
ATOM     15  C   UNL     1      -0.531   6.030   1.206  1.00  0.00     0.052 C 
BRANCH  15  16
ATOM     16  C   UNL     1      -0.333   7.521   1.090  1.00  0.00    -0.043 A 
ATOM     17  C   UNL     1      -0.759   8.205  -0.061  1.00  0.00     0.004 A 
ATOM     18  C   UNL     1       0.289   8.248   2.115  1.00  0.00     0.049 A 
ATOM     19  C   UNL     1      -0.522   9.574  -0.204  1.00  0.00     0.004 A 
ATOM     20  C   UNL     1       0.530   9.611   1.956  1.00  0.00     0.115 A 
ATOM     21  C   UNL     1       0.137  10.280   0.801  1.00  0.00     0.046 A 
BRANCH  20  22
ATOM     22  O   UNL     1       1.183  10.261   2.962  1.00  0.00    -0.508 OA
ATOM     23  H   UNL     1       1.362  11.178   2.888  1.00  0.00     0.293 HD
ENDBRANCH  20  22
ENDBRANCH  15  16
ENDBRANCH   7  15
ENDBRANCH   4   7
ENDBRANCH   2   3
ENDBRANCH   1   2
BRANCH   1  24
ATOM     24  C   UNL     1       4.339   7.940  -2.248  1.00  0.00     0.023 C 
BRANCH  24  25
ATOM     25  C   UNL     1       3.616   9.165  -2.807  1.00  0.00     0.116 C 
BRANCH  25  26
ATOM     26  N   UNL     1       3.580  10.307  -1.903  1.00  0.00    -0.352 N 
ATOM     27  C   UNL     1       3.622  11.646  -2.220  1.00  0.00     0.251 C 
ATOM     28  H   UNL     1       3.519  10.094  -0.944  1.00  0.00     0.163 HD
ATOM     29  O   UNL     1       3.594  12.498  -1.340  1.00  0.00    -0.269 OA
BRANCH  27  30
ATOM     30  C   UNL     1       3.744  12.034  -3.640  1.00  0.00     0.039 A 
ATOM     31  C   UNL     1       4.842  12.801  -4.038  1.00  0.00     0.014 A 
ATOM     32  C   UNL     1       2.826  11.562  -4.582  1.00  0.00     0.014 A 
ATOM     33  C   UNL     1       5.070  13.020  -5.398  1.00  0.00     0.010 A 
ATOM     34  C   UNL     1       3.085  11.737  -5.939  1.00  0.00     0.010 A 
ATOM     35  C   UNL     1       4.219  12.449  -6.359  1.00  0.00    -0.014 A 
BRANCH  35  36
ATOM     36  C   UNL     1       4.521  12.544  -7.810  1.00  0.00     0.031 A 
ATOM     37  C   UNL     1       3.604  13.303  -8.726  1.00  0.00     0.074 A 
ATOM     38  C   UNL     1       5.574  11.869  -8.315  1.00  0.00     0.049 A 
ATOM     39  N   UNL     1       3.647  13.415 -10.028  1.00  0.00    -0.248 NA
ATOM     40  C   UNL     1       2.477  14.008  -8.097  1.00  0.00     0.031 C 
ATOM     41  C   UNL     1       6.507  11.050  -7.537  1.00  0.00     0.029 A 
ATOM     42  N   UNL     1       6.025  11.748  -9.605  1.00  0.00    -0.354 N 
ATOM     43  C   UNL     1       2.545  14.185 -10.378  1.00  0.00     0.074 A 
ATOM     44  C   UNL     1       1.831  14.481  -9.154  1.00  0.00     0.031 C 
ATOM     45  C   UNL     1       7.426  10.524  -8.363  1.00  0.00     0.029 A 
ATOM     46  C   UNL     1       7.131  10.940  -9.731  1.00  0.00     0.049 A 
ATOM     47  H   UNL     1       5.598  12.198 -10.369  1.00  0.00     0.167 HD
ATOM     48  C   UNL     1       2.171  14.620 -11.605  1.00  0.00     0.037 A 
ATOM     49  C   UNL     1       7.824  10.569 -10.825  1.00  0.00     0.037 A 
ATOM     50  C   UNL     1       2.898  14.349 -12.817  1.00  0.00     0.049 A 
ATOM     51  C   UNL     1       7.403  11.083 -12.174  1.00  0.00     0.074 A 
ATOM     52  C   UNL     1       2.632  14.797 -14.100  1.00  0.00     0.029 A 
ATOM     53  N   UNL     1       4.036  13.560 -12.898  1.00  0.00    -0.354 N 
ATOM     54  N   UNL     1       6.390  11.859 -12.478  1.00  0.00    -0.248 NA
ATOM     55  C   UNL     1       8.219  10.677 -13.326  1.00  0.00     0.031 C 
ATOM     56  C   UNL     1       3.595  14.258 -14.960  1.00  0.00     0.029 A 
ATOM     57  C   UNL     1       4.479  13.501 -14.209  1.00  0.00     0.049 A 
ATOM     58  H   UNL     1       4.466  13.110 -12.135  1.00  0.00     0.167 HD
ATOM     59  C   UNL     1       6.461  12.053 -13.853  1.00  0.00     0.074 A 
ATOM     60  C   UNL     1       7.620  11.319 -14.320  1.00  0.00     0.031 C 
ATOM     61  C   UNL     1       5.640  12.774 -14.655  1.00  0.00     0.037 A 
BRANCH  48  62
ATOM     62  C   UNL     1       0.919  15.445 -11.692  1.00  0.00     0.058 A 
ATOM     63  C   UNL     1       0.882  16.770 -11.232  1.00  0.00     0.135 A 
ATOM     64  C   UNL     1      -0.251  14.913 -12.258  1.00  0.00     0.135 A 
ATOM     65  F   UNL     1       1.969  17.320 -10.668  1.00  0.00    -0.206 F 
ATOM     66  C   UNL     1      -0.280  17.531 -11.299  1.00  0.00     0.059 A 
ATOM     67  C   UNL     1      -1.419  15.664 -12.357  1.00  0.00     0.059 A 
ATOM     68  F   UNL     1      -0.269  13.650 -12.712  1.00  0.00    -0.206 F 
ATOM     69  C   UNL     1      -1.428  16.966 -11.859  1.00  0.00     0.060 A 
BRANCH  69  70
ATOM     70  S   UNL     1      -2.933  17.960 -11.932  1.00  0.00     0.124 S 
ATOM     71  O   UNL     1      -3.395  17.887 -10.550  1.00  0.00    -0.237 OA
ATOM     72  O   UNL     1      -2.431  19.261 -12.363  1.00  0.00    -0.237 OA
ATOM     73  O   UNL     1      -3.757  17.255 -12.909  1.00  0.00    -0.744 OA
ENDBRANCH  69  70
ENDBRANCH  48  62
BRANCH  49  74
ATOM     74  C   UNL     1       9.008   9.682 -10.686  1.00  0.00     0.058 A 
ATOM     75  C   UNL     1      10.306  10.193 -10.830  1.00  0.00     0.135 A 
ATOM     76  C   UNL     1       8.868   8.318 -10.392  1.00  0.00     0.135 A 
ATOM     77  F   UNL     1      10.488  11.490 -11.118  1.00  0.00    -0.206 F 
ATOM     78  C   UNL     1      11.426   9.379 -10.700  1.00  0.00     0.059 A 
ATOM     79  C   UNL     1       9.974   7.488 -10.237  1.00  0.00     0.059 A 
ATOM     80  F   UNL     1       7.646   7.787 -10.228  1.00  0.00    -0.206 F 
ATOM     81  C   UNL     1      11.250   8.027 -10.402  1.00  0.00     0.060 A 
BRANCH  81  82
ATOM     82  S   UNL     1      12.711   6.989 -10.178  1.00  0.00     0.124 S 
ATOM     83  O   UNL     1      13.124   6.763 -11.557  1.00  0.00    -0.237 OA
ATOM     84  O   UNL     1      13.582   7.849  -9.383  1.00  0.00    -0.237 OA
ATOM     85  O   UNL     1      12.185   5.823  -9.474  1.00  0.00    -0.744 OA
ENDBRANCH  81  82
ENDBRANCH  49  74
BRANCH  61  86
ATOM     86  C   UNL     1       5.981  12.832 -16.117  1.00  0.00     0.058 A 
ATOM     87  C   UNL     1       5.724  11.751 -16.974  1.00  0.00     0.135 A 
ATOM     88  C   UNL     1       6.520  14.002 -16.675  1.00  0.00     0.135 A 
ATOM     89  F   UNL     1       5.216  10.608 -16.486  1.00  0.00    -0.206 F 
ATOM     90  C   UNL     1       6.003  11.823 -18.334  1.00  0.00     0.059 A 
ATOM     91  C   UNL     1       6.788  14.103 -18.036  1.00  0.00     0.059 A 
ATOM     92  F   UNL     1       6.777  15.065 -15.897  1.00  0.00    -0.206 F 
ATOM     93  C   UNL     1       6.535  13.004 -18.856  1.00  0.00     0.060 A 
BRANCH  93  94
ATOM     94  S   UNL     1       6.855  13.104 -20.631  1.00  0.00     0.124 S 
ATOM     95  O   UNL     1       8.101  12.354 -20.746  1.00  0.00    -0.237 OA
ATOM     96  O   UNL     1       5.674  12.463 -21.201  1.00  0.00    -0.237 OA
ATOM     97  O   UNL     1       6.960  14.539 -20.875  1.00  0.00    -0.744 OA
ENDBRANCH  93  94
ENDBRANCH  61  86
ENDBRANCH  35  36
ENDBRANCH  27  30
ENDBRANCH  25  26
ENDBRANCH  24  25
ENDBRANCH   1  24
TORSDOF 18
