REMARK SMILES CC[C@H](O)C[C@@H](Cc1ccccc1OC)C(=O)NCCCCNC(=O)c1ccc(-c2c3nc(c(-c4c(F)cc(S(=O)(=O)[O-])cc4F)c4ccc([nH]4)c(-c4c(F)cc(S(=O)(=O)[O-])cc4F)c4nc(c(-c5c(F)cc(S(=O)(=O)[O-])cc5F)c5ccc2[nH]5)C=C4)C=C3)cc1
REMARK SMILES IDX 20 1 19 2 18 3 16 4 17 5 6 7 5 8 3 9 2 10 1 11 4 12 7 14
REMARK SMILES IDX 8 15 9 16 13 17 10 18 12 19 11 20 14 21 15 22 21 23 22 24
REMARK SMILES IDX 23 25 24 26 25 28 26 29 27 30 91 31 28 32 90 33 29 34 30 35
REMARK SMILES IDX 31 36 84 37 32 38 89 39 83 40 85 41 33 42 88 43 82 44 81 45
REMARK SMILES IDX 34 47 68 48 47 49 67 50 48 51 51 52 66 53 86 54 49 55 50 56
REMARK SMILES IDX 65 58 87 59 52 60 35 61 36 62 45 63 37 64 38 65 44 66 46 67
REMARK SMILES IDX 39 68 40 69 41 70 42 71 43 72 69 73 70 74 79 75 71 76 72 77
REMARK SMILES IDX 78 78 80 79 73 80 74 81 75 82 76 83 77 84 53 85 54 86 63 87
REMARK SMILES IDX 55 88 56 89 62 90 64 91 57 92 58 93 59 94 60 95 61 96
REMARK H PARENT 18 6 4 13 23 27 85 46 51 57
REMARK Flexibility Score: inf
ROOT
ATOM      1  C   UNL     1       0.167   5.537  -5.204  1.00  0.00     0.023 C 
ENDROOT
BRANCH   1   2
ATOM      2  C   UNL     1       0.938   5.548  -3.893  1.00  0.00     0.116 C 
BRANCH   2   3
ATOM      3  N   UNL     1       0.121   5.861  -2.736  1.00  0.00    -0.356 N 
ATOM      4  C   UNL     1       0.147   5.344  -1.477  1.00  0.00     0.223 C 
ATOM      5  O   UNL     1      -0.471   5.951  -0.596  1.00  0.00    -0.275 OA
ATOM      6  H   UNL     1      -0.559   6.556  -2.885  1.00  0.00     0.163 HD
BRANCH   4   7
ATOM      7  C   UNL     1       0.875   4.045  -1.122  1.00  0.00     0.085 C 
BRANCH   7   8
ATOM      8  C   UNL     1       0.383   2.853  -1.976  1.00  0.00     0.045 C 
BRANCH   8   9
ATOM      9  C   UNL     1       1.062   1.499  -1.725  1.00  0.00     0.115 C 
BRANCH   9  10
ATOM     10  C   UNL     1       0.526   0.418  -2.682  1.00  0.00     0.028 C 
ATOM     11  C   UNL     1      -0.720  -0.305  -2.191  1.00  0.00     0.006 C 
ENDBRANCH   9  10
BRANCH   9  12
ATOM     12  O   UNL     1       0.896   1.069  -0.380  1.00  0.00    -0.393 OA
ATOM     13  H   UNL     1      -0.048   0.937  -0.197  1.00  0.00     0.210 HD
ENDBRANCH   9  12
ENDBRANCH   8   9
ENDBRANCH   7   8
BRANCH   7  14
ATOM     14  C   UNL     1       2.386   4.208  -0.837  1.00  0.00     0.053 C 
BRANCH  14  15
ATOM     15  C   UNL     1       3.310   4.811  -1.867  1.00  0.00    -0.005 A 
ATOM     16  C   UNL     1       3.969   3.929  -2.750  1.00  0.00     0.007 A 
ATOM     17  C   UNL     1       3.534   6.191  -2.033  1.00  0.00     0.122 A 
ATOM     18  C   UNL     1       4.774   4.397  -3.791  1.00  0.00     0.001 A 
ATOM     19  C   UNL     1       4.354   6.652  -3.076  1.00  0.00     0.047 A 
ATOM     20  C   UNL     1       4.966   5.762  -3.956  1.00  0.00     0.004 A 
BRANCH  17  21
ATOM     21  O   UNL     1       2.847   7.194  -1.402  1.00  0.00    -0.496 OA
ATOM     22  C   UNL     1       2.915   7.221   0.017  1.00  0.00     0.278 C 
ENDBRANCH  17  21
ENDBRANCH  14  15
ENDBRANCH   7  14
ENDBRANCH   4   7
ENDBRANCH   2   3
ENDBRANCH   1   2
BRANCH   1  23
ATOM     23  C   UNL     1      -0.112   6.924  -5.783  1.00  0.00     0.023 C 
BRANCH  23  24
ATOM     24  C   UNL     1       1.099   7.845  -5.946  1.00  0.00     0.116 C 
BRANCH  24  25
ATOM     25  N   UNL     1       2.206   7.247  -6.682  1.00  0.00    -0.352 N 
ATOM     26  C   UNL     1       2.986   7.808  -7.667  1.00  0.00     0.251 C 
ATOM     27  H   UNL     1       2.424   6.317  -6.443  1.00  0.00     0.163 HD
ATOM     28  O   UNL     1       3.849   7.145  -8.234  1.00  0.00    -0.269 OA
BRANCH  26  29
ATOM     29  C   UNL     1       2.744   9.212  -8.059  1.00  0.00     0.039 A 
ATOM     30  C   UNL     1       2.459   9.504  -9.394  1.00  0.00     0.014 A 
ATOM     31  C   UNL     1       2.723  10.220  -7.091  1.00  0.00     0.014 A 
ATOM     32  C   UNL     1       2.053  10.793  -9.744  1.00  0.00     0.010 A 
ATOM     33  C   UNL     1       2.262  11.489  -7.431  1.00  0.00     0.010 A 
ATOM     34  C   UNL     1       1.901  11.781  -8.756  1.00  0.00    -0.014 A 
BRANCH  34  35
ATOM     35  C   UNL     1       1.305  13.104  -9.078  1.00  0.00     0.031 A 
ATOM     36  C   UNL     1       2.118  14.360  -8.942  1.00  0.00     0.074 A 
ATOM     37  C   UNL     1       0.000  13.177  -9.409  1.00  0.00     0.049 A 
ATOM     38  N   UNL     1       1.747  15.604  -9.107  1.00  0.00    -0.248 NA
ATOM     39  C   UNL     1       3.525  14.200  -8.544  1.00  0.00     0.031 C 
ATOM     40  C   UNL     1      -0.911  12.034  -9.514  1.00  0.00     0.029 A 
ATOM     41  N   UNL     1      -0.792  14.258  -9.704  1.00  0.00    -0.354 N 
ATOM     42  C   UNL     1       2.867  16.375  -8.823  1.00  0.00     0.074 A 
ATOM     43  C   UNL     1       3.919  15.460  -8.432  1.00  0.00     0.031 C 
ATOM     44  C   UNL     1      -2.131  12.473  -9.864  1.00  0.00     0.029 A 
ATOM     45  C   UNL     1      -2.099  13.928  -9.977  1.00  0.00     0.049 A 
ATOM     46  H   UNL     1      -0.456  15.183  -9.719  1.00  0.00     0.167 HD
ATOM     47  C   UNL     1       3.011  17.720  -8.900  1.00  0.00     0.037 A 
ATOM     48  C   UNL     1      -3.156  14.708 -10.276  1.00  0.00     0.037 A 
ATOM     49  C   UNL     1       1.968  18.623  -9.310  1.00  0.00     0.049 A 
ATOM     50  C   UNL     1      -2.969  16.197 -10.366  1.00  0.00     0.074 A 
ATOM     51  C   UNL     1       2.037  19.995  -9.486  1.00  0.00     0.029 A 
ATOM     52  N   UNL     1       0.665  18.249  -9.605  1.00  0.00    -0.354 N 
ATOM     53  N   UNL     1      -1.882  16.903 -10.165  1.00  0.00    -0.248 NA
ATOM     54  C   UNL     1      -4.148  16.996 -10.727  1.00  0.00     0.031 C 
ATOM     55  C   UNL     1       0.767  20.454  -9.852  1.00  0.00     0.029 A 
ATOM     56  C   UNL     1      -0.084  19.365  -9.943  1.00  0.00     0.049 A 
ATOM     57  H   UNL     1       0.323  17.326  -9.579  1.00  0.00     0.167 HD
ATOM     58  C   UNL     1      -2.241  18.227 -10.393  1.00  0.00     0.074 A 
ATOM     59  C   UNL     1      -3.643  18.222 -10.761  1.00  0.00     0.031 C 
ATOM     60  C   UNL     1      -1.479  19.345 -10.306  1.00  0.00     0.037 A 
BRANCH  47  61
ATOM     61  C   UNL     1       4.351  18.295  -8.538  1.00  0.00     0.058 A 
ATOM     62  C   UNL     1       5.468  18.133  -9.373  1.00  0.00     0.135 A 
ATOM     63  C   UNL     1       4.516  19.040  -7.360  1.00  0.00     0.135 A 
ATOM     64  F   UNL     1       5.368  17.417 -10.504  1.00  0.00    -0.206 F 
ATOM     65  C   UNL     1       6.709  18.664  -9.039  1.00  0.00     0.059 A 
ATOM     66  C   UNL     1       5.743  19.602  -7.018  1.00  0.00     0.059 A 
ATOM     67  F   UNL     1       3.481  19.225  -6.526  1.00  0.00    -0.206 F 
ATOM     68  C   UNL     1       6.838  19.395  -7.856  1.00  0.00     0.060 A 
BRANCH  68  69
ATOM     69  S   UNL     1       8.455  20.077  -7.435  1.00  0.00     0.124 S 
ATOM     70  O   UNL     1       9.166  18.882  -6.990  1.00  0.00    -0.237 OA
ATOM     71  O   UNL     1       8.899  20.642  -8.706  1.00  0.00    -0.237 OA
ATOM     72  O   UNL     1       8.151  21.052  -6.392  1.00  0.00    -0.744 OA
ENDBRANCH  68  69
ENDBRANCH  47  61
BRANCH  48  73
ATOM     73  C   UNL     1      -4.483  14.090 -10.536  1.00  0.00     0.058 A 
ATOM     74  C   UNL     1      -5.007  14.033 -11.835  1.00  0.00     0.135 A 
ATOM     75  C   UNL     1      -5.242  13.530  -9.498  1.00  0.00     0.135 A 
ATOM     76  F   UNL     1      -4.320  14.562 -12.859  1.00  0.00    -0.206 F 
ATOM     77  C   UNL     1      -6.243  13.451 -12.097  1.00  0.00     0.059 A 
ATOM     78  C   UNL     1      -6.471  12.923  -9.737  1.00  0.00     0.059 A 
ATOM     79  F   UNL     1      -4.776  13.545  -8.239  1.00  0.00    -0.206 F 
ATOM     80  C   UNL     1      -6.967  12.896 -11.040  1.00  0.00     0.060 A 
BRANCH  80  81
ATOM     81  S   UNL     1      -8.544  12.091 -11.398  1.00  0.00     0.124 S 
ATOM     82  O   UNL     1      -9.419  13.239 -11.604  1.00  0.00    -0.237 OA
ATOM     83  O   UNL     1      -8.227  11.307 -12.587  1.00  0.00    -0.237 OA
ATOM     84  O   UNL     1      -8.800  11.309 -10.192  1.00  0.00    -0.744 OA
ENDBRANCH  80  81
ENDBRANCH  48  73
BRANCH  60  85
ATOM     85  C   UNL     1      -2.138  20.655 -10.631  1.00  0.00     0.058 A 
ATOM     86  C   UNL     1      -3.037  21.265  -9.743  1.00  0.00     0.135 A 
ATOM     87  C   UNL     1      -1.833  21.330 -11.824  1.00  0.00     0.135 A 
ATOM     88  F   UNL     1      -3.368  20.657  -8.593  1.00  0.00    -0.206 F 
ATOM     89  C   UNL     1      -3.625  22.491 -10.034  1.00  0.00     0.059 A 
ATOM     90  C   UNL     1      -2.391  22.568 -12.125  1.00  0.00     0.059 A 
ATOM     91  F   UNL     1      -0.972  20.793 -12.703  1.00  0.00    -0.206 F 
ATOM     92  C   UNL     1      -3.296  23.136 -11.228  1.00  0.00     0.060 A 
BRANCH  92  93
ATOM     93  S   UNL     1      -4.039  24.743 -11.581  1.00  0.00     0.124 S 
ATOM     94  O   UNL     1      -5.388  24.360 -11.984  1.00  0.00    -0.237 OA
ATOM     95  O   UNL     1      -3.931  25.428 -10.296  1.00  0.00    -0.237 OA
ATOM     96  O   UNL     1      -3.194  25.281 -12.643  1.00  0.00    -0.744 OA
ENDBRANCH  92  93
ENDBRANCH  60  85
ENDBRANCH  34  35
ENDBRANCH  26  29
ENDBRANCH  24  25
ENDBRANCH  23  24
ENDBRANCH   1  23
TORSDOF 21
