REMARK SMILES O=C(NCCCCNC(=O)c1cc(-c2ccccn2)nc2ccc(F)cc12)c1ccc(-c2c3nc(c(-c4c(F)cc(S(=O)(=O)[O-])cc4F)c4ccc([nH]4)c(-c4c(F)cc(S(=O)(=O)[O-])cc4F)c4nc(c(-c5c(F)cc(S(=O)(=O)[O-])cc5F)c5ccc2[nH]5)C=C4)C=C3)cc1
REMARK SMILES IDX 4 1 3 2 1 3 2 4 28 6 29 7 93 8 30 9 92 10 31 11 32 12 33 13
REMARK SMILES IDX 86 14 34 15 91 16 85 17 87 18 35 19 90 20 84 21 83 22 36 24
REMARK SMILES IDX 70 25 49 26 69 27 50 28 53 29 68 30 88 31 51 32 52 33 67 35
REMARK SMILES IDX 89 36 54 37 37 38 38 39 47 40 39 41 40 42 46 43 48 44 41 45
REMARK SMILES IDX 42 46 43 47 44 48 45 49 71 50 72 51 81 52 73 53 74 54 80 55
REMARK SMILES IDX 82 56 75 57 76 58 77 59 78 60 79 61 55 62 56 63 65 64 57 65
REMARK SMILES IDX 58 66 64 67 66 68 59 69 60 70 61 71 62 72 63 73 5 74 6 75
REMARK SMILES IDX 7 76 8 77 9 78 10 80 11 81 12 82 27 83 13 84 21 85 26 86
REMARK SMILES IDX 20 87 22 88 24 89 23 90 25 91 14 92 15 93 19 94 16 95 18 96
REMARK SMILES IDX 17 97
REMARK H PARENT 3 5 87 23 53 34 8 79
REMARK Flexibility Score: inf
ROOT
ATOM      1  C   UNL     1       4.731  -0.196  -1.241  1.00  0.00     0.116 C 
ENDROOT
BRANCH   1   2
ATOM      2  N   UNL     1       3.299   0.003  -1.097  1.00  0.00    -0.352 N 
ATOM      3  O   UNL     1       1.289   0.003  -0.096  1.00  0.00    -0.269 OA
ATOM      4  C   UNL     1       2.510  -0.061   0.025  1.00  0.00     0.251 C 
ATOM      5  H   UNL     1       2.822   0.216  -1.932  1.00  0.00     0.163 HD
BRANCH   4   6
ATOM      6  C   UNL     1       3.111  -0.224   1.370  1.00  0.00     0.039 A 
ATOM      7  C   UNL     1       2.489  -1.081   2.283  1.00  0.00     0.014 A 
ATOM      8  C   UNL     1       4.249   0.491   1.754  1.00  0.00     0.014 A 
ATOM      9  C   UNL     1       3.026  -1.249   3.563  1.00  0.00     0.010 A 
ATOM     10  C   UNL     1       4.826   0.267   3.003  1.00  0.00     0.010 A 
ATOM     11  C   UNL     1       4.209  -0.588   3.929  1.00  0.00    -0.014 A 
BRANCH  11  12
ATOM     12  C   UNL     1       4.774  -0.717   5.298  1.00  0.00     0.031 A 
ATOM     13  C   UNL     1       4.824   0.489   6.198  1.00  0.00     0.074 A 
ATOM     14  C   UNL     1       5.275  -1.895   5.720  1.00  0.00     0.049 A 
ATOM     15  N   UNL     1       5.355   0.614   7.387  1.00  0.00    -0.248 NA
ATOM     16  C   UNL     1       4.217   1.728   5.682  1.00  0.00     0.031 C 
ATOM     17  C   UNL     1       5.310  -3.131   4.936  1.00  0.00     0.029 A 
ATOM     18  N   UNL     1       5.855  -2.243   6.915  1.00  0.00    -0.354 N 
ATOM     19  C   UNL     1       5.168   1.943   7.748  1.00  0.00     0.074 A 
ATOM     20  C   UNL     1       4.517   2.598   6.635  1.00  0.00     0.031 C 
ATOM     21  C   UNL     1       5.859  -4.107   5.679  1.00  0.00     0.029 A 
ATOM     22  C   UNL     1       6.246  -3.560   6.977  1.00  0.00     0.049 A 
ATOM     23  H   UNL     1       5.979  -1.609   7.658  1.00  0.00     0.167 HD
ATOM     24  C   UNL     1       5.483   2.558   8.912  1.00  0.00     0.037 A 
ATOM     25  C   UNL     1       6.852  -4.247   7.966  1.00  0.00     0.037 A 
ATOM     26  C   UNL     1       6.083   1.894  10.039  1.00  0.00     0.049 A 
ATOM     27  C   UNL     1       7.188  -3.544   9.254  1.00  0.00     0.074 A 
ATOM     28  C   UNL     1       6.389   2.418  11.282  1.00  0.00     0.029 A 
ATOM     29  N   UNL     1       6.454   0.558  10.063  1.00  0.00    -0.354 N 
ATOM     30  N   UNL     1       6.978  -2.293   9.588  1.00  0.00    -0.248 NA
ATOM     31  C   UNL     1       7.843  -4.343  10.299  1.00  0.00     0.031 C 
ATOM     32  C   UNL     1       6.974   1.406  12.050  1.00  0.00     0.029 A 
ATOM     33  C   UNL     1       6.998   0.242  11.297  1.00  0.00     0.049 A 
ATOM     34  H   UNL     1       6.347  -0.073   9.315  1.00  0.00     0.167 HD
ATOM     35  C   UNL     1       7.459  -2.160  10.886  1.00  0.00     0.074 A 
ATOM     36  C   UNL     1       7.959  -3.460  11.282  1.00  0.00     0.031 C 
ATOM     37  C   UNL     1       7.486  -1.059  11.676  1.00  0.00     0.037 A 
BRANCH  24  38
ATOM     38  C   UNL     1       5.167   4.022   9.037  1.00  0.00     0.058 A 
ATOM     39  C   UNL     1       3.847   4.477   9.176  1.00  0.00     0.135 A 
ATOM     40  C   UNL     1       6.197   4.977   9.061  1.00  0.00     0.135 A 
ATOM     41  F   UNL     1       2.825   3.608   9.141  1.00  0.00    -0.206 F 
ATOM     42  C   UNL     1       3.555   5.830   9.314  1.00  0.00     0.059 A 
ATOM     43  C   UNL     1       5.930   6.333   9.223  1.00  0.00     0.059 A 
ATOM     44  F   UNL     1       7.476   4.595   8.928  1.00  0.00    -0.206 F 
ATOM     45  C   UNL     1       4.604   6.750   9.338  1.00  0.00     0.060 A 
BRANCH  45  46
ATOM     46  S   UNL     1       4.207   8.501   9.533  1.00  0.00     0.124 S 
ATOM     47  O   UNL     1       3.642   8.818   8.225  1.00  0.00    -0.237 OA
ATOM     48  O   UNL     1       3.262   8.484  10.645  1.00  0.00    -0.237 OA
ATOM     49  O   UNL     1       5.500   9.113   9.821  1.00  0.00    -0.744 OA
ENDBRANCH  45  46
ENDBRANCH  24  38
BRANCH  25  50
ATOM     50  C   UNL     1       7.158  -5.691   7.785  1.00  0.00     0.058 A 
ATOM     51  C   UNL     1       6.421  -6.670   8.467  1.00  0.00     0.135 A 
ATOM     52  C   UNL     1       8.172  -6.120   6.917  1.00  0.00     0.135 A 
ATOM     53  F   UNL     1       5.447  -6.308   9.315  1.00  0.00    -0.206 F 
ATOM     54  C   UNL     1       6.682  -8.026   8.299  1.00  0.00     0.059 A 
ATOM     55  C   UNL     1       8.439  -7.472   6.717  1.00  0.00     0.059 A 
ATOM     56  F   UNL     1       8.897  -5.222   6.233  1.00  0.00    -0.206 F 
ATOM     57  C   UNL     1       7.691  -8.418   7.418  1.00  0.00     0.060 A 
BRANCH  57  58
ATOM     58  S   UNL     1       7.980 -10.182   7.163  1.00  0.00     0.124 S 
ATOM     59  O   UNL     1       8.622 -10.559   8.416  1.00  0.00    -0.237 OA
ATOM     60  O   UNL     1       6.626 -10.688   6.961  1.00  0.00    -0.237 OA
ATOM     61  O   UNL     1       8.835 -10.214   5.980  1.00  0.00    -0.744 OA
ENDBRANCH  57  58
ENDBRANCH  25  50
BRANCH  37  62
ATOM     62  C   UNL     1       8.061  -1.206  13.056  1.00  0.00     0.058 A 
ATOM     63  C   UNL     1       9.445  -1.289  13.265  1.00  0.00     0.135 A 
ATOM     64  C   UNL     1       7.224  -1.179  14.183  1.00  0.00     0.135 A 
ATOM     65  F   UNL     1      10.286  -1.324  12.219  1.00  0.00    -0.206 F 
ATOM     66  C   UNL     1       9.982  -1.349  14.547  1.00  0.00     0.059 A 
ATOM     67  C   UNL     1       7.740  -1.216  15.475  1.00  0.00     0.059 A 
ATOM     68  F   UNL     1       5.893  -1.091  14.035  1.00  0.00    -0.206 F 
ATOM     69  C   UNL     1       9.121  -1.306  15.646  1.00  0.00     0.060 A 
BRANCH  69  70
ATOM     70  S   UNL     1       9.836  -1.329  17.304  1.00  0.00     0.124 S 
ATOM     71  O   UNL     1      10.260  -2.720  17.422  1.00  0.00    -0.237 OA
ATOM     72  O   UNL     1      10.910  -0.346  17.195  1.00  0.00    -0.237 OA
ATOM     73  O   UNL     1       8.721  -0.937  18.160  1.00  0.00    -0.744 OA
ENDBRANCH  69  70
ENDBRANCH  37  62
ENDBRANCH  11  12
ENDBRANCH   4   6
ENDBRANCH   1   2
BRANCH   1  74
ATOM     74  C   UNL     1       5.084  -1.233  -2.302  1.00  0.00     0.023 C 
BRANCH  74  75
ATOM     75  C   UNL     1       4.601  -0.924  -3.718  1.00  0.00     0.023 C 
BRANCH  75  76
ATOM     76  C   UNL     1       4.978   0.450  -4.260  1.00  0.00     0.116 C 
BRANCH  76  77
ATOM     77  N   UNL     1       6.416   0.678  -4.291  1.00  0.00    -0.352 N 
ATOM     78  C   UNL     1       7.213   1.097  -5.327  1.00  0.00     0.252 C 
ATOM     79  H   UNL     1       6.887   0.506  -3.443  1.00  0.00     0.163 HD
ATOM     80  O   UNL     1       8.428   1.201  -5.177  1.00  0.00    -0.269 OA
BRANCH  78  81
ATOM     81  C   UNL     1       6.603   1.444  -6.626  1.00  0.00     0.051 A 
ATOM     82  C   UNL     1       5.606   2.416  -6.621  1.00  0.00     0.045 A 
ATOM     83  C   UNL     1       7.001   0.820  -7.826  1.00  0.00     0.016 A 
ATOM     84  C   UNL     1       4.933   2.678  -7.800  1.00  0.00     0.090 A 
ATOM     85  C   UNL     1       6.284   1.190  -8.983  1.00  0.00     0.072 A 
ATOM     86  C   UNL     1       8.041  -0.137  -7.934  1.00  0.00     0.050 A 
ATOM     87  N   UNL     1       5.275   2.078  -8.967  1.00  0.00    -0.246 NA
ATOM     88  C   UNL     1       6.626   0.603 -10.197  1.00  0.00     0.032 A 
ATOM     89  C   UNL     1       8.359  -0.693  -9.165  1.00  0.00     0.123 A 
ATOM     90  C   UNL     1       7.659  -0.332 -10.301  1.00  0.00     0.041 A 
ATOM     91  F   UNL     1       9.353  -1.586  -9.255  1.00  0.00    -0.207 F 
BRANCH  84  92
ATOM     92  C   UNL     1       3.759   3.568  -7.797  1.00  0.00     0.089 A 
ATOM     93  C   UNL     1       3.827   4.866  -7.287  1.00  0.00     0.030 A 
ATOM     94  N   UNL     1       2.582   3.010  -8.184  1.00  0.00    -0.255 NA
ATOM     95  C   UNL     1       2.656   5.608  -7.160  1.00  0.00     0.004 A 
ATOM     96  C   UNL     1       1.463   3.755  -8.056  1.00  0.00     0.112 A 
ATOM     97  C   UNL     1       1.448   5.042  -7.547  1.00  0.00     0.020 A 
ENDBRANCH  84  92
ENDBRANCH  78  81
ENDBRANCH  76  77
ENDBRANCH  75  76
ENDBRANCH  74  75
ENDBRANCH   1  74
TORSDOF 15
