REMARK SMILES C[C@H](CN(C)C(=O)c1ccc(F)c(F)c1F)C(=O)NCCCCNC(=O)c1ccc(-c2c3nc(c(-c4c(F)cc(S(=O)(=O)[O-])cc4F)c4ccc([nH]4)c(-c4c(F)cc(S(=O)(=O)[O-])cc4F)c4nc(c(-c5c(F)cc(S(=O)(=O)[O-])cc5F)c5ccc2[nH]5)C=C4)C=C3)cc1
REMARK SMILES IDX 21 1 20 2 19 3 17 4 18 5 2 7 1 8 3 9 4 10 5 11 6 12 7 13
REMARK SMILES IDX 8 14 9 15 15 16 10 17 13 18 16 19 11 20 14 21 12 22 22 23
REMARK SMILES IDX 23 24 24 25 25 26 26 28 27 29 28 30 92 31 29 32 91 33 30 34
REMARK SMILES IDX 31 35 32 36 85 37 33 38 90 39 84 40 86 41 34 42 89 43 83 44
REMARK SMILES IDX 82 45 35 47 69 48 48 49 68 50 49 51 52 52 67 53 87 54 50 55
REMARK SMILES IDX 51 56 66 58 88 59 53 60 36 61 37 62 46 63 38 64 39 65 45 66
REMARK SMILES IDX 47 67 40 68 41 69 42 70 43 71 44 72 70 73 71 74 80 75 72 76
REMARK SMILES IDX 73 77 79 78 81 79 74 80 75 81 76 82 77 83 78 84 54 85 55 86
REMARK SMILES IDX 64 87 56 88 57 89 63 90 65 91 58 92 59 93 60 94 61 95 62 96
REMARK H PARENT 19 6 24 27 86 46 52 57
REMARK Flexibility Score: inf
ROOT
ATOM      1  C   UNL     1      -2.174   1.883  -0.248  1.00  0.00     0.023 C 
ENDROOT
BRANCH   1   2
ATOM      2  C   UNL     1      -1.815   1.362   1.143  1.00  0.00     0.116 C 
BRANCH   2   3
ATOM      3  N   UNL     1      -1.772  -0.086   1.162  1.00  0.00    -0.356 N 
ATOM      4  C   UNL     1      -0.707  -0.930   1.211  1.00  0.00     0.224 C 
ATOM      5  O   UNL     1      -0.932  -2.142   1.142  1.00  0.00    -0.275 OA
ATOM      6  H   UNL     1      -2.652  -0.528   1.137  1.00  0.00     0.163 HD
BRANCH   4   7
ATOM      7  C   UNL     1       0.728  -0.428   1.378  1.00  0.00     0.095 C 
ATOM      8  C   UNL     1       0.928   0.254   2.733  1.00  0.00     0.020 C 
BRANCH   7   9
ATOM      9  C   UNL     1       1.267   0.252   0.096  1.00  0.00     0.132 C 
BRANCH   9  10
ATOM     10  N   UNL     1       1.692   1.655   0.216  1.00  0.00    -0.341 N 
ATOM     11  C   UNL     1       2.999   1.920   0.803  1.00  0.00     0.147 C 
BRANCH  10  12
ATOM     12  C   UNL     1       1.113   2.605  -0.625  1.00  0.00     0.256 C 
ATOM     13  O   UNL     1       0.579   2.310  -1.692  1.00  0.00    -0.269 OA
BRANCH  12  14
ATOM     14  C   UNL     1       1.060   4.031  -0.206  1.00  0.00     0.079 A 
ATOM     15  C   UNL     1       1.085   5.023  -1.199  1.00  0.00     0.020 A 
ATOM     16  C   UNL     1       0.802   4.405   1.116  1.00  0.00     0.174 A 
ATOM     17  C   UNL     1       0.901   6.367  -0.857  1.00  0.00     0.043 A 
ATOM     18  C   UNL     1       0.624   5.741   1.454  1.00  0.00     0.195 A 
ATOM     19  F   UNL     1       0.675   3.488   2.085  1.00  0.00    -0.203 F 
ATOM     20  C   UNL     1       0.682   6.718   0.472  1.00  0.00     0.161 A 
ATOM     21  F   UNL     1       0.387   6.076   2.730  1.00  0.00    -0.200 F 
ATOM     22  F   UNL     1       0.527   8.008   0.797  1.00  0.00    -0.204 F 
ENDBRANCH  12  14
ENDBRANCH  10  12
ENDBRANCH   9  10
ENDBRANCH   7   9
ENDBRANCH   4   7
ENDBRANCH   2   3
ENDBRANCH   1   2
BRANCH   1  23
ATOM     23  C   UNL     1      -3.615   2.353  -0.414  1.00  0.00     0.023 C 
BRANCH  23  24
ATOM     24  C   UNL     1      -3.985   3.587   0.407  1.00  0.00     0.116 C 
BRANCH  24  25
ATOM     25  N   UNL     1      -3.139   4.752   0.169  1.00  0.00    -0.352 N 
ATOM     26  C   UNL     1      -3.466   6.091   0.227  1.00  0.00     0.251 C 
ATOM     27  H   UNL     1      -2.204   4.554  -0.066  1.00  0.00     0.163 HD
ATOM     28  O   UNL     1      -2.626   6.937  -0.041  1.00  0.00    -0.269 OA
BRANCH  26  29
ATOM     29  C   UNL     1      -4.864   6.478   0.525  1.00  0.00     0.039 A 
ATOM     30  C   UNL     1      -5.504   7.371  -0.338  1.00  0.00     0.014 A 
ATOM     31  C   UNL     1      -5.573   5.866   1.559  1.00  0.00     0.014 A 
ATOM     32  C   UNL     1      -6.888   7.538  -0.251  1.00  0.00     0.010 A 
ATOM     33  C   UNL     1      -6.960   5.960   1.584  1.00  0.00     0.010 A 
ATOM     34  C   UNL     1      -7.634   6.769   0.657  1.00  0.00    -0.014 A 
BRANCH  34  35
ATOM     35  C   UNL     1      -9.119   6.736   0.604  1.00  0.00     0.031 A 
ATOM     36  C   UNL     1      -9.932   7.154   1.796  1.00  0.00     0.074 A 
ATOM     37  C   UNL     1      -9.727   6.224  -0.487  1.00  0.00     0.049 A 
ATOM     38  N   UNL     1     -11.226   7.094   1.974  1.00  0.00    -0.248 NA
ATOM     39  C   UNL     1      -9.188   7.668   2.958  1.00  0.00     0.031 C 
ATOM     40  C   UNL     1      -9.044   5.705  -1.676  1.00  0.00     0.029 A 
ATOM     41  N   UNL     1     -11.058   6.044  -0.771  1.00  0.00    -0.354 N 
ATOM     42  C   UNL     1     -11.449   7.530   3.274  1.00  0.00     0.074 A 
ATOM     43  C   UNL     1     -10.153   7.810   3.854  1.00  0.00     0.031 C 
ATOM     44  C   UNL     1      -9.958   5.303  -2.573  1.00  0.00     0.029 A 
ATOM     45  C   UNL     1     -11.290   5.499  -2.013  1.00  0.00     0.049 A 
ATOM     46  H   UNL     1     -11.779   6.282  -0.145  1.00  0.00     0.167 HD
ATOM     47  C   UNL     1     -12.628   7.703   3.918  1.00  0.00     0.037 A 
ATOM     48  C   UNL     1     -12.447   5.195  -2.633  1.00  0.00     0.037 A 
ATOM     49  C   UNL     1     -13.914   7.473   3.317  1.00  0.00     0.049 A 
ATOM     50  C   UNL     1     -13.745   5.463  -1.924  1.00  0.00     0.074 A 
ATOM     51  C   UNL     1     -15.170   7.690   3.856  1.00  0.00     0.029 A 
ATOM     52  N   UNL     1     -14.109   6.983   2.033  1.00  0.00    -0.354 N 
ATOM     53  N   UNL     1     -13.939   5.938  -0.717  1.00  0.00    -0.248 NA
ATOM     54  C   UNL     1     -14.980   5.160  -2.659  1.00  0.00     0.031 C 
ATOM     55  C   UNL     1     -16.125   7.313   2.905  1.00  0.00     0.029 A 
ATOM     56  C   UNL     1     -15.464   6.888   1.764  1.00  0.00     0.049 A 
ATOM     57  H   UNL     1     -13.390   6.739   1.407  1.00  0.00     0.167 HD
ATOM     58  C   UNL     1     -15.317   6.011  -0.556  1.00  0.00     0.074 A 
ATOM     59  C   UNL     1     -15.908   5.541  -1.792  1.00  0.00     0.031 C 
ATOM     60  C   UNL     1     -16.029   6.429   0.520  1.00  0.00     0.037 A 
BRANCH  47  61
ATOM     61  C   UNL     1     -12.571   8.178   5.342  1.00  0.00     0.058 A 
ATOM     62  C   UNL     1     -12.199   9.493   5.663  1.00  0.00     0.135 A 
ATOM     63  C   UNL     1     -12.888   7.310   6.399  1.00  0.00     0.135 A 
ATOM     64  F   UNL     1     -11.870  10.358   4.690  1.00  0.00    -0.206 F 
ATOM     65  C   UNL     1     -12.103   9.921   6.982  1.00  0.00     0.059 A 
ATOM     66  C   UNL     1     -12.823   7.724   7.727  1.00  0.00     0.059 A 
ATOM     67  F   UNL     1     -13.250   6.042   6.149  1.00  0.00    -0.206 F 
ATOM     68  C   UNL     1     -12.409   9.026   8.008  1.00  0.00     0.060 A 
BRANCH  68  69
ATOM     69  S   UNL     1     -12.259   9.585   9.718  1.00  0.00     0.124 S 
ATOM     70  O   UNL     1     -10.815   9.516   9.919  1.00  0.00    -0.237 OA
ATOM     71  O   UNL     1     -12.826  10.929   9.663  1.00  0.00    -0.237 OA
ATOM     72  O   UNL     1     -13.045   8.607  10.464  1.00  0.00    -0.744 OA
ENDBRANCH  68  69
ENDBRANCH  47  61
BRANCH  48  73
ATOM     73  C   UNL     1     -12.431   4.652  -4.016  1.00  0.00     0.058 A 
ATOM     74  C   UNL     1     -12.801   5.458  -5.103  1.00  0.00     0.135 A 
ATOM     75  C   UNL     1     -12.029   3.335  -4.284  1.00  0.00     0.135 A 
ATOM     76  F   UNL     1     -13.195   6.723  -4.895  1.00  0.00    -0.206 F 
ATOM     77  C   UNL     1     -12.788   4.975  -6.407  1.00  0.00     0.059 A 
ATOM     78  C   UNL     1     -11.989   2.834  -5.583  1.00  0.00     0.059 A 
ATOM     79  F   UNL     1     -11.647   2.531  -3.280  1.00  0.00    -0.206 F 
ATOM     80  C   UNL     1     -12.380   3.660  -6.637  1.00  0.00     0.060 A 
BRANCH  80  81
ATOM     81  S   UNL     1     -12.317   3.056  -8.339  1.00  0.00     0.124 S 
ATOM     82  O   UNL     1     -13.728   2.812  -8.615  1.00  0.00    -0.237 OA
ATOM     83  O   UNL     1     -11.714   4.182  -9.045  1.00  0.00    -0.237 OA
ATOM     84  O   UNL     1     -11.476   1.867  -8.239  1.00  0.00    -0.744 OA
ENDBRANCH  80  81
ENDBRANCH  48  73
BRANCH  60  85
ATOM     85  C   UNL     1     -17.524   6.425   0.396  1.00  0.00     0.058 A 
ATOM     86  C   UNL     1     -18.263   5.237   0.487  1.00  0.00     0.135 A 
ATOM     87  C   UNL     1     -18.226   7.630   0.239  1.00  0.00     0.135 A 
ATOM     88  F   UNL     1     -17.634   4.059   0.629  1.00  0.00    -0.206 F 
ATOM     89  C   UNL     1     -19.652   5.241   0.415  1.00  0.00     0.059 A 
ATOM     90  C   UNL     1     -19.615   7.660   0.184  1.00  0.00     0.059 A 
ATOM     91  F   UNL     1     -17.562   8.794   0.154  1.00  0.00    -0.206 F 
ATOM     92  C   UNL     1     -20.319   6.458   0.264  1.00  0.00     0.060 A 
BRANCH  92  93
ATOM     93  S   UNL     1     -22.124   6.460   0.216  1.00  0.00     0.124 S 
ATOM     94  O   UNL     1     -22.381   6.031  -1.154  1.00  0.00    -0.237 OA
ATOM     95  O   UNL     1     -22.468   5.497   1.258  1.00  0.00    -0.237 OA
ATOM     96  O   UNL     1     -22.468   7.847   0.517  1.00  0.00    -0.744 OA
ENDBRANCH  92  93
ENDBRANCH  60  85
ENDBRANCH  34  35
ENDBRANCH  26  29
ENDBRANCH  24  25
ENDBRANCH  23  24
ENDBRANCH   1  23
TORSDOF 18
