REMARK SMILES COc1cc(/C=C2/CCc3cc(OC(C)(C)C(=O)NCCCCNC(=O)c4ccc(-c5c6nc(c(-c7c(F)cc(S(=O)(=O)[O-])cc7F)c7ccc([nH]7)c(-c7c(F)cc(S(=O)(=O)[O-])cc7F)c7nc(c(-c8c(F)cc(S(=O)(=O)[O-])cc8F)c8ccc5[nH]8)C=C7)C=C6)cc4)ccc3C2=O)cc(OC)c1O
REMARK SMILES IDX 21 1 20 2 19 3 17 4 18 5 14 7 15 8 16 9 13 10 12 11 6 12
REMARK SMILES IDX 7 13 8 14 96 15 9 16 95 17 97 18 10 19 94 20 11 21 93 22
REMARK SMILES IDX 5 23 3 24 4 25 102 26 99 27 98 28 2 29 1 30 103 31 100 33
REMARK SMILES IDX 101 34 22 35 23 36 24 37 25 38 26 40 27 41 28 42 92 43 29 44
REMARK SMILES IDX 91 45 30 46 31 47 32 48 85 49 33 50 90 51 84 52 86 53 34 54
REMARK SMILES IDX 89 55 83 56 82 57 35 59 69 60 48 61 68 62 49 63 52 64 67 65
REMARK SMILES IDX 87 66 50 67 51 68 66 70 88 71 53 72 36 73 37 74 46 75 38 76
REMARK SMILES IDX 39 77 45 78 47 79 40 80 41 81 42 82 43 83 44 84 70 85 71 86
REMARK SMILES IDX 80 87 72 88 73 89 79 90 81 91 74 92 75 93 76 94 77 95 78 96
REMARK SMILES IDX 54 97 55 98 64 99 56 100 57 101 63 102 65 103 58 104 59 105
REMARK SMILES IDX 60 106 61 107 62 108
REMARK H PARENT 19 6 103 32 24 39 86 58 52 69
REMARK Flexibility Score: inf
ROOT
ATOM      1  C   UNL     1      -2.224   0.000  15.090  1.00  0.00     0.023 C 
ENDROOT
BRANCH   1   2
ATOM      2  C   UNL     1      -1.513  -0.767  13.977  1.00  0.00     0.116 C 
BRANCH   2   3
ATOM      3  N   UNL     1      -2.348  -1.798  13.380  1.00  0.00    -0.353 N 
ATOM      4  C   UNL     1      -3.026  -1.837  12.186  1.00  0.00     0.263 C 
ATOM      5  O   UNL     1      -3.617  -2.890  11.928  1.00  0.00    -0.270 OA
ATOM      6  H   UNL     1      -2.445  -2.610  13.929  1.00  0.00     0.163 HD
BRANCH   4   7
ATOM      7  C   UNL     1      -3.025  -0.620  11.203  1.00  0.00     0.181 C 
ATOM      8  C   UNL     1      -1.590  -0.492  10.639  1.00  0.00     0.067 C 
ATOM      9  C   UNL     1      -3.549   0.615  11.955  1.00  0.00     0.067 C 
BRANCH   7  10
ATOM     10  O   UNL     1      -4.005  -0.928  10.167  1.00  0.00    -0.478 OA
BRANCH  10  11
ATOM     11  C   UNL     1      -3.810  -0.430   8.907  1.00  0.00     0.121 A 
ATOM     12  C   UNL     1      -0.300   1.353   4.359  1.00  0.00     0.016 C 
ATOM     13  C   UNL     1      -1.413   1.589   5.079  1.00  0.00     0.001 C 
ATOM     14  C   UNL     1      -1.441   2.682   6.120  1.00  0.00     0.044 C 
ATOM     15  C   UNL     1      -2.618   0.699   4.994  1.00  0.00     0.189 C 
ATOM     16  C   UNL     1      -2.691   2.681   7.007  1.00  0.00     0.041 C 
ATOM     17  C   UNL     1      -3.173   0.328   6.313  1.00  0.00     0.026 A 
ATOM     18  O   UNL     1      -3.093   0.286   3.948  1.00  0.00    -0.289 OA
ATOM     19  C   UNL     1      -3.115   1.278   7.339  1.00  0.00    -0.033 A 
ATOM     20  C   UNL     1      -3.634  -0.967   6.550  1.00  0.00     0.016 A 
ATOM     21  C   UNL     1      -3.466   0.897   8.636  1.00  0.00     0.051 A 
ATOM     22  C   UNL     1      -3.952  -1.343   7.858  1.00  0.00     0.047 A 
BRANCH  12  23
ATOM     23  C   UNL     1      -0.030   0.228   3.452  1.00  0.00    -0.018 A 
ATOM     24  C   UNL     1       0.869  -0.577   1.366  1.00  0.00     0.165 A 
ATOM     25  C   UNL     1       0.563   0.485   2.215  1.00  0.00     0.058 A 
ATOM     26  C   UNL     1       0.628  -1.902   1.744  1.00  0.00     0.200 A 
ATOM     27  C   UNL     1       0.025  -2.172   2.971  1.00  0.00     0.165 A 
ATOM     28  C   UNL     1      -0.266  -1.104   3.831  1.00  0.00     0.058 A 
BRANCH  24  29
ATOM     29  O   UNL     1       1.475  -0.324   0.161  1.00  0.00    -0.493 OA
ATOM     30  C   UNL     1       0.487  -0.028  -0.834  1.00  0.00     0.278 C 
ENDBRANCH  24  29
BRANCH  26  31
ATOM     31  O   UNL     1       1.032  -2.903   0.902  1.00  0.00    -0.502 OA
ATOM     32  H   UNL     1       1.434  -2.692   0.083  1.00  0.00     0.293 HD
ENDBRANCH  26  31
BRANCH  27  33
ATOM     33  O   UNL     1      -0.276  -3.408   3.478  1.00  0.00    -0.493 OA
ATOM     34  C   UNL     1      -0.729  -4.361   2.521  1.00  0.00     0.278 C 
ENDBRANCH  27  33
ENDBRANCH  12  23
ENDBRANCH  10  11
ENDBRANCH   7  10
ENDBRANCH   4   7
ENDBRANCH   2   3
ENDBRANCH   1   2
BRANCH   1  35
ATOM     35  C   UNL     1      -2.191  -0.671  16.463  1.00  0.00     0.023 C 
BRANCH  35  36
ATOM     36  C   UNL     1      -0.800  -0.940  17.036  1.00  0.00     0.116 C 
BRANCH  36  37
ATOM     37  N   UNL     1       0.052   0.241  17.085  1.00  0.00    -0.352 N 
ATOM     38  C   UNL     1       1.063   0.520  17.976  1.00  0.00     0.251 C 
ATOM     39  H   UNL     1      -0.116   0.923  16.396  1.00  0.00     0.163 HD
ATOM     40  O   UNL     1       1.654   1.593  17.933  1.00  0.00    -0.269 OA
BRANCH  38  41
ATOM     41  C   UNL     1       1.389  -0.475  19.016  1.00  0.00     0.039 A 
ATOM     42  C   UNL     1       1.282  -0.100  20.358  1.00  0.00     0.014 A 
ATOM     43  C   UNL     1       1.723  -1.785  18.662  1.00  0.00     0.014 A 
ATOM     44  C   UNL     1       1.417  -1.069  21.354  1.00  0.00     0.010 A 
ATOM     45  C   UNL     1       1.830  -2.754  19.655  1.00  0.00     0.010 A 
ATOM     46  C   UNL     1       1.646  -2.408  21.003  1.00  0.00    -0.014 A 
BRANCH  46  47
ATOM     47  C   UNL     1       1.626  -3.486  22.017  1.00  0.00     0.031 A 
ATOM     48  C   UNL     1       2.889  -4.200  22.384  1.00  0.00     0.074 A 
ATOM     49  C   UNL     1       0.446  -3.890  22.524  1.00  0.00     0.049 A 
ATOM     50  N   UNL     1       3.038  -5.311  23.055  1.00  0.00    -0.248 NA
ATOM     51  C   UNL     1       4.144  -3.599  21.912  1.00  0.00     0.031 C 
ATOM     52  C   UNL     1      -0.856  -3.291  22.225  1.00  0.00     0.029 A 
ATOM     53  N   UNL     1       0.152  -4.919  23.381  1.00  0.00    -0.354 N 
ATOM     54  C   UNL     1       4.398  -5.581  23.034  1.00  0.00     0.074 A 
ATOM     55  C   UNL     1       5.035  -4.493  22.318  1.00  0.00     0.031 C 
ATOM     56  C   UNL     1      -1.810  -3.961  22.891  1.00  0.00     0.029 A 
ATOM     57  C   UNL     1      -1.191  -5.054  23.635  1.00  0.00     0.049 A 
ATOM     58  H   UNL     1       0.837  -5.505  23.776  1.00  0.00     0.167 HD
ATOM     59  C   UNL     1       5.051  -6.654  23.541  1.00  0.00     0.037 A 
ATOM     60  C   UNL     1      -1.851  -5.968  24.369  1.00  0.00     0.037 A 
ATOM     61  C   UNL     1       4.423  -7.717  24.277  1.00  0.00     0.049 A 
ATOM     62  C   UNL     1      -1.089  -7.072  25.037  1.00  0.00     0.074 A 
ATOM     63  C   UNL     1       4.989  -8.871  24.789  1.00  0.00     0.029 A 
ATOM     64  N   UNL     1       3.082  -7.739  24.630  1.00  0.00    -0.354 N 
ATOM     65  N   UNL     1       0.190  -7.349  24.955  1.00  0.00    -0.248 NA
ATOM     66  C   UNL     1      -1.855  -7.987  25.893  1.00  0.00     0.031 C 
ATOM     67  C   UNL     1       3.990  -9.584  25.469  1.00  0.00     0.029 A 
ATOM     68  C   UNL     1       2.806  -8.869  25.380  1.00  0.00     0.049 A 
ATOM     69  H   UNL     1       2.422  -7.051  24.384  1.00  0.00     0.167 HD
ATOM     70  C   UNL     1       0.381  -8.481  25.736  1.00  0.00     0.074 A 
ATOM     71  C   UNL     1      -0.909  -8.824  26.301  1.00  0.00     0.031 C 
ATOM     72  C   UNL     1       1.521  -9.182  25.949  1.00  0.00     0.037 A 
BRANCH  59  73
ATOM     73  C   UNL     1       6.519  -6.730  23.262  1.00  0.00     0.058 A 
ATOM     74  C   UNL     1       7.453  -6.076  24.080  1.00  0.00     0.135 A 
ATOM     75  C   UNL     1       6.990  -7.423  22.136  1.00  0.00     0.135 A 
ATOM     76  F   UNL     1       7.043  -5.382  25.153  1.00  0.00    -0.206 F 
ATOM     77  C   UNL     1       8.810  -6.082  23.772  1.00  0.00     0.059 A 
ATOM     78  C   UNL     1       8.342  -7.447  21.813  1.00  0.00     0.059 A 
ATOM     79  F   UNL     1       6.129  -8.051  21.319  1.00  0.00    -0.206 F 
ATOM     80  C   UNL     1       9.241  -6.755  22.627  1.00  0.00     0.060 A 
BRANCH  80  81
ATOM     81  S   UNL     1      10.990  -6.730  22.174  1.00  0.00     0.124 S 
ATOM     82  O   UNL     1      11.027  -5.613  21.235  1.00  0.00    -0.237 OA
ATOM     83  O   UNL     1      11.659  -6.502  23.451  1.00  0.00    -0.237 OA
ATOM     84  O   UNL     1      11.193  -8.053  21.592  1.00  0.00    -0.744 OA
ENDBRANCH  80  81
ENDBRANCH  59  73
BRANCH  60  85
ATOM     85  C   UNL     1      -3.322  -5.866  24.497  1.00  0.00     0.058 A 
ATOM     86  C   UNL     1      -3.896  -5.181  25.578  1.00  0.00     0.135 A 
ATOM     87  C   UNL     1      -4.173  -6.384  23.511  1.00  0.00     0.135 A 
ATOM     88  F   UNL     1      -3.113  -4.668  26.540  1.00  0.00    -0.206 F 
ATOM     89  C   UNL     1      -5.271  -5.004  25.675  1.00  0.00     0.059 A 
ATOM     90  C   UNL     1      -5.551  -6.214  23.584  1.00  0.00     0.059 A 
ATOM     91  F   UNL     1      -3.661  -7.032  22.453  1.00  0.00    -0.206 F 
ATOM     92  C   UNL     1      -6.091  -5.521  24.670  1.00  0.00     0.060 A 
BRANCH  92  93
ATOM     93  S   UNL     1      -7.871  -5.213  24.727  1.00  0.00     0.124 S 
ATOM     94  O   UNL     1      -8.353  -6.409  25.406  1.00  0.00    -0.237 OA
ATOM     95  O   UNL     1      -7.960  -3.969  25.487  1.00  0.00    -0.237 OA
ATOM     96  O   UNL     1      -8.219  -5.096  23.314  1.00  0.00    -0.744 OA
ENDBRANCH  92  93
ENDBRANCH  60  85
BRANCH  72  97
ATOM     97  C   UNL     1       1.421 -10.382  26.838  1.00  0.00     0.058 A 
ATOM     98  C   UNL     1       1.107 -11.644  26.312  1.00  0.00     0.135 A 
ATOM     99  C   UNL     1       1.668 -10.277  28.214  1.00  0.00     0.135 A 
ATOM    100  F   UNL     1       0.860 -11.786  25.001  1.00  0.00    -0.206 F 
ATOM    101  C   UNL     1       1.038 -12.769  27.127  1.00  0.00     0.059 A 
ATOM    102  C   UNL     1       1.605 -11.390  29.047  1.00  0.00     0.059 A 
ATOM    103  F   UNL     1       1.965  -9.087  28.759  1.00  0.00    -0.206 F 
ATOM    104  C   UNL     1       1.282 -12.631  28.494  1.00  0.00     0.060 A 
BRANCH 104 105
ATOM    105  S   UNL     1       1.223 -14.091  29.556  1.00  0.00     0.124 S 
ATOM    106  O   UNL     1      -0.188 -14.129  29.924  1.00  0.00    -0.237 OA
ATOM    107  O   UNL     1       1.675 -15.158  28.666  1.00  0.00    -0.237 OA
ATOM    108  O   UNL     1       2.149 -13.753  30.633  1.00  0.00    -0.744 OA
ENDBRANCH 104 105
ENDBRANCH  72  97
ENDBRANCH  46  47
ENDBRANCH  38  41
ENDBRANCH  36  37
ENDBRANCH  35  36
ENDBRANCH   1  35
TORSDOF 20
