REMARK SMILES Cc1nsc(NC(=O)c2ccc(N)cc2)c1C(=O)NCCCCNC(=O)c1ccc(-c2c3nc(c(-c4c(F)cc(S(=O)(=O)[O-])cc4F)c4ccc([nH]4)c(-c4c(F)cc(S(=O)(=O)[O-])cc4F)c4nc(c(-c5c(F)cc(S(=O)(=O)[O-])cc5F)c5ccc2[nH]5)C=C4)C=C3)cc1
REMARK SMILES IDX 21 1 20 2 19 3 17 4 18 5 16 7 1 8 2 9 3 10 4 11 5 12 6 13
REMARK SMILES IDX 7 14 8 16 9 17 10 18 15 19 11 20 14 21 12 22 13 23 22 26
REMARK SMILES IDX 23 27 24 28 25 29 26 31 27 32 28 33 92 34 29 35 91 36 30 37
REMARK SMILES IDX 31 38 32 39 85 40 33 41 90 42 84 43 86 44 34 45 89 46 83 47
REMARK SMILES IDX 82 48 35 50 69 51 48 52 68 53 49 54 52 55 67 56 87 57 50 58
REMARK SMILES IDX 51 59 66 61 88 62 53 63 36 64 37 65 46 66 38 67 39 68 45 69
REMARK SMILES IDX 47 70 40 71 41 72 42 73 43 74 44 75 70 76 71 77 80 78 72 79
REMARK SMILES IDX 73 80 79 81 81 82 74 83 75 84 76 85 77 86 78 87 54 88 55 89
REMARK SMILES IDX 64 90 56 91 57 92 63 93 65 94 58 95 59 96 60 97 61 98 62 99
REMARK H PARENT 19 6 6 15 13 24 13 25 24 30 86 49 52 60
REMARK Flexibility Score: inf
ROOT
ATOM      1  C   UNL     1       1.002   0.153  -3.034  1.00  0.00     0.023 C 
ENDROOT
BRANCH   1   2
ATOM      2  C   UNL     1       1.725   0.489  -1.735  1.00  0.00     0.116 C 
BRANCH   2   3
ATOM      3  N   UNL     1       2.101   1.863  -1.515  1.00  0.00    -0.352 N 
ATOM      4  C   UNL     1       1.800   2.740  -0.494  1.00  0.00     0.256 C 
ATOM      5  O   UNL     1       2.374   3.832  -0.551  1.00  0.00    -0.269 OA
ATOM      6  H   UNL     1       2.674   2.243  -2.219  1.00  0.00     0.163 HD
BRANCH   4   7
ATOM      7  C   UNL     1       0.764   2.502   0.526  1.00  0.00     0.097 A 
ATOM      8  C   UNL     1       0.766  -0.087   1.242  1.00  0.00     0.069 C 
ATOM      9  C   UNL     1       0.230   1.306   1.175  1.00  0.00     0.066 A 
ATOM     10  N   UNL     1      -0.913   1.471   1.845  1.00  0.00    -0.195 NA
ATOM     11  S   UNL     1      -1.272   3.070   1.897  1.00  0.00    -0.017 S 
ATOM     12  C   UNL     1       0.180   3.594   1.185  1.00  0.00     0.129 A 
BRANCH  12  13
ATOM     13  N   UNL     1       0.571   4.926   1.180  1.00  0.00    -0.312 N 
ATOM     14  C   UNL     1       0.200   5.983   1.990  1.00  0.00     0.256 C 
ATOM     15  H   UNL     1       1.223   5.158   0.480  1.00  0.00     0.171 HD
ATOM     16  O   UNL     1       0.487   7.139   1.677  1.00  0.00    -0.269 OA
BRANCH  14  17
ATOM     17  C   UNL     1      -0.514   5.780   3.270  1.00  0.00     0.040 A 
ATOM     18  C   UNL     1      -0.046   4.883   4.235  1.00  0.00     0.016 A 
ATOM     19  C   UNL     1      -1.703   6.481   3.486  1.00  0.00     0.016 A 
ATOM     20  C   UNL     1      -0.845   4.585   5.344  1.00  0.00     0.026 A 
ATOM     21  C   UNL     1      -2.482   6.191   4.609  1.00  0.00     0.026 A 
ATOM     22  C   UNL     1      -2.075   5.223   5.532  1.00  0.00     0.031 A 
BRANCH  22  23
ATOM     23  N   UNL     1      -2.914   4.841   6.563  1.00  0.00    -0.399 N 
ATOM     24  H   UNL     1      -2.620   4.159   7.209  1.00  0.00     0.156 HD
ATOM     25  H   UNL     1      -3.804   5.251   6.650  1.00  0.00     0.156 HD
ENDBRANCH  22  23
ENDBRANCH  14  17
ENDBRANCH  12  13
ENDBRANCH   4   7
ENDBRANCH   2   3
ENDBRANCH   1   2
BRANCH   1  26
ATOM     26  C   UNL     1       1.824   0.085  -4.318  1.00  0.00     0.023 C 
BRANCH  26  27
ATOM     27  C   UNL     1       3.084  -0.768  -4.251  1.00  0.00     0.116 C 
BRANCH  27  28
ATOM     28  N   UNL     1       2.833  -2.183  -3.986  1.00  0.00    -0.352 N 
ATOM     29  C   UNL     1       3.787  -3.182  -3.928  1.00  0.00     0.251 C 
ATOM     30  H   UNL     1       1.898  -2.449  -3.835  1.00  0.00     0.163 HD
ATOM     31  O   UNL     1       3.474  -4.360  -4.119  1.00  0.00    -0.269 OA
BRANCH  29  32
ATOM     32  C   UNL     1       5.184  -2.816  -3.628  1.00  0.00     0.039 A 
ATOM     33  C   UNL     1       6.246  -3.356  -4.354  1.00  0.00     0.014 A 
ATOM     34  C   UNL     1       5.416  -1.873  -2.624  1.00  0.00     0.014 A 
ATOM     35  C   UNL     1       7.530  -2.866  -4.123  1.00  0.00     0.010 A 
ATOM     36  C   UNL     1       6.664  -1.307  -2.478  1.00  0.00     0.010 A 
ATOM     37  C   UNL     1       7.733  -1.809  -3.210  1.00  0.00    -0.014 A 
BRANCH  37  38
ATOM     38  C   UNL     1       9.006  -1.079  -3.212  1.00  0.00     0.031 A 
ATOM     39  C   UNL     1       9.384  -0.642  -4.583  1.00  0.00     0.074 A 
ATOM     40  C   UNL     1       9.679  -0.658  -2.114  1.00  0.00     0.049 A 
ATOM     41  N   UNL     1      10.236  -1.215  -5.367  1.00  0.00    -0.248 NA
ATOM     42  C   UNL     1       8.569   0.384  -5.261  1.00  0.00     0.031 C 
ATOM     43  C   UNL     1       9.241  -0.760  -0.717  1.00  0.00     0.029 A 
ATOM     44  N   UNL     1      10.860   0.029  -1.999  1.00  0.00    -0.354 N 
ATOM     45  C   UNL     1      10.317  -0.383  -6.479  1.00  0.00     0.074 A 
ATOM     46  C   UNL     1       9.101   0.379  -6.489  1.00  0.00     0.031 C 
ATOM     47  C   UNL     1      10.005   0.037   0.065  1.00  0.00     0.029 A 
ATOM     48  C   UNL     1      11.095   0.573  -0.731  1.00  0.00     0.049 A 
ATOM     49  H   UNL     1      11.491   0.132  -2.748  1.00  0.00     0.167 HD
ATOM     50  C   UNL     1      11.541  -0.110  -7.014  1.00  0.00     0.037 A 
ATOM     51  C   UNL     1      12.120   1.381  -0.344  1.00  0.00     0.037 A 
ATOM     52  C   UNL     1      12.521  -1.035  -6.494  1.00  0.00     0.049 A 
ATOM     53  C   UNL     1      13.238   1.140  -1.283  1.00  0.00     0.074 A 
ATOM     54  C   UNL     1      12.817  -2.375  -6.610  1.00  0.00     0.029 A 
ATOM     55  N   UNL     1      13.106  -0.588  -5.340  1.00  0.00    -0.354 N 
ATOM     56  N   UNL     1      13.883   0.008  -1.345  1.00  0.00    -0.248 NA
ATOM     57  C   UNL     1      13.420   2.029  -2.424  1.00  0.00     0.031 C 
ATOM     58  C   UNL     1      13.511  -2.738  -5.415  1.00  0.00     0.029 A 
ATOM     59  C   UNL     1      13.683  -1.601  -4.631  1.00  0.00     0.049 A 
ATOM     60  H   UNL     1      13.110   0.354  -5.056  1.00  0.00     0.167 HD
ATOM     61  C   UNL     1      14.157  -0.147  -2.687  1.00  0.00     0.074 A 
ATOM     62  C   UNL     1      14.024   1.186  -3.265  1.00  0.00     0.031 C 
ATOM     63  C   UNL     1      14.104  -1.382  -3.265  1.00  0.00     0.037 A 
BRANCH  50  64
ATOM     64  C   UNL     1      11.990   1.265  -7.497  1.00  0.00     0.058 A 
ATOM     65  C   UNL     1      13.280   1.395  -8.060  1.00  0.00     0.135 A 
ATOM     66  C   UNL     1      11.365   2.484  -7.148  1.00  0.00     0.135 A 
ATOM     67  F   UNL     1      13.982   0.307  -8.416  1.00  0.00    -0.206 F 
ATOM     68  C   UNL     1      13.918   2.630  -8.207  1.00  0.00     0.059 A 
ATOM     69  C   UNL     1      11.964   3.726  -7.329  1.00  0.00     0.059 A 
ATOM     70  F   UNL     1      10.181   2.542  -6.531  1.00  0.00    -0.206 F 
ATOM     71  C   UNL     1      13.251   3.790  -7.831  1.00  0.00     0.060 A 
BRANCH  71  72
ATOM     72  S   UNL     1      14.075   5.384  -7.985  1.00  0.00     0.124 S 
ATOM     73  O   UNL     1      15.113   5.276  -6.967  1.00  0.00    -0.237 OA
ATOM     74  O   UNL     1      14.527   5.352  -9.372  1.00  0.00    -0.237 OA
ATOM     75  O   UNL     1      13.007   6.339  -7.704  1.00  0.00    -0.744 OA
ENDBRANCH  71  72
ENDBRANCH  50  64
BRANCH  51  76
ATOM     76  C   UNL     1      12.168   2.485   0.657  1.00  0.00     0.058 A 
ATOM     77  C   UNL     1      13.392   3.050   1.074  1.00  0.00     0.135 A 
ATOM     78  C   UNL     1      11.013   3.220   0.980  1.00  0.00     0.135 A 
ATOM     79  F   UNL     1      14.550   2.425   0.811  1.00  0.00    -0.206 F 
ATOM     80  C   UNL     1      13.470   4.302   1.700  1.00  0.00     0.059 A 
ATOM     81  C   UNL     1      11.065   4.468   1.608  1.00  0.00     0.059 A 
ATOM     82  F   UNL     1       9.799   2.788   0.606  1.00  0.00    -0.206 F 
ATOM     83  C   UNL     1      12.299   5.018   1.937  1.00  0.00     0.060 A 
BRANCH  83  84
ATOM     84  S   UNL     1      12.402   6.718   2.557  1.00  0.00     0.124 S 
ATOM     85  O   UNL     1      12.851   6.513   3.930  1.00  0.00    -0.237 OA
ATOM     86  O   UNL     1      13.375   7.321   1.653  1.00  0.00    -0.237 OA
ATOM     87  O   UNL     1      11.035   7.212   2.416  1.00  0.00    -0.744 OA
ENDBRANCH  83  84
ENDBRANCH  51  76
BRANCH  63  88
ATOM     88  C   UNL     1      14.408  -2.570  -2.404  1.00  0.00     0.058 A 
ATOM     89  C   UNL     1      13.641  -3.013  -1.314  1.00  0.00     0.135 A 
ATOM     90  C   UNL     1      15.537  -3.327  -2.751  1.00  0.00     0.135 A 
ATOM     91  F   UNL     1      12.501  -2.394  -0.972  1.00  0.00    -0.206 F 
ATOM     92  C   UNL     1      14.016  -4.135  -0.571  1.00  0.00     0.059 A 
ATOM     93  C   UNL     1      15.909  -4.465  -2.048  1.00  0.00     0.059 A 
ATOM     94  F   UNL     1      16.285  -2.976  -3.810  1.00  0.00    -0.206 F 
ATOM     95  C   UNL     1      15.155  -4.852  -0.945  1.00  0.00     0.060 A 
BRANCH  95  96
ATOM     96  S   UNL     1      15.632  -6.316  -0.004  1.00  0.00     0.124 S 
ATOM     97  O   UNL     1      16.056  -5.739   1.267  1.00  0.00    -0.237 OA
ATOM     98  O   UNL     1      14.392  -7.086   0.030  1.00  0.00    -0.237 OA
ATOM     99  O   UNL     1      16.700  -6.906  -0.808  1.00  0.00    -0.744 OA
ENDBRANCH  95  96
ENDBRANCH  63  88
ENDBRANCH  37  38
ENDBRANCH  29  32
ENDBRANCH  27  28
ENDBRANCH  26  27
ENDBRANCH   1  26
TORSDOF 17
