REMARK SMILES Cc1cc(C(=O)N[C@H]2C=C[C@H](C(=O)NCCCCNC(=O)c3ccc(-c4c5nc(c(-c6c(F)cc(S(=O)(=O)[O-])cc6F)c6ccc([nH]6)c(-c6c(F)cc(S(=O)(=O)[O-])cc6F)c6nc(c(-c7c(F)cc(S(=O)(=O)[O-])cc7F)c7ccc4[nH]7)C=C6)C=C5)cc3)C2)ccc1F
REMARK SMILES IDX 17 1 16 2 15 3 14 4 12 5 13 6 11 8 8 9 9 10 88 11 10 12 7 13
REMARK SMILES IDX 5 14 6 15 4 17 1 18 2 19 3 20 91 21 90 22 92 23 89 24 18 25
REMARK SMILES IDX 19 26 20 27 21 29 22 30 23 31 87 32 24 33 86 34 25 35 26 36
REMARK SMILES IDX 27 37 80 38 28 39 85 40 79 41 81 42 29 43 84 44 78 45 77 46
REMARK SMILES IDX 30 48 64 49 43 50 63 51 44 52 47 53 62 54 82 55 45 56 46 57
REMARK SMILES IDX 61 59 83 60 48 61 31 62 32 63 41 64 33 65 34 66 40 67 42 68
REMARK SMILES IDX 35 69 36 70 37 71 38 72 39 73 65 74 66 75 75 76 67 77 68 78
REMARK SMILES IDX 74 79 76 80 69 81 70 82 71 83 72 84 73 85 49 86 50 87 59 88
REMARK SMILES IDX 51 89 52 90 58 91 60 92 53 93 54 94 55 95 56 96 57 97
REMARK H PARENT 14 7 7 16 19 28 81 47 47 58
REMARK Flexibility Score: inf
ROOT
ATOM      1  C   UNL     1       2.029   8.291   2.192  1.00  0.00     0.023 C 
ENDROOT
BRANCH   1   2
ATOM      2  C   UNL     1       0.520   8.017   2.273  1.00  0.00     0.023 C 
BRANCH   2   3
ATOM      3  C   UNL     1      -0.042   7.225   1.097  1.00  0.00     0.116 C 
BRANCH   3   4
ATOM      4  N   UNL     1       0.448   5.866   1.116  1.00  0.00    -0.356 N 
ATOM      5  C   UNL     1      -0.104   4.720   1.576  1.00  0.00     0.227 C 
ATOM      6  O   UNL     1       0.657   3.746   1.636  1.00  0.00    -0.274 OA
ATOM      7  H   UNL     1       1.344   5.754   0.725  1.00  0.00     0.163 HD
BRANCH   5   8
ATOM      8  C   UNL     1      -1.572   4.599   2.052  1.00  0.00     0.103 C 
ATOM      9  C   UNL     1      -2.561   3.347   0.253  1.00  0.00     0.106 C 
ATOM     10  C   UNL     1      -3.226   4.678   0.364  1.00  0.00    -0.006 C 
ATOM     11  C   UNL     1      -2.050   3.178   1.687  1.00  0.00     0.047 C 
ATOM     12  C   UNL     1      -2.656   5.381   1.353  1.00  0.00    -0.016 C 
BRANCH   9  13
ATOM     13  N   UNL     1      -3.468   2.321  -0.178  1.00  0.00    -0.346 N 
ATOM     14  C   UNL     1      -3.224   0.999  -0.472  1.00  0.00     0.251 C 
ATOM     15  O   UNL     1      -4.184   0.287  -0.771  1.00  0.00    -0.269 OA
ATOM     16  H   UNL     1      -4.405   2.605  -0.278  1.00  0.00     0.164 HD
BRANCH  14  17
ATOM     17  C   UNL     1      -1.867   0.375  -0.365  1.00  0.00     0.040 A 
ATOM     18  C   UNL     1       1.847   1.236  -0.405  1.00  0.00     0.047 C 
ATOM     19  C   UNL     1       0.576   0.443  -0.328  1.00  0.00    -0.015 A 
ATOM     20  C   UNL     1      -0.661   1.048  -0.597  1.00  0.00     0.020 A 
ATOM     21  C   UNL     1       0.596  -0.900   0.041  1.00  0.00     0.126 A 
ATOM     22  C   UNL     1      -0.584  -1.622   0.176  1.00  0.00     0.040 A 
ATOM     23  F   UNL     1       1.765  -1.514   0.272  1.00  0.00    -0.207 F 
ATOM     24  C   UNL     1      -1.813  -0.982  -0.008  1.00  0.00     0.017 A 
ENDBRANCH  14  17
ENDBRANCH   9  13
ENDBRANCH   5   8
ENDBRANCH   3   4
ENDBRANCH   2   3
ENDBRANCH   1   2
BRANCH   1  25
ATOM     25  C   UNL     1       2.443   9.049   0.938  1.00  0.00     0.116 C 
BRANCH  25  26
ATOM     26  N   UNL     1       1.767  10.335   0.866  1.00  0.00    -0.352 N 
ATOM     27  C   UNL     1       2.163  11.444   0.149  1.00  0.00     0.251 C 
ATOM     28  H   UNL     1       0.936  10.424   1.387  1.00  0.00     0.163 HD
ATOM     29  O   UNL     1       1.952  12.553   0.624  1.00  0.00    -0.269 OA
BRANCH  27  30
ATOM     30  C   UNL     1       2.861  11.240  -1.135  1.00  0.00     0.039 A 
ATOM     31  C   UNL     1       3.808  12.161  -1.603  1.00  0.00     0.014 A 
ATOM     32  C   UNL     1       2.535  10.113  -1.887  1.00  0.00     0.014 A 
ATOM     33  C   UNL     1       4.491  11.905  -2.794  1.00  0.00     0.010 A 
ATOM     34  C   UNL     1       3.259   9.816  -3.008  1.00  0.00     0.010 A 
ATOM     35  C   UNL     1       4.223  10.717  -3.471  1.00  0.00    -0.014 A 
BRANCH  35  36
ATOM     36  C   UNL     1       4.904  10.247  -4.662  1.00  0.00     0.031 A 
ATOM     37  C   UNL     1       6.271   9.707  -4.582  1.00  0.00     0.074 A 
ATOM     38  C   UNL     1       4.122  10.051  -5.743  1.00  0.00     0.049 A 
ATOM     39  N   UNL     1       6.972   9.398  -5.613  1.00  0.00    -0.248 NA
ATOM     40  C   UNL     1       6.976   9.472  -3.325  1.00  0.00     0.031 C 
ATOM     41  C   UNL     1       4.320   9.154  -6.871  1.00  0.00     0.029 A 
ATOM     42  N   UNL     1       2.970  10.747  -6.075  1.00  0.00    -0.354 N 
ATOM     43  C   UNL     1       8.062   8.672  -5.189  1.00  0.00     0.074 A 
ATOM     44  C   UNL     1       8.069   8.823  -3.752  1.00  0.00     0.031 C 
ATOM     45  C   UNL     1       3.482   9.512  -7.862  1.00  0.00     0.029 A 
ATOM     46  C   UNL     1       2.867  10.769  -7.465  1.00  0.00     0.049 A 
ATOM     47  H   UNL     1       2.336  11.153  -5.441  1.00  0.00     0.167 HD
ATOM     48  C   UNL     1       8.739   7.927  -6.111  1.00  0.00     0.037 A 
ATOM     49  C   UNL     1       3.064  11.957  -8.119  1.00  0.00     0.037 A 
ATOM     50  C   UNL     1       8.147   8.118  -7.436  1.00  0.00     0.049 A 
ATOM     51  C   UNL     1       4.284  11.948  -9.010  1.00  0.00     0.074 A 
ATOM     52  C   UNL     1       7.219   7.392  -8.165  1.00  0.00     0.029 A 
ATOM     53  N   UNL     1       8.236   9.363  -8.043  1.00  0.00    -0.354 N 
ATOM     54  N   UNL     1       5.313  11.159  -8.862  1.00  0.00    -0.248 NA
ATOM     55  C   UNL     1       4.393  12.790 -10.190  1.00  0.00     0.031 C 
ATOM     56  C   UNL     1       6.746   8.217  -9.219  1.00  0.00     0.029 A 
ATOM     57  C   UNL     1       7.396   9.438  -9.137  1.00  0.00     0.049 A 
ATOM     58  H   UNL     1       8.820  10.094  -7.736  1.00  0.00     0.167 HD
ATOM     59  C   UNL     1       6.203  11.347  -9.895  1.00  0.00     0.074 A 
ATOM     60  C   UNL     1       5.559  12.364 -10.707  1.00  0.00     0.031 C 
ATOM     61  C   UNL     1       7.375  10.636  -9.973  1.00  0.00     0.037 A 
BRANCH  48  62
ATOM     62  C   UNL     1       9.775   6.857  -5.825  1.00  0.00     0.058 A 
ATOM     63  C   UNL     1       9.978   5.797  -6.742  1.00  0.00     0.135 A 
ATOM     64  C   UNL     1      10.603   6.807  -4.686  1.00  0.00     0.135 A 
ATOM     65  F   UNL     1       9.293   5.719  -7.891  1.00  0.00    -0.206 F 
ATOM     66  C   UNL     1      10.883   4.757  -6.528  1.00  0.00     0.059 A 
ATOM     67  C   UNL     1      11.492   5.753  -4.430  1.00  0.00     0.059 A 
ATOM     68  F   UNL     1      10.622   7.804  -3.793  1.00  0.00    -0.206 F 
ATOM     69  C   UNL     1      11.627   4.731  -5.360  1.00  0.00     0.060 A 
BRANCH  69  70
ATOM     70  S   UNL     1      12.773   3.364  -5.100  1.00  0.00     0.124 S 
ATOM     71  O   UNL     1      11.892   2.203  -5.192  1.00  0.00    -0.237 OA
ATOM     72  O   UNL     1      13.711   3.536  -6.204  1.00  0.00    -0.237 OA
ATOM     73  O   UNL     1      13.318   3.623  -3.770  1.00  0.00    -0.744 OA
ENDBRANCH  69  70
ENDBRANCH  48  62
BRANCH  49  74
ATOM     74  C   UNL     1       2.551  13.129  -7.333  1.00  0.00     0.058 A 
ATOM     75  C   UNL     1       1.156  13.185  -7.139  1.00  0.00     0.135 A 
ATOM     76  C   UNL     1       3.365  13.745  -6.366  1.00  0.00     0.135 A 
ATOM     77  F   UNL     1       0.331  12.641  -8.050  1.00  0.00    -0.206 F 
ATOM     78  C   UNL     1       0.606  13.611  -5.935  1.00  0.00     0.059 A 
ATOM     79  C   UNL     1       2.830  14.185  -5.151  1.00  0.00     0.059 A 
ATOM     80  F   UNL     1       4.698  13.759  -6.513  1.00  0.00    -0.206 F 
ATOM     81  C   UNL     1       1.463  14.024  -4.918  1.00  0.00     0.060 A 
BRANCH  81  82
ATOM     82  S   UNL     1       0.789  14.126  -3.241  1.00  0.00     0.124 S 
ATOM     83  O   UNL     1      -0.384  14.975  -3.432  1.00  0.00    -0.237 OA
ATOM     84  O   UNL     1       0.503  12.718  -2.967  1.00  0.00    -0.237 OA
ATOM     85  O   UNL     1       1.879  14.723  -2.480  1.00  0.00    -0.744 OA
ENDBRANCH  81  82
ENDBRANCH  49  74
BRANCH  61  86
ATOM     86  C   UNL     1       8.608  10.914 -10.841  1.00  0.00     0.058 A 
ATOM     87  C   UNL     1       8.781  12.019 -11.690  1.00  0.00     0.135 A 
ATOM     88  C   UNL     1       9.762  10.079 -10.744  1.00  0.00     0.135 A 
ATOM     89  F   UNL     1       7.833  12.940 -11.871  1.00  0.00    -0.206 F 
ATOM     90  C   UNL     1       9.968  12.271 -12.383  1.00  0.00     0.059 A 
ATOM     91  C   UNL     1      10.976  10.347 -11.375  1.00  0.00     0.059 A 
ATOM     92  F   UNL     1       9.777   8.959 -10.009  1.00  0.00    -0.206 F 
ATOM     93  C   UNL     1      11.067  11.444 -12.206  1.00  0.00     0.060 A 
BRANCH  93  94
ATOM     94  S   UNL     1      12.607  11.850 -13.038  1.00  0.00     0.124 S 
ATOM     95  O   UNL     1      12.279  11.542 -14.427  1.00  0.00    -0.237 OA
ATOM     96  O   UNL     1      12.759  13.268 -12.725  1.00  0.00    -0.237 OA
ATOM     97  O   UNL     1      13.583  10.966 -12.410  1.00  0.00    -0.744 OA
ENDBRANCH  93  94
ENDBRANCH  61  86
ENDBRANCH  35  36
ENDBRANCH  27  30
ENDBRANCH  25  26
ENDBRANCH   1  25
TORSDOF 16
