REMARK SMILES CC[C@@H](C(=O)Nc1ccc(OC(C)=O)cc1C(=O)NCCCCNC(=O)c1ccc(-c2c3nc(c(-c4c(F)cc(S(=O)(=O)[O-])cc4F)c4ccc([nH]4)c(-c4c(F)cc(S(=O)(=O)[O-])cc4F)c4nc(c(-c5c(F)cc(S(=O)(=O)[O-])cc5F)c5ccc2[nH]5)C=C4)C=C3)cc1)c1ccccc1
REMARK SMILES IDX 21 1 20 2 19 3 17 4 18 5 16 7 7 8 8 9 9 10 15 11 10 12 6 13
REMARK SMILES IDX 4 14 5 15 3 17 2 18 1 19 93 20 94 21 98 22 95 23 97 24 96 25
REMARK SMILES IDX 11 26 12 27 13 28 14 29 22 30 23 31 24 32 25 33 26 35 27 36
REMARK SMILES IDX 28 37 92 38 29 39 91 40 30 41 31 42 32 43 85 44 33 45 90 46
REMARK SMILES IDX 84 47 86 48 34 49 89 50 83 51 82 52 35 54 69 55 48 56 68 57
REMARK SMILES IDX 49 58 52 59 67 60 87 61 50 62 51 63 66 65 88 66 53 67 36 68
REMARK SMILES IDX 37 69 46 70 38 71 39 72 45 73 47 74 40 75 41 76 42 77 43 78
REMARK SMILES IDX 44 79 70 80 71 81 80 82 72 83 73 84 79 85 81 86 74 87 75 88
REMARK SMILES IDX 76 89 77 90 78 91 54 92 55 93 64 94 56 95 57 96 63 97 65 98
REMARK SMILES IDX 58 99 59 100 60 101 61 102 62 103
REMARK H PARENT 19 6 6 16 24 34 86 53 52 64
REMARK Flexibility Score: inf
ROOT
ATOM      1  C   UNL     1      -2.657   1.451  -3.058  1.00  0.00     0.023 C 
ENDROOT
BRANCH   1   2
ATOM      2  C   UNL     1      -1.319   0.998  -2.483  1.00  0.00     0.116 C 
BRANCH   2   3
ATOM      3  N   UNL     1      -1.396   0.456  -1.144  1.00  0.00    -0.352 N 
ATOM      4  C   UNL     1      -0.526  -0.319  -0.423  1.00  0.00     0.253 C 
ATOM      5  O   UNL     1      -0.886  -0.658   0.708  1.00  0.00    -0.269 OA
ATOM      6  H   UNL     1      -2.224   0.686  -0.663  1.00  0.00     0.163 HD
BRANCH   4   7
ATOM      7  C   UNL     1       0.802  -0.820  -0.903  1.00  0.00     0.067 A 
ATOM      8  C   UNL     1       1.708  -0.219  -1.794  1.00  0.00     0.054 A 
ATOM      9  C   UNL     1       2.813  -0.964  -2.266  1.00  0.00     0.031 A 
ATOM     10  C   UNL     1       3.152  -2.193  -1.709  1.00  0.00     0.049 A 
ATOM     11  C   UNL     1       1.158  -2.079  -0.354  1.00  0.00     0.063 A 
ATOM     12  C   UNL     1       2.351  -2.707  -0.704  1.00  0.00     0.131 A 
BRANCH   8  13
ATOM     13  N   UNL     1       1.656   1.062  -2.343  1.00  0.00    -0.325 N 
ATOM     14  C   UNL     1       1.611   2.335  -1.875  1.00  0.00     0.231 C 
ATOM     15  O   UNL     1       1.492   3.157  -2.802  1.00  0.00    -0.274 OA
ATOM     16  H   UNL     1       1.650   1.036  -3.327  1.00  0.00     0.169 HD
BRANCH  14  17
ATOM     17  C   UNL     1       1.876   2.842  -0.432  1.00  0.00     0.108 C 
BRANCH  17  18
ATOM     18  C   UNL     1       1.746   1.915   0.783  1.00  0.00     0.015 C 
ATOM     19  C   UNL     1       2.965   1.048   1.050  1.00  0.00     0.005 C 
ENDBRANCH  17  18
BRANCH  17  20
ATOM     20  C   UNL     1       1.119   4.166  -0.186  1.00  0.00    -0.036 A 
ATOM     21  C   UNL     1       1.590   5.346  -0.792  1.00  0.00     0.004 A 
ATOM     22  C   UNL     1      -0.021   4.257   0.632  1.00  0.00     0.004 A 
ATOM     23  C   UNL     1       0.973   6.575  -0.556  1.00  0.00     0.000 A 
ATOM     24  C   UNL     1      -0.623   5.493   0.885  1.00  0.00     0.000 A 
ATOM     25  C   UNL     1      -0.119   6.652   0.301  1.00  0.00     0.000 A 
ENDBRANCH  17  20
ENDBRANCH  14  17
ENDBRANCH   8  13
BRANCH  12  26
ATOM     26  O   UNL     1       2.742  -3.921  -0.116  1.00  0.00    -0.427 OA
BRANCH  26  27
ATOM     27  C   UNL     1       3.377  -3.938   1.127  1.00  0.00     0.308 C 
ATOM     28  C   UNL     1       2.927  -2.907   2.122  1.00  0.00     0.139 C 
ATOM     29  O   UNL     1       4.197  -4.808   1.410  1.00  0.00    -0.252 OA
ENDBRANCH  26  27
ENDBRANCH  12  26
ENDBRANCH   4   7
ENDBRANCH   2   3
ENDBRANCH   1   2
BRANCH   1  30
ATOM     30  C   UNL     1      -3.254   2.714  -2.421  1.00  0.00     0.023 C 
BRANCH  30  31
ATOM     31  C   UNL     1      -2.368   3.963  -2.398  1.00  0.00     0.116 C 
BRANCH  31  32
ATOM     32  N   UNL     1      -1.911   4.392  -3.712  1.00  0.00    -0.352 N 
ATOM     33  C   UNL     1      -2.154   5.554  -4.407  1.00  0.00     0.251 C 
ATOM     34  H   UNL     1      -1.335   3.745  -4.179  1.00  0.00     0.163 HD
ATOM     35  O   UNL     1      -1.743   5.675  -5.559  1.00  0.00    -0.269 OA
BRANCH  33  36
ATOM     36  C   UNL     1      -2.938   6.649  -3.793  1.00  0.00     0.039 A 
ATOM     37  C   UNL     1      -3.975   7.232  -4.524  1.00  0.00     0.014 A 
ATOM     38  C   UNL     1      -2.656   7.106  -2.504  1.00  0.00     0.014 A 
ATOM     39  C   UNL     1      -4.791   8.196  -3.923  1.00  0.00     0.010 A 
ATOM     40  C   UNL     1      -3.511   8.015  -1.880  1.00  0.00     0.010 A 
ATOM     41  C   UNL     1      -4.600   8.556  -2.577  1.00  0.00    -0.014 A 
BRANCH  41  42
ATOM     42  C   UNL     1      -5.577   9.440  -1.885  1.00  0.00     0.031 A 
ATOM     43  C   UNL     1      -5.173  10.792  -1.362  1.00  0.00     0.074 A 
ATOM     44  C   UNL     1      -6.833   8.992  -1.681  1.00  0.00     0.049 A 
ATOM     45  N   UNL     1      -5.904  11.691  -0.753  1.00  0.00    -0.248 NA
ATOM     46  C   UNL     1      -3.762  11.174  -1.520  1.00  0.00     0.031 C 
ATOM     47  C   UNL     1      -7.331   7.669  -2.067  1.00  0.00     0.029 A 
ATOM     48  N   UNL     1      -7.922   9.595  -1.100  1.00  0.00    -0.354 N 
ATOM     49  C   UNL     1      -5.046  12.743  -0.454  1.00  0.00     0.074 A 
ATOM     50  C   UNL     1      -3.727  12.346  -0.900  1.00  0.00     0.031 C 
ATOM     51  C   UNL     1      -8.630   7.574  -1.746  1.00  0.00     0.029 A 
ATOM     52  C   UNL     1      -9.055   8.815  -1.106  1.00  0.00     0.049 A 
ATOM     53  H   UNL     1      -7.894  10.501  -0.716  1.00  0.00     0.167 HD
ATOM     54  C   UNL     1      -5.335  13.939   0.115  1.00  0.00     0.037 A 
ATOM     55  C   UNL     1     -10.298   9.069  -0.654  1.00  0.00     0.037 A 
ATOM     56  C   UNL     1      -6.653  14.337   0.541  1.00  0.00     0.049 A 
ATOM     57  C   UNL     1     -10.599  10.412  -0.049  1.00  0.00     0.074 A 
ATOM     58  C   UNL     1      -7.058  15.554   1.063  1.00  0.00     0.029 A 
ATOM     59  N   UNL     1      -7.779  13.528   0.501  1.00  0.00    -0.354 N 
ATOM     60  N   UNL     1      -9.793  11.429   0.143  1.00  0.00    -0.248 NA
ATOM     61  C   UNL     1     -11.981  10.647   0.393  1.00  0.00     0.031 C 
ATOM     62  C   UNL     1      -8.419  15.466   1.377  1.00  0.00     0.029 A 
ATOM     63  C   UNL     1      -8.873  14.211   1.009  1.00  0.00     0.049 A 
ATOM     64  H   UNL     1      -7.798  12.604   0.161  1.00  0.00     0.167 HD
ATOM     65  C   UNL     1     -10.573  12.430   0.710  1.00  0.00     0.074 A 
ATOM     66  C   UNL     1     -11.919  11.903   0.811  1.00  0.00     0.031 C 
ATOM     67  C   UNL     1     -10.207  13.673   1.112  1.00  0.00     0.037 A 
BRANCH  54  68
ATOM     68  C   UNL     1      -4.203  14.914   0.298  1.00  0.00     0.058 A 
ATOM     69  C   UNL     1      -3.609  15.564  -0.796  1.00  0.00     0.135 A 
ATOM     70  C   UNL     1      -3.732  15.234   1.582  1.00  0.00     0.135 A 
ATOM     71  F   UNL     1      -4.012  15.287  -2.046  1.00  0.00    -0.206 F 
ATOM     72  C   UNL     1      -2.569  16.472  -0.627  1.00  0.00     0.059 A 
ATOM     73  C   UNL     1      -2.710  16.159   1.777  1.00  0.00     0.059 A 
ATOM     74  F   UNL     1      -4.265  14.645   2.664  1.00  0.00    -0.206 F 
ATOM     75  C   UNL     1      -2.125  16.762   0.664  1.00  0.00     0.060 A 
BRANCH  75  76
ATOM     76  S   UNL     1      -0.775  17.944   0.866  1.00  0.00     0.124 S 
ATOM     77  O   UNL     1       0.370  17.156   0.421  1.00  0.00    -0.237 OA
ATOM     78  O   UNL     1      -1.177  19.032  -0.019  1.00  0.00    -0.237 OA
ATOM     79  O   UNL     1      -0.807  18.256   2.292  1.00  0.00    -0.744 OA
ENDBRANCH  75  76
ENDBRANCH  54  68
BRANCH  55  80
ATOM     80  C   UNL     1     -11.362   8.040  -0.793  1.00  0.00     0.058 A 
ATOM     81  C   UNL     1     -12.406   8.200  -1.715  1.00  0.00     0.135 A 
ATOM     82  C   UNL     1     -11.347   6.868  -0.020  1.00  0.00     0.135 A 
ATOM     83  F   UNL     1     -12.467   9.306  -2.473  1.00  0.00    -0.206 F 
ATOM     84  C   UNL     1     -13.407   7.245  -1.857  1.00  0.00     0.059 A 
ATOM     85  C   UNL     1     -12.323   5.887  -0.161  1.00  0.00     0.059 A 
ATOM     86  F   UNL     1     -10.359   6.659   0.864  1.00  0.00    -0.206 F 
ATOM     87  C   UNL     1     -13.355   6.089  -1.077  1.00  0.00     0.060 A 
BRANCH  87  88
ATOM     88  S   UNL     1     -14.629   4.829  -1.306  1.00  0.00     0.124 S 
ATOM     89  O   UNL     1     -15.772   5.443  -0.642  1.00  0.00    -0.237 OA
ATOM     90  O   UNL     1     -14.709   4.734  -2.760  1.00  0.00    -0.237 OA
ATOM     91  O   UNL     1     -14.064   3.659  -0.641  1.00  0.00    -0.744 OA
ENDBRANCH  87  88
ENDBRANCH  55  80
BRANCH  67  92
ATOM     92  C   UNL     1     -11.283  14.552   1.688  1.00  0.00     0.058 A 
ATOM     93  C   UNL     1     -11.824  14.315   2.961  1.00  0.00     0.135 A 
ATOM     94  C   UNL     1     -11.760  15.660   0.968  1.00  0.00     0.135 A 
ATOM     95  F   UNL     1     -11.407  13.266   3.687  1.00  0.00    -0.206 F 
ATOM     96  C   UNL     1     -12.824  15.126   3.488  1.00  0.00     0.059 A 
ATOM     97  C   UNL     1     -12.741  16.500   1.487  1.00  0.00     0.059 A 
ATOM     98  F   UNL     1     -11.269  15.938  -0.250  1.00  0.00    -0.206 F 
ATOM     99  C   UNL     1     -13.278  16.215   2.742  1.00  0.00     0.060 A 
BRANCH  99 100
ATOM    100  S   UNL     1     -14.568  17.268   3.441  1.00  0.00     0.124 S 
ATOM    101  O   UNL     1     -15.754  16.437   3.262  1.00  0.00    -0.237 OA
ATOM    102  O   UNL     1     -14.118  17.443   4.819  1.00  0.00    -0.237 OA
ATOM    103  O   UNL     1     -14.511  18.468   2.613  1.00  0.00    -0.744 OA
ENDBRANCH  99 100
ENDBRANCH  67  92
ENDBRANCH  41  42
ENDBRANCH  33  36
ENDBRANCH  31  32
ENDBRANCH  30  31
ENDBRANCH   1  30
TORSDOF 20
