REMARK SMILES CC(C)CSc1cc2c(cc1Cl)C=C(C(=O)NCCCCNC(=O)c1ccc(-c3c4nc(c(-c5c(F)cc(S(=O)(=O)[O-])cc5F)c5ccc([nH]5)c(-c5c(F)cc(S(=O)(=O)[O-])cc5F)c5nc(c(-c6c(F)cc(S(=O)(=O)[O-])cc6F)c6ccc3[nH]6)C=C5)C=C4)cc1)[C@@H](C(F)(F)F)O2
REMARK SMILES IDX 19 1 18 2 17 3 15 4 16 5 14 7 6 8 7 9 11 10 8 11 10 12 12 13
REMARK SMILES IDX 9 14 96 15 13 16 91 17 5 18 4 19 2 20 1 21 3 22 92 23 93 24
REMARK SMILES IDX 94 25 95 26 20 27 21 28 22 29 23 30 24 32 25 33 26 34 90 35
REMARK SMILES IDX 27 36 89 37 28 38 29 39 30 40 83 41 31 42 88 43 82 44 84 45
REMARK SMILES IDX 32 46 87 47 81 48 80 49 33 51 67 52 46 53 66 54 47 55 50 56
REMARK SMILES IDX 65 57 85 58 48 59 49 60 64 62 86 63 51 64 34 65 35 66 44 67
REMARK SMILES IDX 36 68 37 69 43 70 45 71 38 72 39 73 40 74 41 75 42 76 68 77
REMARK SMILES IDX 69 78 78 79 70 80 71 81 77 82 79 83 72 84 73 85 74 86 75 87
REMARK SMILES IDX 76 88 52 89 53 90 62 91 54 92 55 93 61 94 63 95 56 96 57 97
REMARK SMILES IDX 58 98 59 99 60 100
REMARK H PARENT 17 6 22 31 84 50 50 61
REMARK Flexibility Score: inf
ROOT
ATOM      1  C   UNL     1      -3.318   9.460  -0.696  1.00  0.00     0.023 C 
ENDROOT
BRANCH   1   2
ATOM      2  C   UNL     1      -2.104   9.119  -1.553  1.00  0.00     0.116 C 
BRANCH   2   3
ATOM      3  N   UNL     1      -0.899   8.898  -0.774  1.00  0.00    -0.352 N 
ATOM      4  C   UNL     1      -0.154   7.822  -0.423  1.00  0.00     0.251 C 
ATOM      5  O   UNL     1       0.866   8.053   0.232  1.00  0.00    -0.270 OA
ATOM      6  H   UNL     1      -0.532   9.737  -0.412  1.00  0.00     0.163 HD
BRANCH   4   7
ATOM      7  C   UNL     1      -0.504   6.408  -0.752  1.00  0.00     0.067 C 
ATOM      8  C   UNL     1      -1.058   1.363  -0.399  1.00  0.00     0.030 A 
ATOM      9  C   UNL     1      -1.390   2.350  -1.353  1.00  0.00     0.063 A 
ATOM     10  C   UNL     1      -0.381   1.796   0.753  1.00  0.00     0.055 A 
ATOM     11  C   UNL     1      -1.064   3.698  -1.175  1.00  0.00     0.129 A 
ATOM     12  C   UNL     1      -0.007   3.146   0.900  1.00  0.00     0.033 A 
ATOM     13  Cl  UNL     1      -0.025   0.808   2.122  1.00  0.00    -0.083 Cl
ATOM     14  C   UNL     1      -0.360   4.101  -0.054  1.00  0.00     0.019 A 
ATOM     15  O   UNL     1      -1.496   4.552  -2.141  1.00  0.00    -0.475 OA
ATOM     16  C   UNL     1      -0.051   5.508   0.139  1.00  0.00     0.025 C 
ATOM     17  C   UNL     1      -1.263   5.983  -1.981  1.00  0.00     0.314 C 
BRANCH   8  18
ATOM     18  S   UNL     1      -1.704  -0.251  -0.856  1.00  0.00    -0.124 SA
BRANCH  18  19
ATOM     19  C   UNL     1      -0.738  -1.543  -0.005  1.00  0.00     0.078 C 
BRANCH  19  20
ATOM     20  C   UNL     1       0.623  -1.935  -0.606  1.00  0.00    -0.007 C 
ATOM     21  C   UNL     1       1.632  -0.800  -0.754  1.00  0.00     0.008 C 
ATOM     22  C   UNL     1       1.233  -3.043   0.265  1.00  0.00     0.008 C 
ENDBRANCH  19  20
ENDBRANCH  18  19
ENDBRANCH   8  18
BRANCH  17  23
ATOM     23  C   UNL     1      -0.640   6.471  -3.302  1.00  0.00     0.429 C 
ATOM     24  F   UNL     1      -1.548   6.374  -4.308  1.00  0.00    -0.167 F 
ATOM     25  F   UNL     1      -0.248   7.763  -3.270  1.00  0.00    -0.167 F 
ATOM     26  F   UNL     1       0.437   5.735  -3.660  1.00  0.00    -0.167 F 
ENDBRANCH  17  23
ENDBRANCH   4   7
ENDBRANCH   2   3
ENDBRANCH   1   2
BRANCH   1  27
ATOM     27  C   UNL     1      -3.385  10.912  -0.217  1.00  0.00     0.023 C 
BRANCH  27  28
ATOM     28  C   UNL     1      -3.216  11.979  -1.296  1.00  0.00     0.116 C 
BRANCH  28  29
ATOM     29  N   UNL     1      -4.085  11.820  -2.455  1.00  0.00    -0.352 N 
ATOM     30  C   UNL     1      -4.480  12.794  -3.358  1.00  0.00     0.251 C 
ATOM     31  H   UNL     1      -4.434  10.913  -2.615  1.00  0.00     0.163 HD
ATOM     32  O   UNL     1      -5.246  12.541  -4.261  1.00  0.00    -0.269 OA
BRANCH  30  33
ATOM     33  C   UNL     1      -3.983  14.173  -3.138  1.00  0.00     0.039 A 
ATOM     34  C   UNL     1      -2.616  14.408  -3.001  1.00  0.00     0.014 A 
ATOM     35  C   UNL     1      -4.910  15.195  -2.918  1.00  0.00     0.014 A 
ATOM     36  C   UNL     1      -2.188  15.605  -2.441  1.00  0.00     0.010 A 
ATOM     37  C   UNL     1      -4.466  16.428  -2.432  1.00  0.00     0.010 A 
ATOM     38  C   UNL     1      -3.111  16.613  -2.115  1.00  0.00    -0.014 A 
BRANCH  38  39
ATOM     39  C   UNL     1      -2.638  17.808  -1.367  1.00  0.00     0.031 A 
ATOM     40  C   UNL     1      -3.086  18.046   0.054  1.00  0.00     0.074 A 
ATOM     41  C   UNL     1      -1.721  18.619  -1.929  1.00  0.00     0.049 A 
ATOM     42  N   UNL     1      -2.723  18.991   0.884  1.00  0.00    -0.248 NA
ATOM     43  C   UNL     1      -4.066  17.104   0.620  1.00  0.00     0.031 C 
ATOM     44  C   UNL     1      -1.195  18.478  -3.289  1.00  0.00     0.029 A 
ATOM     45  N   UNL     1      -1.038  19.692  -1.418  1.00  0.00    -0.354 N 
ATOM     46  C   UNL     1      -3.438  18.769   2.056  1.00  0.00     0.074 A 
ATOM     47  C   UNL     1      -4.280  17.616   1.824  1.00  0.00     0.031 C 
ATOM     48  C   UNL     1      -0.223  19.383  -3.478  1.00  0.00     0.029 A 
ATOM     49  C   UNL     1      -0.095  20.203  -2.278  1.00  0.00     0.049 A 
ATOM     50  H   UNL     1      -1.206  20.061  -0.521  1.00  0.00     0.167 HD
ATOM     51  C   UNL     1      -3.386  19.452   3.224  1.00  0.00     0.037 A 
ATOM     52  C   UNL     1       0.774  21.220  -2.121  1.00  0.00     0.037 A 
ATOM     53  C   UNL     1      -2.518  20.572   3.469  1.00  0.00     0.049 A 
ATOM     54  C   UNL     1       0.780  21.989  -0.831  1.00  0.00     0.074 A 
ATOM     55  C   UNL     1      -2.369  21.307   4.633  1.00  0.00     0.029 A 
ATOM     56  N   UNL     1      -1.647  21.116   2.538  1.00  0.00    -0.354 N 
ATOM     57  N   UNL     1       0.091  21.765   0.262  1.00  0.00    -0.248 NA
ATOM     58  C   UNL     1       1.661  23.162  -0.761  1.00  0.00     0.031 C 
ATOM     59  C   UNL     1      -1.431  22.317   4.395  1.00  0.00     0.029 A 
ATOM     60  C   UNL     1      -0.975  22.193   3.092  1.00  0.00     0.049 A 
ATOM     61  H   UNL     1      -1.524  20.786   1.619  1.00  0.00     0.167 HD
ATOM     62  C   UNL     1       0.448  22.775   1.147  1.00  0.00     0.074 A 
ATOM     63  C   UNL     1       1.434  23.595   0.473  1.00  0.00     0.031 C 
ATOM     64  C   UNL     1      -0.009  23.007   2.401  1.00  0.00     0.037 A 
BRANCH  51  65
ATOM     65  C   UNL     1      -4.292  19.008   4.339  1.00  0.00     0.058 A 
ATOM     66  C   UNL     1      -4.013  17.862   5.099  1.00  0.00     0.135 A 
ATOM     67  C   UNL     1      -5.417  19.772   4.691  1.00  0.00     0.135 A 
ATOM     68  F   UNL     1      -2.959  17.089   4.793  1.00  0.00    -0.206 F 
ATOM     69  C   UNL     1      -4.826  17.480   6.161  1.00  0.00     0.059 A 
ATOM     70  C   UNL     1      -6.233  19.419   5.761  1.00  0.00     0.059 A 
ATOM     71  F   UNL     1      -5.728  20.877   3.994  1.00  0.00    -0.206 F 
ATOM     72  C   UNL     1      -5.934  18.265   6.485  1.00  0.00     0.060 A 
BRANCH  72  73
ATOM     73  S   UNL     1      -6.972  17.759   7.873  1.00  0.00     0.124 S 
ATOM     74  O   UNL     1      -7.665  16.604   7.311  1.00  0.00    -0.237 OA
ATOM     75  O   UNL     1      -5.986  17.464   8.908  1.00  0.00    -0.237 OA
ATOM     76  O   UNL     1      -7.805  18.932   8.121  1.00  0.00    -0.744 OA
ENDBRANCH  72  73
ENDBRANCH  51  65
BRANCH  52  77
ATOM     77  C   UNL     1       1.703  21.569  -3.224  1.00  0.00     0.058 A 
ATOM     78  C   UNL     1       3.073  21.289  -3.127  1.00  0.00     0.135 A 
ATOM     79  C   UNL     1       1.234  22.155  -4.410  1.00  0.00     0.135 A 
ATOM     80  F   UNL     1       3.567  20.735  -2.009  1.00  0.00    -0.206 F 
ATOM     81  C   UNL     1       3.949  21.576  -4.168  1.00  0.00     0.059 A 
ATOM     82  C   UNL     1       2.086  22.433  -5.473  1.00  0.00     0.059 A 
ATOM     83  F   UNL     1      -0.071  22.430  -4.553  1.00  0.00    -0.206 F 
ATOM     84  C   UNL     1       3.444  22.144  -5.340  1.00  0.00     0.060 A 
BRANCH  84  85
ATOM     85  S   UNL     1       4.575  22.453  -6.713  1.00  0.00     0.124 S 
ATOM     86  O   UNL     1       5.278  23.644  -6.252  1.00  0.00    -0.237 OA
ATOM     87  O   UNL     1       5.359  21.222  -6.750  1.00  0.00    -0.237 OA
ATOM     88  O   UNL     1       3.678  22.647  -7.848  1.00  0.00    -0.744 OA
ENDBRANCH  84  85
ENDBRANCH  52  77
BRANCH  64  89
ATOM     89  C   UNL     1       0.524  24.210   3.121  1.00  0.00     0.058 A 
ATOM     90  C   UNL     1       0.043  25.495   2.830  1.00  0.00     0.135 A 
ATOM     91  C   UNL     1       1.451  24.071   4.166  1.00  0.00     0.135 A 
ATOM     92  F   UNL     1      -0.838  25.677   1.833  1.00  0.00    -0.206 F 
ATOM     93  C   UNL     1       0.461  26.605   3.554  1.00  0.00     0.059 A 
ATOM     94  C   UNL     1       1.870  25.166   4.915  1.00  0.00     0.059 A 
ATOM     95  F   UNL     1       1.935  22.860   4.484  1.00  0.00    -0.206 F 
ATOM     96  C   UNL     1       1.369  26.430   4.601  1.00  0.00     0.060 A 
BRANCH  96  97
ATOM     97  S   UNL     1       1.847  27.871   5.577  1.00  0.00     0.124 S 
ATOM     98  O   UNL     1       2.733  28.572   4.653  1.00  0.00    -0.237 OA
ATOM     99  O   UNL     1       0.562  28.514   5.835  1.00  0.00    -0.237 OA
ATOM    100  O   UNL     1       2.495  27.288   6.748  1.00  0.00    -0.744 OA
ENDBRANCH  96  97
ENDBRANCH  64  89
ENDBRANCH  38  39
ENDBRANCH  30  33
ENDBRANCH  28  29
ENDBRANCH  27  28
ENDBRANCH   1  27
TORSDOF 18
