REMARK SMILES O=C(Cn1nc(C(=O)NCCCCNC(=O)c2ccc(-c3c4nc(c(-c5c(F)cc(S(=O)(=O)[O-])cc5F)c5ccc([nH]5)c(-c5c(F)cc(S(=O)(=O)[O-])cc5F)c5nc(c(-c6c(F)cc(S(=O)(=O)[O-])cc6F)c6ccc3[nH]6)C=C5)C=C4)cc2)c2ccccc2c1=O)Nc1ccc2c(c1)C(=O)c1ccccc1C2=O
REMARK SMILES IDX 11 1 10 2 9 3 7 4 8 5 6 7 4 8 5 9 89 10 88 11 90 12 83 13
REMARK SMILES IDX 87 14 84 15 86 16 85 17 3 18 2 19 1 20 91 21 92 23 93 24
REMARK SMILES IDX 97 25 94 26 96 27 95 28 98 29 106 30 99 31 100 32 105 33
REMARK SMILES IDX 107 34 101 35 104 36 102 37 103 38 12 39 13 40 14 41 15 42
REMARK SMILES IDX 16 44 17 45 18 46 82 47 19 48 81 49 20 50 21 51 22 52 75 53
REMARK SMILES IDX 23 54 80 55 74 56 76 57 24 58 79 59 73 60 72 61 25 63 59 64
REMARK SMILES IDX 38 65 58 66 39 67 42 68 57 69 77 70 40 71 41 72 56 74 78 75
REMARK SMILES IDX 43 76 26 77 27 78 36 79 28 80 29 81 35 82 37 83 30 84 31 85
REMARK SMILES IDX 32 86 33 87 34 88 60 89 61 90 70 91 62 92 63 93 69 94 71 95
REMARK SMILES IDX 64 96 65 97 66 98 67 99 68 100 44 101 45 102 54 103 46 104
REMARK SMILES IDX 47 105 53 106 55 107 48 108 49 109 50 110 51 111 52 112
REMARK H PARENT 9 6 91 22 14 43 76 62 42 73
REMARK Flexibility Score: inf
ROOT
ATOM      1  C   UNL     1       0.707  -2.718   2.027  1.00  0.00     0.023 C 
ENDROOT
BRANCH   1   2
ATOM      2  C   UNL     1       1.584  -2.472   3.265  1.00  0.00     0.116 C 
BRANCH   2   3
ATOM      3  N   UNL     1       2.763  -3.326   3.288  1.00  0.00    -0.351 N 
ATOM      4  C   UNL     1       4.049  -3.040   2.926  1.00  0.00     0.272 C 
ATOM      5  O   UNL     1       4.917  -3.900   2.868  1.00  0.00    -0.267 OA
ATOM      6  H   UNL     1       2.611  -4.244   3.611  1.00  0.00     0.163 HD
BRANCH   4   7
ATOM      7  C   UNL     1       4.415  -1.599   2.636  1.00  0.00     0.156 A 
ATOM      8  N   UNL     1       4.111   0.297   1.343  1.00  0.00    -0.219 N 
ATOM      9  N   UNL     1       3.812  -1.020   1.635  1.00  0.00    -0.163 NA
ATOM     10  C   UNL     1       4.966   1.076   2.130  1.00  0.00     0.275 A 
ATOM     11  C   UNL     1       5.660   0.400   3.244  1.00  0.00     0.051 A 
ATOM     12  O   UNL     1       5.155   2.277   1.954  1.00  0.00    -0.267 OA
ATOM     13  C   UNL     1       5.407  -0.940   3.498  1.00  0.00     0.020 A 
ATOM     14  C   UNL     1       6.565   1.106   4.049  1.00  0.00     0.014 A 
ATOM     15  C   UNL     1       6.072  -1.591   4.549  1.00  0.00     0.011 A 
ATOM     16  C   UNL     1       7.224   0.461   5.097  1.00  0.00     0.001 A 
ATOM     17  C   UNL     1       6.982  -0.888   5.342  1.00  0.00     0.001 A 
BRANCH   8  18
ATOM     18  C   UNL     1       3.360   0.978   0.267  1.00  0.00     0.248 C 
BRANCH  18  19
ATOM     19  C   UNL     1       2.906   0.212  -0.993  1.00  0.00     0.246 C 
ATOM     20  O   UNL     1       2.499   0.809  -1.988  1.00  0.00    -0.273 OA
ATOM     21  N   UNL     1       2.863  -1.145  -0.821  1.00  0.00    -0.324 N 
ATOM     22  H   UNL     1       3.049  -1.453   0.095  1.00  0.00     0.169 HD
BRANCH  21  23
ATOM     23  C   UNL     1       2.596  -2.165  -1.742  1.00  0.00     0.042 A 
ATOM     24  C   UNL     1       2.578  -2.018  -3.130  1.00  0.00     0.027 A 
ATOM     25  C   UNL     1       2.474  -3.437  -1.190  1.00  0.00     0.039 A 
ATOM     26  C   UNL     1       2.662  -3.159  -3.950  1.00  0.00     0.015 A 
ATOM     27  C   UNL     1       2.438  -4.554  -2.005  1.00  0.00     0.036 A 
ATOM     28  C   UNL     1       2.698  -4.426  -3.359  1.00  0.00     0.034 A 
ATOM     29  C   UNL     1       2.456  -5.880  -1.383  1.00  0.00     0.194 C 
ATOM     30  C   UNL     1       3.361  -5.578  -4.026  1.00  0.00     0.194 C 
ATOM     31  O   UNL     1       1.702  -6.195  -0.476  1.00  0.00    -0.289 OA
ATOM     32  C   UNL     1       3.558  -6.726  -1.820  1.00  0.00     0.034 A 
ATOM     33  C   UNL     1       4.052  -6.542  -3.114  1.00  0.00     0.034 A 
ATOM     34  O   UNL     1       3.470  -5.638  -5.241  1.00  0.00    -0.289 OA
ATOM     35  C   UNL     1       4.225  -7.491  -0.864  1.00  0.00     0.013 A 
ATOM     36  C   UNL     1       5.274  -7.119  -3.450  1.00  0.00     0.013 A 
ATOM     37  C   UNL     1       5.459  -8.033  -1.194  1.00  0.00     0.001 A 
ATOM     38  C   UNL     1       5.984  -7.841  -2.478  1.00  0.00     0.001 A 
ENDBRANCH  21  23
ENDBRANCH  18  19
ENDBRANCH   8  18
ENDBRANCH   4   7
ENDBRANCH   2   3
ENDBRANCH   1   2
BRANCH   1  39
ATOM     39  C   UNL     1       0.521  -4.213   1.798  1.00  0.00     0.023 C 
BRANCH  39  40
ATOM     40  C   UNL     1      -0.719  -4.672   1.051  1.00  0.00     0.116 C 
BRANCH  40  41
ATOM     41  N   UNL     1      -0.944  -4.173  -0.290  1.00  0.00    -0.352 N 
ATOM     42  C   UNL     1      -1.412  -4.815  -1.425  1.00  0.00     0.251 C 
ATOM     43  H   UNL     1      -0.728  -3.220  -0.416  1.00  0.00     0.163 HD
ATOM     44  O   UNL     1      -1.639  -4.120  -2.417  1.00  0.00    -0.269 OA
BRANCH  42  45
ATOM     45  C   UNL     1      -1.593  -6.300  -1.530  1.00  0.00     0.039 A 
ATOM     46  C   UNL     1      -1.829  -7.132  -0.442  1.00  0.00     0.014 A 
ATOM     47  C   UNL     1      -1.511  -6.901  -2.797  1.00  0.00     0.014 A 
ATOM     48  C   UNL     1      -1.718  -8.516  -0.566  1.00  0.00     0.010 A 
ATOM     49  C   UNL     1      -1.560  -8.301  -2.945  1.00  0.00     0.010 A 
ATOM     50  C   UNL     1      -1.602  -9.133  -1.820  1.00  0.00    -0.014 A 
BRANCH  50  51
ATOM     51  C   UNL     1      -1.573 -10.627  -1.888  1.00  0.00     0.031 A 
ATOM     52  C   UNL     1      -0.413 -11.377  -2.499  1.00  0.00     0.074 A 
ATOM     53  C   UNL     1      -2.567 -11.328  -1.298  1.00  0.00     0.049 A 
ATOM     54  N   UNL     1      -0.204 -12.671  -2.541  1.00  0.00    -0.248 NA
ATOM     55  C   UNL     1       0.639 -10.586  -3.155  1.00  0.00     0.031 C 
ATOM     56  C   UNL     1      -3.761 -10.740  -0.683  1.00  0.00     0.029 A 
ATOM     57  N   UNL     1      -2.712 -12.675  -1.064  1.00  0.00    -0.354 N 
ATOM     58  C   UNL     1       0.983 -12.850  -3.243  1.00  0.00     0.074 A 
ATOM     59  C   UNL     1       1.439 -11.532  -3.631  1.00  0.00     0.031 C 
ATOM     60  C   UNL     1      -4.453 -11.698  -0.052  1.00  0.00     0.029 A 
ATOM     61  C   UNL     1      -3.803 -12.983  -0.284  1.00  0.00     0.049 A 
ATOM     62  H   UNL     1      -2.094 -13.353  -1.421  1.00  0.00     0.167 HD
ATOM     63  C   UNL     1       1.640 -14.001  -3.528  1.00  0.00     0.037 A 
ATOM     64  C   UNL     1      -4.244 -14.162   0.198  1.00  0.00     0.037 A 
ATOM     65  C   UNL     1       1.214 -15.314  -3.111  1.00  0.00     0.049 A 
ATOM     66  C   UNL     1      -3.500 -15.421  -0.132  1.00  0.00     0.074 A 
ATOM     67  C   UNL     1       1.841 -16.530  -3.330  1.00  0.00     0.029 A 
ATOM     68  N   UNL     1       0.064 -15.587  -2.386  1.00  0.00    -0.354 N 
ATOM     69  N   UNL     1      -2.383 -15.562  -0.802  1.00  0.00    -0.248 NA
ATOM     70  C   UNL     1      -4.088 -16.683   0.338  1.00  0.00     0.031 C 
ATOM     71  C   UNL     1       1.055 -17.541  -2.765  1.00  0.00     0.029 A 
ATOM     72  C   UNL     1      -0.045 -16.952  -2.165  1.00  0.00     0.049 A 
ATOM     73  H   UNL     1      -0.581 -14.911  -2.075  1.00  0.00     0.167 HD
ATOM     74  C   UNL     1      -2.137 -16.928  -0.841  1.00  0.00     0.074 A 
ATOM     75  C   UNL     1      -3.206 -17.570  -0.104  1.00  0.00     0.031 C 
ATOM     76  C   UNL     1      -1.119 -17.587  -1.444  1.00  0.00     0.037 A 
BRANCH  63  77
ATOM     77  C   UNL     1       2.907 -13.908  -4.334  1.00  0.00     0.058 A 
ATOM     78  C   UNL     1       4.109 -13.467  -3.762  1.00  0.00     0.135 A 
ATOM     79  C   UNL     1       2.938 -14.347  -5.668  1.00  0.00     0.135 A 
ATOM     80  F   UNL     1       4.134 -13.027  -2.494  1.00  0.00    -0.206 F 
ATOM     81  C   UNL     1       5.297 -13.455  -4.486  1.00  0.00     0.059 A 
ATOM     82  C   UNL     1       4.119 -14.363  -6.406  1.00  0.00     0.059 A 
ATOM     83  F   UNL     1       1.815 -14.783  -6.261  1.00  0.00    -0.206 F 
ATOM     84  C   UNL     1       5.293 -13.909  -5.807  1.00  0.00     0.060 A 
BRANCH  84  85
ATOM     85  S   UNL     1       6.852 -13.920  -6.719  1.00  0.00     0.124 S 
ATOM     86  O   UNL     1       7.057 -12.496  -6.965  1.00  0.00    -0.237 OA
ATOM     87  O   UNL     1       7.769 -14.533  -5.762  1.00  0.00    -0.237 OA
ATOM     88  O   UNL     1       6.552 -14.725  -7.898  1.00  0.00    -0.744 OA
ENDBRANCH  84  85
ENDBRANCH  63  77
BRANCH  64  89
ATOM     89  C   UNL     1      -5.459 -14.193   1.053  1.00  0.00     0.058 A 
ATOM     90  C   UNL     1      -5.363 -14.428   2.431  1.00  0.00     0.135 A 
ATOM     91  C   UNL     1      -6.730 -13.932   0.517  1.00  0.00     0.135 A 
ATOM     92  F   UNL     1      -4.171 -14.693   2.986  1.00  0.00    -0.206 F 
ATOM     93  C   UNL     1      -6.484 -14.393   3.254  1.00  0.00     0.059 A 
ATOM     94  C   UNL     1      -7.862 -13.867   1.323  1.00  0.00     0.059 A 
ATOM     95  F   UNL     1      -6.869 -13.688  -0.795  1.00  0.00    -0.206 F 
ATOM     96  C   UNL     1      -7.729 -14.101   2.691  1.00  0.00     0.060 A 
BRANCH  96  97
ATOM     97  S   UNL     1      -9.164 -13.961   3.778  1.00  0.00     0.124 S 
ATOM     98  O   UNL     1      -9.465 -15.362   4.049  1.00  0.00    -0.237 OA
ATOM     99  O   UNL     1      -8.629 -13.194   4.899  1.00  0.00    -0.237 OA
ATOM    100  O   UNL     1     -10.138 -13.251   2.954  1.00  0.00    -0.744 OA
ENDBRANCH  96  97
ENDBRANCH  64  89
BRANCH  76 101
ATOM    101  C   UNL     1      -1.113 -19.085  -1.343  1.00  0.00     0.058 A 
ATOM    102  C   UNL     1      -1.977 -19.870  -2.122  1.00  0.00     0.135 A 
ATOM    103  C   UNL     1      -0.208 -19.744  -0.497  1.00  0.00     0.135 A 
ATOM    104  F   UNL     1      -2.868 -19.287  -2.939  1.00  0.00    -0.206 F 
ATOM    105  C   UNL     1      -1.953 -21.259  -2.055  1.00  0.00     0.059 A 
ATOM    106  C   UNL     1      -0.154 -21.133  -0.428  1.00  0.00     0.059 A 
ATOM    107  F   UNL     1       0.643 -19.038   0.265  1.00  0.00    -0.206 F 
ATOM    108  C   UNL     1      -1.037 -21.882  -1.205  1.00  0.00     0.060 A 
BRANCH 108 109
ATOM    109  S   UNL     1      -0.994 -23.687  -1.153  1.00  0.00     0.124 S 
ATOM    110  O   UNL     1      -2.196 -23.987  -0.382  1.00  0.00    -0.237 OA
ATOM    111  O   UNL     1      -1.042 -24.043  -2.567  1.00  0.00    -0.237 OA
ATOM    112  O   UNL     1       0.270 -23.977  -0.482  1.00  0.00    -0.744 OA
ENDBRANCH 108 109
ENDBRANCH  76 101
ENDBRANCH  50  51
ENDBRANCH  42  45
ENDBRANCH  40  41
ENDBRANCH  39  40
ENDBRANCH   1  39
TORSDOF 17
