REMARK SMILES Cc1cc(C)c2c(c1)C=C(C(=O)NCCCCNC(=O)c1ccc(-c3c4nc(c(-c5c(F)cc(S(=O)(=O)[O-])cc5F)c5ccc([nH]5)c(-c5c(F)cc(S(=O)(=O)[O-])cc5F)c5nc(c(-c6c(F)cc(S(=O)(=O)[O-])cc6F)c6ccc3[nH]6)C=C5)C=C4)cc1)[C@@H](C(F)(F)F)O2
REMARK SMILES IDX 16 1 15 2 14 3 13 4 11 5 12 6 10 8 1 9 2 10 3 11 8 12 4 13
REMARK SMILES IDX 7 14 5 15 6 16 9 17 92 18 87 19 88 20 89 21 90 22 91 23
REMARK SMILES IDX 17 24 18 25 19 26 20 28 21 29 22 30 86 31 23 32 85 33 24 34
REMARK SMILES IDX 25 35 26 36 79 37 27 38 84 39 78 40 80 41 28 42 83 43 77 44
REMARK SMILES IDX 76 45 29 47 63 48 42 49 62 50 43 51 46 52 61 53 81 54 44 55
REMARK SMILES IDX 45 56 60 58 82 59 47 60 30 61 31 62 40 63 32 64 33 65 39 66
REMARK SMILES IDX 41 67 34 68 35 69 36 70 37 71 38 72 64 73 65 74 74 75 66 76
REMARK SMILES IDX 67 77 73 78 75 79 68 80 69 81 70 82 71 83 72 84 48 85 49 86
REMARK SMILES IDX 58 87 50 88 51 89 57 90 59 91 52 92 53 93 54 94 55 95 56 96
REMARK H PARENT 13 7 18 27 80 46 46 57
REMARK Flexibility Score: inf
ROOT
ATOM      1  C   UNL     1      -5.125  -7.977  -5.012  1.00  0.00     0.023 C 
ENDROOT
BRANCH   1   2
ATOM      2  C   UNL     1      -3.934  -7.473  -4.192  1.00  0.00     0.023 C 
BRANCH   2   3
ATOM      3  C   UNL     1      -2.911  -6.680  -5.000  1.00  0.00     0.116 C 
BRANCH   3   4
ATOM      4  N   UNL     1      -3.253  -5.271  -5.077  1.00  0.00    -0.352 N 
ATOM      5  C   UNL     1      -2.855  -4.125  -4.477  1.00  0.00     0.251 C 
ATOM      6  O   UNL     1      -3.439  -3.104  -4.855  1.00  0.00    -0.270 OA
ATOM      7  H   UNL     1      -3.961  -5.106  -5.741  1.00  0.00     0.163 HD
BRANCH   5   8
ATOM      8  C   UNL     1      -1.796  -4.020  -3.429  1.00  0.00     0.067 C 
ATOM      9  C   UNL     1       1.072   0.216   0.054  1.00  0.00     0.044 C 
ATOM     10  C   UNL     1       0.714  -1.154  -0.443  1.00  0.00    -0.050 A 
ATOM     11  C   UNL     1       1.340  -2.281   0.108  1.00  0.00     0.010 A 
ATOM     12  C   UNL     1      -0.272  -1.326  -1.422  1.00  0.00     0.015 A 
ATOM     13  C   UNL     1       1.002  -3.572  -0.320  1.00  0.00    -0.008 A 
ATOM     14  C   UNL     1      -0.613  -2.607  -1.866  1.00  0.00     0.018 A 
ATOM     15  C   UNL     1       1.684  -4.773   0.271  1.00  0.00     0.048 C 
ATOM     16  C   UNL     1       0.030  -3.720  -1.318  1.00  0.00     0.130 A 
ATOM     17  C   UNL     1      -1.652  -2.804  -2.870  1.00  0.00     0.025 C 
ATOM     18  O   UNL     1      -0.297  -4.994  -1.694  1.00  0.00    -0.475 OA
ATOM     19  C   UNL     1      -0.888  -5.142  -3.015  1.00  0.00     0.314 C 
BRANCH  19  20
ATOM     20  C   UNL     1       0.227  -5.417  -4.042  1.00  0.00     0.429 C 
ATOM     21  F   UNL     1       0.821  -6.610  -3.785  1.00  0.00    -0.167 F 
ATOM     22  F   UNL     1      -0.241  -5.487  -5.310  1.00  0.00    -0.167 F 
ATOM     23  F   UNL     1       1.195  -4.475  -4.031  1.00  0.00    -0.167 F 
ENDBRANCH  19  20
ENDBRANCH   5   8
ENDBRANCH   3   4
ENDBRANCH   2   3
ENDBRANCH   1   2
BRANCH   1  24
ATOM     24  C   UNL     1      -4.771  -8.828  -6.231  1.00  0.00     0.116 C 
BRANCH  24  25
ATOM     25  N   UNL     1      -3.865  -9.929  -5.937  1.00  0.00    -0.352 N 
ATOM     26  C   UNL     1      -3.792 -11.152  -6.562  1.00  0.00     0.251 C 
ATOM     27  H   UNL     1      -3.226  -9.780  -5.203  1.00  0.00     0.163 HD
ATOM     28  O   UNL     1      -3.022 -12.017  -6.157  1.00  0.00    -0.269 OA
BRANCH  26  29
ATOM     29  C   UNL     1      -4.693 -11.417  -7.699  1.00  0.00     0.039 A 
ATOM     30  C   UNL     1      -5.560 -12.509  -7.629  1.00  0.00     0.014 A 
ATOM     31  C   UNL     1      -4.732 -10.540  -8.786  1.00  0.00     0.014 A 
ATOM     32  C   UNL     1      -6.526 -12.679  -8.621  1.00  0.00     0.010 A 
ATOM     33  C   UNL     1      -5.731 -10.680  -9.743  1.00  0.00     0.010 A 
ATOM     34  C   UNL     1      -6.641 -11.744  -9.663  1.00  0.00    -0.014 A 
BRANCH  34  35
ATOM     35  C   UNL     1      -7.716 -11.860 -10.677  1.00  0.00     0.031 A 
ATOM     36  C   UNL     1      -7.367 -12.165 -12.105  1.00  0.00     0.074 A 
ATOM     37  C   UNL     1      -8.995 -11.635 -10.320  1.00  0.00     0.049 A 
ATOM     38  N   UNL     1      -8.153 -12.243 -13.146  1.00  0.00    -0.248 NA
ATOM     39  C   UNL     1      -5.943 -12.388 -12.405  1.00  0.00     0.031 C 
ATOM     40  C   UNL     1      -9.450 -11.290  -8.970  1.00  0.00     0.029 A 
ATOM     41  N   UNL     1     -10.149 -11.658 -11.062  1.00  0.00    -0.354 N 
ATOM     42  C   UNL     1      -7.321 -12.515 -14.225  1.00  0.00     0.074 A 
ATOM     43  C   UNL     1      -5.965 -12.538 -13.721  1.00  0.00     0.031 C 
ATOM     44  C   UNL     1     -10.787 -11.163  -8.976  1.00  0.00     0.029 A 
ATOM     45  C   UNL     1     -11.281 -11.388 -10.331  1.00  0.00     0.049 A 
ATOM     46  H   UNL     1     -10.164 -11.851 -12.027  1.00  0.00     0.167 HD
ATOM     47  C   UNL     1      -7.660 -12.750 -15.514  1.00  0.00     0.037 A 
ATOM     48  C   UNL     1     -12.572 -11.331 -10.712  1.00  0.00     0.037 A 
ATOM     49  C   UNL     1      -9.012 -12.752 -16.005  1.00  0.00     0.049 A 
ATOM     50  C   UNL     1     -12.925 -11.597 -12.149  1.00  0.00     0.074 A 
ATOM     51  C   UNL     1      -9.464 -13.020 -17.285  1.00  0.00     0.029 A 
ATOM     52  N   UNL     1     -10.133 -12.481 -15.233  1.00  0.00    -0.354 N 
ATOM     53  N   UNL     1     -12.129 -11.887 -13.150  1.00  0.00    -0.248 NA
ATOM     54  C   UNL     1     -14.348 -11.528 -12.509  1.00  0.00     0.031 C 
ATOM     55  C   UNL     1     -10.857 -12.887 -17.293  1.00  0.00     0.029 A 
ATOM     56  C   UNL     1     -11.275 -12.565 -16.011  1.00  0.00     0.049 A 
ATOM     57  H   UNL     1     -10.118 -12.261 -14.274  1.00  0.00     0.167 HD
ATOM     58  C   UNL     1     -12.954 -12.051 -14.256  1.00  0.00     0.074 A 
ATOM     59  C   UNL     1     -14.313 -11.838 -13.799  1.00  0.00     0.031 C 
ATOM     60  C   UNL     1     -12.618 -12.350 -15.534  1.00  0.00     0.037 A 
BRANCH  47  61
ATOM     61  C   UNL     1      -6.545 -13.039 -16.476  1.00  0.00     0.058 A 
ATOM     62  C   UNL     1      -5.859 -14.264 -16.449  1.00  0.00     0.135 A 
ATOM     63  C   UNL     1      -6.163 -12.093 -17.440  1.00  0.00     0.135 A 
ATOM     64  F   UNL     1      -6.173 -15.194 -15.534  1.00  0.00    -0.206 F 
ATOM     65  C   UNL     1      -4.813 -14.530 -17.325  1.00  0.00     0.059 A 
ATOM     66  C   UNL     1      -5.134 -12.348 -18.342  1.00  0.00     0.059 A 
ATOM     67  F   UNL     1      -6.784 -10.905 -17.505  1.00  0.00    -0.206 F 
ATOM     68  C   UNL     1      -4.455 -13.563 -18.266  1.00  0.00     0.060 A 
BRANCH  68  69
ATOM     69  S   UNL     1      -3.089 -13.921 -19.392  1.00  0.00     0.124 S 
ATOM     70  O   UNL     1      -1.938 -13.767 -18.508  1.00  0.00    -0.237 OA
ATOM     71  O   UNL     1      -3.383 -15.286 -19.817  1.00  0.00    -0.237 OA
ATOM     72  O   UNL     1      -3.227 -12.902 -20.427  1.00  0.00    -0.744 OA
ENDBRANCH  68  69
ENDBRANCH  47  61
BRANCH  48  73
ATOM     73  C   UNL     1     -13.626 -11.050  -9.705  1.00  0.00     0.058 A 
ATOM     74  C   UNL     1     -14.459 -12.077  -9.238  1.00  0.00     0.135 A 
ATOM     75  C   UNL     1     -13.800  -9.768  -9.163  1.00  0.00     0.135 A 
ATOM     76  F   UNL     1     -14.333 -13.318  -9.732  1.00  0.00    -0.206 F 
ATOM     77  C   UNL     1     -15.430 -11.845  -8.270  1.00  0.00     0.059 A 
ATOM     78  C   UNL     1     -14.752  -9.513  -8.181  1.00  0.00     0.059 A 
ATOM     79  F   UNL     1     -13.017  -8.755  -9.568  1.00  0.00    -0.206 F 
ATOM     80  C   UNL     1     -15.565 -10.559  -7.743  1.00  0.00     0.060 A 
BRANCH  80  81
ATOM     81  S   UNL     1     -16.781 -10.284  -6.436  1.00  0.00     0.124 S 
ATOM     82  O   UNL     1     -18.032 -10.326  -7.183  1.00  0.00    -0.237 OA
ATOM     83  O   UNL     1     -16.532 -11.413  -5.544  1.00  0.00    -0.237 OA
ATOM     84  O   UNL     1     -16.407  -8.979  -5.900  1.00  0.00    -0.744 OA
ENDBRANCH  80  81
ENDBRANCH  48  73
BRANCH  60  85
ATOM     85  C   UNL     1     -13.733 -12.475 -16.531  1.00  0.00     0.058 A 
ATOM     86  C   UNL     1     -14.361 -11.342 -17.068  1.00  0.00     0.135 A 
ATOM     87  C   UNL     1     -14.126 -13.736 -17.006  1.00  0.00     0.135 A 
ATOM     88  F   UNL     1     -14.025 -10.116 -16.639  1.00  0.00    -0.206 F 
ATOM     89  C   UNL     1     -15.349 -11.455 -18.041  1.00  0.00     0.059 A 
ATOM     90  C   UNL     1     -15.097 -13.872 -17.992  1.00  0.00     0.059 A 
ATOM     91  F   UNL     1     -13.548 -14.849 -16.527  1.00  0.00    -0.206 F 
ATOM     92  C   UNL     1     -15.707 -12.725 -18.499  1.00  0.00     0.060 A 
BRANCH  92  93
ATOM     93  S   UNL     1     -16.952 -12.854 -19.801  1.00  0.00     0.124 S 
ATOM     94  O   UNL     1     -18.180 -12.588 -19.060  1.00  0.00    -0.237 OA
ATOM     95  O   UNL     1     -16.538 -11.813 -20.736  1.00  0.00    -0.237 OA
ATOM     96  O   UNL     1     -16.794 -14.223 -20.285  1.00  0.00    -0.744 OA
ENDBRANCH  92  93
ENDBRANCH  60  85
ENDBRANCH  34  35
ENDBRANCH  26  29
ENDBRANCH  24  25
ENDBRANCH   1  24
TORSDOF 15
