REMARK SMILES CCSC(=S)N1CCc2cc(O)c(OC)cc2[C@]1(C)C(=O)NCCCCNC(=O)c1ccc(-c2c3nc(c(-c4c(F)cc(S(=O)(=O)[O-])cc4F)c4ccc([nH]4)c(-c4c(F)cc(S(=O)(=O)[O-])cc4F)c4nc(c(-c5c(F)cc(S(=O)(=O)[O-])cc5F)c5ccc2[nH]5)C=C4)C=C3)cc1
REMARK SMILES IDX 24 1 23 2 22 3 20 4 21 5 18 7 6 8 7 9 8 10 17 11 19 12 9 13
REMARK SMILES IDX 16 14 10 15 13 16 11 17 4 18 5 19 3 20 2 21 1 22 14 23 15 24
REMARK SMILES IDX 12 25 25 27 26 28 27 29 28 30 29 32 30 33 31 34 95 35 32 36
REMARK SMILES IDX 94 37 33 38 34 39 35 40 88 41 36 42 93 43 87 44 89 45 37 46
REMARK SMILES IDX 92 47 86 48 85 49 38 51 72 52 51 53 71 54 52 55 55 56 70 57
REMARK SMILES IDX 90 58 53 59 54 60 69 62 91 63 56 64 39 65 40 66 49 67 41 68
REMARK SMILES IDX 42 69 48 70 50 71 43 72 44 73 45 74 46 75 47 76 73 77 74 78
REMARK SMILES IDX 83 79 75 80 76 81 82 82 84 83 77 84 78 85 79 86 80 87 81 88
REMARK SMILES IDX 57 89 58 90 67 91 59 92 60 93 66 94 68 95 61 96 62 97 63 98
REMARK SMILES IDX 64 99 65 100
REMARK H PARENT 22 6 12 26 27 31 89 50 55 61
REMARK Flexibility Score: inf
ROOT
ATOM      1  C   UNL     1       0.845  -3.120   2.474  1.00  0.00     0.023 C 
ENDROOT
BRANCH   1   2
ATOM      2  C   UNL     1       2.170  -2.393   2.674  1.00  0.00     0.116 C 
BRANCH   2   3
ATOM      3  N   UNL     1       3.207  -3.261   3.189  1.00  0.00    -0.354 N 
ATOM      4  C   UNL     1       4.375  -3.692   2.620  1.00  0.00     0.250 C 
ATOM      5  O   UNL     1       5.106  -4.363   3.358  1.00  0.00    -0.272 OA
ATOM      6  H   UNL     1       3.045  -3.598   4.100  1.00  0.00     0.163 HD
BRANCH   4   7
ATOM      7  C   UNL     1       4.814  -3.256   1.150  1.00  0.00     0.143 C 
ATOM      8  N   UNL     1       3.677  -3.574   0.205  1.00  0.00    -0.339 N 
ATOM      9  C   UNL     1       3.426  -5.024   0.118  1.00  0.00     0.124 C 
ATOM     10  C   UNL     1       4.607  -5.705  -0.579  1.00  0.00     0.057 C 
ATOM     11  C   UNL     1       6.065  -4.083   0.743  1.00  0.00    -0.006 A 
ATOM     12  C   UNL     1       5.159  -1.749   1.264  1.00  0.00     0.051 C 
ATOM     13  C   UNL     1       5.944  -5.248  -0.043  1.00  0.00    -0.036 A 
ATOM     14  C   UNL     1       7.350  -3.736   1.211  1.00  0.00     0.057 A 
ATOM     15  C   UNL     1       7.092  -5.984  -0.382  1.00  0.00     0.054 A 
ATOM     16  C   UNL     1       8.498  -4.474   0.887  1.00  0.00     0.160 A 
ATOM     17  C   UNL     1       8.358  -5.601   0.078  1.00  0.00     0.157 A 
BRANCH   8  18
ATOM     18  C   UNL     1       3.252  -2.789  -0.875  1.00  0.00     0.137 C 
ATOM     19  S   UNL     1       4.251  -1.936  -1.919  1.00  0.00    -0.053 S 
BRANCH  18  20
ATOM     20  S   UNL     1       1.500  -2.905  -1.135  1.00  0.00    -0.097 SA
BRANCH  20  21
ATOM     21  C   UNL     1       0.972  -1.196  -1.442  1.00  0.00     0.074 C 
ATOM     22  C   UNL     1       1.157  -0.270  -0.253  1.00  0.00     0.016 C 
ENDBRANCH  20  21
ENDBRANCH  18  20
ENDBRANCH   8  18
BRANCH  16  23
ATOM     23  O   UNL     1       9.635  -3.952   1.440  1.00  0.00    -0.493 OA
ATOM     24  C   UNL     1      10.859  -4.643   1.244  1.00  0.00     0.278 C 
ENDBRANCH  16  23
BRANCH  17  25
ATOM     25  O   UNL     1       9.436  -6.359  -0.289  1.00  0.00    -0.504 OA
ATOM     26  H   UNL     1       9.316  -7.112  -0.834  1.00  0.00     0.293 HD
ENDBRANCH  17  25
ENDBRANCH   4   7
ENDBRANCH   2   3
ENDBRANCH   1   2
BRANCH   1  27
ATOM     27  C   UNL     1       0.097  -3.478   3.755  1.00  0.00     0.023 C 
BRANCH  27  28
ATOM     28  C   UNL     1      -0.145  -2.327   4.725  1.00  0.00     0.116 C 
BRANCH  28  29
ATOM     29  N   UNL     1      -0.806  -1.168   4.138  1.00  0.00    -0.352 N 
ATOM     30  C   UNL     1      -1.692  -0.296   4.735  1.00  0.00     0.251 C 
ATOM     31  H   UNL     1      -0.592  -0.984   3.194  1.00  0.00     0.163 HD
ATOM     32  O   UNL     1      -2.203   0.612   4.086  1.00  0.00    -0.269 OA
BRANCH  30  33
ATOM     33  C   UNL     1      -2.063  -0.509   6.151  1.00  0.00     0.039 A 
ATOM     34  C   UNL     1      -1.077  -0.739   7.110  1.00  0.00     0.014 A 
ATOM     35  C   UNL     1      -3.415  -0.584   6.498  1.00  0.00     0.014 A 
ATOM     36  C   UNL     1      -1.439  -1.249   8.350  1.00  0.00     0.010 A 
ATOM     37  C   UNL     1      -3.778  -1.010   7.780  1.00  0.00     0.010 A 
ATOM     38  C   UNL     1      -2.792  -1.417   8.692  1.00  0.00    -0.014 A 
BRANCH  38  39
ATOM     39  C   UNL     1      -3.128  -2.074   9.983  1.00  0.00     0.031 A 
ATOM     40  C   UNL     1      -3.787  -3.430  10.007  1.00  0.00     0.074 A 
ATOM     41  C   UNL     1      -2.722  -1.505  11.134  1.00  0.00     0.049 A 
ATOM     42  N   UNL     1      -4.042  -4.203  11.033  1.00  0.00    -0.248 NA
ATOM     43  C   UNL     1      -4.214  -3.994   8.717  1.00  0.00     0.031 C 
ATOM     44  C   UNL     1      -2.051  -0.207  11.237  1.00  0.00     0.029 A 
ATOM     45  N   UNL     1      -2.755  -1.966  12.426  1.00  0.00    -0.354 N 
ATOM     46  C   UNL     1      -4.665  -5.334  10.517  1.00  0.00     0.074 A 
ATOM     47  C   UNL     1      -4.783  -5.133   9.089  1.00  0.00     0.031 C 
ATOM     48  C   UNL     1      -1.649  -0.021  12.502  1.00  0.00     0.029 A 
ATOM     49  C   UNL     1      -2.086  -1.155  13.312  1.00  0.00     0.049 A 
ATOM     50  H   UNL     1      -3.213  -2.796  12.692  1.00  0.00     0.167 HD
ATOM     51  C   UNL     1      -5.085  -6.447  11.166  1.00  0.00     0.037 A 
ATOM     52  C   UNL     1      -1.837  -1.310  14.626  1.00  0.00     0.037 A 
ATOM     53  C   UNL     1      -4.950  -6.657  12.583  1.00  0.00     0.049 A 
ATOM     54  C   UNL     1      -2.354  -2.527  15.334  1.00  0.00     0.074 A 
ATOM     55  C   UNL     1      -5.350  -7.749  13.334  1.00  0.00     0.029 A 
ATOM     56  N   UNL     1      -4.364  -5.760  13.463  1.00  0.00    -0.354 N 
ATOM     57  N   UNL     1      -2.967  -3.571  14.831  1.00  0.00    -0.248 NA
ATOM     58  C   UNL     1      -2.171  -2.575  16.791  1.00  0.00     0.031 C 
ATOM     59  C   UNL     1      -5.031  -7.499  14.674  1.00  0.00     0.029 A 
ATOM     60  C   UNL     1      -4.406  -6.265  14.752  1.00  0.00     0.049 A 
ATOM     61  H   UNL     1      -3.975  -4.892  13.209  1.00  0.00     0.167 HD
ATOM     62  C   UNL     1      -3.248  -4.401  15.910  1.00  0.00     0.074 A 
ATOM     63  C   UNL     1      -2.720  -3.746  17.090  1.00  0.00     0.031 C 
ATOM     64  C   UNL     1      -3.891  -5.593  15.919  1.00  0.00     0.037 A 
BRANCH  51  65
ATOM     65  C   UNL     1      -5.739  -7.521  10.343  1.00  0.00     0.058 A 
ATOM     66  C   UNL     1      -4.989  -8.358   9.501  1.00  0.00     0.135 A 
ATOM     67  C   UNL     1      -7.127  -7.724  10.402  1.00  0.00     0.135 A 
ATOM     68  F   UNL     1      -3.660  -8.195   9.397  1.00  0.00    -0.206 F 
ATOM     69  C   UNL     1      -5.596  -9.336   8.721  1.00  0.00     0.059 A 
ATOM     70  C   UNL     1      -7.753  -8.710   9.645  1.00  0.00     0.059 A 
ATOM     71  F   UNL     1      -7.889  -6.952  11.191  1.00  0.00    -0.206 F 
ATOM     72  C   UNL     1      -6.980  -9.499   8.793  1.00  0.00     0.060 A 
BRANCH  72  73
ATOM     73  S   UNL     1      -7.759 -10.751   7.750  1.00  0.00     0.124 S 
ATOM     74  O   UNL     1      -7.722 -10.101   6.443  1.00  0.00    -0.237 OA
ATOM     75  O   UNL     1      -6.868 -11.895   7.913  1.00  0.00    -0.237 OA
ATOM     76  O   UNL     1      -9.086 -10.905   8.338  1.00  0.00    -0.744 OA
ENDBRANCH  72  73
ENDBRANCH  51  65
BRANCH  52  77
ATOM     77  C   UNL     1      -1.031  -0.288  15.339  1.00  0.00     0.058 A 
ATOM     78  C   UNL     1       0.296  -0.553  15.706  1.00  0.00     0.135 A 
ATOM     79  C   UNL     1      -1.542   0.993  15.600  1.00  0.00     0.135 A 
ATOM     80  F   UNL     1       0.824  -1.766  15.481  1.00  0.00    -0.206 F 
ATOM     81  C   UNL     1       1.096   0.421  16.293  1.00  0.00     0.059 A 
ATOM     82  C   UNL     1      -0.756   1.989  16.168  1.00  0.00     0.059 A 
ATOM     83  F   UNL     1      -2.803   1.296  15.254  1.00  0.00    -0.206 F 
ATOM     84  C   UNL     1       0.563   1.693  16.510  1.00  0.00     0.060 A 
BRANCH  84  85
ATOM     85  S   UNL     1       1.639   2.981  17.180  1.00  0.00     0.124 S 
ATOM     86  O   UNL     1       1.726   2.590  18.582  1.00  0.00    -0.237 OA
ATOM     87  O   UNL     1       2.854   2.806  16.390  1.00  0.00    -0.237 OA
ATOM     88  O   UNL     1       0.898   4.209  16.910  1.00  0.00    -0.744 OA
ENDBRANCH  84  85
ENDBRANCH  52  77
BRANCH  64  89
ATOM     89  C   UNL     1      -4.084  -6.264  17.247  1.00  0.00     0.058 A 
ATOM     90  C   UNL     1      -5.094  -5.848  18.127  1.00  0.00     0.135 A 
ATOM     91  C   UNL     1      -3.314  -7.381  17.606  1.00  0.00     0.135 A 
ATOM     92  F   UNL     1      -5.851  -4.780  17.830  1.00  0.00    -0.206 F 
ATOM     93  C   UNL     1      -5.336  -6.518  19.321  1.00  0.00     0.059 A 
ATOM     94  C   UNL     1      -3.548  -8.076  18.788  1.00  0.00     0.059 A 
ATOM     95  F   UNL     1      -2.339  -7.819  16.794  1.00  0.00    -0.206 F 
ATOM     96  C   UNL     1      -4.561  -7.635  19.640  1.00  0.00     0.060 A 
BRANCH  96  97
ATOM     97  S   UNL     1      -4.930  -8.535  21.162  1.00  0.00     0.124 S 
ATOM     98  O   UNL     1      -4.393  -7.633  22.175  1.00  0.00    -0.237 OA
ATOM     99  O   UNL     1      -6.385  -8.643  21.116  1.00  0.00    -0.237 OA
ATOM    100  O   UNL     1      -4.210  -9.794  20.995  1.00  0.00    -0.744 OA
ENDBRANCH  96  97
ENDBRANCH  64  89
ENDBRANCH  38  39
ENDBRANCH  30  33
ENDBRANCH  28  29
ENDBRANCH  27  28
ENDBRANCH   1  27
TORSDOF 19
