REMARK SMILES COc1ccccc1[C@@H]1CN(C(=O)Cc2csc(C)n2)C[C@H]1C(=O)NCCCCNC(=O)c1ccc(-c2c3nc(c(-c4c(F)cc(S(=O)(=O)[O-])cc4F)c4ccc([nH]4)c(-c4c(F)cc(S(=O)(=O)[O-])cc4F)c4nc(c(-c5c(F)cc(S(=O)(=O)[O-])cc5F)c5ccc2[nH]5)C=C4)C=C3)cc1
REMARK SMILES IDX 27 1 26 2 25 3 23 4 24 5 22 7 9 8 10 9 11 10 21 11 8 12 3 13
REMARK SMILES IDX 4 14 5 15 7 16 6 17 2 18 1 19 12 20 13 21 14 22 15 23 16 24
REMARK SMILES IDX 20 25 17 26 18 27 19 28 28 29 29 30 30 31 31 32 32 34 33 35
REMARK SMILES IDX 34 36 98 37 35 38 97 39 36 40 37 41 38 42 91 43 39 44 96 45
REMARK SMILES IDX 90 46 92 47 40 48 95 49 89 50 88 51 41 53 75 54 54 55 74 56
REMARK SMILES IDX 55 57 58 58 73 59 93 60 56 61 57 62 72 64 94 65 59 66 42 67
REMARK SMILES IDX 43 68 52 69 44 70 45 71 51 72 53 73 46 74 47 75 48 76 49 77
REMARK SMILES IDX 50 78 76 79 77 80 86 81 78 82 79 83 85 84 87 85 80 86 81 87
REMARK SMILES IDX 82 88 83 89 84 90 60 91 61 92 70 93 62 94 63 95 69 96 71 97
REMARK SMILES IDX 64 98 65 99 66 100 67 101 68 102
REMARK H PARENT 25 6 30 33 92 52 58 63
REMARK Flexibility Score: inf
ROOT
ATOM      1  C   UNL     1       6.400   2.804   0.647  1.00  0.00     0.023 C 
ENDROOT
BRANCH   1   2
ATOM      2  C   UNL     1       5.802   1.578   1.333  1.00  0.00     0.116 C 
BRANCH   2   3
ATOM      3  N   UNL     1       4.649   1.932   2.137  1.00  0.00    -0.356 N 
ATOM      4  C   UNL     1       3.332   1.645   1.979  1.00  0.00     0.225 C 
ATOM      5  O   UNL     1       2.545   2.110   2.808  1.00  0.00    -0.275 OA
ATOM      6  H   UNL     1       4.857   2.471   2.934  1.00  0.00     0.163 HD
BRANCH   4   7
ATOM      7  C   UNL     1       2.816   0.784   0.842  1.00  0.00     0.107 C 
ATOM      8  C   UNL     1       3.072   1.363  -0.560  1.00  0.00     0.057 C 
ATOM      9  C   UNL     1       3.432   0.164  -1.426  1.00  0.00     0.128 C 
ATOM     10  N   UNL     1       3.933  -0.837  -0.510  1.00  0.00    -0.341 N 
ATOM     11  C   UNL     1       3.433  -0.617   0.840  1.00  0.00     0.133 C 
BRANCH   8  12
ATOM     12  C   UNL     1       2.010   2.269  -1.144  1.00  0.00    -0.000 A 
ATOM     13  C   UNL     1       0.744   1.858  -1.593  1.00  0.00     0.122 A 
ATOM     14  C   UNL     1      -0.143   2.781  -2.163  1.00  0.00     0.047 A 
ATOM     15  C   UNL     1       0.223   4.118  -2.317  1.00  0.00     0.004 A 
ATOM     16  C   UNL     1       2.356   3.628  -1.314  1.00  0.00     0.008 A 
ATOM     17  C   UNL     1       1.482   4.538  -1.908  1.00  0.00     0.001 A 
BRANCH  13  18
ATOM     18  O   UNL     1       0.390   0.542  -1.728  1.00  0.00    -0.496 OA
ATOM     19  C   UNL     1      -0.102  -0.062  -0.537  1.00  0.00     0.278 C 
ENDBRANCH  13  18
ENDBRANCH   8  12
BRANCH  10  20
ATOM     20  C   UNL     1       4.690  -1.947  -0.829  1.00  0.00     0.228 C 
ATOM     21  O   UNL     1       4.997  -2.769   0.039  1.00  0.00    -0.274 OA
BRANCH  20  22
ATOM     22  C   UNL     1       5.241  -2.064  -2.244  1.00  0.00     0.157 C 
BRANCH  22  23
ATOM     23  C   UNL     1       4.210  -2.401  -3.274  1.00  0.00     0.061 A 
ATOM     24  C   UNL     1       3.642  -1.536  -4.193  1.00  0.00     0.091 A 
ATOM     25  N   UNL     1       3.805  -3.720  -3.415  1.00  0.00    -0.246 NA
ATOM     26  S   UNL     1       2.519  -2.363  -5.184  1.00  0.00    -0.127 S 
ATOM     27  C   UNL     1       2.932  -3.829  -4.393  1.00  0.00     0.090 A 
ATOM     28  C   UNL     1       2.318  -5.108  -4.836  1.00  0.00     0.079 C 
ENDBRANCH  22  23
ENDBRANCH  20  22
ENDBRANCH  10  20
ENDBRANCH   4   7
ENDBRANCH   2   3
ENDBRANCH   1   2
BRANCH   1  29
ATOM     29  C   UNL     1       6.997   3.826   1.610  1.00  0.00     0.023 C 
BRANCH  29  30
ATOM     30  C   UNL     1       7.964   3.239   2.627  1.00  0.00     0.116 C 
BRANCH  30  31
ATOM     31  N   UNL     1       9.023   2.462   2.002  1.00  0.00    -0.352 N 
ATOM     32  C   UNL     1      10.367   2.465   2.280  1.00  0.00     0.251 C 
ATOM     33  H   UNL     1       8.738   1.852   1.284  1.00  0.00     0.163 HD
ATOM     34  O   UNL     1      11.147   1.875   1.545  1.00  0.00    -0.269 OA
BRANCH  32  35
ATOM     35  C   UNL     1      10.852   3.210   3.459  1.00  0.00     0.039 A 
ATOM     36  C   UNL     1      11.982   4.015   3.327  1.00  0.00     0.014 A 
ATOM     37  C   UNL     1      10.176   3.125   4.680  1.00  0.00     0.014 A 
ATOM     38  C   UNL     1      12.417   4.763   4.420  1.00  0.00     0.010 A 
ATOM     39  C   UNL     1      10.550   3.948   5.733  1.00  0.00     0.010 A 
ATOM     40  C   UNL     1      11.694   4.750   5.626  1.00  0.00    -0.014 A 
BRANCH  40  41
ATOM     41  C   UNL     1      12.160   5.531   6.797  1.00  0.00     0.031 A 
ATOM     42  C   UNL     1      12.577   4.818   8.056  1.00  0.00     0.074 A 
ATOM     43  C   UNL     1      12.188   6.876   6.732  1.00  0.00     0.049 A 
ATOM     44  N   UNL     1      13.050   5.316   9.169  1.00  0.00    -0.248 NA
ATOM     45  C   UNL     1      12.413   3.354   8.081  1.00  0.00     0.031 C 
ATOM     46  C   UNL     1      11.755   7.678   5.585  1.00  0.00     0.029 A 
ATOM     47  N   UNL     1      12.612   7.806   7.646  1.00  0.00    -0.354 N 
ATOM     48  C   UNL     1      13.224   4.234  10.024  1.00  0.00     0.074 A 
ATOM     49  C   UNL     1      12.741   3.063   9.329  1.00  0.00     0.031 C 
ATOM     50  C   UNL     1      11.987   8.975   5.843  1.00  0.00     0.029 A 
ATOM     51  C   UNL     1      12.552   9.100   7.183  1.00  0.00     0.049 A 
ATOM     52  H   UNL     1      12.929   7.571   8.547  1.00  0.00     0.167 HD
ATOM     53  C   UNL     1      13.766   4.212  11.265  1.00  0.00     0.037 A 
ATOM     54  C   UNL     1      12.928  10.252   7.769  1.00  0.00     0.037 A 
ATOM     55  C   UNL     1      14.267   5.383  11.936  1.00  0.00     0.049 A 
ATOM     56  C   UNL     1      13.537  10.204   9.144  1.00  0.00     0.074 A 
ATOM     57  C   UNL     1      14.896   5.468  13.165  1.00  0.00     0.029 A 
ATOM     58  N   UNL     1      14.189   6.675  11.436  1.00  0.00    -0.354 N 
ATOM     59  N   UNL     1      13.771   9.163   9.909  1.00  0.00    -0.248 NA
ATOM     60  C   UNL     1      13.947  11.486   9.729  1.00  0.00     0.031 C 
ATOM     61  C   UNL     1      15.146   6.818  13.434  1.00  0.00     0.029 A 
ATOM     62  C   UNL     1      14.734   7.568  12.344  1.00  0.00     0.049 A 
ATOM     63  H   UNL     1      13.803   6.921  10.565  1.00  0.00     0.167 HD
ATOM     64  C   UNL     1      14.394   9.661  11.049  1.00  0.00     0.074 A 
ATOM     65  C   UNL     1      14.505  11.094  10.866  1.00  0.00     0.031 C 
ATOM     66  C   UNL     1      14.841   8.993  12.143  1.00  0.00     0.037 A 
BRANCH  53  67
ATOM     67  C   UNL     1      13.830   2.885  11.973  1.00  0.00     0.058 A 
ATOM     68  C   UNL     1      14.654   1.838  11.524  1.00  0.00     0.135 A 
ATOM     69  C   UNL     1      13.055   2.654  13.121  1.00  0.00     0.135 A 
ATOM     70  F   UNL     1      15.406   1.994  10.423  1.00  0.00    -0.206 F 
ATOM     71  C   UNL     1      14.672   0.600  12.158  1.00  0.00     0.059 A 
ATOM     72  C   UNL     1      13.084   1.435  13.793  1.00  0.00     0.059 A 
ATOM     73  F   UNL     1      12.249   3.616  13.598  1.00  0.00    -0.206 F 
ATOM     74  C   UNL     1      13.879   0.407  13.291  1.00  0.00     0.060 A 
BRANCH  74  75
ATOM     75  S   UNL     1      13.900  -1.210  14.092  1.00  0.00     0.124 S 
ATOM     76  O   UNL     1      13.155  -2.019  13.133  1.00  0.00    -0.237 OA
ATOM     77  O   UNL     1      15.328  -1.493  14.187  1.00  0.00    -0.237 OA
ATOM     78  O   UNL     1      13.226  -0.968  15.364  1.00  0.00    -0.744 OA
ENDBRANCH  74  75
ENDBRANCH  53  67
BRANCH  54  79
ATOM     79  C   UNL     1      12.800  11.538   7.032  1.00  0.00     0.058 A 
ATOM     80  C   UNL     1      13.938  12.225   6.582  1.00  0.00     0.135 A 
ATOM     81  C   UNL     1      11.546  12.098   6.746  1.00  0.00     0.135 A 
ATOM     82  F   UNL     1      15.161  11.732   6.833  1.00  0.00    -0.206 F 
ATOM     83  C   UNL     1      13.840  13.428   5.891  1.00  0.00     0.059 A 
ATOM     84  C   UNL     1      11.420  13.286   6.033  1.00  0.00     0.059 A 
ATOM     85  F   UNL     1      10.425  11.472   7.137  1.00  0.00    -0.206 F 
ATOM     86  C   UNL     1      12.575  13.949   5.617  1.00  0.00     0.060 A 
BRANCH  86  87
ATOM     87  S   UNL     1      12.459  15.485   4.674  1.00  0.00     0.124 S 
ATOM     88  O   UNL     1      12.939  16.463   5.643  1.00  0.00    -0.237 OA
ATOM     89  O   UNL     1      13.343  15.216   3.545  1.00  0.00    -0.237 OA
ATOM     90  O   UNL     1      11.039  15.568   4.343  1.00  0.00    -0.744 OA
ENDBRANCH  86  87
ENDBRANCH  54  79
BRANCH  66  91
ATOM     91  C   UNL     1      15.541   9.800  13.203  1.00  0.00     0.058 A 
ATOM     92  C   UNL     1      14.859  10.720  14.015  1.00  0.00     0.135 A 
ATOM     93  C   UNL     1      16.919   9.632  13.421  1.00  0.00     0.135 A 
ATOM     94  F   UNL     1      13.542  10.922  13.849  1.00  0.00    -0.206 F 
ATOM     95  C   UNL     1      15.525  11.478  14.972  1.00  0.00     0.059 A 
ATOM     96  C   UNL     1      17.599  10.353  14.397  1.00  0.00     0.059 A 
ATOM     97  F   UNL     1      17.619   8.754  12.685  1.00  0.00    -0.206 F 
ATOM     98  C   UNL     1      16.897  11.290  15.152  1.00  0.00     0.060 A 
BRANCH  98  99
ATOM     99  S   UNL     1      17.752  12.281  16.394  1.00  0.00     0.124 S 
ATOM    100  O   UNL     1      17.800  13.587  15.744  1.00  0.00    -0.237 OA
ATOM    101  O   UNL     1      16.860  12.178  17.545  1.00  0.00    -0.237 OA
ATOM    102  O   UNL     1      19.038  11.606  16.543  1.00  0.00    -0.744 OA
ENDBRANCH  98  99
ENDBRANCH  66  91
ENDBRANCH  40  41
ENDBRANCH  32  35
ENDBRANCH  30  31
ENDBRANCH  29  30
ENDBRANCH   1  29
TORSDOF 19
