REMARK SMILES O=C(NCCCCNC(=O)c1ccc(Cn2ccc3ccc(Br)cc32)nc1)c1ccc(-c2c3nc(c(-c4c(F)cc(S(=O)(=O)[O-])cc4F)c4ccc([nH]4)c(-c4c(F)cc(S(=O)(=O)[O-])cc4F)c4nc(c(-c5c(F)cc(S(=O)(=O)[O-])cc5F)c5ccc2[nH]5)C=C4)C=C3)cc1
REMARK SMILES IDX 5 1 4 2 3 3 1 4 2 5 28 7 29 8 93 9 30 10 92 11 31 12 32 13
REMARK SMILES IDX 33 14 86 15 34 16 91 17 85 18 87 19 35 20 90 21 84 22 83 23
REMARK SMILES IDX 36 25 70 26 49 27 69 28 50 29 53 30 68 31 88 32 51 33 52 34
REMARK SMILES IDX 67 36 89 37 54 38 37 39 38 40 47 41 39 42 40 43 46 44 48 45
REMARK SMILES IDX 41 46 42 47 43 48 44 49 45 50 71 51 72 52 81 53 73 54 74 55
REMARK SMILES IDX 80 56 82 57 75 58 76 59 77 60 78 61 79 62 55 63 56 64 65 65
REMARK SMILES IDX 57 66 58 67 64 68 66 69 59 70 60 71 61 72 62 73 63 74 6 75
REMARK SMILES IDX 7 76 8 77 9 78 10 80 11 81 12 82 27 83 13 84 26 85 14 86
REMARK SMILES IDX 15 87 16 88 17 89 25 90 18 91 19 92 24 93 20 94 22 95 21 96
REMARK SMILES IDX 23 97
REMARK H PARENT 3 6 87 24 53 35 8 79
REMARK Flexibility Score: inf
ROOT
ATOM      1  C   UNL     1       4.889   1.896  -2.424  1.00  0.00     0.023 C 
ENDROOT
BRANCH   1   2
ATOM      2  C   UNL     1       4.498   1.058  -1.218  1.00  0.00     0.116 C 
BRANCH   2   3
ATOM      3  N   UNL     1       3.050   0.889  -1.048  1.00  0.00    -0.352 N 
ATOM      4  O   UNL     1       1.264  -0.212  -0.160  1.00  0.00    -0.269 OA
ATOM      5  C   UNL     1       2.392   0.224  -0.015  1.00  0.00     0.251 C 
ATOM      6  H   UNL     1       2.479   1.291  -1.742  1.00  0.00     0.163 HD
BRANCH   5   7
ATOM      7  C   UNL     1       3.105   0.086   1.271  1.00  0.00     0.039 A 
ATOM      8  C   UNL     1       3.077  -1.067   2.054  1.00  0.00     0.014 A 
ATOM      9  C   UNL     1       3.901   1.162   1.632  1.00  0.00     0.014 A 
ATOM     10  C   UNL     1       3.927  -1.126   3.160  1.00  0.00     0.010 A 
ATOM     11  C   UNL     1       4.935   0.968   2.497  1.00  0.00     0.010 A 
ATOM     12  C   UNL     1       4.877  -0.104   3.361  1.00  0.00    -0.014 A 
BRANCH  12  13
ATOM     13  C   UNL     1       5.885  -0.154   4.415  1.00  0.00     0.031 A 
ATOM     14  C   UNL     1       6.546  -1.473   4.513  1.00  0.00     0.074 A 
ATOM     15  C   UNL     1       6.289   0.919   5.137  1.00  0.00     0.049 A 
ATOM     16  N   UNL     1       6.253  -2.410   5.349  1.00  0.00    -0.248 NA
ATOM     17  C   UNL     1       7.453  -1.899   3.435  1.00  0.00     0.031 C 
ATOM     18  C   UNL     1       5.930   2.338   4.974  1.00  0.00     0.029 A 
ATOM     19  N   UNL     1       7.180   0.973   6.165  1.00  0.00    -0.354 N 
ATOM     20  C   UNL     1       7.159  -3.428   5.093  1.00  0.00     0.074 A 
ATOM     21  C   UNL     1       7.681  -3.170   3.776  1.00  0.00     0.031 C 
ATOM     22  C   UNL     1       6.758   3.116   5.706  1.00  0.00     0.029 A 
ATOM     23  C   UNL     1       7.574   2.259   6.540  1.00  0.00     0.049 A 
ATOM     24  H   UNL     1       7.522   0.165   6.611  1.00  0.00     0.167 HD
ATOM     25  C   UNL     1       7.620  -4.197   6.116  1.00  0.00     0.037 A 
ATOM     26  C   UNL     1       8.476   2.597   7.500  1.00  0.00     0.037 A 
ATOM     27  C   UNL     1       6.792  -4.037   7.291  1.00  0.00     0.049 A 
ATOM     28  C   UNL     1       8.551   1.436   8.421  1.00  0.00     0.074 A 
ATOM     29  C   UNL     1       5.451  -4.223   7.571  1.00  0.00     0.029 A 
ATOM     30  N   UNL     1       7.274  -3.216   8.282  1.00  0.00    -0.354 N 
ATOM     31  N   UNL     1       7.560   1.045   9.176  1.00  0.00    -0.248 NA
ATOM     32  C   UNL     1       9.564   0.430   8.149  1.00  0.00     0.031 C 
ATOM     33  C   UNL     1       5.099  -3.147   8.440  1.00  0.00     0.029 A 
ATOM     34  C   UNL     1       6.253  -2.411   8.716  1.00  0.00     0.049 A 
ATOM     35  H   UNL     1       8.197  -3.207   8.623  1.00  0.00     0.167 HD
ATOM     36  C   UNL     1       7.587  -0.339   9.103  1.00  0.00     0.074 A 
ATOM     37  C   UNL     1       8.895  -0.660   8.531  1.00  0.00     0.031 C 
ATOM     38  C   UNL     1       6.443  -1.073   9.242  1.00  0.00     0.037 A 
BRANCH  25  39
ATOM     39  C   UNL     1       9.034  -4.723   6.201  1.00  0.00     0.058 A 
ATOM     40  C   UNL     1       9.363  -5.620   7.237  1.00  0.00     0.135 A 
ATOM     41  C   UNL     1      10.131  -4.170   5.502  1.00  0.00     0.135 A 
ATOM     42  F   UNL     1       8.400  -6.192   7.977  1.00  0.00    -0.206 F 
ATOM     43  C   UNL     1      10.682  -5.892   7.596  1.00  0.00     0.059 A 
ATOM     44  C   UNL     1      11.452  -4.470   5.808  1.00  0.00     0.059 A 
ATOM     45  F   UNL     1       9.988  -3.238   4.554  1.00  0.00    -0.206 F 
ATOM     46  C   UNL     1      11.720  -5.303   6.880  1.00  0.00     0.060 A 
BRANCH  46  47
ATOM     47  S   UNL     1      13.420  -5.592   7.389  1.00  0.00     0.124 S 
ATOM     48  O   UNL     1      13.454  -4.922   8.683  1.00  0.00    -0.237 OA
ATOM     49  O   UNL     1      13.477  -7.050   7.419  1.00  0.00    -0.237 OA
ATOM     50  O   UNL     1      14.200  -4.962   6.327  1.00  0.00    -0.744 OA
ENDBRANCH  46  47
ENDBRANCH  25  39
BRANCH  26  51
ATOM     51  C   UNL     1       9.522   3.660   7.477  1.00  0.00     0.058 A 
ATOM     52  C   UNL     1      10.303   3.931   8.619  1.00  0.00     0.135 A 
ATOM     53  C   UNL     1       9.994   4.205   6.267  1.00  0.00     0.135 A 
ATOM     54  F   UNL     1       9.935   3.451   9.817  1.00  0.00    -0.206 F 
ATOM     55  C   UNL     1      11.516   4.628   8.553  1.00  0.00     0.059 A 
ATOM     56  C   UNL     1      11.199   4.908   6.177  1.00  0.00     0.059 A 
ATOM     57  F   UNL     1       9.343   3.988   5.114  1.00  0.00    -0.206 F 
ATOM     58  C   UNL     1      11.972   5.088   7.319  1.00  0.00     0.060 A 
BRANCH  58  59
ATOM     59  S   UNL     1      13.625   5.818   7.199  1.00  0.00     0.124 S 
ATOM     60  O   UNL     1      13.467   7.053   7.961  1.00  0.00    -0.237 OA
ATOM     61  O   UNL     1      14.460   4.793   7.816  1.00  0.00    -0.237 OA
ATOM     62  O   UNL     1      13.816   5.993   5.762  1.00  0.00    -0.744 OA
ENDBRANCH  58  59
ENDBRANCH  26  51
BRANCH  38  63
ATOM     63  C   UNL     1       5.224  -0.398   9.824  1.00  0.00     0.058 A 
ATOM     64  C   UNL     1       4.504   0.646   9.216  1.00  0.00     0.135 A 
ATOM     65  C   UNL     1       4.678  -0.953  10.992  1.00  0.00     0.135 A 
ATOM     66  F   UNL     1       4.907   1.179   8.054  1.00  0.00    -0.206 F 
ATOM     67  C   UNL     1       3.308   1.129   9.759  1.00  0.00     0.059 A 
ATOM     68  C   UNL     1       3.475  -0.510  11.533  1.00  0.00     0.059 A 
ATOM     69  F   UNL     1       5.291  -1.985  11.595  1.00  0.00    -0.206 F 
ATOM     70  C   UNL     1       2.798   0.538  10.916  1.00  0.00     0.060 A 
BRANCH  70  71
ATOM     71  S   UNL     1       1.214   1.105  11.578  1.00  0.00     0.124 S 
ATOM     72  O   UNL     1       1.534   2.454  12.031  1.00  0.00    -0.237 OA
ATOM     73  O   UNL     1       0.337   1.019  10.414  1.00  0.00    -0.237 OA
ATOM     74  O   UNL     1       0.922   0.144  12.640  1.00  0.00    -0.744 OA
ENDBRANCH  70  71
ENDBRANCH  38  63
ENDBRANCH  12  13
ENDBRANCH   5   7
ENDBRANCH   2   3
ENDBRANCH   1   2
BRANCH   1  75
ATOM     75  C   UNL     1       4.421   3.357  -2.379  1.00  0.00     0.023 C 
BRANCH  75  76
ATOM     76  C   UNL     1       4.805   4.170  -1.138  1.00  0.00     0.116 C 
BRANCH  76  77
ATOM     77  N   UNL     1       6.241   4.285  -0.950  1.00  0.00    -0.352 N 
ATOM     78  C   UNL     1       7.044   5.388  -1.108  1.00  0.00     0.252 C 
ATOM     79  H   UNL     1       6.701   3.461  -0.672  1.00  0.00     0.163 HD
ATOM     80  O   UNL     1       8.264   5.285  -1.100  1.00  0.00    -0.269 OA
BRANCH  78  81
ATOM     81  C   UNL     1       6.427   6.694  -1.357  1.00  0.00     0.058 A 
ATOM     82  C   UNL     1       5.537   7.297  -0.470  1.00  0.00     0.017 A 
ATOM     83  C   UNL     1       6.718   7.334  -2.544  1.00  0.00     0.125 A 
ATOM     84  C   UNL     1       4.935   8.505  -0.827  1.00  0.00     0.026 A 
ATOM     85  N   UNL     1       6.106   8.475  -2.931  1.00  0.00    -0.259 NA
ATOM     86  C   UNL     1       5.240   9.067  -2.067  1.00  0.00     0.060 A 
BRANCH  86  87
ATOM     87  C   UNL     1       4.622  10.370  -2.512  1.00  0.00     0.178 C 
BRANCH  87  88
ATOM     88  N   UNL     1       5.543  11.492  -2.350  1.00  0.00    -0.341 N 
ATOM     89  C   UNL     1       5.391  12.488  -1.415  1.00  0.00     0.087 A 
ATOM     90  C   UNL     1       6.679  11.728  -3.106  1.00  0.00     0.049 A 
ATOM     91  C   UNL     1       6.472  13.334  -1.518  1.00  0.00     0.028 A 
ATOM     92  C   UNL     1       7.306  12.851  -2.562  1.00  0.00    -0.000 A 
ATOM     93  C   UNL     1       7.234  11.028  -4.192  1.00  0.00     0.042 A 
ATOM     94  C   UNL     1       8.545  13.267  -3.092  1.00  0.00     0.011 A 
ATOM     95  C   UNL     1       8.477  11.441  -4.676  1.00  0.00     0.020 A 
ATOM     96  C   UNL     1       9.130  12.543  -4.138  1.00  0.00     0.016 A 
ATOM     97  Br  UNL     1       9.294  10.457  -6.073  1.00  0.00    -0.051 Br
ENDBRANCH  87  88
ENDBRANCH  86  87
ENDBRANCH  78  81
ENDBRANCH  76  77
ENDBRANCH  75  76
ENDBRANCH   1  75
TORSDOF 16
