REMARK SMILES CC(C)[C@H]([NH2+]C[C@H]1CC[C@@H](C(=O)NCCCCNC(=O)c2ccc(-c3c4nc(c(-c5c(F)cc(S(=O)(=O)[O-])cc5F)c5ccc([nH]5)c(-c5c(F)cc(S(=O)(=O)[O-])cc5F)c5nc(c(-c6c(F)cc(S(=O)(=O)[O-])cc6F)c6ccc3[nH]6)C=C5)C=C4)cc2)CC1)c1ccccc1
REMARK SMILES IDX 15 1 14 2 13 3 11 4 12 5 10 7 7 8 8 9 88 10 9 11 87 12 6 13
REMARK SMILES IDX 5 14 4 17 2 18 1 19 3 20 89 21 90 22 94 23 91 24 93 25 92 26
REMARK SMILES IDX 16 27 17 28 18 29 19 30 20 32 21 33 22 34 86 35 23 36 85 37
REMARK SMILES IDX 24 38 25 39 26 40 79 41 27 42 84 43 78 44 80 45 28 46 83 47
REMARK SMILES IDX 77 48 76 49 29 51 63 52 42 53 62 54 43 55 46 56 61 57 81 58
REMARK SMILES IDX 44 59 45 60 60 62 82 63 47 64 30 65 31 66 40 67 32 68 33 69
REMARK SMILES IDX 39 70 41 71 34 72 35 73 36 74 37 75 38 76 64 77 65 78 74 79
REMARK SMILES IDX 66 80 67 81 73 82 75 83 68 84 69 85 70 86 71 87 72 88 48 89
REMARK SMILES IDX 49 90 58 91 50 92 51 93 57 94 59 95 52 96 53 97 54 98 55 99
REMARK SMILES IDX 56 100
REMARK H PARENT 13 6 5 15 5 16 18 31 80 50 46 61
REMARK Flexibility Score: inf
ROOT
ATOM      1  C   UNL     1       1.741  -2.424   2.394  1.00  0.00     0.023 C 
ENDROOT
BRANCH   1   2
ATOM      2  C   UNL     1       2.335  -1.065   2.755  1.00  0.00     0.116 C 
BRANCH   2   3
ATOM      3  N   UNL     1       3.693  -1.148   3.233  1.00  0.00    -0.356 N 
ATOM      4  C   UNL     1       4.875  -0.769   2.692  1.00  0.00     0.223 C 
ATOM      5  O   UNL     1       5.868  -0.906   3.419  1.00  0.00    -0.275 OA
ATOM      6  H   UNL     1       3.777  -1.560   4.123  1.00  0.00     0.163 HD
BRANCH   4   7
ATOM      7  C   UNL     1       5.060  -0.180   1.284  1.00  0.00     0.078 C 
ATOM      8  C   UNL     1       2.764   0.616  -0.536  1.00  0.00     0.044 C 
ATOM      9  C   UNL     1       3.235   1.514   0.627  1.00  0.00     0.010 C 
ATOM     10  C   UNL     1       3.293  -0.834  -0.502  1.00  0.00     0.010 C 
ATOM     11  C   UNL     1       4.655   1.278   1.110  1.00  0.00     0.014 C 
ATOM     12  C   UNL     1       4.674  -1.059   0.100  1.00  0.00     0.014 C 
BRANCH   8  13
ATOM     13  C   UNL     1       1.206   0.566  -0.636  1.00  0.00     0.264 C 
BRANCH  13  14
ATOM     14  N   UNL     1       0.588   1.886  -0.553  1.00  0.00    -0.340 N 
ATOM     15  H   UNL     1       0.925   2.343   0.294  1.00  0.00     0.346 HD
ATOM     16  H   UNL     1       0.850   2.384  -1.404  1.00  0.00     0.346 HD
BRANCH  14  17
ATOM     17  C   UNL     1      -0.893   1.868  -0.514  1.00  0.00     0.216 C 
BRANCH  17  18
ATOM     18  C   UNL     1      -1.457   1.425   0.884  1.00  0.00     0.046 C 
ATOM     19  C   UNL     1      -1.255   2.446   2.012  1.00  0.00     0.014 C 
ATOM     20  C   UNL     1      -2.942   1.045   0.822  1.00  0.00     0.014 C 
ENDBRANCH  17  18
BRANCH  17  21
ATOM     21  C   UNL     1      -1.441   3.240  -0.926  1.00  0.00     0.009 A 
ATOM     22  C   UNL     1      -0.743   4.433  -0.663  1.00  0.00     0.010 A 
ATOM     23  C   UNL     1      -2.715   3.338  -1.510  1.00  0.00     0.010 A 
ATOM     24  C   UNL     1      -1.314   5.677  -0.931  1.00  0.00     0.001 A 
ATOM     25  C   UNL     1      -3.294   4.584  -1.761  1.00  0.00     0.001 A 
ATOM     26  C   UNL     1      -2.596   5.753  -1.465  1.00  0.00     0.000 A 
ENDBRANCH  17  21
ENDBRANCH  14  17
ENDBRANCH  13  14
ENDBRANCH   8  13
ENDBRANCH   4   7
ENDBRANCH   2   3
ENDBRANCH   1   2
BRANCH   1  27
ATOM     27  C   UNL     1       0.844  -3.022   3.474  1.00  0.00     0.023 C 
BRANCH  27  28
ATOM     28  C   UNL     1      -0.413  -2.213   3.781  1.00  0.00     0.116 C 
BRANCH  28  29
ATOM     29  N   UNL     1      -1.317  -2.064   2.650  1.00  0.00    -0.352 N 
ATOM     30  C   UNL     1      -2.690  -1.951   2.653  1.00  0.00     0.251 C 
ATOM     31  H   UNL     1      -0.890  -2.042   1.763  1.00  0.00     0.163 HD
ATOM     32  O   UNL     1      -3.300  -1.982   1.587  1.00  0.00    -0.269 OA
BRANCH  30  33
ATOM     33  C   UNL     1      -3.429  -1.868   3.935  1.00  0.00     0.039 A 
ATOM     34  C   UNL     1      -4.611  -2.602   4.061  1.00  0.00     0.014 A 
ATOM     35  C   UNL     1      -2.927  -1.164   5.032  1.00  0.00     0.014 A 
ATOM     36  C   UNL     1      -5.198  -2.752   5.316  1.00  0.00     0.010 A 
ATOM     37  C   UNL     1      -3.451  -1.399   6.300  1.00  0.00     0.010 A 
ATOM     38  C   UNL     1      -4.570  -2.225   6.458  1.00  0.00    -0.014 A 
BRANCH  38  39
ATOM     39  C   UNL     1      -5.022  -2.626   7.814  1.00  0.00     0.031 A 
ATOM     40  C   UNL     1      -5.530  -1.609   8.794  1.00  0.00     0.074 A 
ATOM     41  C   UNL     1      -4.910  -3.922   8.173  1.00  0.00     0.049 A 
ATOM     42  N   UNL     1      -5.991  -1.793  10.004  1.00  0.00    -0.248 NA
ATOM     43  C   UNL     1      -5.487  -0.198   8.377  1.00  0.00     0.031 C 
ATOM     44  C   UNL     1      -4.333  -4.984   7.339  1.00  0.00     0.029 A 
ATOM     45  N   UNL     1      -5.280  -4.576   9.320  1.00  0.00    -0.354 N 
ATOM     46  C   UNL     1      -6.290  -0.527  10.493  1.00  0.00     0.074 A 
ATOM     47  C   UNL     1      -5.896   0.422   9.475  1.00  0.00     0.031 C 
ATOM     48  C   UNL     1      -4.440  -6.158   7.979  1.00  0.00     0.029 A 
ATOM     49  C   UNL     1      -5.062  -5.934   9.278  1.00  0.00     0.049 A 
ATOM     50  H   UNL     1      -5.665  -4.116  10.101  1.00  0.00     0.167 HD
ATOM     51  C   UNL     1      -6.869  -0.191  11.670  1.00  0.00     0.037 A 
ATOM     52  C   UNL     1      -5.349  -6.894  10.178  1.00  0.00     0.037 A 
ATOM     53  C   UNL     1      -7.274  -1.149  12.666  1.00  0.00     0.049 A 
ATOM     54  C   UNL     1      -6.037  -6.502  11.455  1.00  0.00     0.074 A 
ATOM     55  C   UNL     1      -7.919  -0.923  13.869  1.00  0.00     0.029 A 
ATOM     56  N   UNL     1      -7.074  -2.519  12.571  1.00  0.00    -0.354 N 
ATOM     57  N   UNL     1      -6.393  -5.307  11.864  1.00  0.00    -0.248 NA
ATOM     58  C   UNL     1      -6.376  -7.585  12.386  1.00  0.00     0.031 C 
ATOM     59  C   UNL     1      -8.080  -2.154  14.516  1.00  0.00     0.029 A 
ATOM     60  C   UNL     1      -7.573  -3.151  13.698  1.00  0.00     0.049 A 
ATOM     61  H   UNL     1      -6.641  -2.975  11.814  1.00  0.00     0.167 HD
ATOM     62  C   UNL     1      -7.018  -5.496  13.089  1.00  0.00     0.074 A 
ATOM     63  C   UNL     1      -7.007  -6.923  13.347  1.00  0.00     0.031 C 
ATOM     64  C   UNL     1      -7.553  -4.574  13.928  1.00  0.00     0.037 A 
BRANCH  51  65
ATOM     65  C   UNL     1      -7.110   1.270  11.930  1.00  0.00     0.058 A 
ATOM     66  C   UNL     1      -8.076   1.993  11.209  1.00  0.00     0.135 A 
ATOM     67  C   UNL     1      -6.381   1.957  12.914  1.00  0.00     0.135 A 
ATOM     68  F   UNL     1      -8.791   1.390  10.245  1.00  0.00    -0.206 F 
ATOM     69  C   UNL     1      -8.284   3.351  11.427  1.00  0.00     0.059 A 
ATOM     70  C   UNL     1      -6.592   3.310  13.168  1.00  0.00     0.059 A 
ATOM     71  F   UNL     1      -5.446   1.317  13.633  1.00  0.00    -0.206 F 
ATOM     72  C   UNL     1      -7.532   4.002  12.406  1.00  0.00     0.060 A 
BRANCH  72  73
ATOM     73  S   UNL     1      -7.804   5.767  12.668  1.00  0.00     0.124 S 
ATOM     74  O   UNL     1      -7.145   6.339  11.498  1.00  0.00    -0.237 OA
ATOM     75  O   UNL     1      -9.261   5.862  12.683  1.00  0.00    -0.237 OA
ATOM     76  O   UNL     1      -7.149   6.026  13.946  1.00  0.00    -0.744 OA
ENDBRANCH  72  73
ENDBRANCH  51  65
BRANCH  52  77
ATOM     77  C   UNL     1      -5.037  -8.317   9.875  1.00  0.00     0.058 A 
ATOM     78  C   UNL     1      -6.059  -9.235   9.594  1.00  0.00     0.135 A 
ATOM     79  C   UNL     1      -3.713  -8.783   9.838  1.00  0.00     0.135 A 
ATOM     80  F   UNL     1      -7.341  -8.838   9.616  1.00  0.00    -0.206 F 
ATOM     81  C   UNL     1      -5.785 -10.569   9.306  1.00  0.00     0.059 A 
ATOM     82  C   UNL     1      -3.412 -10.106   9.530  1.00  0.00     0.059 A 
ATOM     83  F   UNL     1      -2.697  -7.940  10.077  1.00  0.00    -0.206 F 
ATOM     84  C   UNL     1      -4.456 -10.995   9.276  1.00  0.00     0.060 A 
BRANCH  84  85
ATOM     85  S   UNL     1      -4.107 -12.717   8.856  1.00  0.00     0.124 S 
ATOM     86  O   UNL     1      -4.491 -13.402  10.085  1.00  0.00    -0.237 OA
ATOM     87  O   UNL     1      -4.975 -12.935   7.704  1.00  0.00    -0.237 OA
ATOM     88  O   UNL     1      -2.677 -12.704   8.560  1.00  0.00    -0.744 OA
ENDBRANCH  84  85
ENDBRANCH  52  77
BRANCH  64  89
ATOM     89  C   UNL     1      -8.193  -5.087  15.187  1.00  0.00     0.058 A 
ATOM     90  C   UNL     1      -7.425  -5.569  16.258  1.00  0.00     0.135 A 
ATOM     91  C   UNL     1      -9.588  -5.059  15.335  1.00  0.00     0.135 A 
ATOM     92  F   UNL     1      -6.087  -5.621  16.162  1.00  0.00    -0.206 F 
ATOM     93  C   UNL     1      -8.022  -6.033  17.425  1.00  0.00     0.059 A 
ATOM     94  C   UNL     1     -10.205  -5.494  16.503  1.00  0.00     0.059 A 
ATOM     95  F   UNL     1     -10.365  -4.598  14.343  1.00  0.00    -0.206 F 
ATOM     96  C   UNL     1      -9.413  -5.993  17.538  1.00  0.00     0.060 A 
BRANCH  96  97
ATOM     97  S   UNL     1     -10.177  -6.575  19.066  1.00  0.00     0.124 S 
ATOM     98  O   UNL     1     -10.077  -8.022  18.909  1.00  0.00    -0.237 OA
ATOM     99  O   UNL     1      -9.318  -5.988  20.090  1.00  0.00    -0.237 OA
ATOM    100  O   UNL     1     -11.528  -6.026  19.000  1.00  0.00    -0.744 OA
ENDBRANCH  96  97
ENDBRANCH  64  89
ENDBRANCH  38  39
ENDBRANCH  30  33
ENDBRANCH  28  29
ENDBRANCH  27  28
ENDBRANCH   1  27
TORSDOF 19
