REMARK SMILES C[C@]([NH3+])(C(=O)N1[C@@H](C(=O)NCCCCNC(=O)c2ccc(-c3c4nc(c(-c5c(F)cc(S(=O)(=O)[O-])cc5F)c5ccc([nH]5)c(-c5c(F)cc(S(=O)(=O)[O-])cc5F)c5nc(c(-c6c(F)cc(S(=O)(=O)[O-])cc6F)c6ccc3[nH]6)C=C5)C=C4)cc2)C[C@H]2CCCC[C@@H]21)C(F)(F)F
REMARK SMILES IDX 12 1 11 2 10 3 8 4 9 5 7 7 6 8 90 9 84 10 85 11 89 12 86 13
REMARK SMILES IDX 88 14 87 15 4 16 5 17 2 18 1 19 91 20 92 21 93 22 94 23 3 24
REMARK SMILES IDX 13 28 14 29 15 30 16 31 17 33 18 34 19 35 83 36 20 37 82 38
REMARK SMILES IDX 21 39 22 40 23 41 76 42 24 43 81 44 75 45 77 46 25 47 80 48
REMARK SMILES IDX 74 49 73 50 26 52 60 53 39 54 59 55 40 56 43 57 58 58 78 59
REMARK SMILES IDX 41 60 42 61 57 63 79 64 44 65 27 66 28 67 37 68 29 69 30 70
REMARK SMILES IDX 36 71 38 72 31 73 32 74 33 75 34 76 35 77 61 78 62 79 71 80
REMARK SMILES IDX 63 81 64 82 70 83 72 84 65 85 66 86 67 87 68 88 69 89 45 90
REMARK SMILES IDX 46 91 55 92 47 93 48 94 54 95 56 96 49 97 50 98 51 99 52 100
REMARK SMILES IDX 53 101
REMARK H PARENT 10 6 3 25 3 26 3 27 15 32 77 51 43 62
REMARK Flexibility Score: inf
ROOT
ATOM      1  C   UNL     1      -1.461  -2.309   0.690  1.00  0.00     0.023 C 
ENDROOT
BRANCH   1   2
ATOM      2  C   UNL     1      -1.025  -1.696  -0.636  1.00  0.00     0.116 C 
BRANCH   2   3
ATOM      3  N   UNL     1      -2.155  -1.209  -1.389  1.00  0.00    -0.354 N 
ATOM      4  C   UNL     1      -2.475   0.071  -1.731  1.00  0.00     0.242 C 
ATOM      5  O   UNL     1      -3.579   0.240  -2.259  1.00  0.00    -0.273 OA
ATOM      6  H   UNL     1      -2.784  -1.899  -1.700  1.00  0.00     0.163 HD
BRANCH   4   7
ATOM      7  C   UNL     1      -1.495   1.258  -1.446  1.00  0.00     0.175 C 
ATOM      8  N   UNL     1      -1.580   1.726  -0.045  1.00  0.00    -0.322 N 
ATOM      9  C   UNL     1      -2.708   2.632   0.048  1.00  0.00     0.089 C 
ATOM     10  C   UNL     1      -1.976   2.497  -2.255  1.00  0.00     0.041 C 
ATOM     11  C   UNL     1      -2.441   3.494  -1.187  1.00  0.00     0.014 C 
ATOM     12  C   UNL     1      -2.850   3.547   1.263  1.00  0.00     0.025 C 
ATOM     13  C   UNL     1      -3.635   4.379  -1.494  1.00  0.00     0.006 C 
ATOM     14  C   UNL     1      -3.998   4.540   1.034  1.00  0.00     0.002 C 
ATOM     15  C   UNL     1      -3.886   5.302  -0.293  1.00  0.00     0.000 C 
BRANCH   8  16
ATOM     16  C   UNL     1      -0.939   1.222   1.068  1.00  0.00     0.294 C 
ATOM     17  O   UNL     1      -1.597   0.941   2.072  1.00  0.00    -0.267 OA
BRANCH  16  18
ATOM     18  C   UNL     1       0.612   1.318   1.133  1.00  0.00     0.267 C 
ATOM     19  C   UNL     1       1.004   2.804   1.225  1.00  0.00     0.100 C 
BRANCH  18  20
ATOM     20  C   UNL     1       1.062   0.611   2.441  1.00  0.00     0.453 C 
ATOM     21  F   UNL     1       0.701  -0.689   2.486  1.00  0.00    -0.164 F 
ATOM     22  F   UNL     1       2.426   0.628   2.502  1.00  0.00    -0.164 F 
ATOM     23  F   UNL     1       0.627   1.223   3.563  1.00  0.00    -0.164 F 
ENDBRANCH  18  20
BRANCH  18  24
ATOM     24  N   UNL     1       1.290   0.778  -0.100  1.00  0.00    -0.337 N 
ATOM     25  H   UNL     1       1.062  -0.210  -0.208  1.00  0.00     0.345 HD
ATOM     26  H   UNL     1       2.300   0.885  -0.007  1.00  0.00     0.345 HD
ATOM     27  H   UNL     1       0.968   1.293  -0.919  1.00  0.00     0.345 HD
ENDBRANCH  18  24
ENDBRANCH  16  18
ENDBRANCH   8  16
ENDBRANCH   4   7
ENDBRANCH   2   3
ENDBRANCH   1   2
BRANCH   1  28
ATOM     28  C   UNL     1      -1.958  -3.749   0.581  1.00  0.00     0.023 C 
BRANCH  28  29
ATOM     29  C   UNL     1      -0.954  -4.731  -0.013  1.00  0.00     0.116 C 
BRANCH  29  30
ATOM     30  N   UNL     1       0.332  -4.747   0.673  1.00  0.00    -0.352 N 
ATOM     31  C   UNL     1       1.142  -5.828   0.936  1.00  0.00     0.251 C 
ATOM     32  H   UNL     1       0.663  -3.874   0.988  1.00  0.00     0.163 HD
ATOM     33  O   UNL     1       2.168  -5.701   1.591  1.00  0.00    -0.269 OA
BRANCH  31  34
ATOM     34  C   UNL     1       0.720  -7.156   0.449  1.00  0.00     0.039 A 
ATOM     35  C   UNL     1       0.593  -8.202   1.365  1.00  0.00     0.014 A 
ATOM     36  C   UNL     1       0.360  -7.331  -0.890  1.00  0.00     0.014 A 
ATOM     37  C   UNL     1       0.022  -9.407   0.952  1.00  0.00     0.010 A 
ATOM     38  C   UNL     1      -0.276  -8.503  -1.279  1.00  0.00     0.010 A 
ATOM     39  C   UNL     1      -0.458  -9.550  -0.361  1.00  0.00    -0.014 A 
BRANCH  39  40
ATOM     40  C   UNL     1      -1.165 -10.780  -0.796  1.00  0.00     0.031 A 
ATOM     41  C   UNL     1      -0.579 -11.632  -1.887  1.00  0.00     0.074 A 
ATOM     42  C   UNL     1      -2.368 -11.083  -0.269  1.00  0.00     0.049 A 
ATOM     43  N   UNL     1      -1.089 -12.680  -2.481  1.00  0.00    -0.248 NA
ATOM     44  C   UNL     1       0.741 -11.232  -2.403  1.00  0.00     0.031 C 
ATOM     45  C   UNL     1      -3.070 -10.299   0.751  1.00  0.00     0.029 A 
ATOM     46  N   UNL     1      -3.224 -12.124  -0.531  1.00  0.00    -0.354 N 
ATOM     47  C   UNL     1      -0.164 -13.053  -3.448  1.00  0.00     0.074 A 
ATOM     48  C   UNL     1       0.912 -12.087  -3.400  1.00  0.00     0.031 C 
ATOM     49  C   UNL     1      -4.239 -10.895   1.038  1.00  0.00     0.029 A 
ATOM     50  C   UNL     1      -4.386 -12.082   0.202  1.00  0.00     0.049 A 
ATOM     51  H   UNL     1      -3.023 -12.834  -1.182  1.00  0.00     0.167 HD
ATOM     52  C   UNL     1      -0.194 -14.119  -4.282  1.00  0.00     0.037 A 
ATOM     53  C   UNL     1      -5.454 -12.904   0.196  1.00  0.00     0.037 A 
ATOM     54  C   UNL     1      -1.250 -15.095  -4.302  1.00  0.00     0.049 A 
ATOM     55  C   UNL     1      -5.450 -14.100  -0.717  1.00  0.00     0.074 A 
ATOM     56  C   UNL     1      -1.353 -16.238  -5.075  1.00  0.00     0.029 A 
ATOM     57  N   UNL     1      -2.385 -15.049  -3.504  1.00  0.00    -0.354 N 
ATOM     58  N   UNL     1      -4.542 -14.467  -1.589  1.00  0.00    -0.248 NA
ATOM     59  C   UNL     1      -6.610 -15.000  -0.640  1.00  0.00     0.031 C 
ATOM     60  C   UNL     1      -2.561 -16.871  -4.763  1.00  0.00     0.029 A 
ATOM     61  C   UNL     1      -3.194 -16.140  -3.769  1.00  0.00     0.049 A 
ATOM     62  H   UNL     1      -2.584 -14.344  -2.847  1.00  0.00     0.167 HD
ATOM     63  C   UNL     1      -5.010 -15.650  -2.150  1.00  0.00     0.074 A 
ATOM     64  C   UNL     1      -6.275 -15.945  -1.508  1.00  0.00     0.031 C 
ATOM     65  C   UNL     1      -4.445 -16.422  -3.111  1.00  0.00     0.037 A 
BRANCH  52  66
ATOM     66  C   UNL     1       0.962 -14.290  -5.226  1.00  0.00     0.058 A 
ATOM     67  C   UNL     1       2.232 -14.672  -4.765  1.00  0.00     0.135 A 
ATOM     68  C   UNL     1       0.799 -14.090  -6.606  1.00  0.00     0.135 A 
ATOM     69  F   UNL     1       2.447 -14.859  -3.453  1.00  0.00    -0.206 F 
ATOM     70  C   UNL     1       3.308 -14.819  -5.633  1.00  0.00     0.059 A 
ATOM     71  C   UNL     1       1.856 -14.257  -7.497  1.00  0.00     0.059 A 
ATOM     72  F   UNL     1      -0.394 -13.722  -7.100  1.00  0.00    -0.206 F 
ATOM     73  C   UNL     1       3.110 -14.605  -6.998  1.00  0.00     0.060 A 
BRANCH  73  74
ATOM     74  S   UNL     1       4.516 -14.798  -8.114  1.00  0.00     0.124 S 
ATOM     75  O   UNL     1       5.267 -13.574  -7.848  1.00  0.00    -0.237 OA
ATOM     76  O   UNL     1       5.130 -16.033  -7.635  1.00  0.00    -0.237 OA
ATOM     77  O   UNL     1       3.895 -14.881  -9.432  1.00  0.00    -0.744 OA
ENDBRANCH  73  74
ENDBRANCH  52  66
BRANCH  53  78
ATOM     78  C   UNL     1      -6.604 -12.636   1.098  1.00  0.00     0.058 A 
ATOM     79  C   UNL     1      -6.843 -13.443   2.221  1.00  0.00     0.135 A 
ATOM     80  C   UNL     1      -7.481 -11.566   0.864  1.00  0.00     0.135 A 
ATOM     81  F   UNL     1      -6.035 -14.481   2.484  1.00  0.00    -0.206 F 
ATOM     82  C   UNL     1      -7.920 -13.210   3.070  1.00  0.00     0.059 A 
ATOM     83  C   UNL     1      -8.552 -11.300   1.710  1.00  0.00     0.059 A 
ATOM     84  F   UNL     1      -7.284 -10.754  -0.187  1.00  0.00    -0.206 F 
ATOM     85  C   UNL     1      -8.770 -12.135   2.805  1.00  0.00     0.060 A 
BRANCH  85  86
ATOM     86  S   UNL     1     -10.142 -11.814   3.936  1.00  0.00     0.124 S 
ATOM     87  O   UNL     1     -11.087 -12.856   3.553  1.00  0.00    -0.237 OA
ATOM     88  O   UNL     1      -9.510 -11.974   5.242  1.00  0.00    -0.237 OA
ATOM     89  O   UNL     1     -10.536 -10.449   3.603  1.00  0.00    -0.744 OA
ENDBRANCH  85  86
ENDBRANCH  53  78
BRANCH  65  90
ATOM     90  C   UNL     1      -5.172 -17.675  -3.505  1.00  0.00     0.058 A 
ATOM     91  C   UNL     1      -6.323 -17.636  -4.307  1.00  0.00     0.135 A 
ATOM     92  C   UNL     1      -4.679 -18.933  -3.122  1.00  0.00     0.135 A 
ATOM     93  F   UNL     1      -6.836 -16.457  -4.694  1.00  0.00    -0.206 F 
ATOM     94  C   UNL     1      -6.971 -18.801  -4.702  1.00  0.00     0.059 A 
ATOM     95  C   UNL     1      -5.298 -20.111  -3.524  1.00  0.00     0.059 A 
ATOM     96  F   UNL     1      -3.575 -19.023  -2.363  1.00  0.00    -0.206 F 
ATOM     97  C   UNL     1      -6.450 -20.035  -4.306  1.00  0.00     0.060 A 
BRANCH  97  98
ATOM     98  S   UNL     1      -7.277 -21.542  -4.857  1.00  0.00     0.124 S 
ATOM     99  O   UNL     1      -8.437 -21.580  -3.973  1.00  0.00    -0.237 OA
ATOM    100  O   UNL     1      -7.558 -21.252  -6.260  1.00  0.00    -0.237 OA
ATOM    101  O   UNL     1      -6.277 -22.580  -4.627  1.00  0.00    -0.744 OA
ENDBRANCH  97  98
ENDBRANCH  65  90
ENDBRANCH  39  40
ENDBRANCH  31  34
ENDBRANCH  29  30
ENDBRANCH  28  29
ENDBRANCH   1  28
TORSDOF 18
