REMARK SMILES CCCCc1[nH]ncc1C(=O)NCCCCNC(=O)c1ccc(-c2c3nc(c(-c4c(F)cc(S(=O)(=O)[O-])cc4F)c4ccc([nH]4)c(-c4c(F)cc(S(=O)(=O)[O-])cc4F)c4nc(c(-c5c(F)cc(S(=O)(=O)[O-])cc5F)c5ccc2[nH]5)C=C4)C=C3)cc1
REMARK SMILES IDX 14 1 13 2 12 3 10 4 11 5 9 7 5 8 6 9 7 10 8 12 4 13 3 14
REMARK SMILES IDX 2 15 1 16 15 17 16 18 17 19 18 20 19 22 20 23 21 24 85 25
REMARK SMILES IDX 22 26 84 27 23 28 24 29 25 30 78 31 26 32 83 33 77 34 79 35
REMARK SMILES IDX 27 36 82 37 76 38 75 39 28 41 62 42 41 43 61 44 42 45 45 46
REMARK SMILES IDX 60 47 80 48 43 49 44 50 59 52 81 53 46 54 29 55 30 56 39 57
REMARK SMILES IDX 31 58 32 59 38 60 40 61 33 62 34 63 35 64 36 65 37 66 63 67
REMARK SMILES IDX 64 68 73 69 65 70 66 71 72 72 74 73 67 74 68 75 69 76 70 77
REMARK SMILES IDX 71 78 47 79 48 80 57 81 49 82 50 83 56 84 58 85 51 86 52 87
REMARK SMILES IDX 53 88 54 89 55 90
REMARK H PARENT 12 6 6 11 17 21 79 40 45 51
REMARK Flexibility Score: inf
ROOT
ATOM      1  C   UNL     1       1.800   1.409  -4.988  1.00  0.00     0.023 C 
ENDROOT
BRANCH   1   2
ATOM      2  C   UNL     1       0.972   2.631  -4.583  1.00  0.00     0.116 C 
BRANCH   2   3
ATOM      3  N   UNL     1      -0.324   2.607  -5.211  1.00  0.00    -0.352 N 
ATOM      4  C   UNL     1      -1.572   2.243  -4.790  1.00  0.00     0.254 C 
ATOM      5  O   UNL     1      -2.469   2.449  -5.614  1.00  0.00    -0.269 OA
ATOM      6  H   UNL     1      -0.307   2.921  -6.144  1.00  0.00     0.163 HD
BRANCH   4   7
ATOM      7  C   UNL     1      -1.919   1.688  -3.479  1.00  0.00     0.080 A 
ATOM      8  C   UNL     1      -1.276   1.041  -2.423  1.00  0.00     0.048 A 
ATOM      9  N   UNL     1      -2.264   0.719  -1.523  1.00  0.00    -0.282 N 
ATOM     10  N   UNL     1      -3.488   1.107  -1.874  1.00  0.00    -0.183 NA
ATOM     11  H   UNL     1      -2.081   0.237  -0.684  1.00  0.00     0.190 HD
ATOM     12  C   UNL     1      -3.288   1.677  -3.059  1.00  0.00     0.149 A 
BRANCH   8  13
ATOM     13  C   UNL     1       0.104   0.577  -2.102  1.00  0.00     0.056 C 
BRANCH  13  14
ATOM     14  C   UNL     1       0.841   1.501  -1.121  1.00  0.00     0.006 C 
BRANCH  14  15
ATOM     15  C   UNL     1       0.582   1.216   0.362  1.00  0.00    -0.003 C 
ATOM     16  C   UNL     1       1.114  -0.134   0.820  1.00  0.00     0.004 C 
ENDBRANCH  14  15
ENDBRANCH  13  14
ENDBRANCH   8  13
ENDBRANCH   4   7
ENDBRANCH   2   3
ENDBRANCH   1   2
BRANCH   1  17
ATOM     17  C   UNL     1       2.607   1.572  -6.274  1.00  0.00     0.023 C 
BRANCH  17  18
ATOM     18  C   UNL     1       3.745   2.582  -6.185  1.00  0.00     0.116 C 
BRANCH  18  19
ATOM     19  N   UNL     1       4.722   2.281  -5.144  1.00  0.00    -0.352 N 
ATOM     20  C   UNL     1       6.050   2.643  -5.112  1.00  0.00     0.251 C 
ATOM     21  H   UNL     1       4.394   1.759  -4.377  1.00  0.00     0.163 HD
ATOM     22  O   UNL     1       6.785   2.270  -4.204  1.00  0.00    -0.269 OA
BRANCH  20  23
ATOM     23  C   UNL     1       6.578   3.442  -6.234  1.00  0.00     0.039 A 
ATOM     24  C   UNL     1       7.616   2.918  -7.007  1.00  0.00     0.014 A 
ATOM     25  C   UNL     1       5.948   4.636  -6.591  1.00  0.00     0.014 A 
ATOM     26  C   UNL     1       7.960   3.547  -8.204  1.00  0.00     0.010 A 
ATOM     27  C   UNL     1       6.247   5.221  -7.815  1.00  0.00     0.010 A 
ATOM     28  C   UNL     1       7.241   4.670  -8.641  1.00  0.00    -0.014 A 
BRANCH  28  29
ATOM     29  C   UNL     1       7.471   5.277  -9.974  1.00  0.00     0.031 A 
ATOM     30  C   UNL     1       7.947   6.697 -10.072  1.00  0.00     0.074 A 
ATOM     31  C   UNL     1       7.120   4.599 -11.085  1.00  0.00     0.049 A 
ATOM     32  N   UNL     1       8.037   7.467 -11.124  1.00  0.00    -0.248 NA
ATOM     33  C   UNL     1       8.332   7.349  -8.811  1.00  0.00     0.031 C 
ATOM     34  C   UNL     1       6.580   3.238 -11.112  1.00  0.00     0.029 A 
ATOM     35  N   UNL     1       7.133   4.978 -12.404  1.00  0.00    -0.354 N 
ATOM     36  C   UNL     1       8.445   8.707 -10.648  1.00  0.00     0.074 A 
ATOM     37  C   UNL     1       8.557   8.592  -9.209  1.00  0.00     0.031 C 
ATOM     38  C   UNL     1       6.310   2.897 -12.383  1.00  0.00     0.029 A 
ATOM     39  C   UNL     1       6.625   4.025 -13.255  1.00  0.00     0.049 A 
ATOM     40  H   UNL     1       7.473   5.849 -12.711  1.00  0.00     0.167 HD
ATOM     41  C   UNL     1       8.712   9.834 -11.348  1.00  0.00     0.037 A 
ATOM     42  C   UNL     1       6.418   4.061 -14.586  1.00  0.00     0.037 A 
ATOM     43  C   UNL     1       8.645   9.926 -12.782  1.00  0.00     0.049 A 
ATOM     44  C   UNL     1       6.790   5.297 -15.354  1.00  0.00     0.074 A 
ATOM     45  C   UNL     1       8.984  10.994 -13.593  1.00  0.00     0.029 A 
ATOM     46  N   UNL     1       8.213   8.908 -13.619  1.00  0.00    -0.354 N 
ATOM     47  N   UNL     1       7.245   6.440 -14.898  1.00  0.00    -0.248 NA
ATOM     48  C   UNL     1       6.629   5.251 -16.813  1.00  0.00     0.031 C 
ATOM     49  C   UNL     1       8.734  10.629 -14.921  1.00  0.00     0.029 A 
ATOM     50  C   UNL     1       8.267   9.324 -14.938  1.00  0.00     0.049 A 
ATOM     51  H   UNL     1       7.911   8.020 -13.319  1.00  0.00     0.167 HD
ATOM     52  C   UNL     1       7.441   7.243 -16.014  1.00  0.00     0.074 A 
ATOM     53  C   UNL     1       7.062   6.454 -17.169  1.00  0.00     0.031 C 
ATOM     54  C   UNL     1       7.896   8.519 -16.075  1.00  0.00     0.037 A 
BRANCH  41  55
ATOM     55  C   UNL     1       9.094  11.054 -10.560  1.00  0.00     0.058 A 
ATOM     56  C   UNL     1      10.338  11.156  -9.917  1.00  0.00     0.135 A 
ATOM     57  C   UNL     1       8.195  12.124 -10.426  1.00  0.00     0.135 A 
ATOM     58  F   UNL     1      11.226  10.152 -10.001  1.00  0.00    -0.206 F 
ATOM     59  C   UNL     1      10.659  12.254  -9.127  1.00  0.00     0.059 A 
ATOM     60  C   UNL     1       8.506  13.244  -9.661  1.00  0.00     0.059 A 
ATOM     61  F   UNL     1       6.993  12.077 -11.021  1.00  0.00    -0.206 F 
ATOM     62  C   UNL     1       9.731  13.288  -8.995  1.00  0.00     0.060 A 
BRANCH  62  63
ATOM     63  S   UNL     1      10.137  14.690  -7.933  1.00  0.00     0.124 S 
ATOM     64  O   UNL     1       9.850  14.142  -6.611  1.00  0.00    -0.237 OA
ATOM     65  O   UNL     1      11.548  14.916  -8.231  1.00  0.00    -0.237 OA
ATOM     66  O   UNL     1       9.229  15.735  -8.393  1.00  0.00    -0.744 OA
ENDBRANCH  62  63
ENDBRANCH  41  55
BRANCH  42  67
ATOM     67  C   UNL     1       5.849   2.871 -15.268  1.00  0.00     0.058 A 
ATOM     68  C   UNL     1       6.667   2.011 -16.014  1.00  0.00     0.135 A 
ATOM     69  C   UNL     1       4.492   2.536 -15.134  1.00  0.00     0.135 A 
ATOM     70  F   UNL     1       7.969   2.294 -16.171  1.00  0.00    -0.206 F 
ATOM     71  C   UNL     1       6.163   0.856 -16.602  1.00  0.00     0.059 A 
ATOM     72  C   UNL     1       3.968   1.378 -15.700  1.00  0.00     0.059 A 
ATOM     73  F   UNL     1       3.675   3.319 -14.414  1.00  0.00    -0.206 F 
ATOM     74  C   UNL     1       4.812   0.544 -16.433  1.00  0.00     0.060 A 
BRANCH  74  75
ATOM     75  S   UNL     1       4.187  -1.005 -17.121  1.00  0.00     0.124 S 
ATOM     76  O   UNL     1       4.064  -0.670 -18.535  1.00  0.00    -0.237 OA
ATOM     77  O   UNL     1       5.248  -1.946 -16.777  1.00  0.00    -0.237 OA
ATOM     78  O   UNL     1       2.930  -1.204 -16.405  1.00  0.00    -0.744 OA
ENDBRANCH  74  75
ENDBRANCH  42  67
BRANCH  54  79
ATOM     79  C   UNL     1       8.038   9.140 -17.434  1.00  0.00     0.058 A 
ATOM     80  C   UNL     1       6.927   9.633 -18.134  1.00  0.00     0.135 A 
ATOM     81  C   UNL     1       9.309   9.319 -18.002  1.00  0.00     0.135 A 
ATOM     82  F   UNL     1       5.691   9.478 -17.634  1.00  0.00    -0.206 F 
ATOM     83  C   UNL     1       7.071  10.282 -19.355  1.00  0.00     0.059 A 
ATOM     84  C   UNL     1       9.478   9.980 -19.214  1.00  0.00     0.059 A 
ATOM     85  F   UNL     1      10.403   8.870 -17.366  1.00  0.00    -0.206 F 
ATOM     86  C   UNL     1       8.351  10.455 -19.885  1.00  0.00     0.060 A 
BRANCH  86  87
ATOM     87  S   UNL     1       8.535  11.357 -21.439  1.00  0.00     0.124 S 
ATOM     88  O   UNL     1       8.143  10.345 -22.414  1.00  0.00    -0.237 OA
ATOM     89  O   UNL     1       7.604  12.469 -21.270  1.00  0.00    -0.237 OA
ATOM     90  O   UNL     1       9.947  11.728 -21.449  1.00  0.00    -0.744 OA
ENDBRANCH  86  87
ENDBRANCH  54  79
ENDBRANCH  28  29
ENDBRANCH  20  23
ENDBRANCH  18  19
ENDBRANCH  17  18
ENDBRANCH   1  17
TORSDOF 17
