REMARK SMILES CC(C)[C@H](NC(=O)[C@H](C)NC(=O)C[NH3+])C(=O)NCCCCNC(=O)c1ccc(-c2c3nc(c(-c4c(F)cc(S(=O)(=O)[O-])cc4F)c4ccc([nH]4)c(-c4c(F)cc(S(=O)(=O)[O-])cc4F)c4nc(c(-c5c(F)cc(S(=O)(=O)[O-])cc5F)c5ccc2[nH]5)C=C4)C=C3)cc1
REMARK SMILES IDX 18 1 17 2 15 3 16 4 4 6 2 7 1 8 3 9 5 10 6 11 7 13 8 14 9 15
REMARK SMILES IDX 10 16 11 17 12 19 13 20 14 21 19 25 20 26 21 27 22 28 23 29
REMARK SMILES IDX 24 31 25 32 26 33 90 34 27 35 89 36 28 37 29 38 30 39 83 40
REMARK SMILES IDX 31 41 88 42 82 43 84 44 32 45 87 46 81 47 80 48 33 50 67 51
REMARK SMILES IDX 46 52 66 53 47 54 50 55 65 56 85 57 48 58 49 59 64 61 86 62
REMARK SMILES IDX 51 63 34 64 35 65 44 66 36 67 37 68 43 69 45 70 38 71 39 72
REMARK SMILES IDX 40 73 41 74 42 75 68 76 69 77 78 78 70 79 71 80 77 81 79 82
REMARK SMILES IDX 72 83 73 84 74 85 75 86 76 87 52 88 53 89 62 90 54 91 55 92
REMARK SMILES IDX 61 93 63 94 56 95 57 96 58 97 59 98 60 99
REMARK H PARENT 17 5 5 12 10 18 14 22 14 23 14 24 22 30 84 49 50 60
REMARK Flexibility Score: inf
ROOT
ATOM      1  C   UNL     1      -3.767   0.388   4.826  1.00  0.00     0.116 C 
ENDROOT
BRANCH   1   2
ATOM      2  N   UNL     1      -3.594   0.300   3.389  1.00  0.00    -0.354 N 
ATOM      3  C   UNL     1      -2.485   0.292   2.601  1.00  0.00     0.242 C 
ATOM      4  O   UNL     1      -2.637  -0.091   1.436  1.00  0.00    -0.273 OA
ATOM      5  H   UNL     1      -4.440   0.233   2.889  1.00  0.00     0.163 HD
BRANCH   3   6
ATOM      6  C   UNL     1      -1.064   0.623   3.116  1.00  0.00     0.173 C 
BRANCH   6   7
ATOM      7  C   UNL     1      -0.305  -0.578   3.743  1.00  0.00     0.015 C 
ATOM      8  C   UNL     1      -1.052  -1.356   4.825  1.00  0.00     0.010 C 
ATOM      9  C   UNL     1       0.150  -1.562   2.657  1.00  0.00     0.010 C 
ENDBRANCH   6   7
BRANCH   6  10
ATOM     10  N   UNL     1      -1.020   1.832   3.945  1.00  0.00    -0.342 N 
ATOM     11  C   UNL     1      -0.167   2.892   3.956  1.00  0.00     0.242 C 
ATOM     12  H   UNL     1      -1.738   1.886   4.617  1.00  0.00     0.164 HD
ATOM     13  O   UNL     1      -0.486   3.839   4.684  1.00  0.00    -0.273 OA
BRANCH  11  14
ATOM     14  C   UNL     1       1.032   3.029   2.992  1.00  0.00     0.168 C 
ATOM     15  C   UNL     1       0.561   3.520   1.628  1.00  0.00     0.041 C 
BRANCH  14  16
ATOM     16  N   UNL     1       1.834   1.818   2.857  1.00  0.00    -0.340 N 
ATOM     17  C   UNL     1       3.051   1.546   3.408  1.00  0.00     0.275 C 
ATOM     18  H   UNL     1       1.447   1.106   2.298  1.00  0.00     0.164 HD
ATOM     19  O   UNL     1       3.525   0.417   3.269  1.00  0.00    -0.268 OA
BRANCH  17  20
ATOM     20  C   UNL     1       3.821   2.651   4.131  1.00  0.00     0.360 C 
BRANCH  20  21
ATOM     21  N   UNL     1       4.269   3.663   3.161  1.00  0.00    -0.350 N 
ATOM     22  H   UNL     1       4.880   3.226   2.471  1.00  0.00     0.344 HD
ATOM     23  H   UNL     1       4.780   4.399   3.649  1.00  0.00     0.344 HD
ATOM     24  H   UNL     1       3.458   4.066   2.691  1.00  0.00     0.344 HD
ENDBRANCH  20  21
ENDBRANCH  17  20
ENDBRANCH  14  16
ENDBRANCH  11  14
ENDBRANCH   6  10
ENDBRANCH   3   6
ENDBRANCH   1   2
BRANCH   1  25
ATOM     25  C   UNL     1      -4.882   1.347   5.224  1.00  0.00     0.023 C 
BRANCH  25  26
ATOM     26  C   UNL     1      -6.284   0.920   4.787  1.00  0.00     0.023 C 
BRANCH  26  27
ATOM     27  C   UNL     1      -6.666  -0.519   5.118  1.00  0.00     0.116 C 
BRANCH  27  28
ATOM     28  N   UNL     1      -6.527  -0.839   6.531  1.00  0.00    -0.352 N 
ATOM     29  C   UNL     1      -7.419  -1.471   7.367  1.00  0.00     0.251 C 
ATOM     30  H   UNL     1      -5.677  -0.567   6.946  1.00  0.00     0.163 HD
ATOM     31  O   UNL     1      -7.183  -1.567   8.563  1.00  0.00    -0.269 OA
BRANCH  29  32
ATOM     32  C   UNL     1      -8.682  -1.992   6.805  1.00  0.00     0.039 A 
ATOM     33  C   UNL     1      -9.888  -1.624   7.405  1.00  0.00     0.014 A 
ATOM     34  C   UNL     1      -8.674  -2.791   5.659  1.00  0.00     0.014 A 
ATOM     35  C   UNL     1     -11.094  -1.993   6.806  1.00  0.00     0.010 A 
ATOM     36  C   UNL     1      -9.874  -3.096   5.026  1.00  0.00     0.010 A 
ATOM     37  C   UNL     1     -11.095  -2.695   5.589  1.00  0.00    -0.014 A 
BRANCH  37  38
ATOM     38  C   UNL     1     -12.363  -3.008   4.882  1.00  0.00     0.031 A 
ATOM     39  C   UNL     1     -12.775  -4.439   4.673  1.00  0.00     0.074 A 
ATOM     40  C   UNL     1     -13.101  -2.007   4.362  1.00  0.00     0.049 A 
ATOM     41  N   UNL     1     -13.798  -4.915   4.013  1.00  0.00    -0.248 NA
ATOM     42  C   UNL     1     -11.904  -5.472   5.258  1.00  0.00     0.031 C 
ATOM     43  C   UNL     1     -12.774  -0.581   4.446  1.00  0.00     0.029 A 
ATOM     44  N   UNL     1     -14.272  -2.035   3.646  1.00  0.00    -0.354 N 
ATOM     45  C   UNL     1     -13.684  -6.298   4.084  1.00  0.00     0.074 A 
ATOM     46  C   UNL     1     -12.466  -6.585   4.811  1.00  0.00     0.031 C 
ATOM     47  C   UNL     1     -13.731   0.128   3.824  1.00  0.00     0.029 A 
ATOM     48  C   UNL     1     -14.720  -0.791   3.269  1.00  0.00     0.049 A 
ATOM     49  H   UNL     1     -14.746  -2.868   3.424  1.00  0.00     0.167 HD
ATOM     50  C   UNL     1     -14.530  -7.243   3.608  1.00  0.00     0.037 A 
ATOM     51  C   UNL     1     -15.802  -0.431   2.552  1.00  0.00     0.037 A 
ATOM     52  C   UNL     1     -15.758  -6.951   2.919  1.00  0.00     0.049 A 
ATOM     53  C   UNL     1     -16.741  -1.498   2.058  1.00  0.00     0.074 A 
ATOM     54  C   UNL     1     -16.718  -7.835   2.459  1.00  0.00     0.029 A 
ATOM     55  N   UNL     1     -16.199  -5.677   2.591  1.00  0.00    -0.354 N 
ATOM     56  N   UNL     1     -16.653  -2.799   2.194  1.00  0.00    -0.248 NA
ATOM     57  C   UNL     1     -17.930  -1.048   1.320  1.00  0.00     0.031 C 
ATOM     58  C   UNL     1     -17.723  -7.098   1.823  1.00  0.00     0.029 A 
ATOM     59  C   UNL     1     -17.409  -5.751   1.923  1.00  0.00     0.049 A 
ATOM     60  H   UNL     1     -15.721  -4.842   2.803  1.00  0.00     0.167 HD
ATOM     61  C   UNL     1     -17.786  -3.323   1.580  1.00  0.00     0.074 A 
ATOM     62  C   UNL     1     -18.549  -2.197   1.083  1.00  0.00     0.031 C 
ATOM     63  C   UNL     1     -18.160  -4.619   1.442  1.00  0.00     0.037 A 
BRANCH  50  64
ATOM     64  C   UNL     1     -14.157  -8.682   3.829  1.00  0.00     0.058 A 
ATOM     65  C   UNL     1     -14.209  -9.269   5.103  1.00  0.00     0.135 A 
ATOM     66  C   UNL     1     -13.768  -9.493   2.750  1.00  0.00     0.135 A 
ATOM     67  F   UNL     1     -14.558  -8.534   6.172  1.00  0.00    -0.206 F 
ATOM     68  C   UNL     1     -13.860 -10.599   5.307  1.00  0.00     0.059 A 
ATOM     69  C   UNL     1     -13.440 -10.835   2.927  1.00  0.00     0.059 A 
ATOM     70  F   UNL     1     -13.700  -8.983   1.511  1.00  0.00    -0.206 F 
ATOM     71  C   UNL     1     -13.474 -11.374   4.212  1.00  0.00     0.060 A 
BRANCH  71  72
ATOM     72  S   UNL     1     -13.025 -13.100   4.492  1.00  0.00     0.124 S 
ATOM     73  O   UNL     1     -11.705 -12.961   5.099  1.00  0.00    -0.237 OA
ATOM     74  O   UNL     1     -14.086 -13.560   5.382  1.00  0.00    -0.237 OA
ATOM     75  O   UNL     1     -13.042 -13.677   3.151  1.00  0.00    -0.744 OA
ENDBRANCH  71  72
ENDBRANCH  50  64
BRANCH  51  76
ATOM     76  C   UNL     1     -16.071   1.006   2.283  1.00  0.00     0.058 A 
ATOM     77  C   UNL     1     -17.120   1.675   2.930  1.00  0.00     0.135 A 
ATOM     78  C   UNL     1     -15.279   1.741   1.388  1.00  0.00     0.135 A 
ATOM     79  F   UNL     1     -17.908   1.013   3.791  1.00  0.00    -0.206 F 
ATOM     80  C   UNL     1     -17.385   3.019   2.690  1.00  0.00     0.059 A 
ATOM     81  C   UNL     1     -15.510   3.092   1.148  1.00  0.00     0.059 A 
ATOM     82  F   UNL     1     -14.252   1.151   0.757  1.00  0.00    -0.206 F 
ATOM     83  C   UNL     1     -16.573   3.720   1.797  1.00  0.00     0.060 A 
BRANCH  83  84
ATOM     84  S   UNL     1     -16.893   5.478   1.530  1.00  0.00     0.124 S 
ATOM     85  O   UNL     1     -18.080   5.434   0.684  1.00  0.00    -0.237 OA
ATOM     86  O   UNL     1     -17.095   5.965   2.891  1.00  0.00    -0.237 OA
ATOM     87  O   UNL     1     -15.671   5.945   0.882  1.00  0.00    -0.744 OA
ENDBRANCH  83  84
ENDBRANCH  51  76
BRANCH  63  88
ATOM     88  C   UNL     1     -19.467  -4.890   0.753  1.00  0.00     0.058 A 
ATOM     89  C   UNL     1     -19.607  -4.760  -0.637  1.00  0.00     0.135 A 
ATOM     90  C   UNL     1     -20.577  -5.339   1.487  1.00  0.00     0.135 A 
ATOM     91  F   UNL     1     -18.577  -4.328  -1.382  1.00  0.00    -0.206 F 
ATOM     92  C   UNL     1     -20.810  -5.046  -1.274  1.00  0.00     0.059 A 
ATOM     93  C   UNL     1     -21.782  -5.654   0.868  1.00  0.00     0.059 A 
ATOM     94  F   UNL     1     -20.491  -5.489   2.818  1.00  0.00    -0.206 F 
ATOM     95  C   UNL     1     -21.892  -5.493  -0.513  1.00  0.00     0.060 A 
BRANCH  95  96
ATOM     96  S   UNL     1     -23.437  -5.896  -1.355  1.00  0.00     0.124 S 
ATOM     97  O   UNL     1     -23.976  -4.569  -1.631  1.00  0.00    -0.237 OA
ATOM     98  O   UNL     1     -22.974  -6.648  -2.518  1.00  0.00    -0.237 OA
ATOM     99  O   UNL     1     -24.169  -6.678  -0.363  1.00  0.00    -0.744 OA
ENDBRANCH  95  96
ENDBRANCH  63  88
ENDBRANCH  37  38
ENDBRANCH  29  32
ENDBRANCH  27  28
ENDBRANCH  26  27
ENDBRANCH  25  26
ENDBRANCH   1  25
TORSDOF 20
