REMARK SMILES O=C(NCCCCNC(=O)c1ccc(-n2cc(CSc3nc4ccccc4c(=O)n3-c3ccccc3)nn2)cc1)c1ccc(-c2c3nc(c(-c4c(F)cc(S(=O)(=O)[O-])cc4F)c4ccc([nH]4)c(-c4c(F)cc(S(=O)(=O)[O-])cc4F)c4nc(c(-c5c(F)cc(S(=O)(=O)[O-])cc5F)c5ccc2[nH]5)C=C4)C=C3)cc1
REMARK SMILES IDX 6 1 5 2 4 3 3 4 1 5 2 6 41 8 42 9 106 10 43 11 105 12 44 13
REMARK SMILES IDX 45 14 46 15 99 16 47 17 104 18 98 19 100 20 48 21 103 22
REMARK SMILES IDX 97 23 96 24 49 26 83 27 62 28 82 29 63 30 66 31 81 32 101 33
REMARK SMILES IDX 64 34 65 35 80 37 102 38 67 39 50 40 51 41 60 42 52 43 53 44
REMARK SMILES IDX 59 45 61 46 54 47 55 48 56 49 57 50 58 51 84 52 85 53 94 54
REMARK SMILES IDX 86 55 87 56 93 57 95 58 88 59 89 60 90 61 91 62 92 63 68 64
REMARK SMILES IDX 69 65 78 66 70 67 71 68 77 69 79 70 72 71 73 72 74 73 75 74
REMARK SMILES IDX 76 75 7 76 8 77 9 78 10 80 11 81 12 82 40 83 13 84 39 85
REMARK SMILES IDX 14 86 15 87 16 88 38 89 17 90 37 91 18 92 19 93 20 94 21 95
REMARK SMILES IDX 30 96 22 97 28 98 23 99 27 100 29 101 24 102 26 103 25 104
REMARK SMILES IDX 31 105 32 106 36 107 33 108 35 109 34 110
REMARK H PARENT 3 7 100 25 66 36 8 79
REMARK Flexibility Score: inf
ROOT
ATOM      1  C   UNL     1       4.439  -1.738   3.073  1.00  0.00     0.023 C 
ENDROOT
BRANCH   1   2
ATOM      2  C   UNL     1       4.942  -0.654   2.115  1.00  0.00     0.023 C 
BRANCH   2   3
ATOM      3  C   UNL     1       4.672  -0.904   0.633  1.00  0.00     0.116 C 
BRANCH   3   4
ATOM      4  N   UNL     1       3.281  -1.105   0.284  1.00  0.00    -0.352 N 
ATOM      5  O   UNL     1       1.222  -0.813  -0.453  1.00  0.00    -0.269 OA
ATOM      6  C   UNL     1       2.231  -0.273   0.009  1.00  0.00     0.251 C 
ATOM      7  H   UNL     1       3.036  -2.057   0.233  1.00  0.00     0.163 HD
BRANCH   6   8
ATOM      8  C   UNL     1       2.197   1.186   0.299  1.00  0.00     0.039 A 
ATOM      9  C   UNL     1       3.306   2.003   0.526  1.00  0.00     0.014 A 
ATOM     10  C   UNL     1       0.913   1.761   0.364  1.00  0.00     0.014 A 
ATOM     11  C   UNL     1       3.135   3.335   0.901  1.00  0.00     0.010 A 
ATOM     12  C   UNL     1       0.737   3.091   0.726  1.00  0.00     0.010 A 
ATOM     13  C   UNL     1       1.850   3.868   1.030  1.00  0.00    -0.014 A 
BRANCH  13  14
ATOM     14  C   UNL     1       1.707   5.292   1.332  1.00  0.00     0.031 A 
ATOM     15  C   UNL     1       2.159   6.206   0.240  1.00  0.00     0.074 A 
ATOM     16  C   UNL     1       1.056   5.756   2.418  1.00  0.00     0.049 A 
ATOM     17  N   UNL     1       3.094   7.099   0.271  1.00  0.00    -0.248 NA
ATOM     18  C   UNL     1       1.564   6.019  -1.095  1.00  0.00     0.031 C 
ATOM     19  C   UNL     1       0.296   4.985   3.405  1.00  0.00     0.029 A 
ATOM     20  N   UNL     1       0.839   7.045   2.810  1.00  0.00    -0.354 N 
ATOM     21  C   UNL     1       3.070   7.729  -0.975  1.00  0.00     0.074 A 
ATOM     22  C   UNL     1       2.227   6.922  -1.818  1.00  0.00     0.031 C 
ATOM     23  C   UNL     1      -0.479   5.826   4.129  1.00  0.00     0.029 A 
ATOM     24  C   UNL     1      -0.179   7.197   3.747  1.00  0.00     0.049 A 
ATOM     25  H   UNL     1       1.358   7.804   2.459  1.00  0.00     0.167 HD
ATOM     26  C   UNL     1       3.574   8.981  -1.163  1.00  0.00     0.037 A 
ATOM     27  C   UNL     1      -0.778   8.358   4.123  1.00  0.00     0.037 A 
ATOM     28  C   UNL     1       4.439   9.367  -0.080  1.00  0.00     0.049 A 
ATOM     29  C   UNL     1       0.133   9.469   3.743  1.00  0.00     0.074 A 
ATOM     30  C   UNL     1       5.618   8.879   0.447  1.00  0.00     0.029 A 
ATOM     31  N   UNL     1       3.936  10.228   0.864  1.00  0.00    -0.354 N 
ATOM     32  N   UNL     1       1.298   9.677   4.291  1.00  0.00    -0.248 NA
ATOM     33  C   UNL     1      -0.062  10.086   2.440  1.00  0.00     0.031 C 
ATOM     34  C   UNL     1       5.503   9.081   1.853  1.00  0.00     0.029 A 
ATOM     35  C   UNL     1       4.291   9.731   2.090  1.00  0.00     0.049 A 
ATOM     36  H   UNL     1       3.418  11.047   0.691  1.00  0.00     0.167 HD
ATOM     37  C   UNL     1       2.117  10.068   3.243  1.00  0.00     0.074 A 
ATOM     38  C   UNL     1       1.206  10.385   2.146  1.00  0.00     0.031 C 
ATOM     39  C   UNL     1       3.462   9.834   3.269  1.00  0.00     0.037 A 
BRANCH  26  40
ATOM     40  C   UNL     1       3.018   9.997  -2.135  1.00  0.00     0.058 A 
ATOM     41  C   UNL     1       3.720  11.202  -2.355  1.00  0.00     0.135 A 
ATOM     42  C   UNL     1       1.693   9.970  -2.622  1.00  0.00     0.135 A 
ATOM     43  F   UNL     1       4.987  11.342  -1.933  1.00  0.00    -0.206 F 
ATOM     44  C   UNL     1       3.123  12.322  -2.937  1.00  0.00     0.059 A 
ATOM     45  C   UNL     1       1.096  11.056  -3.254  1.00  0.00     0.059 A 
ATOM     46  F   UNL     1       0.879   8.927  -2.421  1.00  0.00    -0.206 F 
ATOM     47  C   UNL     1       1.802  12.243  -3.366  1.00  0.00     0.060 A 
BRANCH  47  48
ATOM     48  S   UNL     1       0.992  13.717  -4.010  1.00  0.00     0.124 S 
ATOM     49  O   UNL     1       0.883  14.536  -2.808  1.00  0.00    -0.237 OA
ATOM     50  O   UNL     1       1.948  14.175  -5.012  1.00  0.00    -0.237 OA
ATOM     51  O   UNL     1      -0.267  13.203  -4.541  1.00  0.00    -0.744 OA
ENDBRANCH  47  48
ENDBRANCH  26  40
BRANCH  27  52
ATOM     52  C   UNL     1      -2.213   8.590   4.455  1.00  0.00     0.058 A 
ATOM     53  C   UNL     1      -2.647   9.792   5.047  1.00  0.00     0.135 A 
ATOM     54  C   UNL     1      -3.228   7.760   3.935  1.00  0.00     0.135 A 
ATOM     55  F   UNL     1      -1.752  10.658   5.547  1.00  0.00    -0.206 F 
ATOM     56  C   UNL     1      -3.996  10.169   5.079  1.00  0.00     0.059 A 
ATOM     57  C   UNL     1      -4.578   8.108   3.965  1.00  0.00     0.059 A 
ATOM     58  F   UNL     1      -2.929   6.621   3.293  1.00  0.00    -0.206 F 
ATOM     59  C   UNL     1      -4.954   9.327   4.515  1.00  0.00     0.060 A 
BRANCH  59  60
ATOM     60  S   UNL     1      -6.673   9.881   4.389  1.00  0.00     0.124 S 
ATOM     61  O   UNL     1      -7.102   9.854   5.783  1.00  0.00    -0.237 OA
ATOM     62  O   UNL     1      -6.528  11.204   3.792  1.00  0.00    -0.237 OA
ATOM     63  O   UNL     1      -7.290   8.877   3.527  1.00  0.00    -0.744 OA
ENDBRANCH  59  60
ENDBRANCH  27  52
BRANCH  39  64
ATOM     64  C   UNL     1       4.095   9.427   4.574  1.00  0.00     0.058 A 
ATOM     65  C   UNL     1       3.808   8.235   5.263  1.00  0.00     0.135 A 
ATOM     66  C   UNL     1       5.155  10.208   5.058  1.00  0.00     0.135 A 
ATOM     67  F   UNL     1       2.881   7.380   4.808  1.00  0.00    -0.206 F 
ATOM     68  C   UNL     1       4.519   7.858   6.403  1.00  0.00     0.059 A 
ATOM     69  C   UNL     1       5.899   9.835   6.173  1.00  0.00     0.059 A 
ATOM     70  F   UNL     1       5.519  11.326   4.408  1.00  0.00    -0.206 F 
ATOM     71  C   UNL     1       5.567   8.664   6.849  1.00  0.00     0.060 A 
BRANCH  71  72
ATOM     72  S   UNL     1       6.542   8.133   8.273  1.00  0.00     0.124 S 
ATOM     73  O   UNL     1       5.605   8.327   9.375  1.00  0.00    -0.237 OA
ATOM     74  O   UNL     1       6.855   6.745   7.944  1.00  0.00    -0.237 OA
ATOM     75  O   UNL     1       7.687   9.040   8.261  1.00  0.00    -0.744 OA
ENDBRANCH  71  72
ENDBRANCH  39  64
ENDBRANCH  13  14
ENDBRANCH   6   8
ENDBRANCH   3   4
ENDBRANCH   2   3
ENDBRANCH   1   2
BRANCH   1  76
ATOM     76  C   UNL     1       4.836  -3.171   2.732  1.00  0.00     0.116 C 
BRANCH  76  77
ATOM     77  N   UNL     1       6.274  -3.382   2.741  1.00  0.00    -0.352 N 
ATOM     78  C   UNL     1       7.023  -4.278   3.470  1.00  0.00     0.251 C 
ATOM     79  H   UNL     1       6.787  -2.799   2.138  1.00  0.00     0.163 HD
ATOM     80  O   UNL     1       8.240  -4.265   3.406  1.00  0.00    -0.269 OA
BRANCH  78  81
ATOM     81  C   UNL     1       6.348  -5.265   4.340  1.00  0.00     0.039 A 
ATOM     82  C   UNL     1       6.732  -5.351   5.682  1.00  0.00     0.016 A 
ATOM     83  C   UNL     1       5.386  -6.136   3.825  1.00  0.00     0.016 A 
ATOM     84  C   UNL     1       6.123  -6.285   6.525  1.00  0.00     0.029 A 
ATOM     85  C   UNL     1       4.781  -7.077   4.661  1.00  0.00     0.029 A 
ATOM     86  C   UNL     1       5.160  -7.164   6.012  1.00  0.00     0.066 A 
BRANCH  86  87
ATOM     87  N   UNL     1       4.641  -8.189   6.840  1.00  0.00    -0.220 N 
ATOM     88  C   UNL     1       3.945  -9.305   6.449  1.00  0.00     0.141 A 
ATOM     89  N   UNL     1       4.826  -8.234   8.182  1.00  0.00    -0.062 NA
ATOM     90  C   UNL     1       3.860 -10.094   7.575  1.00  0.00     0.093 A 
ATOM     91  N   UNL     1       4.348  -9.389   8.636  1.00  0.00    -0.134 NA
BRANCH  90  92
ATOM     92  C   UNL     1       3.203 -11.408   7.726  1.00  0.00     0.138 C 
BRANCH  92  93
ATOM     93  S   UNL     1       4.146 -12.935   7.813  1.00  0.00    -0.081 SA
BRANCH  93  94
ATOM     94  C   UNL     1       5.819 -12.705   7.368  1.00  0.00     0.176 A 
ATOM     95  N   UNL     1       6.618 -13.398   8.129  1.00  0.00    -0.223 NA
ATOM     96  N   UNL     1       6.298 -11.933   6.317  1.00  0.00    -0.255 N 
ATOM     97  C   UNL     1       7.998 -13.272   7.945  1.00  0.00     0.079 A 
ATOM     98  C   UNL     1       7.547 -11.338   6.558  1.00  0.00     0.266 A 
ATOM     99  C   UNL     1       8.884 -14.209   8.480  1.00  0.00     0.029 A 
ATOM    100  C   UNL     1       8.515 -12.159   7.301  1.00  0.00     0.066 A 
ATOM    101  O   UNL     1       7.899 -10.215   6.202  1.00  0.00    -0.268 OA
ATOM    102  C   UNL     1      10.265 -13.989   8.424  1.00  0.00     0.002 A 
ATOM    103  C   UNL     1       9.889 -11.896   7.284  1.00  0.00     0.016 A 
ATOM    104  C   UNL     1      10.766 -12.815   7.859  1.00  0.00     0.001 A 
BRANCH  96 105
ATOM    105  C   UNL     1       5.665 -11.699   5.028  1.00  0.00     0.051 A 
ATOM    106  C   UNL     1       6.385 -11.071   3.989  1.00  0.00     0.027 A 
ATOM    107  C   UNL     1       4.371 -12.113   4.688  1.00  0.00     0.027 A 
ATOM    108  C   UNL     1       5.795 -10.710   2.773  1.00  0.00     0.002 A 
ATOM    109  C   UNL     1       3.748 -11.700   3.499  1.00  0.00     0.002 A 
ATOM    110  C   UNL     1       4.454 -10.973   2.552  1.00  0.00     0.000 A 
ENDBRANCH  96 105
ENDBRANCH  93  94
ENDBRANCH  92  93
ENDBRANCH  90  92
ENDBRANCH  86  87
ENDBRANCH  78  81
ENDBRANCH  76  77
ENDBRANCH   1  76
TORSDOF 19
