REMARK SMILES CC1(C)OC(=O)C(=CNc2ccccc2C(=O)NCCCCNC(=O)c2ccc(-c3c4nc(c(-c5c(F)cc(S(=O)(=O)[O-])cc5F)c5ccc([nH]5)c(-c5c(F)cc(S(=O)(=O)[O-])cc5F)c5nc(c(-c6c(F)cc(S(=O)(=O)[O-])cc6F)c6ccc3[nH]6)C=C5)C=C4)cc2)C(=O)O1
REMARK SMILES IDX 21 1 20 2 19 3 18 4 16 5 17 6 15 8 10 9 11 10 12 11 14 12
REMARK SMILES IDX 13 13 9 14 8 16 1 17 2 18 3 19 4 20 94 21 5 22 92 23 6 24
REMARK SMILES IDX 7 25 93 26 22 27 23 28 24 29 25 31 26 32 27 33 91 34 28 35
REMARK SMILES IDX 90 36 29 37 30 38 31 39 84 40 32 41 89 42 83 43 85 44 33 45
REMARK SMILES IDX 88 46 82 47 81 48 34 50 68 51 47 52 67 53 48 54 51 55 66 56
REMARK SMILES IDX 86 57 49 58 50 59 65 61 87 62 52 63 35 64 36 65 45 66 37 67
REMARK SMILES IDX 38 68 44 69 46 70 39 71 40 72 41 73 42 74 43 75 69 76 70 77
REMARK SMILES IDX 79 78 71 79 72 80 78 81 80 82 73 83 74 84 75 85 76 86 77 87
REMARK SMILES IDX 53 88 54 89 63 90 55 91 56 92 62 93 64 94 57 95 58 96 59 97
REMARK SMILES IDX 60 98 61 99
REMARK H PARENT 18 7 9 15 23 30 85 49 51 60
REMARK Flexibility Score: inf
ROOT
ATOM      1  C   UNL     1       0.071  -1.508  -3.101  1.00  0.00     0.023 C 
ENDROOT
BRANCH   1   2
ATOM      2  C   UNL     1      -1.172  -2.410  -3.172  1.00  0.00     0.023 C 
BRANCH   2   3
ATOM      3  C   UNL     1      -2.578  -1.866  -2.941  1.00  0.00     0.116 C 
BRANCH   3   4
ATOM      4  N   UNL     1      -2.772  -0.468  -3.248  1.00  0.00    -0.352 N 
ATOM      5  C   UNL     1      -3.761   0.356  -2.754  1.00  0.00     0.253 C 
ATOM      6  O   UNL     1      -3.863   1.510  -3.157  1.00  0.00    -0.269 OA
ATOM      7  H   UNL     1      -2.131  -0.061  -3.875  1.00  0.00     0.163 HD
BRANCH   5   8
ATOM      8  C   UNL     1      -4.782  -0.192  -1.832  1.00  0.00     0.063 A 
ATOM      9  C   UNL     1      -4.524  -0.627  -0.516  1.00  0.00     0.051 A 
ATOM     10  C   UNL     1      -5.569  -1.270   0.171  1.00  0.00     0.027 A 
ATOM     11  C   UNL     1      -6.826  -1.457  -0.415  1.00  0.00     0.002 A 
ATOM     12  C   UNL     1      -6.055  -0.355  -2.408  1.00  0.00     0.016 A 
ATOM     13  C   UNL     1      -7.073  -0.990  -1.702  1.00  0.00     0.001 A 
BRANCH   9  14
ATOM     14  N   UNL     1      -3.290  -0.507   0.164  1.00  0.00    -0.360 N 
ATOM     15  H   UNL     1      -3.120  -1.152   0.888  1.00  0.00     0.166 HD
BRANCH  14  16
ATOM     16  C   UNL     1      -2.305   0.417  -0.085  1.00  0.00     0.106 C 
ATOM     17  C   UNL     1       2.939  -0.716  -2.987  1.00  0.00     0.106 C 
ATOM     18  C   UNL     1       2.390  -0.558  -1.541  1.00  0.00     0.252 C 
ATOM     19  C   UNL     1       3.624  -0.824  -0.641  1.00  0.00     0.106 C 
ATOM     20  O   UNL     1       1.732   1.155  -1.390  1.00  0.00    -0.419 OA
ATOM     21  O   UNL     1       1.168  -1.862  -1.039  1.00  0.00    -0.419 OA
ATOM     22  C   UNL     1       0.133   1.567  -0.854  1.00  0.00     0.350 C 
ATOM     23  C   UNL     1      -0.425  -1.590  -0.410  1.00  0.00     0.350 C 
ATOM     24  O   UNL     1      -0.282   2.712  -1.012  1.00  0.00    -0.246 OA
ATOM     25  C   UNL     1      -0.998   0.177  -0.263  1.00  0.00     0.161 C 
ATOM     26  O   UNL     1      -1.106  -2.554  -0.069  1.00  0.00    -0.246 OA
ENDBRANCH  14  16
ENDBRANCH   9  14
ENDBRANCH   5   8
ENDBRANCH   3   4
ENDBRANCH   2   3
ENDBRANCH   1   2
BRANCH   1  27
ATOM     27  C   UNL     1       0.286  -0.234  -2.054  1.00  0.00     0.116 C 
BRANCH  27  28
ATOM     28  N   UNL     1       0.999  -0.161  -0.145  1.00  0.00    -0.352 N 
ATOM     29  C   UNL     1       1.486   0.515   1.058  1.00  0.00     0.251 C 
ATOM     30  H   UNL     1       1.035  -1.111   0.110  1.00  0.00     0.163 HD
ATOM     31  O   UNL     1       1.314  -0.127   2.101  1.00  0.00    -0.269 OA
BRANCH  29  32
ATOM     32  C   UNL     1       2.467   1.659   1.135  1.00  0.00     0.039 A 
ATOM     33  C   UNL     1       3.746   1.345   1.630  1.00  0.00     0.014 A 
ATOM     34  C   UNL     1       2.240   2.967   0.718  1.00  0.00     0.014 A 
ATOM     35  C   UNL     1       4.825   2.218   1.448  1.00  0.00     0.010 A 
ATOM     36  C   UNL     1       3.318   3.831   0.496  1.00  0.00     0.010 A 
ATOM     37  C   UNL     1       4.628   3.434   0.792  1.00  0.00    -0.014 A 
BRANCH  37  38
ATOM     38  C   UNL     1       5.763   4.287   0.362  1.00  0.00     0.031 A 
ATOM     39  C   UNL     1       6.009   5.604   1.028  1.00  0.00     0.074 A 
ATOM     40  C   UNL     1       6.511   3.923  -0.699  1.00  0.00     0.049 A 
ATOM     41  N   UNL     1       6.810   6.573   0.667  1.00  0.00    -0.248 NA
ATOM     42  C   UNL     1       5.240   5.869   2.251  1.00  0.00     0.031 C 
ATOM     43  C   UNL     1       6.371   2.674  -1.450  1.00  0.00     0.029 A 
ATOM     44  N   UNL     1       7.527   4.584  -1.344  1.00  0.00    -0.354 N 
ATOM     45  C   UNL     1       6.603   7.590   1.587  1.00  0.00     0.074 A 
ATOM     46  C   UNL     1       5.620   7.106   2.538  1.00  0.00     0.031 C 
ATOM     47  C   UNL     1       7.270   2.657  -2.450  1.00  0.00     0.029 A 
ATOM     48  C   UNL     1       8.021   3.908  -2.435  1.00  0.00     0.049 A 
ATOM     49  H   UNL     1       7.870   5.460  -1.053  1.00  0.00     0.167 HD
ATOM     50  C   UNL     1       7.164   8.822   1.628  1.00  0.00     0.037 A 
ATOM     51  C   UNL     1       8.954   4.267  -3.337  1.00  0.00     0.037 A 
ATOM     52  C   UNL     1       8.159   9.301   0.709  1.00  0.00     0.049 A 
ATOM     53  C   UNL     1       9.603   5.618  -3.241  1.00  0.00     0.074 A 
ATOM     54  C   UNL     1       8.788  10.533   0.678  1.00  0.00     0.029 A 
ATOM     55  N   UNL     1       8.679   8.560  -0.342  1.00  0.00    -0.354 N 
ATOM     56  N   UNL     1       9.381   6.577  -2.377  1.00  0.00    -0.248 NA
ATOM     57  C   UNL     1      10.620   5.941  -4.254  1.00  0.00     0.031 C 
ATOM     58  C   UNL     1       9.694  10.535  -0.392  1.00  0.00     0.029 A 
ATOM     59  C   UNL     1       9.629   9.302  -1.021  1.00  0.00     0.049 A 
ATOM     60  H   UNL     1       8.411   7.640  -0.570  1.00  0.00     0.167 HD
ATOM     61  C   UNL     1      10.233   7.614  -2.735  1.00  0.00     0.074 A 
ATOM     62  C   UNL     1      10.979   7.166  -3.893  1.00  0.00     0.031 C 
ATOM     63  C   UNL     1      10.378   8.832  -2.158  1.00  0.00     0.037 A 
BRANCH  50  64
ATOM     64  C   UNL     1       6.662   9.732   2.703  1.00  0.00     0.058 A 
ATOM     65  C   UNL     1       7.161   9.659   4.012  1.00  0.00     0.135 A 
ATOM     66  C   UNL     1       5.603  10.616   2.443  1.00  0.00     0.135 A 
ATOM     67  F   UNL     1       8.158   8.810   4.308  1.00  0.00    -0.206 F 
ATOM     68  C   UNL     1       6.594  10.400   5.043  1.00  0.00     0.059 A 
ATOM     69  C   UNL     1       5.027  11.371   3.457  1.00  0.00     0.059 A 
ATOM     70  F   UNL     1       5.088  10.708   1.207  1.00  0.00    -0.206 F 
ATOM     71  C   UNL     1       5.511  11.234   4.759  1.00  0.00     0.060 A 
BRANCH  71  72
ATOM     72  S   UNL     1       4.697  12.129   6.099  1.00  0.00     0.124 S 
ATOM     73  O   UNL     1       3.619  11.208   6.445  1.00  0.00    -0.237 OA
ATOM     74  O   UNL     1       5.754  12.264   7.096  1.00  0.00    -0.237 OA
ATOM     75  O   UNL     1       4.285  13.373   5.456  1.00  0.00    -0.744 OA
ENDBRANCH  71  72
ENDBRANCH  50  64
BRANCH  51  76
ATOM     76  C   UNL     1       9.334   3.331  -4.422  1.00  0.00     0.058 A 
ATOM     77  C   UNL     1      10.487   2.543  -4.311  1.00  0.00     0.135 A 
ATOM     78  C   UNL     1       8.557   3.208  -5.583  1.00  0.00     0.135 A 
ATOM     79  F   UNL     1      11.259   2.634  -3.218  1.00  0.00    -0.206 F 
ATOM     80  C   UNL     1      10.866   1.665  -5.321  1.00  0.00     0.059 A 
ATOM     81  C   UNL     1       8.912   2.331  -6.603  1.00  0.00     0.059 A 
ATOM     82  F   UNL     1       7.440   3.937  -5.724  1.00  0.00    -0.206 F 
ATOM     83  C   UNL     1      10.073   1.570  -6.466  1.00  0.00     0.060 A 
BRANCH  83  84
ATOM     84  S   UNL     1      10.533   0.393  -7.757  1.00  0.00     0.124 S 
ATOM     85  O   UNL     1      11.486   1.173  -8.538  1.00  0.00    -0.237 OA
ATOM     86  O   UNL     1      11.092  -0.717  -6.990  1.00  0.00    -0.237 OA
ATOM     87  O   UNL     1       9.257   0.109  -8.409  1.00  0.00    -0.744 OA
ENDBRANCH  83  84
ENDBRANCH  51  76
BRANCH  63  88
ATOM     88  C   UNL     1      11.402   9.750  -2.750  1.00  0.00     0.058 A 
ATOM     89  C   UNL     1      11.086  10.598  -3.821  1.00  0.00     0.135 A 
ATOM     90  C   UNL     1      12.694   9.820  -2.208  1.00  0.00     0.135 A 
ATOM     91  F   UNL     1       9.864  10.558  -4.376  1.00  0.00    -0.206 F 
ATOM     92  C   UNL     1      12.019  11.491  -4.337  1.00  0.00     0.059 A 
ATOM     93  C   UNL     1      13.642  10.708  -2.705  1.00  0.00     0.059 A 
ATOM     94  F   UNL     1      13.041   9.023  -1.185  1.00  0.00    -0.206 F 
ATOM     95  C   UNL     1      13.296  11.538  -3.773  1.00  0.00     0.060 A 
BRANCH  95  96
ATOM     96  S   UNL     1      14.497  12.734  -4.398  1.00  0.00     0.124 S 
ATOM     97  O   UNL     1      15.123  11.983  -5.480  1.00  0.00    -0.237 OA
ATOM     98  O   UNL     1      13.656  13.854  -4.809  1.00  0.00    -0.237 OA
ATOM     99  O   UNL     1      15.342  12.992  -3.235  1.00  0.00    -0.744 OA
ENDBRANCH  95  96
ENDBRANCH  63  88
ENDBRANCH  37  38
ENDBRANCH  29  32
ENDBRANCH  27  28
ENDBRANCH   1  27
TORSDOF 16
