REMARK SMILES O=C(NCCCCNC(=O)c1cccc2c(=O)oc(=O)[nH]c12)c1ccc(-c2c3nc(c(-c4c(F)cc(S(=O)(=O)[O-])cc4F)c4ccc([nH]4)c(-c4c(F)cc(S(=O)(=O)[O-])cc4F)c4nc(c(-c5c(F)cc(S(=O)(=O)[O-])cc5F)c5ccc2[nH]5)C=C4)C=C3)cc1
REMARK SMILES IDX 4 1 3 2 1 3 2 4 23 6 24 7 88 8 25 9 87 10 26 11 27 12 28 13
REMARK SMILES IDX 81 14 29 15 86 16 80 17 82 18 30 19 85 20 79 21 78 22 31 24
REMARK SMILES IDX 65 25 44 26 64 27 45 28 48 29 63 30 83 31 46 32 47 33 62 35
REMARK SMILES IDX 84 36 49 37 32 38 33 39 42 40 34 41 35 42 41 43 43 44 36 45
REMARK SMILES IDX 37 46 38 47 39 48 40 49 66 50 67 51 76 52 68 53 69 54 75 55
REMARK SMILES IDX 77 56 70 57 71 58 72 59 73 60 74 61 50 62 51 63 60 64 52 65
REMARK SMILES IDX 53 66 59 67 61 68 54 69 55 70 56 71 57 72 58 73 5 74 6 75
REMARK SMILES IDX 7 76 8 77 9 78 10 80 11 81 12 82 22 83 13 84 15 85 21 86
REMARK SMILES IDX 14 87 16 88 19 89 17 91 18 92 20 93
REMARK H PARENT 3 5 82 23 48 34 8 79 21 90
REMARK Flexibility Score: inf
ROOT
ATOM      1  C   UNL     1       4.689  -1.153  -0.410  1.00  0.00     0.116 C 
ENDROOT
BRANCH   1   2
ATOM      2  N   UNL     1       3.259  -0.925  -0.538  1.00  0.00    -0.352 N 
ATOM      3  O   UNL     1       1.235  -0.104  -0.021  1.00  0.00    -0.269 OA
ATOM      4  C   UNL     1       2.454  -0.009   0.094  1.00  0.00     0.251 C 
ATOM      5  H   UNL     1       2.797  -1.517  -1.174  1.00  0.00     0.163 HD
BRANCH   4   6
ATOM      6  C   UNL     1       3.043   1.074   0.914  1.00  0.00     0.039 A 
ATOM      7  C   UNL     1       2.386   1.469   2.082  1.00  0.00     0.014 A 
ATOM      8  C   UNL     1       4.207   1.736   0.515  1.00  0.00     0.014 A 
ATOM      9  C   UNL     1       2.903   2.517   2.848  1.00  0.00     0.010 A 
ATOM     10  C   UNL     1       4.784   2.696   1.339  1.00  0.00     0.010 A 
ATOM     11  C   UNL     1       4.108   3.138   2.483  1.00  0.00    -0.014 A 
BRANCH  11  12
ATOM     12  C   UNL     1       4.602   4.337   3.210  1.00  0.00     0.031 A 
ATOM     13  C   UNL     1       4.698   5.655   2.483  1.00  0.00     0.074 A 
ATOM     14  C   UNL     1       4.956   4.252   4.506  1.00  0.00     0.049 A 
ATOM     15  N   UNL     1       5.092   6.819   2.930  1.00  0.00    -0.248 NA
ATOM     16  C   UNL     1       4.331   5.661   1.056  1.00  0.00     0.031 C 
ATOM     17  C   UNL     1       4.940   3.028   5.309  1.00  0.00     0.029 A 
ATOM     18  N   UNL     1       5.386   5.218   5.381  1.00  0.00    -0.354 N 
ATOM     19  C   UNL     1       5.027   7.682   1.841  1.00  0.00     0.074 A 
ATOM     20  C   UNL     1       4.645   6.894   0.695  1.00  0.00     0.031 C 
ATOM     21  C   UNL     1       5.293   3.326   6.570  1.00  0.00     0.029 A 
ATOM     22  C   UNL     1       5.596   4.753   6.658  1.00  0.00     0.049 A 
ATOM     23  H   UNL     1       5.530   6.156   5.119  1.00  0.00     0.167 HD
ATOM     24  C   UNL     1       5.219   9.021   1.806  1.00  0.00     0.037 A 
ATOM     25  C   UNL     1       5.981   5.405   7.774  1.00  0.00     0.037 A 
ATOM     26  C   UNL     1       5.559   9.809   2.958  1.00  0.00     0.049 A 
ATOM     27  C   UNL     1       6.226   6.889   7.709  1.00  0.00     0.074 A 
ATOM     28  C   UNL     1       5.718  11.179   3.045  1.00  0.00     0.029 A 
ATOM     29  N   UNL     1       5.793   9.293   4.225  1.00  0.00    -0.354 N 
ATOM     30  N   UNL     1       6.086   7.702   6.688  1.00  0.00    -0.248 NA
ATOM     31  C   UNL     1       6.684   7.545   8.941  1.00  0.00     0.031 C 
ATOM     32  C   UNL     1       6.106  11.487   4.351  1.00  0.00     0.029 A 
ATOM     33  C   UNL     1       6.137  10.315   5.092  1.00  0.00     0.049 A 
ATOM     34  H   UNL     1       5.726   8.342   4.470  1.00  0.00     0.167 HD
ATOM     35  C   UNL     1       6.432   8.965   7.156  1.00  0.00     0.074 A 
ATOM     36  C   UNL     1       6.767   8.813   8.558  1.00  0.00     0.031 C 
ATOM     37  C   UNL     1       6.473  10.143   6.485  1.00  0.00     0.037 A 
BRANCH  24  38
ATOM     38  C   UNL     1       5.051   9.713   0.479  1.00  0.00     0.058 A 
ATOM     39  C   UNL     1       3.796   9.819  -0.143  1.00  0.00     0.135 A 
ATOM     40  C   UNL     1       6.155  10.283  -0.175  1.00  0.00     0.135 A 
ATOM     41  F   UNL     1       2.709   9.278   0.430  1.00  0.00    -0.206 F 
ATOM     42  C   UNL     1       3.648  10.424  -1.386  1.00  0.00     0.059 A 
ATOM     43  C   UNL     1       6.024  10.924  -1.404  1.00  0.00     0.059 A 
ATOM     44  F   UNL     1       7.378  10.212   0.373  1.00  0.00    -0.206 F 
ATOM     45  C   UNL     1       4.770  10.971  -2.010  1.00  0.00     0.060 A 
BRANCH  45  46
ATOM     46  S   UNL     1       4.560  11.732  -3.633  1.00  0.00     0.124 S 
ATOM     47  O   UNL     1       4.282  10.565  -4.467  1.00  0.00    -0.237 OA
ATOM     48  O   UNL     1       3.434  12.633  -3.410  1.00  0.00    -0.237 OA
ATOM     49  O   UNL     1       5.844  12.381  -3.875  1.00  0.00    -0.744 OA
ENDBRANCH  45  46
ENDBRANCH  24  38
BRANCH  25  50
ATOM     50  C   UNL     1       6.113   4.654   9.051  1.00  0.00     0.058 A 
ATOM     51  C   UNL     1       5.187   4.831  10.089  1.00  0.00     0.135 A 
ATOM     52  C   UNL     1       7.128   3.700   9.236  1.00  0.00     0.135 A 
ATOM     53  F   UNL     1       4.206   5.737   9.965  1.00  0.00    -0.206 F 
ATOM     54  C   UNL     1       5.253   4.083  11.261  1.00  0.00     0.059 A 
ATOM     55  C   UNL     1       7.201   2.924  10.389  1.00  0.00     0.059 A 
ATOM     56  F   UNL     1       8.033   3.485   8.269  1.00  0.00    -0.206 F 
ATOM     57  C   UNL     1       6.256   3.121  11.395  1.00  0.00     0.060 A 
BRANCH  57  58
ATOM     58  S   UNL     1       6.272   2.096  12.882  1.00  0.00     0.124 S 
ATOM     59  O   UNL     1       6.615   3.071  13.911  1.00  0.00    -0.237 OA
ATOM     60  O   UNL     1       4.904   1.588  12.913  1.00  0.00    -0.237 OA
ATOM     61  O   UNL     1       7.298   1.098  12.592  1.00  0.00    -0.744 OA
ENDBRANCH  57  58
ENDBRANCH  25  50
BRANCH  37  62
ATOM     62  C   UNL     1       6.914  11.369   7.234  1.00  0.00     0.058 A 
ATOM     63  C   UNL     1       8.264  11.573   7.557  1.00  0.00     0.135 A 
ATOM     64  C   UNL     1       6.008  12.407   7.508  1.00  0.00     0.135 A 
ATOM     65  F   UNL     1       9.169  10.610   7.322  1.00  0.00    -0.206 F 
ATOM     66  C   UNL     1       8.702  12.767   8.119  1.00  0.00     0.059 A 
ATOM     67  C   UNL     1       6.428  13.619   8.044  1.00  0.00     0.059 A 
ATOM     68  F   UNL     1       4.707  12.265   7.207  1.00  0.00    -0.206 F 
ATOM     69  C   UNL     1       7.779  13.791   8.344  1.00  0.00     0.060 A 
BRANCH  69  70
ATOM     70  S   UNL     1       8.384  15.364   8.989  1.00  0.00     0.124 S 
ATOM     71  O   UNL     1       8.787  14.994  10.342  1.00  0.00    -0.237 OA
ATOM     72  O   UNL     1       9.471  15.678   8.067  1.00  0.00    -0.237 OA
ATOM     73  O   UNL     1       7.220  16.241   8.900  1.00  0.00    -0.744 OA
ENDBRANCH  69  70
ENDBRANCH  37  62
ENDBRANCH  11  12
ENDBRANCH   4   6
ENDBRANCH   1   2
BRANCH   1  74
ATOM     74  C   UNL     1       5.014  -2.552   0.095  1.00  0.00     0.023 C 
BRANCH  74  75
ATOM     75  C   UNL     1       4.514  -3.688  -0.792  1.00  0.00     0.023 C 
BRANCH  75  76
ATOM     76  C   UNL     1       4.917  -3.581  -2.260  1.00  0.00     0.116 C 
BRANCH  76  77
ATOM     77  N   UNL     1       6.361  -3.605  -2.436  1.00  0.00    -0.352 N 
ATOM     78  C   UNL     1       7.125  -4.505  -3.131  1.00  0.00     0.253 C 
ATOM     79  H   UNL     1       6.856  -2.877  -1.995  1.00  0.00     0.163 HD
ATOM     80  O   UNL     1       8.343  -4.541  -2.986  1.00  0.00    -0.269 OA
BRANCH  78  81
ATOM     81  C   UNL     1       6.475  -5.482  -4.025  1.00  0.00     0.064 A 
ATOM     82  C   UNL     1       5.565  -5.037  -4.996  1.00  0.00     0.016 A 
ATOM     83  C   UNL     1       6.766  -6.846  -3.907  1.00  0.00     0.071 A 
ATOM     84  C   UNL     1       4.888  -5.960  -5.791  1.00  0.00     0.002 A 
ATOM     85  C   UNL     1       6.099  -7.756  -4.705  1.00  0.00     0.085 A 
ATOM     86  N   UNL     1       7.700  -7.338  -3.005  1.00  0.00    -0.289 N 
ATOM     87  C   UNL     1       5.148  -7.322  -5.640  1.00  0.00     0.018 A 
ATOM     88  C   UNL     1       6.409  -9.183  -4.550  1.00  0.00     0.349 A 
ATOM     89  C   UNL     1       7.978  -8.663  -2.849  1.00  0.00     0.419 A 
ATOM     90  H   UNL     1       8.189  -6.692  -2.446  1.00  0.00     0.173 HD
ATOM     91  O   UNL     1       5.839 -10.005  -5.260  1.00  0.00    -0.246 OA
ATOM     92  O   UNL     1       7.314  -9.560  -3.621  1.00  0.00    -0.372 OA
ATOM     93  O   UNL     1       8.810  -9.031  -2.024  1.00  0.00    -0.224 OA
ENDBRANCH  78  81
ENDBRANCH  76  77
ENDBRANCH  75  76
ENDBRANCH  74  75
ENDBRANCH   1  74
TORSDOF 14
