REMARK SMILES O=C(NCCCCNC(=O)c1cc(N2C(=O)[C@H]3[C@@H]4C=C[C@@H]([C@@H]5C[C@H]45)[C@@H]3C2=O)ccc1Cl)c1ccc(-c2c3nc(c(-c4c(F)cc(S(=O)(=O)[O-])cc4F)c4ccc([nH]4)c(-c4c(F)cc(S(=O)(=O)[O-])cc4F)c4nc(c(-c5c(F)cc(S(=O)(=O)[O-])cc5F)c5ccc2[nH]5)C=C4)C=C3)cc1
REMARK SMILES IDX 4 1 3 2 1 3 2 4 32 6 33 7 97 8 34 9 96 10 35 11 36 12 37 13
REMARK SMILES IDX 90 14 38 15 95 16 89 17 91 18 39 19 94 20 88 21 87 22 40 24
REMARK SMILES IDX 74 25 53 26 73 27 54 28 57 29 72 30 92 31 55 32 56 33 71 35
REMARK SMILES IDX 93 36 58 37 41 38 42 39 51 40 43 41 44 42 50 43 52 44 45 45
REMARK SMILES IDX 46 46 47 47 48 48 49 49 75 50 76 51 85 52 77 53 78 54 84 55
REMARK SMILES IDX 86 56 79 57 80 58 81 59 82 60 83 61 59 62 60 63 69 64 61 65
REMARK SMILES IDX 62 66 68 67 70 68 63 69 64 70 65 71 66 72 67 73 5 74 6 75
REMARK SMILES IDX 7 76 8 77 9 78 10 80 11 81 12 82 30 83 13 84 29 85 31 86
REMARK SMILES IDX 28 87 14 88 15 89 26 90 16 91 17 92 25 93 27 94 18 95 21 96
REMARK SMILES IDX 19 97 24 98 20 99 22 100 23 101
REMARK H PARENT 3 5 91 23 57 34 8 79
REMARK Flexibility Score: inf
ROOT
ATOM      1  C   UNL     1       4.546  -1.127  -0.551  1.00  0.00     0.116 C 
ENDROOT
BRANCH   1   2
ATOM      2  N   UNL     1       3.114  -0.893  -0.684  1.00  0.00    -0.352 N 
ATOM      3  O   UNL     1       1.116   0.072  -0.264  1.00  0.00    -0.269 OA
ATOM      4  C   UNL     1       2.336   0.107  -0.143  1.00  0.00     0.251 C 
ATOM      5  H   UNL     1       2.631  -1.545  -1.242  1.00  0.00     0.163 HD
BRANCH   4   6
ATOM      6  C   UNL     1       2.982   1.198   0.620  1.00  0.00     0.039 A 
ATOM      7  C   UNL     1       4.133   1.814   0.131  1.00  0.00     0.014 A 
ATOM      8  C   UNL     1       2.463   1.567   1.863  1.00  0.00     0.014 A 
ATOM      9  C   UNL     1       4.881   2.630   0.970  1.00  0.00     0.010 A 
ATOM     10  C   UNL     1       3.159   2.483   2.659  1.00  0.00     0.010 A 
ATOM     11  C   UNL     1       4.406   2.978   2.245  1.00  0.00    -0.014 A 
BRANCH  11  12
ATOM     12  C   UNL     1       5.227   3.870   3.108  1.00  0.00     0.031 A 
ATOM     13  C   UNL     1       5.751   3.403   4.442  1.00  0.00     0.074 A 
ATOM     14  C   UNL     1       5.543   5.100   2.654  1.00  0.00     0.049 A 
ATOM     15  N   UNL     1       6.513   4.039   5.296  1.00  0.00    -0.248 NA
ATOM     16  C   UNL     1       5.363   2.054   4.883  1.00  0.00     0.031 C 
ATOM     17  C   UNL     1       5.092   5.668   1.380  1.00  0.00     0.029 A 
ATOM     18  N   UNL     1       6.332   6.083   3.191  1.00  0.00    -0.354 N 
ATOM     19  C   UNL     1       6.674   3.184   6.382  1.00  0.00     0.074 A 
ATOM     20  C   UNL     1       5.905   1.993   6.092  1.00  0.00     0.031 C 
ATOM     21  C   UNL     1       5.658   6.870   1.207  1.00  0.00     0.029 A 
ATOM     22  C   UNL     1       6.452   7.192   2.387  1.00  0.00     0.049 A 
ATOM     23  H   UNL     1       6.771   6.003   4.069  1.00  0.00     0.167 HD
ATOM     24  C   UNL     1       7.400   3.373   7.512  1.00  0.00     0.037 A 
ATOM     25  C   UNL     1       7.115   8.348   2.578  1.00  0.00     0.037 A 
ATOM     26  C   UNL     1       8.179   4.557   7.782  1.00  0.00     0.049 A 
ATOM     27  C   UNL     1       7.895   8.538   3.847  1.00  0.00     0.074 A 
ATOM     28  C   UNL     1       8.982   4.827   8.878  1.00  0.00     0.029 A 
ATOM     29  N   UNL     1       8.249   5.670   6.956  1.00  0.00    -0.354 N 
ATOM     30  N   UNL     1       8.061   7.705   4.846  1.00  0.00    -0.248 NA
ATOM     31  C   UNL     1       8.582   9.825   4.013  1.00  0.00     0.031 C 
ATOM     32  C   UNL     1       9.488   6.124   8.742  1.00  0.00     0.029 A 
ATOM     33  C   UNL     1       9.059   6.638   7.530  1.00  0.00     0.049 A 
ATOM     34  H   UNL     1       7.790   5.760   6.090  1.00  0.00     0.167 HD
ATOM     35  C   UNL     1       8.901   8.353   5.745  1.00  0.00     0.074 A 
ATOM     36  C   UNL     1       9.214   9.643   5.164  1.00  0.00     0.031 C 
ATOM     37  C   UNL     1       9.373   7.916   6.939  1.00  0.00     0.037 A 
BRANCH  24  38
ATOM     38  C   UNL     1       7.367   2.292   8.562  1.00  0.00     0.058 A 
ATOM     39  C   UNL     1       7.976   1.041   8.368  1.00  0.00     0.135 A 
ATOM     40  C   UNL     1       6.749   2.528   9.803  1.00  0.00     0.135 A 
ATOM     41  F   UNL     1       8.572   0.753   7.200  1.00  0.00    -0.206 F 
ATOM     42  C   UNL     1       7.946   0.055   9.351  1.00  0.00     0.059 A 
ATOM     43  C   UNL     1       6.734   1.567  10.811  1.00  0.00     0.059 A 
ATOM     44  F   UNL     1       6.154   3.705  10.048  1.00  0.00    -0.206 F 
ATOM     45  C   UNL     1       7.321   0.327  10.569  1.00  0.00     0.060 A 
BRANCH  45  46
ATOM     46  S   UNL     1       7.286  -0.965  11.830  1.00  0.00     0.124 S 
ATOM     47  O   UNL     1       6.334  -1.909  11.253  1.00  0.00    -0.237 OA
ATOM     48  O   UNL     1       8.676  -1.408  11.862  1.00  0.00    -0.237 OA
ATOM     49  O   UNL     1       6.827  -0.264  13.025  1.00  0.00    -0.744 OA
ENDBRANCH  45  46
ENDBRANCH  24  38
BRANCH  25  50
ATOM     50  C   UNL     1       7.071   9.407   1.535  1.00  0.00     0.058 A 
ATOM     51  C   UNL     1       8.216   9.744   0.799  1.00  0.00     0.135 A 
ATOM     52  C   UNL     1       5.880  10.089   1.240  1.00  0.00     0.135 A 
ATOM     53  F   UNL     1       9.380   9.123   1.045  1.00  0.00    -0.206 F 
ATOM     54  C   UNL     1       8.188  10.733  -0.179  1.00  0.00     0.059 A 
ATOM     55  C   UNL     1       5.819  11.058   0.244  1.00  0.00     0.059 A 
ATOM     56  F   UNL     1       4.751   9.790   1.902  1.00  0.00    -0.206 F 
ATOM     57  C   UNL     1       6.982  11.382  -0.451  1.00  0.00     0.060 A 
BRANCH  57  58
ATOM     58  S   UNL     1       6.947  12.634  -1.751  1.00  0.00     0.124 S 
ATOM     59  O   UNL     1       7.681  13.727  -1.125  1.00  0.00    -0.237 OA
ATOM     60  O   UNL     1       7.627  11.953  -2.849  1.00  0.00    -0.237 OA
ATOM     61  O   UNL     1       5.521  12.866  -1.956  1.00  0.00    -0.744 OA
ENDBRANCH  57  58
ENDBRANCH  25  50
BRANCH  37  62
ATOM     62  C   UNL     1      10.330   8.818   7.672  1.00  0.00     0.058 A 
ATOM     63  C   UNL     1       9.920  10.023   8.262  1.00  0.00     0.135 A 
ATOM     64  C   UNL     1      11.680   8.452   7.803  1.00  0.00     0.135 A 
ATOM     65  F   UNL     1       8.643  10.425   8.162  1.00  0.00    -0.206 F 
ATOM     66  C   UNL     1      10.821  10.853   8.922  1.00  0.00     0.059 A 
ATOM     67  C   UNL     1      12.591   9.249   8.488  1.00  0.00     0.059 A 
ATOM     68  F   UNL     1      12.126   7.304   7.268  1.00  0.00    -0.206 F 
ATOM     69  C   UNL     1      12.155  10.457   9.029  1.00  0.00     0.060 A 
BRANCH  69  70
ATOM     70  S   UNL     1      13.313  11.536   9.898  1.00  0.00     0.124 S 
ATOM     71  O   UNL     1      13.482  12.621   8.936  1.00  0.00    -0.237 OA
ATOM     72  O   UNL     1      12.575  11.873  11.111  1.00  0.00    -0.237 OA
ATOM     73  O   UNL     1      14.484  10.688  10.099  1.00  0.00    -0.744 OA
ENDBRANCH  69  70
ENDBRANCH  37  62
ENDBRANCH  11  12
ENDBRANCH   4   6
ENDBRANCH   1   2
BRANCH   1  74
ATOM     74  C   UNL     1       4.882  -2.478   0.066  1.00  0.00     0.023 C 
BRANCH  74  75
ATOM     75  C   UNL     1       4.420  -3.691  -0.735  1.00  0.00     0.023 C 
BRANCH  75  76
ATOM     76  C   UNL     1       4.825  -3.683  -2.203  1.00  0.00     0.116 C 
BRANCH  76  77
ATOM     77  N   UNL     1       6.266  -3.646  -2.392  1.00  0.00    -0.352 N 
ATOM     78  C   UNL     1       7.035  -4.421  -3.219  1.00  0.00     0.252 C 
ATOM     79  H   UNL     1       6.751  -2.978  -1.856  1.00  0.00     0.163 HD
ATOM     80  O   UNL     1       8.256  -4.310  -3.245  1.00  0.00    -0.269 OA
BRANCH  78  81
ATOM     81  C   UNL     1       6.395  -5.451  -4.050  1.00  0.00     0.060 A 
ATOM     82  C   UNL     1       6.728  -6.787  -3.770  1.00  0.00     0.042 A 
ATOM     83  C   UNL     1       5.517  -5.133  -5.093  1.00  0.00     0.053 A 
ATOM     84  C   UNL     1       6.193  -7.806  -4.556  1.00  0.00     0.053 A 
ATOM     85  C   UNL     1       4.918  -6.161  -5.817  1.00  0.00     0.023 A 
ATOM     86  Cl  UNL     1       5.144  -3.514  -5.561  1.00  0.00    -0.083 Cl
ATOM     87  C   UNL     1       5.270  -7.485  -5.563  1.00  0.00     0.028 A 
BRANCH  84  88
ATOM     88  N   UNL     1       6.497  -9.159  -4.318  1.00  0.00    -0.250 N 
ATOM     89  C   UNL     1       6.349  -9.766  -3.058  1.00  0.00     0.238 C 
ATOM     90  C   UNL     1       6.592 -10.107  -5.358  1.00  0.00     0.238 C 
ATOM     91  O   UNL     1       6.043  -9.279  -1.984  1.00  0.00    -0.274 OA
ATOM     92  C   UNL     1       6.627 -11.211  -3.328  1.00  0.00     0.100 C 
ATOM     93  C   UNL     1       5.999 -11.307  -4.721  1.00  0.00     0.100 C 
ATOM     94  O   UNL     1       6.874  -9.966  -6.532  1.00  0.00    -0.274 OA
ATOM     95  C   UNL     1       6.245 -12.464  -2.521  1.00  0.00     0.028 C 
ATOM     96  C   UNL     1       5.792 -12.766  -5.091  1.00  0.00     0.028 C 
ATOM     97  C   UNL     1       7.150 -13.514  -3.215  1.00  0.00    -0.026 C 
ATOM     98  C   UNL     1       4.815 -12.992  -2.747  1.00  0.00     0.001 C 
ATOM     99  C   UNL     1       6.949 -13.619  -4.550  1.00  0.00    -0.026 C 
ATOM    100  C   UNL     1       4.533 -13.185  -4.245  1.00  0.00     0.001 C 
ATOM    101  C   UNL     1       3.656 -12.277  -3.377  1.00  0.00     0.009 C 
ENDBRANCH  84  88
ENDBRANCH  78  81
ENDBRANCH  76  77
ENDBRANCH  75  76
ENDBRANCH  74  75
ENDBRANCH   1  74
TORSDOF 15
