REMARK SMILES CCCOc1ccccc1C(=O)NCCCCNC(=O)c1ccc(-c2c3nc(c(-c4c(F)cc(S(=O)(=O)[O-])cc4F)c4ccc([nH]4)c(-c4c(F)cc(S(=O)(=O)[O-])cc4F)c4nc(c(-c5c(F)cc(S(=O)(=O)[O-])cc5F)c5ccc2[nH]5)C=C4)C=C3)cc1
REMARK SMILES IDX 15 1 14 2 13 3 11 4 12 5 10 7 5 8 6 9 7 10 9 11 8 12 4 13
REMARK SMILES IDX 3 14 2 15 1 16 16 17 17 18 18 19 19 20 20 22 21 23 22 24
REMARK SMILES IDX 86 25 23 26 85 27 24 28 25 29 26 30 79 31 27 32 84 33 78 34
REMARK SMILES IDX 80 35 28 36 83 37 77 38 76 39 29 41 63 42 42 43 62 44 43 45
REMARK SMILES IDX 46 46 61 47 81 48 44 49 45 50 60 52 82 53 47 54 30 55 31 56
REMARK SMILES IDX 40 57 32 58 33 59 39 60 41 61 34 62 35 63 36 64 37 65 38 66
REMARK SMILES IDX 64 67 65 68 74 69 66 70 67 71 73 72 75 73 68 74 69 75 70 76
REMARK SMILES IDX 71 77 72 78 48 79 49 80 58 81 50 82 51 83 57 84 59 85 52 86
REMARK SMILES IDX 53 87 54 88 55 89 56 90
REMARK H PARENT 13 6 18 21 80 40 46 51
REMARK Flexibility Score: inf
ROOT
ATOM      1  C   UNL     1      -1.779   0.463  -3.455  1.00  0.00     0.023 C 
ENDROOT
BRANCH   1   2
ATOM      2  C   UNL     1      -0.987  -0.492  -2.560  1.00  0.00     0.116 C 
BRANCH   2   3
ATOM      3  N   UNL     1      -0.924  -0.065  -1.172  1.00  0.00    -0.352 N 
ATOM      4  C   UNL     1      -0.356  -0.667  -0.075  1.00  0.00     0.255 C 
ATOM      5  O   UNL     1      -0.554  -0.165   1.033  1.00  0.00    -0.269 OA
ATOM      6  H   UNL     1      -1.361   0.797  -0.988  1.00  0.00     0.163 HD
BRANCH   4   7
ATOM      7  C   UNL     1       0.439  -1.920  -0.147  1.00  0.00     0.081 A 
ATOM      8  C   UNL     1       1.440  -2.194  -1.085  1.00  0.00     0.132 A 
ATOM      9  C   UNL     1       2.054  -3.452  -1.111  1.00  0.00     0.047 A 
ATOM     10  C   UNL     1       1.768  -4.400  -0.127  1.00  0.00     0.004 A 
ATOM     11  C   UNL     1       0.212  -2.857   0.880  1.00  0.00     0.018 A 
ATOM     12  C   UNL     1       0.874  -4.087   0.893  1.00  0.00     0.001 A 
BRANCH   8  13
ATOM     13  O   UNL     1       1.819  -1.302  -2.046  1.00  0.00    -0.493 OA
BRANCH  13  14
ATOM     14  C   UNL     1       2.929  -0.474  -1.669  1.00  0.00     0.229 C 
BRANCH  14  15
ATOM     15  C   UNL     1       2.467   0.872  -1.106  1.00  0.00     0.038 C 
ATOM     16  C   UNL     1       2.588   0.960   0.407  1.00  0.00     0.007 C 
ENDBRANCH  14  15
ENDBRANCH  13  14
ENDBRANCH   8  13
ENDBRANCH   4   7
ENDBRANCH   2   3
ENDBRANCH   1   2
BRANCH   1  17
ATOM     17  C   UNL     1      -1.252   1.905  -3.529  1.00  0.00     0.023 C 
BRANCH  17  18
ATOM     18  C   UNL     1       0.188   2.095  -4.010  1.00  0.00     0.116 C 
BRANCH  18  19
ATOM     19  N   UNL     1       0.419   1.700  -5.388  1.00  0.00    -0.352 N 
ATOM     20  C   UNL     1       0.663   2.439  -6.522  1.00  0.00     0.251 C 
ATOM     21  H   UNL     1       0.398   0.727  -5.538  1.00  0.00     0.163 HD
ATOM     22  O   UNL     1       0.791   1.854  -7.594  1.00  0.00    -0.269 OA
BRANCH  20  23
ATOM     23  C   UNL     1       0.721   3.922  -6.495  1.00  0.00     0.039 A 
ATOM     24  C   UNL     1       0.025   4.620  -7.489  1.00  0.00     0.014 A 
ATOM     25  C   UNL     1       1.468   4.636  -5.555  1.00  0.00     0.014 A 
ATOM     26  C   UNL     1      -0.000   6.018  -7.484  1.00  0.00     0.010 A 
ATOM     27  C   UNL     1       1.389   6.034  -5.511  1.00  0.00     0.010 A 
ATOM     28  C   UNL     1       0.637   6.741  -6.462  1.00  0.00    -0.014 A 
BRANCH  28  29
ATOM     29  C   UNL     1       0.462   8.218  -6.354  1.00  0.00     0.031 A 
ATOM     30  C   UNL     1       1.628   9.159  -6.503  1.00  0.00     0.074 A 
ATOM     31  C   UNL     1      -0.760   8.716  -6.071  1.00  0.00     0.049 A 
ATOM     32  N   UNL     1       1.650  10.466  -6.412  1.00  0.00    -0.248 NA
ATOM     33  C   UNL     1       2.942   8.557  -6.773  1.00  0.00     0.031 C 
ATOM     34  C   UNL     1      -1.968   7.915  -5.856  1.00  0.00     0.029 A 
ATOM     35  N   UNL     1      -1.192  10.011  -5.907  1.00  0.00    -0.354 N 
ATOM     36  C   UNL     1       2.974  10.843  -6.606  1.00  0.00     0.074 A 
ATOM     37  C   UNL     1       3.733   9.621  -6.775  1.00  0.00     0.031 C 
ATOM     38  C   UNL     1      -3.004   8.733  -5.614  1.00  0.00     0.029 A 
ATOM     39  C   UNL     1      -2.533  10.114  -5.613  1.00  0.00     0.049 A 
ATOM     40  H   UNL     1      -0.598  10.791  -5.992  1.00  0.00     0.167 HD
ATOM     41  C   UNL     1       3.505  12.089  -6.657  1.00  0.00     0.037 A 
ATOM     42  C   UNL     1      -3.300  11.194  -5.360  1.00  0.00     0.037 A 
ATOM     43  C   UNL     1       2.746  13.305  -6.501  1.00  0.00     0.049 A 
ATOM     44  C   UNL     1      -2.683  12.566  -5.407  1.00  0.00     0.074 A 
ATOM     45  C   UNL     1       3.190  14.614  -6.594  1.00  0.00     0.029 A 
ATOM     46  N   UNL     1       1.391  13.367  -6.210  1.00  0.00    -0.354 N 
ATOM     47  N   UNL     1      -1.442  12.903  -5.663  1.00  0.00    -0.248 NA
ATOM     48  C   UNL     1      -3.572  13.705  -5.135  1.00  0.00     0.031 C 
ATOM     49  C   UNL     1       2.117  15.465  -6.308  1.00  0.00     0.029 A 
ATOM     50  C   UNL     1       0.990  14.690  -6.094  1.00  0.00     0.049 A 
ATOM     51  H   UNL     1       0.800  12.587  -6.102  1.00  0.00     0.167 HD
ATOM     52  C   UNL     1      -1.408  14.293  -5.613  1.00  0.00     0.074 A 
ATOM     53  C   UNL     1      -2.753  14.734  -5.312  1.00  0.00     0.031 C 
ATOM     54  C   UNL     1      -0.354  15.125  -5.802  1.00  0.00     0.037 A 
BRANCH  41  55
ATOM     55  C   UNL     1       4.988  12.211  -6.894  1.00  0.00     0.058 A 
ATOM     56  C   UNL     1       5.564  11.900  -8.137  1.00  0.00     0.135 A 
ATOM     57  C   UNL     1       5.837  12.695  -5.885  1.00  0.00     0.135 A 
ATOM     58  F   UNL     1       4.803  11.426  -9.136  1.00  0.00    -0.206 F 
ATOM     59  C   UNL     1       6.931  12.035  -8.361  1.00  0.00     0.059 A 
ATOM     60  C   UNL     1       7.203  12.866  -6.096  1.00  0.00     0.059 A 
ATOM     61  F   UNL     1       5.341  13.014  -4.680  1.00  0.00    -0.206 F 
ATOM     62  C   UNL     1       7.743  12.518  -7.333  1.00  0.00     0.060 A 
BRANCH  62  63
ATOM     63  S   UNL     1       9.514  12.686  -7.641  1.00  0.00     0.124 S 
ATOM     64  O   UNL     1       9.939  11.290  -7.661  1.00  0.00    -0.237 OA
ATOM     65  O   UNL     1       9.543  13.375  -8.928  1.00  0.00    -0.237 OA
ATOM     66  O   UNL     1       9.985  13.469  -6.503  1.00  0.00    -0.744 OA
ENDBRANCH  62  63
ENDBRANCH  41  55
BRANCH  42  67
ATOM     67  C   UNL     1      -4.746  11.020  -5.054  1.00  0.00     0.058 A 
ATOM     68  C   UNL     1      -5.732  11.434  -5.961  1.00  0.00     0.135 A 
ATOM     69  C   UNL     1      -5.170  10.429  -3.853  1.00  0.00     0.135 A 
ATOM     70  F   UNL     1      -5.378  12.013  -7.119  1.00  0.00    -0.206 F 
ATOM     71  C   UNL     1      -7.087  11.283  -5.685  1.00  0.00     0.059 A 
ATOM     72  C   UNL     1      -6.519  10.242  -3.566  1.00  0.00     0.059 A 
ATOM     73  F   UNL     1      -4.266  10.002  -2.958  1.00  0.00    -0.206 F 
ATOM     74  C   UNL     1      -7.471  10.682  -4.484  1.00  0.00     0.060 A 
BRANCH  74  75
ATOM     75  S   UNL     1      -9.231  10.447  -4.157  1.00  0.00     0.124 S 
ATOM     76  O   UNL     1      -9.662  11.811  -3.877  1.00  0.00    -0.237 OA
ATOM     77  O   UNL     1      -9.702   9.873  -5.414  1.00  0.00    -0.237 OA
ATOM     78  O   UNL     1      -9.241   9.534  -3.018  1.00  0.00    -0.744 OA
ENDBRANCH  74  75
ENDBRANCH  42  67
BRANCH  54  79
ATOM     79  C   UNL     1      -0.612  16.606  -5.727  1.00  0.00     0.058 A 
ATOM     80  C   UNL     1      -0.870  17.253  -4.508  1.00  0.00     0.135 A 
ATOM     81  C   UNL     1      -0.541  17.398  -6.885  1.00  0.00     0.135 A 
ATOM     82  F   UNL     1      -0.958  16.544  -3.372  1.00  0.00    -0.206 F 
ATOM     83  C   UNL     1      -1.066  18.630  -4.443  1.00  0.00     0.059 A 
ATOM     84  C   UNL     1      -0.705  18.780  -6.839  1.00  0.00     0.059 A 
ATOM     85  F   UNL     1      -0.290  16.833  -8.077  1.00  0.00    -0.206 F 
ATOM     86  C   UNL     1      -0.977  19.386  -5.614  1.00  0.00     0.060 A 
BRANCH  86  87
ATOM     87  S   UNL     1      -1.187  21.176  -5.507  1.00  0.00     0.124 S 
ATOM     88  O   UNL     1      -2.623  21.291  -5.276  1.00  0.00    -0.237 OA
ATOM     89  O   UNL     1      -0.334  21.524  -4.375  1.00  0.00    -0.237 OA
ATOM     90  O   UNL     1      -0.720  21.652  -6.806  1.00  0.00    -0.744 OA
ENDBRANCH  86  87
ENDBRANCH  54  79
ENDBRANCH  28  29
ENDBRANCH  20  23
ENDBRANCH  18  19
ENDBRANCH  17  18
ENDBRANCH   1  17
TORSDOF 17
