REMARK SMILES C[NH2+][C@@]1(C(=O)NCCCCNC(=O)c2ccc(-c3c4nc(c(-c5c(F)cc(S(=O)(=O)[O-])cc5F)c5ccc([nH]5)c(-c5c(F)cc(S(=O)(=O)[O-])cc5F)c5nc(c(-c6c(F)cc(S(=O)(=O)[O-])cc6F)c6ccc3[nH]6)C=C5)C=C4)cc2)CCC[C@H]([N@H+](C)C2CC[NH+](C)CC2)C1
REMARK SMILES IDX 9 1 8 2 7 3 6 4 4 5 5 6 3 8 80 9 93 10 81 11 83 12 82 13
REMARK SMILES IDX 2 14 1 15 84 18 85 19 86 21 87 22 92 23 88 24 91 25 89 26
REMARK SMILES IDX 90 27 10 29 11 30 12 31 13 33 14 34 15 35 79 36 16 37 78 38
REMARK SMILES IDX 17 39 18 40 19 41 72 42 20 43 77 44 71 45 73 46 21 47 76 48
REMARK SMILES IDX 70 49 69 50 22 52 56 53 35 54 55 55 36 56 39 57 54 58 74 59
REMARK SMILES IDX 37 60 38 61 53 63 75 64 40 65 23 66 24 67 33 68 25 69 26 70
REMARK SMILES IDX 32 71 34 72 27 73 28 74 29 75 30 76 31 77 57 78 58 79 67 80
REMARK SMILES IDX 59 81 60 82 66 83 68 84 61 85 62 86 63 87 64 88 65 89 41 90
REMARK SMILES IDX 42 91 51 92 43 93 44 94 50 95 52 96 45 97 46 98 47 99 48 100
REMARK SMILES IDX 49 101
REMARK H PARENT 6 7 2 16 2 17 84 20 89 28 11 32 73 51 39 62
REMARK Flexibility Score: inf
ROOT
ATOM      1  C   UNL     1      -5.698   4.309  -2.803  1.00  0.00     0.023 C 
ENDROOT
BRANCH   1   2
ATOM      2  C   UNL     1      -4.403   4.181  -1.965  1.00  0.00     0.023 C 
BRANCH   2   3
ATOM      3  C   UNL     1      -3.442   3.013  -2.277  1.00  0.00     0.116 C 
BRANCH   3   4
ATOM      4  N   UNL     1      -2.441   2.789  -1.218  1.00  0.00    -0.351 N 
ATOM      5  C   UNL     1      -1.900   1.545  -0.870  1.00  0.00     0.281 C 
ATOM      6  O   UNL     1      -2.015   0.561  -1.601  1.00  0.00    -0.268 OA
ATOM      7  H   UNL     1      -2.128   3.576  -0.717  1.00  0.00     0.163 HD
BRANCH   5   8
ATOM      8  C   UNL     1      -1.011   1.499   0.468  1.00  0.00     0.181 C 
ATOM      9  C   UNL     1      -0.721   0.070   1.038  1.00  0.00     0.079 C 
ATOM     10  C   UNL     1      -1.653   2.342   1.593  1.00  0.00     0.144 C 
ATOM     11  C   UNL     1      -1.652  -0.546   2.085  1.00  0.00     0.013 C 
ATOM     12  C   UNL     1      -2.922   1.677   2.211  1.00  0.00     0.190 C 
ATOM     13  C   UNL     1      -2.446   0.424   2.933  1.00  0.00     0.065 C 
BRANCH   8  14
ATOM     14  N   UNL     1       0.312   2.140   0.110  1.00  0.00    -0.336 N 
ATOM     15  C   UNL     1       1.194   1.265  -0.676  1.00  0.00     0.331 C 
ATOM     16  H   UNL     1       0.126   2.983  -0.434  1.00  0.00     0.346 HD
ATOM     17  H   UNL     1       0.794   2.344   0.985  1.00  0.00     0.346 HD
ENDBRANCH   8  14
BRANCH  12  18
ATOM     18  N   UNL     1      -4.026   1.672   1.219  1.00  0.00    -0.332 N 
ATOM     19  C   UNL     1      -4.681   3.006   1.385  1.00  0.00     0.333 C 
ATOM     20  H   UNL     1      -3.536   1.434   0.357  1.00  0.00     0.348 HD
BRANCH  18  21
ATOM     21  C   UNL     1      -5.103   0.631   1.138  1.00  0.00     0.195 C 
ATOM     22  C   UNL     1      -4.871  -0.883   1.297  1.00  0.00     0.126 C 
ATOM     23  C   UNL     1      -5.855   0.732  -0.225  1.00  0.00     0.126 C 
ATOM     24  C   UNL     1      -4.199  -1.553   0.096  1.00  0.00     0.268 C 
ATOM     25  C   UNL     1      -5.304  -0.092  -1.393  1.00  0.00     0.268 C 
ATOM     26  N   UNL     1      -5.057  -1.498  -1.087  1.00  0.00    -0.337 N 
ATOM     27  C   UNL     1      -4.355  -2.110  -2.229  1.00  0.00     0.332 C 
ATOM     28  H   UNL     1      -5.931  -1.996  -0.914  1.00  0.00     0.347 HD
ENDBRANCH  18  21
ENDBRANCH  12  18
ENDBRANCH   5   8
ENDBRANCH   3   4
ENDBRANCH   2   3
ENDBRANCH   1   2
BRANCH   1  29
ATOM     29  C   UNL     1      -6.799   3.239  -2.694  1.00  0.00     0.116 C 
BRANCH  29  30
ATOM     30  N   UNL     1      -7.535   3.203  -1.431  1.00  0.00    -0.352 N 
ATOM     31  C   UNL     1      -8.704   2.522  -1.131  1.00  0.00     0.251 C 
ATOM     32  H   UNL     1      -7.149   3.732  -0.696  1.00  0.00     0.163 HD
ATOM     33  O   UNL     1      -9.136   2.498   0.021  1.00  0.00    -0.269 OA
BRANCH  31  34
ATOM     34  C   UNL     1      -9.486   1.905  -2.225  1.00  0.00     0.039 A 
ATOM     35  C   UNL     1     -10.774   2.392  -2.466  1.00  0.00     0.014 A 
ATOM     36  C   UNL     1      -8.915   0.975  -3.094  1.00  0.00     0.014 A 
ATOM     37  C   UNL     1     -11.404   2.095  -3.675  1.00  0.00     0.010 A 
ATOM     38  C   UNL     1      -9.517   0.722  -4.324  1.00  0.00     0.010 A 
ATOM     39  C   UNL     1     -10.728   1.345  -4.654  1.00  0.00    -0.014 A 
BRANCH  39  40
ATOM     40  C   UNL     1     -11.171   1.391  -6.072  1.00  0.00     0.031 A 
ATOM     41  C   UNL     1     -11.645   0.165  -6.791  1.00  0.00     0.074 A 
ATOM     42  C   UNL     1     -11.046   2.560  -6.735  1.00  0.00     0.049 A 
ATOM     43  N   UNL     1     -12.049   0.047  -8.030  1.00  0.00    -0.248 NA
ATOM     44  C   UNL     1     -11.643  -1.094  -6.033  1.00  0.00     0.031 C 
ATOM     45  C   UNL     1     -10.510   3.802  -6.165  1.00  0.00     0.029 A 
ATOM     46  N   UNL     1     -11.352   2.902  -8.028  1.00  0.00    -0.354 N 
ATOM     47  C   UNL     1     -12.354  -1.296  -8.204  1.00  0.00     0.074 A 
ATOM     48  C   UNL     1     -12.040  -1.962  -6.956  1.00  0.00     0.031 C 
ATOM     49  C   UNL     1     -10.565   4.774  -7.088  1.00  0.00     0.029 A 
ATOM     50  C   UNL     1     -11.106   4.223  -8.324  1.00  0.00     0.049 A 
ATOM     51  H   UNL     1     -11.714   2.262  -8.683  1.00  0.00     0.167 HD
ATOM     52  C   UNL     1     -12.870  -1.910  -9.296  1.00  0.00     0.037 A 
ATOM     53  C   UNL     1     -11.301   4.919  -9.460  1.00  0.00     0.037 A 
ATOM     54  C   UNL     1     -13.181  -1.239 -10.533  1.00  0.00     0.049 A 
ATOM     55  C   UNL     1     -11.894   4.219 -10.650  1.00  0.00     0.074 A 
ATOM     56  C   UNL     1     -13.748  -1.765 -11.680  1.00  0.00     0.029 A 
ATOM     57  N   UNL     1     -12.947   0.106 -10.785  1.00  0.00    -0.354 N 
ATOM     58  N   UNL     1     -12.253   2.963 -10.769  1.00  0.00    -0.248 NA
ATOM     59  C   UNL     1     -12.115   5.028 -11.856  1.00  0.00     0.031 C 
ATOM     60  C   UNL     1     -13.832  -0.745 -12.636  1.00  0.00     0.029 A 
ATOM     61  C   UNL     1     -13.350   0.425 -12.072  1.00  0.00     0.049 A 
ATOM     62  H   UNL     1     -12.553   0.740 -10.144  1.00  0.00     0.167 HD
ATOM     63  C   UNL     1     -12.766   2.837 -12.054  1.00  0.00     0.074 A 
ATOM     64  C   UNL     1     -12.680   4.146 -12.669  1.00  0.00     0.031 C 
ATOM     65  C   UNL     1     -13.264   1.736 -12.667  1.00  0.00     0.037 A 
BRANCH  52  66
ATOM     66  C   UNL     1     -13.144  -3.384  -9.192  1.00  0.00     0.058 A 
ATOM     67  C   UNL     1     -14.202  -3.874  -8.410  1.00  0.00     0.135 A 
ATOM     68  C   UNL     1     -12.363  -4.316  -9.895  1.00  0.00     0.135 A 
ATOM     69  F   UNL     1     -14.973  -3.027  -7.709  1.00  0.00    -0.206 F 
ATOM     70  C   UNL     1     -14.456  -5.237  -8.300  1.00  0.00     0.059 A 
ATOM     71  C   UNL     1     -12.614  -5.683  -9.819  1.00  0.00     0.059 A 
ATOM     72  F   UNL     1     -11.342  -3.901 -10.661  1.00  0.00    -0.206 F 
ATOM     73  C   UNL     1     -13.652  -6.135  -9.004  1.00  0.00     0.060 A 
BRANCH  73  74
ATOM     74  S   UNL     1     -13.988  -7.902  -8.844  1.00  0.00     0.124 S 
ATOM     75  O   UNL     1     -13.445  -8.181  -7.518  1.00  0.00    -0.237 OA
ATOM     76  O   UNL     1     -15.441  -7.958  -8.957  1.00  0.00    -0.237 OA
ATOM     77  O   UNL     1     -13.252  -8.489  -9.959  1.00  0.00    -0.744 OA
ENDBRANCH  73  74
ENDBRANCH  52  66
BRANCH  53  78
ATOM     78  C   UNL     1     -10.977   6.369  -9.510  1.00  0.00     0.058 A 
ATOM     79  C   UNL     1     -11.998   7.330  -9.530  1.00  0.00     0.135 A 
ATOM     80  C   UNL     1      -9.650   6.824  -9.517  1.00  0.00     0.135 A 
ATOM     81  F   UNL     1     -13.283   6.943  -9.525  1.00  0.00    -0.206 F 
ATOM     82  C   UNL     1     -11.717   8.692  -9.574  1.00  0.00     0.059 A 
ATOM     83  C   UNL     1      -9.343   8.181  -9.539  1.00  0.00     0.059 A 
ATOM     84  F   UNL     1      -8.637   5.944  -9.476  1.00  0.00    -0.206 F 
ATOM     85  C   UNL     1     -10.385   9.107  -9.578  1.00  0.00     0.060 A 
BRANCH  85  86
ATOM     86  S   UNL     1     -10.028  10.878  -9.587  1.00  0.00     0.124 S 
ATOM     87  O   UNL     1     -10.312  11.227 -10.974  1.00  0.00    -0.237 OA
ATOM     88  O   UNL     1     -10.970  11.388  -8.594  1.00  0.00    -0.237 OA
ATOM     89  O   UNL     1      -8.624  10.938  -9.194  1.00  0.00    -0.744 OA
ENDBRANCH  85  86
ENDBRANCH  53  78
BRANCH  65  90
ATOM     90  C   UNL     1     -13.781   1.904 -14.067  1.00  0.00     0.058 A 
ATOM     91  C   UNL     1     -12.912   2.042 -15.160  1.00  0.00     0.135 A 
ATOM     92  C   UNL     1     -15.161   1.877 -14.323  1.00  0.00     0.135 A 
ATOM     93  F   UNL     1     -11.584   2.084 -14.966  1.00  0.00    -0.206 F 
ATOM     94  C   UNL     1     -13.394   2.163 -16.459  1.00  0.00     0.059 A 
ATOM     95  C   UNL     1     -15.665   1.974 -15.616  1.00  0.00     0.059 A 
ATOM     96  F   UNL     1     -16.034   1.741 -13.311  1.00  0.00    -0.206 F 
ATOM     97  C   UNL     1     -14.773   2.127 -16.677  1.00  0.00     0.060 A 
BRANCH  97  98
ATOM     98  S   UNL     1     -15.387   2.241 -18.371  1.00  0.00     0.124 S 
ATOM     99  O   UNL     1     -15.240   3.667 -18.641  1.00  0.00    -0.237 OA
ATOM    100  O   UNL     1     -14.475   1.361 -19.096  1.00  0.00    -0.237 OA
ATOM    101  O   UNL     1     -16.761   1.759 -18.266  1.00  0.00    -0.744 OA
ENDBRANCH  97  98
ENDBRANCH  65  90
ENDBRANCH  39  40
ENDBRANCH  31  34
ENDBRANCH  29  30
ENDBRANCH   1  29
TORSDOF 17
