REMARK SMILES CCCN(CC(=O)OC)C(=O)N1CC[C@H](C(=O)NCCCCNC(=O)c2ccc(-c3c4nc(c(-c5c(F)cc(S(=O)(=O)[O-])cc5F)c5ccc([nH]5)c(-c5c(F)cc(S(=O)(=O)[O-])cc5F)c5nc(c(-c6c(F)cc(S(=O)(=O)[O-])cc6F)c6ccc3[nH]6)C=C5)C=C4)cc2)[C@H]1C
REMARK SMILES IDX 19 1 18 2 16 3 17 4 15 6 12 7 13 8 92 9 14 10 93 11 10 12
REMARK SMILES IDX 11 13 4 14 3 15 2 16 1 17 5 18 6 19 7 20 8 21 9 22 20 23
REMARK SMILES IDX 21 24 22 25 23 26 24 27 25 29 26 30 27 31 91 32 28 33 90 34
REMARK SMILES IDX 29 35 30 36 31 37 84 38 32 39 89 40 83 41 85 42 33 43 88 44
REMARK SMILES IDX 82 45 81 46 34 48 68 49 47 50 67 51 48 52 51 53 66 54 86 55
REMARK SMILES IDX 49 56 50 57 65 59 87 60 52 61 35 62 36 63 45 64 37 65 38 66
REMARK SMILES IDX 44 67 46 68 39 69 40 70 41 71 42 72 43 73 69 74 70 75 79 76
REMARK SMILES IDX 71 77 72 78 78 79 80 80 73 81 74 82 75 83 76 84 77 85 53 86
REMARK SMILES IDX 54 87 63 88 55 89 56 90 62 91 64 92 57 93 58 94 59 95 60 96
REMARK SMILES IDX 61 97
REMARK H PARENT 18 5 23 28 85 47 51 58
REMARK Flexibility Score: inf
ROOT
ATOM      1  C   UNL     1       0.604   6.287   4.867  1.00  0.00     0.116 C 
ENDROOT
BRANCH   1   2
ATOM      2  N   UNL     1       1.511   5.209   5.193  1.00  0.00    -0.356 N 
ATOM      3  C   UNL     1       1.276   3.874   5.325  1.00  0.00     0.225 C 
ATOM      4  O   UNL     1       2.237   3.170   5.641  1.00  0.00    -0.275 OA
ATOM      5  H   UNL     1       2.445   5.482   5.342  1.00  0.00     0.163 HD
BRANCH   3   6
ATOM      6  C   UNL     1      -0.145   3.315   5.250  1.00  0.00     0.102 C 
ATOM      7  N   UNL     1      -0.136   1.492   3.690  1.00  0.00    -0.321 N 
ATOM      8  C   UNL     1      -0.512   2.705   2.980  1.00  0.00     0.122 C 
ATOM      9  C   UNL     1      -0.114   1.764   5.147  1.00  0.00     0.096 C 
ATOM     10  C   UNL     1      -0.994   3.675   4.031  1.00  0.00     0.037 C 
ATOM     11  C   UNL     1      -1.347   1.213   5.881  1.00  0.00     0.032 C 
BRANCH   7  12
ATOM     12  C   UNL     1       0.852   0.755   3.040  1.00  0.00     0.320 C 
ATOM     13  O   UNL     1       1.690   1.309   2.326  1.00  0.00    -0.248 OA
BRANCH  12  14
ATOM     14  N   UNL     1       0.721  -0.621   3.041  1.00  0.00    -0.314 N 
BRANCH  14  15
ATOM     15  C   UNL     1       1.436  -1.379   2.013  1.00  0.00     0.122 C 
BRANCH  15  16
ATOM     16  C   UNL     1       0.664  -1.425   0.683  1.00  0.00     0.018 C 
ATOM     17  C   UNL     1       0.850  -0.182  -0.181  1.00  0.00     0.006 C 
ENDBRANCH  15  16
ENDBRANCH  14  15
BRANCH  14  18
ATOM     18  C   UNL     1      -0.076  -1.385   3.995  1.00  0.00     0.243 C 
BRANCH  18  19
ATOM     19  C   UNL     1       0.607  -1.572   5.358  1.00  0.00     0.325 C 
ATOM     20  O   UNL     1       0.063  -2.136   6.302  1.00  0.00    -0.250 OA
BRANCH  19  21
ATOM     21  O   UNL     1       1.852  -1.028   5.390  1.00  0.00    -0.468 OA
ATOM     22  C   UNL     1       2.515  -0.935   6.654  1.00  0.00     0.282 C 
ENDBRANCH  19  21
ENDBRANCH  18  19
ENDBRANCH  14  18
ENDBRANCH  12  14
ENDBRANCH   7  12
ENDBRANCH   3   6
ENDBRANCH   1   2
BRANCH   1  23
ATOM     23  C   UNL     1       0.936   7.603   5.562  1.00  0.00     0.023 C 
BRANCH  23  24
ATOM     24  C   UNL     1       2.338   8.157   5.318  1.00  0.00     0.023 C 
BRANCH  24  25
ATOM     25  C   UNL     1       2.743   8.318   3.857  1.00  0.00     0.116 C 
BRANCH  25  26
ATOM     26  N   UNL     1       1.900   9.256   3.132  1.00  0.00    -0.352 N 
ATOM     27  C   UNL     1       2.234  10.421   2.481  1.00  0.00     0.251 C 
ATOM     28  H   UNL     1       0.944   9.021   3.102  1.00  0.00     0.163 HD
ATOM     29  O   UNL     1       1.343  11.149   2.047  1.00  0.00    -0.269 OA
BRANCH  27  30
ATOM     30  C   UNL     1       3.653  10.818   2.333  1.00  0.00     0.039 A 
ATOM     31  C   UNL     1       4.015  12.144   2.587  1.00  0.00     0.014 A 
ATOM     32  C   UNL     1       4.627   9.892   1.953  1.00  0.00     0.014 A 
ATOM     33  C   UNL     1       5.362  12.517   2.545  1.00  0.00     0.010 A 
ATOM     34  C   UNL     1       5.974  10.244   1.996  1.00  0.00     0.010 A 
ATOM     35  C   UNL     1       6.359  11.559   2.295  1.00  0.00    -0.014 A 
BRANCH  35  36
ATOM     36  C   UNL     1       7.804  11.910   2.354  1.00  0.00     0.031 A 
ATOM     37  C   UNL     1       8.669  11.770   1.130  1.00  0.00     0.074 A 
ATOM     38  C   UNL     1       8.352  12.291   3.526  1.00  0.00     0.049 A 
ATOM     39  N   UNL     1       9.959  11.955   1.004  1.00  0.00    -0.248 NA
ATOM     40  C   UNL     1       8.002  11.342  -0.111  1.00  0.00     0.031 C 
ATOM     41  C   UNL     1       7.632  12.422   4.795  1.00  0.00     0.029 A 
ATOM     42  N   UNL     1       9.644  12.629   3.845  1.00  0.00    -0.354 N 
ATOM     43  C   UNL     1      10.258  11.657  -0.321  1.00  0.00     0.074 A 
ATOM     44  C   UNL     1       9.026  11.222  -0.943  1.00  0.00     0.031 C 
ATOM     45  C   UNL     1       8.485  12.835   5.746  1.00  0.00     0.029 A 
ATOM     46  C   UNL     1       9.820  12.957   5.170  1.00  0.00     0.049 A 
ATOM     47  H   UNL     1      10.377  12.636   3.188  1.00  0.00     0.167 HD
ATOM     48  C   UNL     1      11.444  11.760  -0.968  1.00  0.00     0.037 A 
ATOM     49  C   UNL     1      10.932  13.306   5.848  1.00  0.00     0.037 A 
ATOM     50  C   UNL     1      12.664  12.210  -0.348  1.00  0.00     0.049 A 
ATOM     51  C   UNL     1      12.242  13.394   5.112  1.00  0.00     0.074 A 
ATOM     52  C   UNL     1      13.906  12.394  -0.929  1.00  0.00     0.029 A 
ATOM     53  N   UNL     1      12.798  12.543   0.992  1.00  0.00    -0.354 N 
ATOM     54  N   UNL     1      12.493  13.167   3.845  1.00  0.00    -0.248 NA
ATOM     55  C   UNL     1      13.420  13.791   5.896  1.00  0.00     0.031 C 
ATOM     56  C   UNL     1      14.802  12.792   0.068  1.00  0.00     0.029 A 
ATOM     57  C   UNL     1      14.106  12.912   1.260  1.00  0.00     0.049 A 
ATOM     58  H   UNL     1      12.070  12.522   1.655  1.00  0.00     0.167 HD
ATOM     59  C   UNL     1      13.850  13.425   3.673  1.00  0.00     0.074 A 
ATOM     60  C   UNL     1      14.362  13.836   4.964  1.00  0.00     0.031 C 
ATOM     61  C   UNL     1      14.602  13.331   2.548  1.00  0.00     0.037 A 
BRANCH  48  62
ATOM     62  C   UNL     1      11.479  11.387  -2.426  1.00  0.00     0.058 A 
ATOM     63  C   UNL     1      10.841  12.170  -3.402  1.00  0.00     0.135 A 
ATOM     64  C   UNL     1      12.191  10.256  -2.860  1.00  0.00     0.135 A 
ATOM     65  F   UNL     1      10.135  13.254  -3.044  1.00  0.00    -0.206 F 
ATOM     66  C   UNL     1      10.882  11.830  -4.750  1.00  0.00     0.059 A 
ATOM     67  C   UNL     1      12.271   9.914  -4.207  1.00  0.00     0.059 A 
ATOM     68  F   UNL     1      12.821   9.472  -1.971  1.00  0.00    -0.206 F 
ATOM     69  C   UNL     1      11.600  10.700  -5.143  1.00  0.00     0.060 A 
BRANCH  69  70
ATOM     70  S   UNL     1      11.648  10.279  -6.898  1.00  0.00     0.124 S 
ATOM     71  O   UNL     1      10.285   9.806  -7.121  1.00  0.00    -0.237 OA
ATOM     72  O   UNL     1      11.983  11.557  -7.516  1.00  0.00    -0.237 OA
ATOM     73  O   UNL     1      12.686   9.256  -6.975  1.00  0.00    -0.744 OA
ENDBRANCH  69  70
ENDBRANCH  48  62
BRANCH  49  74
ATOM     74  C   UNL     1      10.854  13.619   7.301  1.00  0.00     0.058 A 
ATOM     75  C   UNL     1      11.048  14.928   7.769  1.00  0.00     0.135 A 
ATOM     76  C   UNL     1      10.585  12.621   8.251  1.00  0.00     0.135 A 
ATOM     77  F   UNL     1      11.315  15.916   6.902  1.00  0.00    -0.206 F 
ATOM     78  C   UNL     1      11.000  15.234   9.125  1.00  0.00     0.059 A 
ATOM     79  C   UNL     1      10.504  12.907   9.611  1.00  0.00     0.059 A 
ATOM     80  F   UNL     1      10.375  11.356   7.857  1.00  0.00    -0.206 F 
ATOM     81  C   UNL     1      10.725  14.216  10.039  1.00  0.00     0.060 A 
BRANCH  81  82
ATOM     82  S   UNL     1      10.627  14.631  11.794  1.00  0.00     0.124 S 
ATOM     83  O   UNL     1      12.028  14.868  12.119  1.00  0.00    -0.237 OA
ATOM     84  O   UNL     1       9.765  15.810  11.781  1.00  0.00    -0.237 OA
ATOM     85  O   UNL     1      10.034  13.437  12.389  1.00  0.00    -0.744 OA
ENDBRANCH  81  82
ENDBRANCH  49  74
BRANCH  61  86
ATOM     86  C   UNL     1      16.052  13.720   2.647  1.00  0.00     0.058 A 
ATOM     87  C   UNL     1      16.990  12.921   3.320  1.00  0.00     0.135 A 
ATOM     88  C   UNL     1      16.518  14.883   2.013  1.00  0.00     0.135 A 
ATOM     89  F   UNL     1      16.597  11.803   3.950  1.00  0.00    -0.206 F 
ATOM     90  C   UNL     1      18.334  13.275   3.382  1.00  0.00     0.059 A 
ATOM     91  C   UNL     1      17.863  15.240   2.035  1.00  0.00     0.059 A 
ATOM     92  F   UNL     1      15.666  15.678   1.346  1.00  0.00    -0.206 F 
ATOM     93  C   UNL     1      18.762  14.435   2.733  1.00  0.00     0.060 A 
BRANCH  93  94
ATOM     94  S   UNL     1      20.515  14.863   2.791  1.00  0.00     0.124 S 
ATOM     95  O   UNL     1      20.663  15.310   4.172  1.00  0.00    -0.237 OA
ATOM     96  O   UNL     1      21.156  13.594   2.462  1.00  0.00    -0.237 OA
ATOM     97  O   UNL     1      20.645  15.905   1.777  1.00  0.00    -0.744 OA
ENDBRANCH  93  94
ENDBRANCH  61  86
ENDBRANCH  35  36
ENDBRANCH  27  30
ENDBRANCH  25  26
ENDBRANCH  24  25
ENDBRANCH  23  24
ENDBRANCH   1  23
TORSDOF 21
