REMARK SMILES O=C(CCN1C(=O)S/C(=C\c2ccc(F)cc2)C1=O)Nc1ccc(O)cc1C(=O)NCCCCNC(=O)c1ccc(-c2c3nc(c(-c4c(F)cc(S(=O)(=O)[O-])cc4F)c4ccc([nH]4)c(-c4c(F)cc(S(=O)(=O)[O-])cc4F)c4nc(c(-c5c(F)cc(S(=O)(=O)[O-])cc5F)c5ccc2[nH]5)C=C4)C=C3)cc1
REMARK SMILES IDX 31 1 30 2 28 3 29 4 27 6 21 7 22 8 23 9 26 10 24 11 20 12
REMARK SMILES IDX 1 13 2 14 3 16 4 17 5 18 6 19 18 20 7 21 8 22 9 23 19 24
REMARK SMILES IDX 10 25 11 26 12 27 17 28 13 29 16 30 14 31 15 32 25 33 32 35
REMARK SMILES IDX 33 36 34 37 35 38 36 39 37 41 38 42 39 43 103 44 40 45
REMARK SMILES IDX 102 46 41 47 42 48 43 49 96 50 44 51 101 52 95 53 97 54
REMARK SMILES IDX 45 55 100 56 94 57 93 58 46 60 80 61 59 62 79 63 60 64 63 65
REMARK SMILES IDX 78 66 98 67 61 68 62 69 77 71 99 72 64 73 47 74 48 75 57 76
REMARK SMILES IDX 49 77 50 78 56 79 58 80 51 81 52 82 53 83 54 84 55 85 81 86
REMARK SMILES IDX 82 87 91 88 83 89 84 90 90 91 92 92 85 93 86 94 87 95 88 96
REMARK SMILES IDX 89 97 65 98 66 99 75 100 67 101 68 102 74 103 76 104 69 105
REMARK SMILES IDX 70 106 71 107 72 108 73 109
REMARK H PARENT 30 5 20 15 25 34 35 40 97 59 63 70
REMARK Flexibility Score: inf
ROOT
ATOM      1  C   UNL     1       2.815   1.463  -2.215  1.00  0.00     0.116 C 
ENDROOT
BRANCH   1   2
ATOM      2  N   UNL     1       3.503   2.703  -1.877  1.00  0.00    -0.352 N 
ATOM      3  C   UNL     1       3.359   3.570  -0.809  1.00  0.00     0.253 C 
ATOM      4  O   UNL     1       4.172   4.484  -0.671  1.00  0.00    -0.269 OA
ATOM      5  H   UNL     1       4.194   2.971  -2.525  1.00  0.00     0.163 HD
BRANCH   3   6
ATOM      6  C   UNL     1       2.263   3.473   0.196  1.00  0.00     0.067 A 
ATOM      7  C   UNL     1       1.945   2.317   0.933  1.00  0.00     0.054 A 
ATOM      8  C   UNL     1       0.860   2.354   1.828  1.00  0.00     0.031 A 
ATOM      9  C   UNL     1       0.168   3.543   2.074  1.00  0.00     0.048 A 
ATOM     10  C   UNL     1       1.582   4.674   0.479  1.00  0.00     0.062 A 
ATOM     11  C   UNL     1       0.557   4.702   1.420  1.00  0.00     0.116 A 
BRANCH   7  12
ATOM     12  N   UNL     1       2.801   1.191   0.907  1.00  0.00    -0.325 N 
ATOM     13  O   UNL     1       1.284  -0.496   1.321  1.00  0.00    -0.275 OA
ATOM     14  C   UNL     1       2.444  -0.110   1.190  1.00  0.00     0.226 C 
ATOM     15  H   UNL     1       3.741   1.352   0.664  1.00  0.00     0.169 HD
BRANCH  14  16
ATOM     16  C   UNL     1       3.600  -1.080   1.389  1.00  0.00     0.122 C 
BRANCH  16  17
ATOM     17  C   UNL     1       4.677  -1.091   0.308  1.00  0.00     0.140 C 
BRANCH  17  18
ATOM     18  N   UNL     1       5.725  -0.087   0.490  1.00  0.00    -0.268 N 
ATOM     19  C   UNL     1       5.930   0.911  -0.403  1.00  0.00     0.293 C 
ATOM     20  C   UNL     1       6.738  -0.234   1.411  1.00  0.00     0.268 C 
ATOM     21  O   UNL     1       5.404   1.041  -1.496  1.00  0.00    -0.261 OA
ATOM     22  S   UNL     1       7.082   2.054   0.163  1.00  0.00    -0.022 SA
ATOM     23  C   UNL     1       7.676   0.921   1.313  1.00  0.00     0.083 C 
ATOM     24  O   UNL     1       6.863  -1.156   2.201  1.00  0.00    -0.268 OA
ATOM     25  C   UNL     1       8.821   1.062   1.994  1.00  0.00     0.029 C 
BRANCH  25  26
ATOM     26  C   UNL     1       9.584   2.312   1.895  1.00  0.00    -0.024 A 
ATOM     27  C   UNL     1       9.119   3.429   2.610  1.00  0.00     0.011 A 
ATOM     28  C   UNL     1      10.615   2.466   0.960  1.00  0.00     0.011 A 
ATOM     29  C   UNL     1       9.666   4.689   2.380  1.00  0.00     0.040 A 
ATOM     30  C   UNL     1      11.169   3.731   0.741  1.00  0.00     0.040 A 
ATOM     31  C   UNL     1      10.685   4.829   1.446  1.00  0.00     0.123 A 
ATOM     32  F   UNL     1      11.193   6.045   1.210  1.00  0.00    -0.207 F 
ENDBRANCH  25  26
ENDBRANCH  17  18
ENDBRANCH  16  17
ENDBRANCH  14  16
ENDBRANCH   7  12
BRANCH  11  33
ATOM     33  O   UNL     1      -0.040   5.898   1.690  1.00  0.00    -0.508 OA
ATOM     34  H   UNL     1      -0.733   5.944   2.319  1.00  0.00     0.293 HD
ENDBRANCH  11  33
ENDBRANCH   3   6
ENDBRANCH   1   2
BRANCH   1  35
ATOM     35  C   UNL     1       3.010   0.873  -3.628  1.00  0.00     0.023 C 
BRANCH  35  36
ATOM     36  C   UNL     1       4.285   0.330  -4.352  1.00  0.00     0.023 C 
BRANCH  36  37
ATOM     37  C   UNL     1       5.555  -0.386  -3.834  1.00  0.00     0.116 C 
BRANCH  37  38
ATOM     38  N   UNL     1       5.391  -1.549  -2.981  1.00  0.00    -0.352 N 
ATOM     39  C   UNL     1       6.336  -2.488  -2.605  1.00  0.00     0.251 C 
ATOM     40  H   UNL     1       4.485  -1.688  -2.621  1.00  0.00     0.163 HD
ATOM     41  O   UNL     1       6.011  -3.394  -1.840  1.00  0.00    -0.269 OA
BRANCH  39  42
ATOM     42  C   UNL     1       7.720  -2.467  -3.153  1.00  0.00     0.039 A 
ATOM     43  C   UNL     1       8.180  -3.602  -3.836  1.00  0.00     0.014 A 
ATOM     44  C   UNL     1       8.573  -1.371  -2.995  1.00  0.00     0.014 A 
ATOM     45  C   UNL     1       9.433  -3.592  -4.465  1.00  0.00     0.010 A 
ATOM     46  C   UNL     1       9.821  -1.355  -3.640  1.00  0.00     0.010 A 
ATOM     47  C   UNL     1      10.239  -2.442  -4.425  1.00  0.00    -0.014 A 
BRANCH  47  48
ATOM     48  C   UNL     1      11.401  -2.295  -5.350  1.00  0.00     0.031 A 
ATOM     49  C   UNL     1      12.822  -2.286  -4.862  1.00  0.00     0.074 A 
ATOM     50  C   UNL     1      11.141  -2.087  -6.658  1.00  0.00     0.049 A 
ATOM     51  N   UNL     1      13.926  -2.111  -5.546  1.00  0.00    -0.248 NA
ATOM     52  C   UNL     1      13.034  -2.484  -3.422  1.00  0.00     0.031 C 
ATOM     53  C   UNL     1       9.799  -2.031  -7.245  1.00  0.00     0.029 A 
ATOM     54  N   UNL     1      11.974  -1.874  -7.728  1.00  0.00    -0.354 N 
ATOM     55  C   UNL     1      14.966  -2.178  -4.625  1.00  0.00     0.074 A 
ATOM     56  C   UNL     1      14.355  -2.375  -3.325  1.00  0.00     0.031 C 
ATOM     57  C   UNL     1       9.900  -1.818  -8.565  1.00  0.00     0.029 A 
ATOM     58  C   UNL     1      11.309  -1.689  -8.919  1.00  0.00     0.049 A 
ATOM     59  H   UNL     1      12.956  -1.855  -7.651  1.00  0.00     0.167 HD
ATOM     60  C   UNL     1      16.301  -2.096  -4.848  1.00  0.00     0.037 A 
ATOM     61  C   UNL     1      11.773  -1.440 -10.159  1.00  0.00     0.037 A 
ATOM     62  C   UNL     1      16.897  -1.899  -6.147  1.00  0.00     0.049 A 
ATOM     63  C   UNL     1      13.256  -1.347 -10.379  1.00  0.00     0.074 A 
ATOM     64  C   UNL     1      18.241  -1.837  -6.479  1.00  0.00     0.029 A 
ATOM     65  N   UNL     1      16.190  -1.727  -7.330  1.00  0.00    -0.354 N 
ATOM     66  N   UNL     1      14.223  -1.463  -9.501  1.00  0.00    -0.248 NA
ATOM     67  C   UNL     1      13.713  -1.092 -11.752  1.00  0.00     0.031 C 
ATOM     68  C   UNL     1      18.345  -1.593  -7.853  1.00  0.00     0.029 A 
ATOM     69  C   UNL     1      17.067  -1.544  -8.387  1.00  0.00     0.049 A 
ATOM     70  H   UNL     1      15.208  -1.734  -7.405  1.00  0.00     0.167 HD
ATOM     71  C   UNL     1      15.404  -1.313 -10.216  1.00  0.00     0.074 A 
ATOM     72  C   UNL     1      15.032  -1.110 -11.602  1.00  0.00     0.031 C 
ATOM     73  C   UNL     1      16.681  -1.341  -9.763  1.00  0.00     0.037 A 
BRANCH  60  74
ATOM     74  C   UNL     1      17.224  -2.231  -3.664  1.00  0.00     0.058 A 
ATOM     75  C   UNL     1      17.961  -1.132  -3.194  1.00  0.00     0.135 A 
ATOM     76  C   UNL     1      17.426  -3.469  -3.033  1.00  0.00     0.135 A 
ATOM     77  F   UNL     1      17.811   0.076  -3.760  1.00  0.00    -0.206 F 
ATOM     78  C   UNL     1      18.866  -1.256  -2.143  1.00  0.00     0.059 A 
ATOM     79  C   UNL     1      18.310  -3.611  -1.966  1.00  0.00     0.059 A 
ATOM     80  F   UNL     1      16.739  -4.550  -3.434  1.00  0.00    -0.206 F 
ATOM     81  C   UNL     1      19.033  -2.500  -1.534  1.00  0.00     0.060 A 
BRANCH  81  82
ATOM     82  S   UNL     1      20.170  -2.636  -0.136  1.00  0.00     0.124 S 
ATOM     83  O   UNL     1      21.468  -2.522  -0.791  1.00  0.00    -0.237 OA
ATOM     84  O   UNL     1      19.773  -1.503   0.694  1.00  0.00    -0.237 OA
ATOM     85  O   UNL     1      19.860  -3.949   0.424  1.00  0.00    -0.744 OA
ENDBRANCH  81  82
ENDBRANCH  60  74
BRANCH  61  86
ATOM     86  C   UNL     1      10.814  -1.308 -11.288  1.00  0.00     0.058 A 
ATOM     87  C   UNL     1       9.968  -0.194 -11.404  1.00  0.00     0.135 A 
ATOM     88  C   UNL     1      10.682  -2.331 -12.238  1.00  0.00     0.135 A 
ATOM     89  F   UNL     1      10.044   0.806 -10.513  1.00  0.00    -0.206 F 
ATOM     90  C   UNL     1       9.004  -0.114 -12.404  1.00  0.00     0.059 A 
ATOM     91  C   UNL     1       9.741  -2.264 -13.261  1.00  0.00     0.059 A 
ATOM     92  F   UNL     1      11.476  -3.411 -12.173  1.00  0.00    -0.206 F 
ATOM     93  C   UNL     1       8.892  -1.159 -13.323  1.00  0.00     0.060 A 
BRANCH  93  94
ATOM     94  S   UNL     1       7.612  -1.054 -14.593  1.00  0.00     0.124 S 
ATOM     95  O   UNL     1       6.401  -1.244 -13.800  1.00  0.00    -0.237 OA
ATOM     96  O   UNL     1       7.818   0.289 -15.126  1.00  0.00    -0.237 OA
ATOM     97  O   UNL     1       7.947  -2.145 -15.501  1.00  0.00    -0.744 OA
ENDBRANCH  93  94
ENDBRANCH  61  86
BRANCH  73  98
ATOM     98  C   UNL     1      17.779  -1.157 -10.772  1.00  0.00     0.058 A 
ATOM     99  C   UNL     1      18.589  -2.240 -11.149  1.00  0.00     0.135 A 
ATOM    100  C   UNL     1      18.078   0.106 -11.306  1.00  0.00     0.135 A 
ATOM    101  F   UNL     1      18.344  -3.469 -10.666  1.00  0.00    -0.206 F 
ATOM    102  C   UNL     1      19.673  -2.072 -12.003  1.00  0.00     0.059 A 
ATOM    103  C   UNL     1      19.145   0.292 -12.180  1.00  0.00     0.059 A 
ATOM    104  F   UNL     1      17.322   1.169 -10.988  1.00  0.00    -0.206 F 
ATOM    105  C   UNL     1      19.948  -0.800 -12.507  1.00  0.00     0.060 A 
BRANCH 105 106
ATOM    106  S   UNL     1      21.363  -0.598 -13.611  1.00  0.00     0.124 S 
ATOM    107  O   UNL     1      22.483  -0.728 -12.686  1.00  0.00    -0.237 OA
ATOM    108  O   UNL     1      21.183  -1.701 -14.551  1.00  0.00    -0.237 OA
ATOM    109  O   UNL     1      21.164   0.734 -14.175  1.00  0.00    -0.744 OA
ENDBRANCH 105 106
ENDBRANCH  73  98
ENDBRANCH  47  48
ENDBRANCH  39  42
ENDBRANCH  37  38
ENDBRANCH  36  37
ENDBRANCH  35  36
ENDBRANCH   1  35
TORSDOF 20
