REMARK SMILES C[C@@H](CC(=O)NCCCCNC(=O)c1ccc(-c2c3nc(c(-c4c(F)cc(S(=O)(=O)[O-])cc4F)c4ccc([nH]4)c(-c4c(F)cc(S(=O)(=O)[O-])cc4F)c4nc(c(-c5c(F)cc(S(=O)(=O)[O-])cc5F)c5ccc2[nH]5)C=C4)C=C3)cc1)NC(=O)/C=C/c1cccnc1
REMARK SMILES IDX 8 1 7 2 6 3 4 4 5 5 3 7 2 8 1 9 80 10 81 11 82 13 83 14
REMARK SMILES IDX 84 15 85 16 86 17 90 18 87 19 89 20 88 21 9 22 10 23 11 24
REMARK SMILES IDX 12 25 13 27 14 28 15 29 79 30 16 31 78 32 17 33 18 34 19 35
REMARK SMILES IDX 72 36 20 37 77 38 71 39 73 40 21 41 76 42 70 43 69 44 22 46
REMARK SMILES IDX 56 47 35 48 55 49 36 50 39 51 54 52 74 53 37 54 38 55 53 57
REMARK SMILES IDX 75 58 40 59 23 60 24 61 33 62 25 63 26 64 32 65 34 66 27 67
REMARK SMILES IDX 28 68 29 69 30 70 31 71 57 72 58 73 67 74 59 75 60 76 66 77
REMARK SMILES IDX 68 78 61 79 62 80 63 81 64 82 65 83 41 84 42 85 51 86 43 87
REMARK SMILES IDX 44 88 50 89 52 90 45 91 46 92 47 93 48 94 49 95
REMARK H PARENT 6 6 80 12 11 26 73 45 39 56
REMARK Flexibility Score: inf
ROOT
ATOM      1  C   UNL     1       1.038  -2.385   1.093  1.00  0.00     0.023 C 
ENDROOT
BRANCH   1   2
ATOM      2  C   UNL     1       1.694  -2.486  -0.287  1.00  0.00     0.116 C 
BRANCH   2   3
ATOM      3  N   UNL     1       0.681  -2.615  -1.315  1.00  0.00    -0.356 N 
ATOM      4  C   UNL     1       0.218  -1.692  -2.201  1.00  0.00     0.222 C 
ATOM      5  O   UNL     1      -0.814  -1.944  -2.824  1.00  0.00    -0.275 OA
ATOM      6  H   UNL     1       0.265  -3.505  -1.382  1.00  0.00     0.163 HD
BRANCH   4   7
ATOM      7  C   UNL     1       0.973  -0.404  -2.450  1.00  0.00     0.124 C 
BRANCH   7   8
ATOM      8  C   UNL     1       0.534   0.826  -1.641  1.00  0.00     0.088 C 
ATOM      9  C   UNL     1       0.897   0.733  -0.163  1.00  0.00     0.031 C 
BRANCH   8  10
ATOM     10  N   UNL     1      -0.887   1.136  -1.763  1.00  0.00    -0.350 N 
ATOM     11  C   UNL     1      -1.550   2.326  -1.760  1.00  0.00     0.244 C 
ATOM     12  H   UNL     1      -1.468   0.347  -1.864  1.00  0.00     0.164 HD
ATOM     13  O   UNL     1      -2.780   2.337  -1.761  1.00  0.00    -0.270 OA
BRANCH  11  14
ATOM     14  C   UNL     1      -0.832   3.623  -1.870  1.00  0.00     0.072 C 
ATOM     15  C   UNL     1       0.315   3.952  -1.264  1.00  0.00     0.015 C 
BRANCH  15  16
ATOM     16  C   UNL     1       1.025   5.209  -1.440  1.00  0.00    -0.007 A 
ATOM     17  C   UNL     1       0.735   6.322  -0.657  1.00  0.00     0.011 A 
ATOM     18  C   UNL     1       2.111   5.282  -2.309  1.00  0.00     0.119 A 
ATOM     19  C   UNL     1       1.544   7.450  -0.758  1.00  0.00     0.021 A 
ATOM     20  N   UNL     1       2.910   6.366  -2.432  1.00  0.00    -0.264 NA
ATOM     21  C   UNL     1       2.611   7.422  -1.645  1.00  0.00     0.111 A 
ENDBRANCH  15  16
ENDBRANCH  11  14
ENDBRANCH   8  10
ENDBRANCH   7   8
ENDBRANCH   4   7
ENDBRANCH   2   3
ENDBRANCH   1   2
BRANCH   1  22
ATOM     22  C   UNL     1       0.584  -3.709   1.685  1.00  0.00     0.023 C 
BRANCH  22  23
ATOM     23  C   UNL     1       1.706  -4.691   1.951  1.00  0.00     0.116 C 
BRANCH  23  24
ATOM     24  N   UNL     1       2.723  -4.173   2.857  1.00  0.00    -0.352 N 
ATOM     25  C   UNL     1       3.346  -4.835   3.891  1.00  0.00     0.251 C 
ATOM     26  H   UNL     1       2.997  -3.238   2.712  1.00  0.00     0.163 HD
ATOM     27  O   UNL     1       4.106  -4.249   4.646  1.00  0.00    -0.269 OA
BRANCH  25  28
ATOM     28  C   UNL     1       3.028  -6.265   4.082  1.00  0.00     0.039 A 
ATOM     29  C   UNL     1       2.567  -6.697   5.326  1.00  0.00     0.014 A 
ATOM     30  C   UNL     1       3.067  -7.134   2.989  1.00  0.00     0.014 A 
ATOM     31  C   UNL     1       2.069  -7.994   5.452  1.00  0.00     0.010 A 
ATOM     32  C   UNL     1       2.477  -8.384   3.093  1.00  0.00     0.010 A 
ATOM     33  C   UNL     1       1.980  -8.831   4.327  1.00  0.00    -0.014 A 
BRANCH  33  34
ATOM     34  C   UNL     1       1.396 -10.191   4.415  1.00  0.00     0.031 A 
ATOM     35  C   UNL     1       2.253 -11.383   4.086  1.00  0.00     0.074 A 
ATOM     36  C   UNL     1       0.090 -10.348   4.708  1.00  0.00     0.049 A 
ATOM     37  N   UNL     1       1.918 -12.644   4.001  1.00  0.00    -0.248 NA
ATOM     38  C   UNL     1       3.667 -11.117   3.770  1.00  0.00     0.031 C 
ATOM     39  C   UNL     1      -0.857  -9.264   4.981  1.00  0.00     0.029 A 
ATOM     40  N   UNL     1      -0.671 -11.485   4.816  1.00  0.00    -0.354 N 
ATOM     41  C   UNL     1       3.068 -13.312   3.598  1.00  0.00     0.074 A 
ATOM     42  C   UNL     1       4.092 -12.312   3.394  1.00  0.00     0.031 C 
ATOM     43  C   UNL     1      -2.063  -9.790   5.253  1.00  0.00     0.029 A 
ATOM     44  C   UNL     1      -1.985 -11.243   5.142  1.00  0.00     0.049 A 
ATOM     45  H   UNL     1      -0.309 -12.390   4.673  1.00  0.00     0.167 HD
ATOM     46  C   UNL     1       3.264 -14.642   3.443  1.00  0.00     0.037 A 
ATOM     47  C   UNL     1      -3.008 -12.099   5.330  1.00  0.00     0.037 A 
ATOM     48  C   UNL     1       2.256 -15.634   3.700  1.00  0.00     0.049 A 
ATOM     49  C   UNL     1      -2.757 -13.576   5.189  1.00  0.00     0.074 A 
ATOM     50  C   UNL     1       2.368 -17.011   3.643  1.00  0.00     0.029 A 
ATOM     51  N   UNL     1       0.950 -15.352   4.074  1.00  0.00    -0.354 N 
ATOM     52  N   UNL     1      -1.646 -14.196   4.867  1.00  0.00    -0.248 NA
ATOM     53  C   UNL     1      -3.894 -14.471   5.444  1.00  0.00     0.031 C 
ATOM     54  C   UNL     1       1.121 -17.562   3.957  1.00  0.00     0.029 A 
ATOM     55  C   UNL     1       0.242 -16.529   4.243  1.00  0.00     0.049 A 
ATOM     56  H   UNL     1       0.580 -14.448   4.199  1.00  0.00     0.167 HD
ATOM     57  C   UNL     1      -1.944 -15.554   4.904  1.00  0.00     0.074 A 
ATOM     58  C   UNL     1      -3.336 -15.665   5.291  1.00  0.00     0.031 C 
ATOM     59  C   UNL     1      -1.140 -16.613   4.641  1.00  0.00     0.037 A 
BRANCH  46  60
ATOM     60  C   UNL     1       4.626 -15.093   2.997  1.00  0.00     0.058 A 
ATOM     61  C   UNL     1       5.743 -15.004   3.843  1.00  0.00     0.135 A 
ATOM     62  C   UNL     1       4.817 -15.629   1.714  1.00  0.00     0.135 A 
ATOM     63  F   UNL     1       5.619 -14.480   5.073  1.00  0.00    -0.206 F 
ATOM     64  C   UNL     1       7.008 -15.397   3.422  1.00  0.00     0.059 A 
ATOM     65  C   UNL     1       6.070 -16.055   1.280  1.00  0.00     0.059 A 
ATOM     66  F   UNL     1       3.784 -15.733   0.863  1.00  0.00    -0.206 F 
ATOM     67  C   UNL     1       7.162 -15.919   2.137  1.00  0.00     0.060 A 
BRANCH  67  68
ATOM     68  S   UNL     1       8.811 -16.422   1.603  1.00  0.00     0.124 S 
ATOM     69  O   UNL     1       9.440 -15.130   1.348  1.00  0.00    -0.237 OA
ATOM     70  O   UNL     1       9.309 -17.150   2.765  1.00  0.00    -0.237 OA
ATOM     71  O   UNL     1       8.550 -17.238   0.421  1.00  0.00    -0.744 OA
ENDBRANCH  67  68
ENDBRANCH  46  60
BRANCH  47  72
ATOM     72  C   UNL     1      -4.351 -11.586   5.707  1.00  0.00     0.058 A 
ATOM     73  C   UNL     1      -4.849 -11.768   7.006  1.00  0.00     0.135 A 
ATOM     74  C   UNL     1      -5.157 -10.897   4.789  1.00  0.00     0.135 A 
ATOM     75  F   UNL     1      -4.117 -12.424   7.919  1.00  0.00    -0.206 F 
ATOM     76  C   UNL     1      -6.106 -11.302   7.378  1.00  0.00     0.059 A 
ATOM     77  C   UNL     1      -6.409 -10.402   5.142  1.00  0.00     0.059 A 
ATOM     78  F   UNL     1      -4.718 -10.681   3.539  1.00  0.00    -0.206 F 
ATOM     79  C   UNL     1      -6.879 -10.619   6.437  1.00  0.00     0.060 A 
BRANCH  79  80
ATOM     80  S   UNL     1      -8.491  -9.978   6.942  1.00  0.00     0.124 S 
ATOM     81  O   UNL     1      -9.293 -11.194   6.976  1.00  0.00    -0.237 OA
ATOM     82  O   UNL     1      -8.190  -9.375   8.238  1.00  0.00    -0.237 OA
ATOM     83  O   UNL     1      -8.820  -9.031   5.881  1.00  0.00    -0.744 OA
ENDBRANCH  79  80
ENDBRANCH  47  72
BRANCH  59  84
ATOM     84  C   UNL     1      -1.734 -17.984   4.792  1.00  0.00     0.058 A 
ATOM     85  C   UNL     1      -2.625 -18.506   3.843  1.00  0.00     0.135 A 
ATOM     86  C   UNL     1      -1.360 -18.804   5.868  1.00  0.00     0.135 A 
ATOM     87  F   UNL     1      -3.017 -17.758   2.800  1.00  0.00    -0.206 F 
ATOM     88  C   UNL     1      -3.140 -19.792   3.965  1.00  0.00     0.059 A 
ATOM     89  C   UNL     1      -1.844 -20.102   5.997  1.00  0.00     0.059 A 
ATOM     90  F   UNL     1      -0.502 -18.353   6.796  1.00  0.00    -0.206 F 
ATOM     91  C   UNL     1      -2.742 -20.583   5.045  1.00  0.00     0.060 A 
BRANCH  91  92
ATOM     92  S   UNL     1      -3.385 -22.265   5.170  1.00  0.00     0.124 S 
ATOM     93  O   UNL     1      -4.743 -22.025   5.648  1.00  0.00    -0.237 OA
ATOM     94  O   UNL     1      -3.272 -22.748   3.797  1.00  0.00    -0.237 OA
ATOM     95  O   UNL     1      -2.485 -22.901   6.128  1.00  0.00    -0.744 OA
ENDBRANCH  91  92
ENDBRANCH  59  84
ENDBRANCH  33  34
ENDBRANCH  25  28
ENDBRANCH  23  24
ENDBRANCH  22  23
ENDBRANCH   1  22
TORSDOF 18
