REMARK SMILES C=C1C(=O)O[C@H]2[C@@H]1[C@@H](OC(=O)[C@]1(C)O[C@@H]1C)[C@@H](OC(C)=O)/C(C(=O)NCCCCNC(=O)c1ccc(-c3c4nc(c(-c5c(F)cc(S(=O)(=O)[O-])cc5F)c5ccc([nH]5)c(-c5c(F)cc(S(=O)(=O)[O-])cc5F)c5nc(c(-c6c(F)cc(S(=O)(=O)[O-])cc6F)c6ccc3[nH]6)C=C5)C=C4)cc1)=C/[C@@H]1O[C@@H]1[C@]1(C)O[C@H]21
REMARK SMILES IDX 26 1 25 2 23 3 24 4 22 6 99 7 100 8 102 9 101 10 103 11
REMARK SMILES IDX 106 12 105 13 104 14 6 15 1 16 2 17 3 18 7 19 5 20 4 21
REMARK SMILES IDX 17 23 8 24 9 26 10 27 11 28 12 29 14 30 15 31 13 32 16 33
REMARK SMILES IDX 18 34 19 35 20 36 21 37 27 38 28 39 29 40 30 41 31 42 32 44
REMARK SMILES IDX 33 45 34 46 98 47 35 48 97 49 36 50 37 51 38 52 91 53 39 54
REMARK SMILES IDX 96 55 90 56 92 57 40 58 95 59 89 60 88 61 41 63 75 64 54 65
REMARK SMILES IDX 74 66 55 67 58 68 73 69 93 70 56 71 57 72 72 74 94 75 59 76
REMARK SMILES IDX 42 77 43 78 52 79 44 80 45 81 51 82 53 83 46 84 47 85 48 86
REMARK SMILES IDX 49 87 50 88 76 89 77 90 86 91 78 92 79 93 85 94 87 95 80 96
REMARK SMILES IDX 81 97 82 98 83 99 84 100 60 101 61 102 70 103 62 104 63 105
REMARK SMILES IDX 69 106 71 107 64 108 65 109 66 110 67 111 68 112
REMARK H PARENT 25 5 30 43 92 62 58 73
REMARK Flexibility Score: 90.00
ROOT
ATOM      1  C   UNL     1      -6.829  -1.259  -7.836  1.00  0.00     0.116 C 
ENDROOT
BRANCH   1   2
ATOM      2  N   UNL     1      -6.634  -0.678  -6.528  1.00  0.00    -0.352 N 
ATOM      3  C   UNL     1      -5.507  -0.326  -5.865  1.00  0.00     0.250 C 
ATOM      4  O   UNL     1      -5.633   0.128  -4.732  1.00  0.00    -0.270 OA
ATOM      5  H   UNL     1      -7.467  -0.508  -6.031  1.00  0.00     0.163 HD
BRANCH   3   6
ATOM      6  C   UNL     1      -4.156  -0.471  -6.478  1.00  0.00     0.060 C 
ATOM      7  C   UNL     1      -3.788   0.149  -7.616  1.00  0.00     0.020 C 
BRANCH   7   8
ATOM      8  C   UNL     1      -4.415   1.149  -8.468  1.00  0.00     0.174 C 
ATOM      9  C   UNL     1      -4.990   2.483  -8.056  1.00  0.00     0.186 C 
ATOM     10  O   UNL     1      -3.660   2.388  -8.536  1.00  0.00    -0.362 OA
BRANCH   9  11
ATOM     11  C   UNL     1      -5.288   2.715  -6.574  1.00  0.00     0.125 C 
ATOM     12  C   UNL     1      -4.522   2.647  -5.213  1.00  0.00     0.195 C 
ATOM     13  O   UNL     1      -4.571   3.830  -6.024  1.00  0.00    -0.359 OA
ATOM     14  C   UNL     1      -6.795   2.862  -6.380  1.00  0.00     0.048 C 
BRANCH  12  15
ATOM     15  C   UNL     1      -3.100   2.213  -4.900  1.00  0.00     0.220 C 
ATOM     16  C   UNL     1      -4.324   1.478  -1.851  1.00  0.00     0.021 C 
ATOM     17  C   UNL     1      -3.305   1.713  -2.684  1.00  0.00     0.041 C 
ATOM     18  C   UNL     1      -2.663   3.049  -2.756  1.00  0.00     0.334 C 
ATOM     19  C   UNL     1      -2.843   1.034  -3.924  1.00  0.00     0.115 CG0
ATOM     20  O   UNL     1      -2.508   3.306  -4.098  1.00  0.00    -0.455 OA
ATOM     21  O   UNL     1      -2.304   3.746  -1.826  1.00  0.00    -0.247 OA
ATOM     22  G   UNL     1      -2.933  -0.521  -4.130  1.00  0.00     0.000 G0
ENDBRANCH  12  15
ENDBRANCH   9  11
ENDBRANCH   7   8
BRANCH   6  23
ATOM     23  C   UNL     1      -3.004  -0.952  -5.611  1.00  0.00     0.253 C 
BRANCH  23  24
ATOM     24  C   UNL     1      -2.933  -0.521  -4.130  1.00  0.00     0.233 CG0
ATOM     25  G   UNL     1      -2.843   1.034  -3.924  1.00  0.00     0.000 G0
BRANCH  24  26
ATOM     26  O   UNL     1      -3.901  -1.191  -3.294  1.00  0.00    -0.455 OA
BRANCH  26  27
ATOM     27  C   UNL     1      -3.818  -2.524  -2.982  1.00  0.00     0.341 C 
ATOM     28  O   UNL     1      -4.821  -3.225  -3.010  1.00  0.00    -0.249 OA
BRANCH  27  29
ATOM     29  C   UNL     1      -2.507  -3.054  -2.468  1.00  0.00     0.188 C 
ATOM     30  O   UNL     1      -1.666  -3.645  -3.474  1.00  0.00    -0.354 OA
ATOM     31  C   UNL     1      -2.182  -4.568  -2.518  1.00  0.00     0.160 C 
ATOM     32  C   UNL     1      -1.712  -2.256  -1.469  1.00  0.00     0.058 C 
ATOM     33  C   UNL     1      -3.000  -5.657  -3.122  1.00  0.00     0.042 C 
ENDBRANCH  27  29
ENDBRANCH  26  27
ENDBRANCH  24  26
ENDBRANCH  23  24
BRANCH  23  34
ATOM     34  O   UNL     1      -2.504  -2.309  -5.799  1.00  0.00    -0.453 OA
BRANCH  34  35
ATOM     35  C   UNL     1      -3.043  -3.464  -6.215  1.00  0.00     0.303 C 
ATOM     36  C   UNL     1      -4.485  -3.486  -6.535  1.00  0.00     0.139 C 
ATOM     37  O   UNL     1      -2.343  -4.458  -6.381  1.00  0.00    -0.253 OA
ENDBRANCH  34  35
ENDBRANCH  23  34
ENDBRANCH   6  23
ENDBRANCH   3   6
ENDBRANCH   1   2
BRANCH   1  38
ATOM     38  C   UNL     1      -7.450  -2.652  -7.756  1.00  0.00     0.023 C 
BRANCH  38  39
ATOM     39  C   UNL     1      -8.898  -2.699  -7.288  1.00  0.00     0.023 C 
BRANCH  39  40
ATOM     40  C   UNL     1      -9.843  -1.813  -8.079  1.00  0.00     0.116 C 
BRANCH  40  41
ATOM     41  N   UNL     1      -9.736  -2.025  -9.520  1.00  0.00    -0.352 N 
ATOM     42  C   UNL     1     -10.707  -2.405 -10.414  1.00  0.00     0.251 C 
ATOM     43  H   UNL     1      -8.843  -1.874  -9.904  1.00  0.00     0.163 HD
ATOM     44  O   UNL     1     -10.409  -2.703 -11.565  1.00  0.00    -0.269 OA
BRANCH  42  45
ATOM     45  C   UNL     1     -12.102  -2.480  -9.946  1.00  0.00     0.039 A 
ATOM     46  C   UNL     1     -12.828  -3.653 -10.153  1.00  0.00     0.014 A 
ATOM     47  C   UNL     1     -12.637  -1.427  -9.200  1.00  0.00     0.014 A 
ATOM     48  C   UNL     1     -14.057  -3.811  -9.514  1.00  0.00     0.010 A 
ATOM     49  C   UNL     1     -13.807  -1.629  -8.485  1.00  0.00     0.010 A 
ATOM     50  C   UNL     1     -14.522  -2.828  -8.624  1.00  0.00    -0.014 A 
BRANCH  50  51
ATOM     51  C   UNL     1     -15.731  -3.045  -7.792  1.00  0.00     0.031 A 
ATOM     52  C   UNL     1     -16.904  -2.115  -7.923  1.00  0.00     0.074 A 
ATOM     53  C   UNL     1     -15.729  -4.021  -6.861  1.00  0.00     0.049 A 
ATOM     54  N   UNL     1     -18.004  -2.073  -7.218  1.00  0.00    -0.248 NA
ATOM     55  C   UNL     1     -16.818  -1.075  -8.963  1.00  0.00     0.031 C 
ATOM     56  C   UNL     1     -14.621  -4.947  -6.605  1.00  0.00     0.029 A 
ATOM     57  N   UNL     1     -16.682  -4.390  -5.946  1.00  0.00    -0.354 N 
ATOM     58  C   UNL     1     -18.734  -1.004  -7.721  1.00  0.00     0.074 A 
ATOM     59  C   UNL     1     -17.928  -0.384  -8.748  1.00  0.00     0.031 C 
ATOM     60  C   UNL     1     -14.969  -5.790  -5.620  1.00  0.00     0.029 A 
ATOM     61  C   UNL     1     -16.300  -5.437  -5.139  1.00  0.00     0.049 A 
ATOM     62  H   UNL     1     -17.558  -3.947  -5.873  1.00  0.00     0.167 HD
ATOM     63  C   UNL     1     -19.978  -0.597  -7.378  1.00  0.00     0.037 A 
ATOM     64  C   UNL     1     -16.942  -6.032  -4.115  1.00  0.00     0.037 A 
ATOM     65  C   UNL     1     -20.780  -1.237  -6.369  1.00  0.00     0.049 A 
ATOM     66  C   UNL     1     -18.312  -5.538  -3.733  1.00  0.00     0.074 A 
ATOM     67  C   UNL     1     -22.076  -0.940  -5.987  1.00  0.00     0.029 A 
ATOM     68  N   UNL     1     -20.362  -2.298  -5.579  1.00  0.00    -0.354 N 
ATOM     69  N   UNL     1     -19.021  -4.576  -4.274  1.00  0.00    -0.248 NA
ATOM     70  C   UNL     1     -18.969  -6.206  -2.601  1.00  0.00     0.031 C 
ATOM     71  C   UNL     1     -22.423  -1.786  -4.929  1.00  0.00     0.029 A 
ATOM     72  C   UNL     1     -21.363  -2.646  -4.688  1.00  0.00     0.049 A 
ATOM     73  H   UNL     1     -19.484  -2.739  -5.642  1.00  0.00     0.167 HD
ATOM     74  C   UNL     1     -20.213  -4.534  -3.560  1.00  0.00     0.074 A 
ATOM     75  C   UNL     1     -20.140  -5.585  -2.566  1.00  0.00     0.031 C 
ATOM     76  C   UNL     1     -21.270  -3.698  -3.706  1.00  0.00     0.037 A 
BRANCH  63  77
ATOM     77  C   UNL     1     -20.556   0.584  -8.106  1.00  0.00     0.058 A 
ATOM     78  C   UNL     1     -20.937   0.501  -9.455  1.00  0.00     0.135 A 
ATOM     79  C   UNL     1     -20.788   1.795  -7.434  1.00  0.00     0.135 A 
ATOM     80  F   UNL     1     -20.719  -0.626 -10.151  1.00  0.00    -0.206 F 
ATOM     81  C   UNL     1     -21.512   1.580 -10.116  1.00  0.00     0.059 A 
ATOM     82  C   UNL     1     -21.390   2.878  -8.068  1.00  0.00     0.059 A 
ATOM     83  F   UNL     1     -20.438   1.932  -6.146  1.00  0.00    -0.206 F 
ATOM     84  C   UNL     1     -21.741   2.763  -9.412  1.00  0.00     0.060 A 
BRANCH  84  85
ATOM     85  S   UNL     1     -22.520   4.140 -10.280  1.00  0.00     0.124 S 
ATOM     86  O   UNL     1     -21.453   4.553 -11.187  1.00  0.00    -0.237 OA
ATOM     87  O   UNL     1     -23.671   3.499 -10.908  1.00  0.00    -0.237 OA
ATOM     88  O   UNL     1     -22.834   5.083  -9.212  1.00  0.00    -0.744 OA
ENDBRANCH  84  85
ENDBRANCH  63  77
BRANCH  64  89
ATOM     89  C   UNL     1     -16.303  -7.155  -3.374  1.00  0.00     0.058 A 
ATOM     90  C   UNL     1     -16.824  -8.455  -3.443  1.00  0.00     0.135 A 
ATOM     91  C   UNL     1     -15.169  -6.950  -2.572  1.00  0.00     0.135 A 
ATOM     92  F   UNL     1     -17.910  -8.703  -4.191  1.00  0.00    -0.206 F 
ATOM     93  C   UNL     1     -16.264  -9.506  -2.724  1.00  0.00     0.059 A 
ATOM     94  C   UNL     1     -14.571  -7.991  -1.868  1.00  0.00     0.059 A 
ATOM     95  F   UNL     1     -14.618  -5.729  -2.483  1.00  0.00    -0.206 F 
ATOM     96  C   UNL     1     -15.136  -9.263  -1.938  1.00  0.00     0.060 A 
BRANCH  96  97
ATOM     97  S   UNL     1     -14.403 -10.639  -1.027  1.00  0.00     0.124 S 
ATOM     98  O   UNL     1     -15.392 -10.855   0.023  1.00  0.00    -0.237 OA
ATOM     99  O   UNL     1     -14.322 -11.675  -2.052  1.00  0.00    -0.237 OA
ATOM    100  O   UNL     1     -13.119 -10.102  -0.585  1.00  0.00    -0.744 OA
ENDBRANCH  96  97
ENDBRANCH  64  89
BRANCH  76 101
ATOM    101  C   UNL     1     -22.437  -3.889  -2.778  1.00  0.00     0.058 A 
ATOM    102  C   UNL     1     -22.360  -3.533  -1.423  1.00  0.00     0.135 A 
ATOM    103  C   UNL     1     -23.664  -4.371  -3.262  1.00  0.00     0.135 A 
ATOM    104  F   UNL     1     -21.208  -3.076  -0.908  1.00  0.00    -0.206 F 
ATOM    105  C   UNL     1     -23.454  -3.664  -0.575  1.00  0.00     0.059 A 
ATOM    106  C   UNL     1     -24.780  -4.481  -2.440  1.00  0.00     0.059 A 
ATOM    107  F   UNL     1     -23.793  -4.717  -4.553  1.00  0.00    -0.206 F 
ATOM    108  C   UNL     1     -24.663  -4.133  -1.095  1.00  0.00     0.060 A 
BRANCH 108 109
ATOM    109  S   UNL     1     -26.087  -4.249   0.008  1.00  0.00     0.124 S 
ATOM    110  O   UNL     1     -25.716  -5.381   0.850  1.00  0.00    -0.237 OA
ATOM    111  O   UNL     1     -26.080  -2.943   0.661  1.00  0.00    -0.237 OA
ATOM    112  O   UNL     1     -27.204  -4.482  -0.902  1.00  0.00    -0.744 OA
ENDBRANCH 108 109
ENDBRANCH  76 101
ENDBRANCH  50  51
ENDBRANCH  42  45
ENDBRANCH  40  41
ENDBRANCH  39  40
ENDBRANCH  38  39
ENDBRANCH   1  38
TORSDOF 19
