REMARK SMILES O=C(NCc1ccc(C(=O)NCCCCNC(=O)c2ccc(-c3c4nc(c(-c5c(F)cc(S(=O)(=O)[O-])cc5F)c5ccc([nH]5)c(-c5c(F)cc(S(=O)(=O)[O-])cc5F)c5nc(c(-c6c(F)cc(S(=O)(=O)[O-])cc6F)c6ccc3[nH]6)C=C5)C=C4)cc2)cc1)Nc1ccccc1Br
REMARK SMILES IDX 13 1 12 2 11 3 9 4 10 5 8 7 5 8 6 9 86 10 7 11 85 12 4 13
REMARK SMILES IDX 3 14 1 15 2 16 87 17 88 20 89 21 93 22 90 23 92 24 94 25
REMARK SMILES IDX 91 26 14 27 15 28 16 29 17 30 18 32 19 33 20 34 84 35 21 36
REMARK SMILES IDX 83 37 22 38 23 39 24 40 77 41 25 42 82 43 76 44 78 45 26 46
REMARK SMILES IDX 81 47 75 48 74 49 27 51 61 52 40 53 60 54 41 55 44 56 59 57
REMARK SMILES IDX 79 58 42 59 43 60 58 62 80 63 45 64 28 65 29 66 38 67 30 68
REMARK SMILES IDX 31 69 37 70 39 71 32 72 33 73 34 74 35 75 36 76 62 77 63 78
REMARK SMILES IDX 72 79 64 80 65 81 71 82 73 83 66 84 67 85 68 86 69 87 70 88
REMARK SMILES IDX 46 89 47 90 56 91 48 92 49 93 55 94 57 95 50 96 51 97 52 98
REMARK SMILES IDX 53 99 54 100
REMARK H PARENT 11 6 3 18 87 19 16 31 78 50 44 61
REMARK Flexibility Score: inf
ROOT
ATOM      1  C   UNL     1       5.256   7.461  -3.108  1.00  0.00     0.023 C 
ENDROOT
BRANCH   1   2
ATOM      2  C   UNL     1       4.663   6.338  -3.963  1.00  0.00     0.116 C 
BRANCH   2   3
ATOM      3  N   UNL     1       5.709   5.564  -4.604  1.00  0.00    -0.352 N 
ATOM      4  C   UNL     1       6.239   4.336  -4.301  1.00  0.00     0.251 C 
ATOM      5  O   UNL     1       7.073   3.850  -5.063  1.00  0.00    -0.269 OA
ATOM      6  H   UNL     1       6.107   5.995  -5.395  1.00  0.00     0.163 HD
BRANCH   4   7
ATOM      7  C   UNL     1       5.811   3.549  -3.114  1.00  0.00     0.039 A 
ATOM      8  C   UNL     1       5.041   1.919  -0.946  1.00  0.00    -0.029 A 
ATOM      9  C   UNL     1       5.373   1.348  -2.181  1.00  0.00     0.006 A 
ATOM     10  C   UNL     1       5.114   3.309  -0.801  1.00  0.00     0.006 A 
ATOM     11  C   UNL     1       5.761   2.156  -3.252  1.00  0.00     0.014 A 
ATOM     12  C   UNL     1       5.519   4.113  -1.870  1.00  0.00     0.014 A 
BRANCH   8  13
ATOM     13  C   UNL     1       4.585   1.056   0.198  1.00  0.00     0.153 C 
BRANCH  13  14
ATOM     14  N   UNL     1       3.140   1.030   0.279  1.00  0.00    -0.334 N 
ATOM     15  O   UNL     1       1.069   0.228   0.281  1.00  0.00    -0.248 OA
ATOM     16  C   UNL     1       2.271  -0.013   0.226  1.00  0.00     0.319 C 
ATOM     17  N   UNL     1       2.830  -1.258   0.185  1.00  0.00    -0.307 N 
ATOM     18  H   UNL     1       2.719   1.913   0.390  1.00  0.00     0.165 HD
ATOM     19  H   UNL     1       3.796  -1.318   0.364  1.00  0.00     0.171 HD
BRANCH  17  20
ATOM     20  C   UNL     1       2.155  -2.469  -0.089  1.00  0.00     0.057 A 
ATOM     21  C   UNL     1       2.618  -3.588   0.624  1.00  0.00     0.027 A 
ATOM     22  C   UNL     1       1.113  -2.649  -1.016  1.00  0.00     0.041 A 
ATOM     23  C   UNL     1       2.011  -4.837   0.483  1.00  0.00     0.002 A 
ATOM     24  C   UNL     1       0.501  -3.906  -1.144  1.00  0.00     0.018 A 
ATOM     25  Br  UNL     1       0.597  -1.355  -2.313  1.00  0.00    -0.049 Br
ATOM     26  C   UNL     1       0.940  -4.992  -0.388  1.00  0.00     0.001 A 
ENDBRANCH  17  20
ENDBRANCH  13  14
ENDBRANCH   8  13
ENDBRANCH   4   7
ENDBRANCH   2   3
ENDBRANCH   1   2
BRANCH   1  27
ATOM     27  C   UNL     1       5.783   8.655  -3.906  1.00  0.00     0.023 C 
BRANCH  27  28
ATOM     28  C   UNL     1       4.715   9.453  -4.641  1.00  0.00     0.116 C 
BRANCH  28  29
ATOM     29  N   UNL     1       3.721  10.038  -3.752  1.00  0.00    -0.352 N 
ATOM     30  C   UNL     1       3.013  11.206  -3.930  1.00  0.00     0.251 C 
ATOM     31  H   UNL     1       3.533   9.538  -2.925  1.00  0.00     0.163 HD
ATOM     32  O   UNL     1       2.277  11.632  -3.052  1.00  0.00    -0.269 OA
BRANCH  30  33
ATOM     33  C   UNL     1       3.201  11.954  -5.189  1.00  0.00     0.039 A 
ATOM     34  C   UNL     1       3.613  13.288  -5.128  1.00  0.00     0.014 A 
ATOM     35  C   UNL     1       3.052  11.309  -6.419  1.00  0.00     0.014 A 
ATOM     36  C   UNL     1       3.954  13.955  -6.306  1.00  0.00     0.010 A 
ATOM     37  C   UNL     1       3.447  11.957  -7.583  1.00  0.00     0.010 A 
ATOM     38  C   UNL     1       3.914  13.280  -7.536  1.00  0.00    -0.014 A 
BRANCH  38  39
ATOM     39  C   UNL     1       4.364  13.920  -8.796  1.00  0.00     0.031 A 
ATOM     40  C   UNL     1       3.375  14.158  -9.900  1.00  0.00     0.074 A 
ATOM     41  C   UNL     1       5.673  14.180  -8.985  1.00  0.00     0.049 A 
ATOM     42  N   UNL     1       3.588  14.531 -11.134  1.00  0.00    -0.248 NA
ATOM     43  C   UNL     1       1.959  13.911  -9.580  1.00  0.00     0.031 C 
ATOM     44  C   UNL     1       6.733  13.959  -7.998  1.00  0.00     0.029 A 
ATOM     45  N   UNL     1       6.339  14.664 -10.083  1.00  0.00    -0.354 N 
ATOM     46  C   UNL     1       2.342  14.534 -11.748  1.00  0.00     0.074 A 
ATOM     47  C   UNL     1       1.381  14.095 -10.758  1.00  0.00     0.031 C 
ATOM     48  C   UNL     1       7.914  14.308  -8.536  1.00  0.00     0.029 A 
ATOM     49  C   UNL     1       7.701  14.738  -9.914  1.00  0.00     0.049 A 
ATOM     50  H   UNL     1       5.883  14.931 -10.914  1.00  0.00     0.167 HD
ATOM     51  C   UNL     1       2.027  14.882 -13.017  1.00  0.00     0.037 A 
ATOM     52  C   UNL     1       8.671  15.092 -10.780  1.00  0.00     0.037 A 
ATOM     53  C   UNL     1       2.982  15.354 -13.983  1.00  0.00     0.049 A 
ATOM     54  C   UNL     1       8.296  15.491 -12.181  1.00  0.00     0.074 A 
ATOM     55  C   UNL     1       2.756  15.785 -15.278  1.00  0.00     0.029 A 
ATOM     56  N   UNL     1       4.347  15.462 -13.757  1.00  0.00    -0.354 N 
ATOM     57  N   UNL     1       7.107  15.525 -12.735  1.00  0.00    -0.248 NA
ATOM     58  C   UNL     1       9.388  15.897 -13.076  1.00  0.00     0.031 C 
ATOM     59  C   UNL     1       3.988  16.131 -15.844  1.00  0.00     0.029 A 
ATOM     60  C   UNL     1       4.976  15.946 -14.890  1.00  0.00     0.049 A 
ATOM     61  H   UNL     1       4.800  15.229 -12.915  1.00  0.00     0.167 HD
ATOM     62  C   UNL     1       7.306  15.980 -14.033  1.00  0.00     0.074 A 
ATOM     63  C   UNL     1       8.728  16.211 -14.183  1.00  0.00     0.031 C 
ATOM     64  C   UNL     1       6.392  16.190 -15.011  1.00  0.00     0.037 A 
BRANCH  51  65
ATOM     65  C   UNL     1       0.588  14.767 -13.429  1.00  0.00     0.058 A 
ATOM     66  C   UNL     1      -0.384  15.665 -12.961  1.00  0.00     0.135 A 
ATOM     67  C   UNL     1       0.177  13.759 -14.316  1.00  0.00     0.135 A 
ATOM     68  F   UNL     1      -0.047  16.636 -12.098  1.00  0.00    -0.206 F 
ATOM     69  C   UNL     1      -1.719  15.549 -13.332  1.00  0.00     0.059 A 
ATOM     70  C   UNL     1      -1.149  13.639 -14.720  1.00  0.00     0.059 A 
ATOM     71  F   UNL     1       1.067  12.874 -14.792  1.00  0.00    -0.206 F 
ATOM     72  C   UNL     1      -2.093  14.529 -14.209  1.00  0.00     0.060 A 
BRANCH  72  73
ATOM     73  S   UNL     1      -3.830  14.385 -14.678  1.00  0.00     0.124 S 
ATOM     74  O   UNL     1      -4.402  13.771 -13.483  1.00  0.00    -0.237 OA
ATOM     75  O   UNL     1      -4.208  15.774 -14.918  1.00  0.00    -0.237 OA
ATOM     76  O   UNL     1      -3.791  13.536 -15.864  1.00  0.00    -0.744 OA
ENDBRANCH  72  73
ENDBRANCH  51  65
BRANCH  52  77
ATOM     77  C   UNL     1      10.091  15.099 -10.341  1.00  0.00     0.058 A 
ATOM     78  C   UNL     1      10.764  16.308 -10.113  1.00  0.00     0.135 A 
ATOM     79  C   UNL     1      10.795  13.905 -10.122  1.00  0.00     0.135 A 
ATOM     80  F   UNL     1      10.134  17.474 -10.316  1.00  0.00    -0.206 F 
ATOM     81  C   UNL     1      12.090  16.335  -9.695  1.00  0.00     0.059 A 
ATOM     82  C   UNL     1      12.116  13.906  -9.684  1.00  0.00     0.059 A 
ATOM     83  F   UNL     1      10.188  12.723 -10.310  1.00  0.00    -0.206 F 
ATOM     84  C   UNL     1      12.758  15.128  -9.481  1.00  0.00     0.060 A 
BRANCH  84  85
ATOM     85  S   UNL     1      14.462  15.172  -8.885  1.00  0.00     0.124 S 
ATOM     86  O   UNL     1      15.188  15.527 -10.099  1.00  0.00    -0.237 OA
ATOM     87  O   UNL     1      14.402  16.202  -7.852  1.00  0.00    -0.237 OA
ATOM     88  O   UNL     1      14.678  13.815  -8.392  1.00  0.00    -0.744 OA
ENDBRANCH  84  85
ENDBRANCH  52  77
BRANCH  64  89
ATOM     89  C   UNL     1       6.885  16.734 -16.320  1.00  0.00     0.058 A 
ATOM     90  C   UNL     1       7.522  15.913 -17.262  1.00  0.00     0.135 A 
ATOM     91  C   UNL     1       6.634  18.070 -16.670  1.00  0.00     0.135 A 
ATOM     92  F   UNL     1       7.791  14.631 -16.970  1.00  0.00    -0.206 F 
ATOM     93  C   UNL     1       7.894  16.400 -18.511  1.00  0.00     0.059 A 
ATOM     94  C   UNL     1       6.980  18.572 -17.920  1.00  0.00     0.059 A 
ATOM     95  F   UNL     1       6.021  18.892 -15.803  1.00  0.00    -0.206 F 
ATOM     96  C   UNL     1       7.612  17.729 -18.834  1.00  0.00     0.060 A 
BRANCH  96  97
ATOM     97  S   UNL     1       8.032  18.331 -20.484  1.00  0.00     0.124 S 
ATOM     98  O   UNL     1       9.475  18.517 -20.370  1.00  0.00    -0.237 OA
ATOM     99  O   UNL     1       7.600  17.229 -21.339  1.00  0.00    -0.237 OA
ATOM    100  O   UNL     1       7.248  19.556 -20.608  1.00  0.00    -0.744 OA
ENDBRANCH  96  97
ENDBRANCH  64  89
ENDBRANCH  38  39
ENDBRANCH  30  33
ENDBRANCH  28  29
ENDBRANCH  27  28
ENDBRANCH   1  27
TORSDOF 17
