REMARK SMILES O=C(NCCCCNC(=O)[C@H]1[C@H]2CC[C@H](CC2)[C@@H]1C(=O)Nc1ccc(Cc2ccncc2)cc1)c1ccc(-c2c3nc(c(-c4c(F)cc(S(=O)(=O)[O-])cc4F)c4ccc([nH]4)c(-c4c(F)cc(S(=O)(=O)[O-])cc4F)c4nc(c(-c5c(F)cc(S(=O)(=O)[O-])cc5F)c5ccc2[nH]5)C=C4)C=C3)cc1
REMARK SMILES IDX 6 1 5 2 4 3 3 4 1 5 2 6 35 8 36 9 100 10 37 11 99 12 38 13
REMARK SMILES IDX 39 14 40 15 93 16 41 17 98 18 92 19 94 20 42 21 97 22 91 23
REMARK SMILES IDX 90 24 43 26 77 27 56 28 76 29 57 30 60 31 75 32 95 33 58 34
REMARK SMILES IDX 59 35 74 37 96 38 61 39 44 40 45 41 54 42 46 43 47 44 53 45
REMARK SMILES IDX 55 46 48 47 49 48 50 49 51 50 52 51 78 52 79 53 88 54 80 55
REMARK SMILES IDX 81 56 87 57 89 58 82 59 83 60 84 61 85 62 86 63 62 64 63 65
REMARK SMILES IDX 72 66 64 67 65 68 71 69 73 70 66 71 67 72 68 73 69 74 70 75
REMARK SMILES IDX 7 76 8 77 9 78 10 80 11 81 12 82 18 83 13 84 17 85 15 86
REMARK SMILES IDX 14 87 16 88 19 89 20 90 21 91 22 93 23 94 34 95 24 96 33 97
REMARK SMILES IDX 25 98 26 99 27 100 28 101 32 102 29 103 31 104 30 105
REMARK H PARENT 3 7 94 25 60 36 8 79 21 92
REMARK Flexibility Score: inf
ROOT
ATOM      1  C   UNL     1       3.557  -3.238   2.053  1.00  0.00     0.023 C 
ENDROOT
BRANCH   1   2
ATOM      2  C   UNL     1       3.962  -1.866   1.484  1.00  0.00     0.023 C 
BRANCH   2   3
ATOM      3  C   UNL     1       3.626  -1.569   0.018  1.00  0.00     0.116 C 
BRANCH   3   4
ATOM      4  N   UNL     1       2.220  -1.282  -0.217  1.00  0.00    -0.352 N 
ATOM      5  O   UNL     1       0.361  -0.180  -0.809  1.00  0.00    -0.269 OA
ATOM      6  C   UNL     1       1.592  -0.214  -0.827  1.00  0.00     0.251 C 
ATOM      7  H   UNL     1       1.605  -1.973   0.120  1.00  0.00     0.163 HD
BRANCH   6   8
ATOM      8  C   UNL     1       2.335   0.902  -1.479  1.00  0.00     0.039 A 
ATOM      9  C   UNL     1       3.465   0.701  -2.275  1.00  0.00     0.014 A 
ATOM     10  C   UNL     1       1.854   2.212  -1.315  1.00  0.00     0.014 A 
ATOM     11  C   UNL     1       4.180   1.805  -2.775  1.00  0.00     0.010 A 
ATOM     12  C   UNL     1       2.541   3.312  -1.860  1.00  0.00     0.010 A 
ATOM     13  C   UNL     1       3.740   3.132  -2.562  1.00  0.00    -0.014 A 
BRANCH  13  14
ATOM     14  C   UNL     1       4.488   4.301  -3.129  1.00  0.00     0.031 A 
ATOM     15  C   UNL     1       5.073   5.411  -2.275  1.00  0.00     0.074 A 
ATOM     16  C   UNL     1       4.618   4.380  -4.468  1.00  0.00     0.049 A 
ATOM     17  N   UNL     1       5.714   6.497  -2.647  1.00  0.00    -0.248 NA
ATOM     18  C   UNL     1       4.947   5.284  -0.820  1.00  0.00     0.031 C 
ATOM     19  C   UNL     1       4.114   3.388  -5.419  1.00  0.00     0.029 A 
ATOM     20  N   UNL     1       5.184   5.346  -5.262  1.00  0.00    -0.354 N 
ATOM     21  C   UNL     1       6.072   7.167  -1.476  1.00  0.00     0.074 A 
ATOM     22  C   UNL     1       5.580   6.363  -0.379  1.00  0.00     0.031 C 
ATOM     23  C   UNL     1       4.385   3.796  -6.663  1.00  0.00     0.029 A 
ATOM     24  C   UNL     1       4.997   5.118  -6.604  1.00  0.00     0.049 A 
ATOM     25  H   UNL     1       5.674   6.123  -4.907  1.00  0.00     0.167 HD
ATOM     26  C   UNL     1       6.721   8.351  -1.325  1.00  0.00     0.037 A 
ATOM     27  C   UNL     1       5.219   5.901  -7.676  1.00  0.00     0.037 A 
ATOM     28  C   UNL     1       7.141   9.189  -2.424  1.00  0.00     0.049 A 
ATOM     29  C   UNL     1       5.830   7.254  -7.495  1.00  0.00     0.074 A 
ATOM     30  C   UNL     1       7.817  10.398  -2.377  1.00  0.00     0.029 A 
ATOM     31  N   UNL     1       6.887   8.932  -3.764  1.00  0.00    -0.354 N 
ATOM     32  N   UNL     1       6.191   7.848  -6.384  1.00  0.00    -0.248 NA
ATOM     33  C   UNL     1       6.069   8.042  -8.710  1.00  0.00     0.031 C 
ATOM     34  C   UNL     1       7.902  10.906  -3.678  1.00  0.00     0.029 A 
ATOM     35  C   UNL     1       7.354   9.977  -4.546  1.00  0.00     0.049 A 
ATOM     36  H   UNL     1       6.440   8.125  -4.108  1.00  0.00     0.167 HD
ATOM     37  C   UNL     1       6.728   9.071  -6.767  1.00  0.00     0.074 A 
ATOM     38  C   UNL     1       6.640   9.132  -8.212  1.00  0.00     0.031 C 
ATOM     39  C   UNL     1       7.261  10.043  -5.985  1.00  0.00     0.037 A 
BRANCH  26  40
ATOM     40  C   UNL     1       6.971   8.861   0.077  1.00  0.00     0.058 A 
ATOM     41  C   UNL     1       7.910   8.264   0.935  1.00  0.00     0.135 A 
ATOM     42  C   UNL     1       6.308  10.009   0.547  1.00  0.00     0.135 A 
ATOM     43  F   UNL     1       8.581   7.168   0.547  1.00  0.00    -0.206 F 
ATOM     44  C   UNL     1       8.157   8.765   2.213  1.00  0.00     0.059 A 
ATOM     45  C   UNL     1       6.559  10.543   1.810  1.00  0.00     0.059 A 
ATOM     46  F   UNL     1       5.410  10.635  -0.230  1.00  0.00    -0.206 F 
ATOM     47  C   UNL     1       7.472   9.903   2.645  1.00  0.00     0.060 A 
BRANCH  47  48
ATOM     48  S   UNL     1       7.784  10.524   4.313  1.00  0.00     0.124 S 
ATOM     49  O   UNL     1       7.150   9.493   5.131  1.00  0.00    -0.237 OA
ATOM     50  O   UNL     1       9.241  10.565   4.366  1.00  0.00    -0.237 OA
ATOM     51  O   UNL     1       7.121  11.825   4.324  1.00  0.00    -0.744 OA
ENDBRANCH  47  48
ENDBRANCH  26  40
BRANCH  27  52
ATOM     52  C   UNL     1       4.801   5.395  -9.008  1.00  0.00     0.058 A 
ATOM     53  C   UNL     1       5.742   4.932  -9.934  1.00  0.00     0.135 A 
ATOM     54  C   UNL     1       3.438   5.237  -9.314  1.00  0.00     0.135 A 
ATOM     55  F   UNL     1       7.053   5.067  -9.684  1.00  0.00    -0.206 F 
ATOM     56  C   UNL     1       5.348   4.303 -11.109  1.00  0.00     0.059 A 
ATOM     57  C   UNL     1       3.021   4.584 -10.467  1.00  0.00     0.059 A 
ATOM     58  F   UNL     1       2.501   5.646  -8.443  1.00  0.00    -0.206 F 
ATOM     59  C   UNL     1       3.986   4.116 -11.357  1.00  0.00     0.060 A 
BRANCH  59  60
ATOM     60  S   UNL     1       3.493   3.177 -12.818  1.00  0.00     0.124 S 
ATOM     61  O   UNL     1       3.795   4.123 -13.888  1.00  0.00    -0.237 OA
ATOM     62  O   UNL     1       4.364   2.008 -12.736  1.00  0.00    -0.237 OA
ATOM     63  O   UNL     1       2.079   2.912 -12.588  1.00  0.00    -0.744 OA
ENDBRANCH  59  60
ENDBRANCH  27  52
BRANCH  39  64
ATOM     64  C   UNL     1       7.843  11.247  -6.672  1.00  0.00     0.058 A 
ATOM     65  C   UNL     1       7.038  12.229  -7.269  1.00  0.00     0.135 A 
ATOM     66  C   UNL     1       9.234  11.447  -6.679  1.00  0.00     0.135 A 
ATOM     67  F   UNL     1       5.704  12.081  -7.303  1.00  0.00    -0.206 F 
ATOM     68  C   UNL     1       7.591  13.361  -7.859  1.00  0.00     0.059 A 
ATOM     69  C   UNL     1       9.806  12.585  -7.238  1.00  0.00     0.059 A 
ATOM     70  F   UNL     1      10.050  10.540  -6.119  1.00  0.00    -0.206 F 
ATOM     71  C   UNL     1       8.977  13.534  -7.832  1.00  0.00     0.060 A 
BRANCH  71  72
ATOM     72  S   UNL     1       9.678  15.033  -8.555  1.00  0.00     0.124 S 
ATOM     73  O   UNL     1       9.491  14.788  -9.981  1.00  0.00    -0.237 OA
ATOM     74  O   UNL     1       8.841  16.078  -7.975  1.00  0.00    -0.237 OA
ATOM     75  O   UNL     1      11.063  15.018  -8.092  1.00  0.00    -0.744 OA
ENDBRANCH  71  72
ENDBRANCH  39  64
ENDBRANCH  13  14
ENDBRANCH   6   8
ENDBRANCH   3   4
ENDBRANCH   2   3
ENDBRANCH   1   2
BRANCH   1  76
ATOM     76  C   UNL     1       4.181  -4.486   1.410  1.00  0.00     0.116 C 
BRANCH  76  77
ATOM     77  N   UNL     1       5.631  -4.548   1.485  1.00  0.00    -0.356 N 
ATOM     78  C   UNL     1       6.485  -5.281   2.256  1.00  0.00     0.224 C 
ATOM     79  H   UNL     1       6.087  -3.942   0.857  1.00  0.00     0.163 HD
ATOM     80  O   UNL     1       7.688  -5.146   2.014  1.00  0.00    -0.275 OA
BRANCH  78  81
ATOM     81  C   UNL     1       5.995  -6.166   3.418  1.00  0.00     0.094 C 
ATOM     82  C   UNL     1       6.429  -7.620   3.055  1.00  0.00     0.002 C 
ATOM     83  C   UNL     1       6.562  -5.814   4.843  1.00  0.00     0.094 C 
ATOM     84  C   UNL     1       7.947  -7.857   3.286  1.00  0.00     0.005 C 
ATOM     85  C   UNL     1       5.669  -8.568   3.987  1.00  0.00     0.005 C 
ATOM     86  C   UNL     1       7.085  -7.129   5.520  1.00  0.00     0.002 C 
ATOM     87  C   UNL     1       8.335  -7.570   4.741  1.00  0.00     0.005 C 
ATOM     88  C   UNL     1       6.070  -8.291   5.438  1.00  0.00     0.005 C 
BRANCH  83  89
ATOM     89  C   UNL     1       5.552  -5.125   5.796  1.00  0.00     0.228 C 
ATOM     90  O   UNL     1       4.738  -5.796   6.443  1.00  0.00    -0.274 OA
ATOM     91  N   UNL     1       5.537  -3.775   6.045  1.00  0.00    -0.326 N 
ATOM     92  H   UNL     1       5.017  -3.532   6.845  1.00  0.00     0.169 HD
BRANCH  91  93
ATOM     93  C   UNL     1       6.108  -2.669   5.395  1.00  0.00     0.041 A 
ATOM     94  C   UNL     1       6.012  -1.393   5.942  1.00  0.00     0.026 A 
ATOM     95  C   UNL     1       6.708  -2.773   4.160  1.00  0.00     0.026 A 
ATOM     96  C   UNL     1       6.511  -0.284   5.233  1.00  0.00     0.006 A 
ATOM     97  C   UNL     1       7.165  -1.697   3.422  1.00  0.00     0.006 A 
ATOM     98  C   UNL     1       7.059  -0.426   3.948  1.00  0.00    -0.043 A 
BRANCH  98  99
ATOM     99  C   UNL     1       7.457   0.738   3.078  1.00  0.00     0.071 C 
BRANCH  99 100
ATOM    100  C   UNL     1       6.264   1.455   2.508  1.00  0.00    -0.041 A 
ATOM    101  C   UNL     1       5.383   2.172   3.328  1.00  0.00     0.024 A 
ATOM    102  C   UNL     1       6.005   1.408   1.146  1.00  0.00     0.024 A 
ATOM    103  C   UNL     1       4.263   2.762   2.773  1.00  0.00     0.111 A 
ATOM    104  C   UNL     1       4.880   2.059   0.695  1.00  0.00     0.111 A 
ATOM    105  N   UNL     1       3.984   2.710   1.464  1.00  0.00    -0.265 NA
ENDBRANCH  99 100
ENDBRANCH  98  99
ENDBRANCH  91  93
ENDBRANCH  83  89
ENDBRANCH  78  81
ENDBRANCH  76  77
ENDBRANCH   1  76
TORSDOF 18
