REMARK SMILES O=C(NCCCCNC(=O)c1cc(-c2ccc(Cl)cc2)nc2c3c(C4CC4)cc(C(F)(F)F)nc3nn12)c1ccc(-c2c3nc(c(-c4c(F)cc(S(=O)(=O)[O-])cc4F)c4ccc([nH]4)c(-c4c(F)cc(S(=O)(=O)[O-])cc4F)c4nc(c(-c5c(F)cc(S(=O)(=O)[O-])cc5F)c5ccc2[nH]5)C=C4)C=C3)cc1
REMARK SMILES IDX 4 1 3 2 1 3 2 4 38 6 39 7 103 8 40 9 102 10 41 11 42 12
REMARK SMILES IDX 43 13 96 14 44 15 101 16 95 17 97 18 45 19 100 20 94 21
REMARK SMILES IDX 93 22 46 24 80 25 59 26 79 27 60 28 63 29 78 30 98 31 61 32
REMARK SMILES IDX 62 33 77 35 99 36 64 37 47 38 48 39 57 40 49 41 50 42 56 43
REMARK SMILES IDX 58 44 51 45 52 46 53 47 54 48 55 49 81 50 82 51 91 52 83 53
REMARK SMILES IDX 84 54 90 55 92 56 85 57 86 58 87 59 88 60 89 61 65 62 66 63
REMARK SMILES IDX 75 64 67 65 68 66 74 67 76 68 69 69 70 70 71 71 72 72 73 73
REMARK SMILES IDX 5 74 6 75 7 76 8 77 9 78 10 80 11 81 12 82 37 83 13 84 22 85
REMARK SMILES IDX 36 86 21 87 23 88 35 89 24 90 34 91 28 92 29 93 14 94 15 95
REMARK SMILES IDX 20 96 16 97 19 98 17 99 18 100 25 101 26 102 27 103 30 104
REMARK SMILES IDX 31 105 32 106 33 107
REMARK H PARENT 3 5 97 23 63 34 8 79
REMARK Flexibility Score: inf
ROOT
ATOM      1  C   UNL     1       4.594   1.200  -0.706  1.00  0.00     0.116 C 
ENDROOT
BRANCH   1   2
ATOM      2  N   UNL     1       3.208   0.988  -0.317  1.00  0.00    -0.352 N 
ATOM      3  O   UNL     1       1.440  -0.253   0.382  1.00  0.00    -0.269 OA
ATOM      4  C   UNL     1       2.636  -0.164   0.185  1.00  0.00     0.251 C 
ATOM      5  H   UNL     1       2.606   1.759  -0.425  1.00  0.00     0.163 HD
BRANCH   4   6
ATOM      6  C   UNL     1       3.538  -1.298   0.459  1.00  0.00     0.039 A 
ATOM      7  C   UNL     1       4.516  -1.165   1.447  1.00  0.00     0.014 A 
ATOM      8  C   UNL     1       3.484  -2.423  -0.367  1.00  0.00     0.014 A 
ATOM      9  C   UNL     1       5.526  -2.112   1.528  1.00  0.00     0.010 A 
ATOM     10  C   UNL     1       4.480  -3.390  -0.258  1.00  0.00     0.010 A 
ATOM     11  C   UNL     1       5.521  -3.217   0.663  1.00  0.00    -0.014 A 
BRANCH  11  12
ATOM     12  C   UNL     1       6.647  -4.154   0.793  1.00  0.00     0.031 A 
ATOM     13  C   UNL     1       6.268  -5.586   0.985  1.00  0.00     0.074 A 
ATOM     14  C   UNL     1       7.790  -3.908   0.122  1.00  0.00     0.049 A 
ATOM     15  N   UNL     1       5.968  -6.408   0.023  1.00  0.00    -0.248 NA
ATOM     16  C   UNL     1       5.974  -6.098   2.324  1.00  0.00     0.031 C 
ATOM     17  C   UNL     1       7.849  -3.453  -1.272  1.00  0.00     0.029 A 
ATOM     18  N   UNL     1       9.084  -4.257   0.428  1.00  0.00    -0.354 N 
ATOM     19  C   UNL     1       5.420  -7.534   0.614  1.00  0.00     0.074 A 
ATOM     20  C   UNL     1       5.441  -7.295   2.040  1.00  0.00     0.031 C 
ATOM     21  C   UNL     1       9.082  -3.707  -1.754  1.00  0.00     0.029 A 
ATOM     22  C   UNL     1       9.928  -4.210  -0.677  1.00  0.00     0.049 A 
ATOM     23  H   UNL     1       9.381  -4.513   1.331  1.00  0.00     0.167 HD
ATOM     24  C   UNL     1       4.975  -8.613  -0.080  1.00  0.00     0.037 A 
ATOM     25  C   UNL     1      11.038  -4.984  -0.829  1.00  0.00     0.037 A 
ATOM     26  C   UNL     1       5.175  -8.579  -1.495  1.00  0.00     0.049 A 
ATOM     27  C   UNL     1      10.408  -6.273  -1.296  1.00  0.00     0.074 A 
ATOM     28  C   UNL     1       4.457  -8.219  -2.613  1.00  0.00     0.029 A 
ATOM     29  N   UNL     1       6.410  -8.954  -1.973  1.00  0.00    -0.354 N 
ATOM     30  N   UNL     1      10.020  -6.547  -2.515  1.00  0.00    -0.248 NA
ATOM     31  C   UNL     1       9.845  -7.155  -0.270  1.00  0.00     0.031 C 
ATOM     32  C   UNL     1       5.429  -7.979  -3.634  1.00  0.00     0.029 A 
ATOM     33  C   UNL     1       6.684  -8.155  -3.054  1.00  0.00     0.049 A 
ATOM     34  H   UNL     1       6.987  -9.662  -1.608  1.00  0.00     0.167 HD
ATOM     35  C   UNL     1       8.944  -7.428  -2.369  1.00  0.00     0.074 A 
ATOM     36  C   UNL     1       8.920  -7.798  -0.970  1.00  0.00     0.031 C 
ATOM     37  C   UNL     1       8.008  -7.644  -3.338  1.00  0.00     0.037 A 
BRANCH  24  38
ATOM     38  C   UNL     1       4.474  -9.846   0.557  1.00  0.00     0.058 A 
ATOM     39  C   UNL     1       5.342 -10.940   0.676  1.00  0.00     0.135 A 
ATOM     40  C   UNL     1       3.124 -10.027   0.876  1.00  0.00     0.135 A 
ATOM     41  F   UNL     1       6.645 -10.799   0.377  1.00  0.00    -0.206 F 
ATOM     42  C   UNL     1       4.880 -12.194   1.044  1.00  0.00     0.059 A 
ATOM     43  C   UNL     1       2.637 -11.277   1.254  1.00  0.00     0.059 A 
ATOM     44  F   UNL     1       2.261  -9.004   0.778  1.00  0.00    -0.206 F 
ATOM     45  C   UNL     1       3.519 -12.358   1.307  1.00  0.00     0.060 A 
BRANCH  45  46
ATOM     46  S   UNL     1       2.923 -14.024   1.667  1.00  0.00     0.124 S 
ATOM     47  O   UNL     1       3.183 -14.711   0.406  1.00  0.00    -0.237 OA
ATOM     48  O   UNL     1       3.771 -14.411   2.790  1.00  0.00    -0.237 OA
ATOM     49  O   UNL     1       1.515 -13.818   1.990  1.00  0.00    -0.744 OA
ENDBRANCH  45  46
ENDBRANCH  24  38
BRANCH  25  50
ATOM     50  C   UNL     1      12.026  -4.863   0.290  1.00  0.00     0.058 A 
ATOM     51  C   UNL     1      12.469  -3.563   0.629  1.00  0.00     0.135 A 
ATOM     52  C   UNL     1      12.521  -5.907   1.082  1.00  0.00     0.135 A 
ATOM     53  F   UNL     1      12.149  -2.515  -0.148  1.00  0.00    -0.206 F 
ATOM     54  C   UNL     1      13.209  -3.300   1.777  1.00  0.00     0.059 A 
ATOM     55  C   UNL     1      13.247  -5.669   2.251  1.00  0.00     0.059 A 
ATOM     56  F   UNL     1      12.289  -7.188   0.765  1.00  0.00    -0.206 F 
ATOM     57  C   UNL     1      13.549  -4.358   2.612  1.00  0.00     0.060 A 
BRANCH  57  58
ATOM     58  S   UNL     1      14.320  -3.982   4.199  1.00  0.00     0.124 S 
ATOM     59  O   UNL     1      15.577  -3.367   3.788  1.00  0.00    -0.237 OA
ATOM     60  O   UNL     1      13.338  -3.085   4.800  1.00  0.00    -0.237 OA
ATOM     61  O   UNL     1      14.438  -5.290   4.836  1.00  0.00    -0.744 OA
ENDBRANCH  57  58
ENDBRANCH  25  50
BRANCH  37  62
ATOM     62  C   UNL     1       8.308  -7.076  -4.683  1.00  0.00     0.058 A 
ATOM     63  C   UNL     1       9.268  -7.682  -5.504  1.00  0.00     0.135 A 
ATOM     64  C   UNL     1       7.599  -5.979  -5.199  1.00  0.00     0.135 A 
ATOM     65  F   UNL     1       9.969  -8.739  -5.061  1.00  0.00    -0.206 F 
ATOM     66  C   UNL     1       9.487  -7.245  -6.806  1.00  0.00     0.059 A 
ATOM     67  C   UNL     1       7.785  -5.541  -6.506  1.00  0.00     0.059 A 
ATOM     68  F   UNL     1       6.683  -5.341  -4.451  1.00  0.00    -0.206 F 
ATOM     69  C   UNL     1       8.728  -6.185  -7.305  1.00  0.00     0.060 A 
BRANCH  69  70
ATOM     70  S   UNL     1       8.926  -5.716  -9.037  1.00  0.00     0.124 S 
ATOM     71  O   UNL     1      10.213  -5.030  -9.022  1.00  0.00    -0.237 OA
ATOM     72  O   UNL     1       8.903  -7.008  -9.716  1.00  0.00    -0.237 OA
ATOM     73  O   UNL     1       7.766  -4.866  -9.295  1.00  0.00    -0.744 OA
ENDBRANCH  69  70
ENDBRANCH  37  62
ENDBRANCH  11  12
ENDBRANCH   4   6
ENDBRANCH   1   2
BRANCH   1  74
ATOM     74  C   UNL     1       4.832   0.929  -2.189  1.00  0.00     0.023 C 
BRANCH  74  75
ATOM     75  C   UNL     1       4.301   2.018  -3.122  1.00  0.00     0.023 C 
BRANCH  75  76
ATOM     76  C   UNL     1       4.766   3.433  -2.789  1.00  0.00     0.116 C 
BRANCH  76  77
ATOM     77  N   UNL     1       6.214   3.573  -2.736  1.00  0.00    -0.351 N 
ATOM     78  C   UNL     1       6.969   4.684  -2.974  1.00  0.00     0.270 C 
ATOM     79  H   UNL     1       6.714   2.760  -2.496  1.00  0.00     0.163 HD
ATOM     80  O   UNL     1       8.192   4.648  -2.880  1.00  0.00    -0.268 OA
BRANCH  78  81
ATOM     81  C   UNL     1       6.294   5.896  -3.468  1.00  0.00     0.134 A 
ATOM     82  C   UNL     1       6.645   6.286  -4.702  1.00  0.00     0.063 A 
ATOM     83  N   UNL     1       5.322   6.582  -2.749  1.00  0.00    -0.207 N 
ATOM     84  C   UNL     1       5.928   7.486  -5.215  1.00  0.00     0.075 A 
ATOM     85  C   UNL     1       4.630   7.655  -3.346  1.00  0.00     0.166 A 
ATOM     86  N   UNL     1       4.882   6.323  -1.494  1.00  0.00    -0.145 NA
ATOM     87  N   UNL     1       4.991   8.134  -4.583  1.00  0.00    -0.228 NA
ATOM     88  C   UNL     1       3.601   7.945  -2.470  1.00  0.00     0.069 A 
ATOM     89  C   UNL     1       3.812   7.090  -1.349  1.00  0.00     0.184 A 
ATOM     90  C   UNL     1       2.543   8.850  -2.639  1.00  0.00    -0.028 A 
ATOM     91  N   UNL     1       2.983   7.063  -0.282  1.00  0.00    -0.222 NA
ATOM     92  C   UNL     1       1.688   8.777  -1.517  1.00  0.00     0.038 A 
ATOM     93  C   UNL     1       1.922   7.920  -0.401  1.00  0.00     0.147 A 
BRANCH  84  94
ATOM     94  C   UNL     1       6.383   7.947  -6.547  1.00  0.00     0.000 A 
ATOM     95  C   UNL     1       6.841   9.261  -6.684  1.00  0.00     0.012 A 
ATOM     96  C   UNL     1       6.398   7.072  -7.641  1.00  0.00     0.012 A 
ATOM     97  C   UNL     1       7.343   9.693  -7.914  1.00  0.00     0.021 A 
ATOM     98  C   UNL     1       6.891   7.512  -8.871  1.00  0.00     0.021 A 
ATOM     99  C   UNL     1       7.368   8.817  -9.001  1.00  0.00     0.041 A 
ATOM    100  Cl  UNL     1       7.994   9.351 -10.512  1.00  0.00    -0.084 Cl
ENDBRANCH  84  94
BRANCH  90 101
ATOM    101  C   UNL     1       2.382   9.711  -3.850  1.00  0.00     0.020 C 
ATOM    102  C   UNL     1       1.249  10.699  -4.003  1.00  0.00     0.009 C 
ATOM    103  C   UNL     1       2.634  11.196  -3.718  1.00  0.00     0.009 C 
ENDBRANCH  90 101
BRANCH  93 104
ATOM    104  C   UNL     1       0.909   7.920   0.742  1.00  0.00     0.433 C 
ATOM    105  F   UNL     1       0.198   6.760   0.820  1.00  0.00    -0.165 F 
ATOM    106  F   UNL     1       1.477   8.104   1.967  1.00  0.00    -0.165 F 
ATOM    107  F   UNL     1      -0.028   8.910   0.630  1.00  0.00    -0.165 F 
ENDBRANCH  93 104
ENDBRANCH  78  81
ENDBRANCH  76  77
ENDBRANCH  75  76
ENDBRANCH  74  75
ENDBRANCH   1  74
TORSDOF 17
