REMARK SMILES Cc1ccc(NC(=O)c2ccccc2NC(=O)[C@H]2CCCC[C@H]2C(=O)NCCCCNC(=O)c2ccc(-c3c4nc(c(-c5c(F)cc(S(=O)(=O)[O-])cc5F)c5ccc([nH]5)c(-c5c(F)cc(S(=O)(=O)[O-])cc5F)c5nc(c(-c6c(F)cc(S(=O)(=O)[O-])cc6F)c6ccc3[nH]6)C=C5)C=C4)cc2)cc1
REMARK SMILES IDX 28 1 27 2 26 3 24 4 25 5 23 7 18 8 19 9 20 10 22 11 21 12
REMARK SMILES IDX 16 13 15 14 17 16 14 17 9 18 10 19 11 20 13 21 12 22 7 23
REMARK SMILES IDX 6 24 8 26 5 27 1 28 2 29 3 30 101 31 4 32 100 33 29 34 30 35
REMARK SMILES IDX 31 36 32 37 33 39 34 40 35 41 99 42 36 43 98 44 37 45 38 46
REMARK SMILES IDX 39 47 92 48 40 49 97 50 91 51 93 52 41 53 96 54 90 55 89 56
REMARK SMILES IDX 42 58 76 59 55 60 75 61 56 62 59 63 74 64 94 65 57 66 58 67
REMARK SMILES IDX 73 69 95 70 60 71 43 72 44 73 53 74 45 75 46 76 52 77 54 78
REMARK SMILES IDX 47 79 48 80 49 81 50 82 51 83 77 84 78 85 87 86 79 87 80 88
REMARK SMILES IDX 86 89 88 90 81 91 82 92 83 93 84 94 85 95 61 96 62 97 71 98
REMARK SMILES IDX 63 99 64 100 70 101 72 102 65 103 66 104 67 105 68 106
REMARK SMILES IDX 69 107
REMARK H PARENT 26 6 15 15 6 25 31 38 93 57 59 68
REMARK Flexibility Score: inf
ROOT
ATOM      1  C   UNL     1       1.893  -0.149   6.116  1.00  0.00     0.023 C 
ENDROOT
BRANCH   1   2
ATOM      2  C   UNL     1       0.762  -0.801   6.916  1.00  0.00     0.116 C 
BRANCH   2   3
ATOM      3  N   UNL     1      -0.538  -0.285   6.500  1.00  0.00    -0.356 N 
ATOM      4  C   UNL     1      -1.497  -0.729   5.655  1.00  0.00     0.223 C 
ATOM      5  O   UNL     1      -2.418   0.066   5.417  1.00  0.00    -0.275 OA
ATOM      6  H   UNL     1      -0.768   0.571   6.928  1.00  0.00     0.163 HD
BRANCH   4   7
ATOM      7  C   UNL     1      -1.514  -2.084   4.940  1.00  0.00     0.091 C 
ATOM      8  C   UNL     1      -0.813  -2.067   3.565  1.00  0.00     0.091 C 
ATOM      9  C   UNL     1      -1.069  -3.382   2.801  1.00  0.00     0.014 C 
ATOM     10  C   UNL     1      -0.847  -4.642   3.648  1.00  0.00     0.001 C 
ATOM     11  C   UNL     1      -1.287  -3.342   5.779  1.00  0.00     0.014 C 
ATOM     12  C   UNL     1      -1.612  -4.599   4.968  1.00  0.00     0.001 C 
BRANCH   8  13
ATOM     13  C   UNL     1       0.680  -1.882   3.673  1.00  0.00     0.228 C 
ATOM     14  N   UNL     1       1.384  -0.894   3.068  1.00  0.00    -0.325 N 
ATOM     15  H   UNL     1       2.307  -0.872   3.408  1.00  0.00     0.169 HD
ATOM     16  O   UNL     1       1.337  -2.643   4.391  1.00  0.00    -0.274 OA
BRANCH  14  17
ATOM     17  C   UNL     1       1.195   0.108   2.103  1.00  0.00     0.054 A 
ATOM     18  C   UNL     1       2.153   1.148   1.950  1.00  0.00     0.063 A 
ATOM     19  C   UNL     1       1.894   2.184   1.024  1.00  0.00     0.016 A 
ATOM     20  C   UNL     1       0.744   2.193   0.241  1.00  0.00     0.001 A 
ATOM     21  C   UNL     1       0.081   0.103   1.252  1.00  0.00     0.027 A 
ATOM     22  C   UNL     1      -0.154   1.144   0.347  1.00  0.00     0.002 A 
BRANCH  18  23
ATOM     23  C   UNL     1       3.361   1.423   2.795  1.00  0.00     0.257 C 
ATOM     24  N   UNL     1       4.257   0.504   3.285  1.00  0.00    -0.322 N 
ATOM     25  H   UNL     1       4.883   0.897   3.935  1.00  0.00     0.170 HD
ATOM     26  O   UNL     1       3.549   2.600   3.128  1.00  0.00    -0.269 OA
BRANCH  24  27
ATOM     27  C   UNL     1       4.485  -0.860   3.076  1.00  0.00     0.041 A 
ATOM     28  C   UNL     1       4.132  -5.124   3.228  1.00  0.00     0.044 C 
ATOM     29  C   UNL     1       4.401  -3.654   3.116  1.00  0.00    -0.051 A 
ATOM     30  C   UNL     1       4.017  -2.947   1.967  1.00  0.00     0.005 A 
ATOM     31  C   UNL     1       4.956  -2.955   4.190  1.00  0.00     0.005 A 
ATOM     32  C   UNL     1       4.077  -1.551   1.939  1.00  0.00     0.026 A 
ATOM     33  C   UNL     1       5.021  -1.564   4.161  1.00  0.00     0.026 A 
ENDBRANCH  24  27
ENDBRANCH  18  23
ENDBRANCH  14  17
ENDBRANCH   8  13
ENDBRANCH   4   7
ENDBRANCH   2   3
ENDBRANCH   1   2
BRANCH   1  34
ATOM     34  C   UNL     1       2.400   1.195   6.605  1.00  0.00     0.023 C 
BRANCH  34  35
ATOM     35  C   UNL     1       3.256   1.089   7.848  1.00  0.00     0.116 C 
BRANCH  35  36
ATOM     36  N   UNL     1       4.698   1.125   7.616  1.00  0.00    -0.352 N 
ATOM     37  C   UNL     1       5.703   1.146   8.576  1.00  0.00     0.251 C 
ATOM     38  H   UNL     1       4.990   1.135   6.676  1.00  0.00     0.163 HD
ATOM     39  O   UNL     1       6.870   1.322   8.280  1.00  0.00    -0.269 OA
BRANCH  37  40
ATOM     40  C   UNL     1       5.294   0.878   9.979  1.00  0.00     0.039 A 
ATOM     41  C   UNL     1       5.703  -0.322  10.565  1.00  0.00     0.014 A 
ATOM     42  C   UNL     1       4.239   1.606  10.513  1.00  0.00     0.014 A 
ATOM     43  C   UNL     1       4.896  -0.909  11.542  1.00  0.00     0.010 A 
ATOM     44  C   UNL     1       3.361   0.945  11.348  1.00  0.00     0.010 A 
ATOM     45  C   UNL     1       3.659  -0.336  11.839  1.00  0.00    -0.014 A 
BRANCH  45  46
ATOM     46  C   UNL     1       2.586  -1.030  12.560  1.00  0.00     0.031 A 
ATOM     47  C   UNL     1       2.040  -0.440  13.826  1.00  0.00     0.074 A 
ATOM     48  C   UNL     1       2.011  -2.155  12.061  1.00  0.00     0.049 A 
ATOM     49  N   UNL     1       1.354  -1.090  14.709  1.00  0.00    -0.248 NA
ATOM     50  C   UNL     1       2.259   0.950  14.219  1.00  0.00     0.031 C 
ATOM     51  C   UNL     1       0.751  -2.744  12.520  1.00  0.00     0.029 A 
ATOM     52  N   UNL     1       2.467  -3.101  11.136  1.00  0.00    -0.354 N 
ATOM     53  C   UNL     1       0.816  -0.185  15.603  1.00  0.00     0.074 A 
ATOM     54  C   UNL     1       1.446   1.069  15.271  1.00  0.00     0.031 C 
ATOM     55  C   UNL     1       0.713  -4.032  12.153  1.00  0.00     0.029 A 
ATOM     56  C   UNL     1       2.009  -4.350  11.589  1.00  0.00     0.049 A 
ATOM     57  H   UNL     1       3.002  -2.926  10.329  1.00  0.00     0.167 HD
ATOM     58  C   UNL     1      -0.183  -0.580  16.447  1.00  0.00     0.037 A 
ATOM     59  C   UNL     1       2.786  -5.402  11.989  1.00  0.00     0.037 A 
ATOM     60  C   UNL     1      -0.426  -2.019  16.331  1.00  0.00     0.049 A 
ATOM     61  C   UNL     1       2.493  -5.884  13.402  1.00  0.00     0.074 A 
ATOM     62  C   UNL     1      -1.375  -2.763  15.650  1.00  0.00     0.029 A 
ATOM     63  N   UNL     1       0.548  -2.917  16.753  1.00  0.00    -0.354 N 
ATOM     64  N   UNL     1       1.741  -5.234  14.247  1.00  0.00    -0.248 NA
ATOM     65  C   UNL     1       3.061  -7.094  13.998  1.00  0.00     0.031 C 
ATOM     66  C   UNL     1      -0.937  -4.110  15.616  1.00  0.00     0.029 A 
ATOM     67  C   UNL     1       0.271  -4.188  16.286  1.00  0.00     0.049 A 
ATOM     68  H   UNL     1       1.327  -2.680  17.306  1.00  0.00     0.167 HD
ATOM     69  C   UNL     1       1.777  -5.846  15.473  1.00  0.00     0.074 A 
ATOM     70  C   UNL     1       2.578  -7.034  15.253  1.00  0.00     0.031 C 
ATOM     71  C   UNL     1       1.171  -5.298  16.569  1.00  0.00     0.037 A 
BRANCH  58  72
ATOM     72  C   UNL     1      -1.128   0.364  17.182  1.00  0.00     0.058 A 
ATOM     73  C   UNL     1      -2.434  -0.051  17.535  1.00  0.00     0.135 A 
ATOM     74  C   UNL     1      -0.846   1.705  17.512  1.00  0.00     0.135 A 
ATOM     75  F   UNL     1      -2.826  -1.325  17.402  1.00  0.00    -0.206 F 
ATOM     76  C   UNL     1      -3.407   0.819  18.037  1.00  0.00     0.059 A 
ATOM     77  C   UNL     1      -1.816   2.610  17.960  1.00  0.00     0.059 A 
ATOM     78  F   UNL     1       0.401   2.187  17.482  1.00  0.00    -0.206 F 
ATOM     79  C   UNL     1      -3.103   2.161  18.206  1.00  0.00     0.060 A 
BRANCH  79  80
ATOM     80  S   UNL     1      -4.391   3.291  18.763  1.00  0.00     0.124 S 
ATOM     81  O   UNL     1      -5.439   3.077  17.769  1.00  0.00    -0.237 OA
ATOM     82  O   UNL     1      -4.675   2.794  20.104  1.00  0.00    -0.237 OA
ATOM     83  O   UNL     1      -3.744   4.599  18.704  1.00  0.00    -0.744 OA
ENDBRANCH  79  80
ENDBRANCH  58  72
BRANCH  59  84
ATOM     84  C   UNL     1       4.106  -5.485  11.321  1.00  0.00     0.058 A 
ATOM     85  C   UNL     1       4.119  -5.844   9.962  1.00  0.00     0.135 A 
ATOM     86  C   UNL     1       5.218  -4.803  11.832  1.00  0.00     0.135 A 
ATOM     87  F   UNL     1       3.099  -6.545   9.443  1.00  0.00    -0.206 F 
ATOM     88  C   UNL     1       5.087  -5.356   9.096  1.00  0.00     0.059 A 
ATOM     89  C   UNL     1       6.208  -4.311  10.982  1.00  0.00     0.059 A 
ATOM     90  F   UNL     1       5.263  -4.457  13.126  1.00  0.00    -0.206 F 
ATOM     91  C   UNL     1       6.078  -4.521   9.607  1.00  0.00     0.060 A 
BRANCH  91  92
ATOM     92  S   UNL     1       7.036  -3.539   8.428  1.00  0.00     0.124 S 
ATOM     93  O   UNL     1       7.554  -4.560   7.525  1.00  0.00    -0.237 OA
ATOM     94  O   UNL     1       5.996  -2.673   7.877  1.00  0.00    -0.237 OA
ATOM     95  O   UNL     1       8.022  -2.879   9.275  1.00  0.00    -0.744 OA
ENDBRANCH  91  92
ENDBRANCH  59  84
BRANCH  71  96
ATOM     96  C   UNL     1       1.309  -5.784  17.993  1.00  0.00     0.058 A 
ATOM     97  C   UNL     1       2.467  -6.390  18.510  1.00  0.00     0.135 A 
ATOM     98  C   UNL     1       0.287  -5.519  18.938  1.00  0.00     0.135 A 
ATOM     99  F   UNL     1       3.548  -6.591  17.743  1.00  0.00    -0.206 F 
ATOM    100  C   UNL     1       2.580  -6.771  19.850  1.00  0.00     0.059 A 
ATOM    101  C   UNL     1       0.399  -5.843  20.288  1.00  0.00     0.059 A 
ATOM    102  F   UNL     1      -0.859  -4.924  18.575  1.00  0.00    -0.206 F 
ATOM    103  C   UNL     1       1.540  -6.496  20.733  1.00  0.00     0.060 A 
BRANCH 103 104
ATOM    104  S   UNL     1       1.689  -6.933  22.475  1.00  0.00     0.124 S 
ATOM    105  O   UNL     1       1.016  -8.227  22.510  1.00  0.00    -0.237 OA
ATOM    106  O   UNL     1       3.134  -6.972  22.682  1.00  0.00    -0.237 OA
ATOM    107  O   UNL     1       0.997  -5.840  23.149  1.00  0.00    -0.744 OA
ENDBRANCH 103 104
ENDBRANCH  71  96
ENDBRANCH  45  46
ENDBRANCH  37  40
ENDBRANCH  35  36
ENDBRANCH  34  35
ENDBRANCH   1  34
TORSDOF 18
