REMARK SMILES COc1cc([C@H]2C[C@@H](C(=O)NCCCCNC(=O)c3ccc(-c4c5nc(c(-c6c(F)cc(S(=O)(=O)[O-])cc6F)c6ccc([nH]6)c(-c6c(F)cc(S(=O)(=O)[O-])cc6F)c6nc(c(-c7c(F)cc(S(=O)(=O)[O-])cc7F)c7ccc4[nH]7)C=C6)C=C5)cc3)C2)ccc1Br
REMARK SMILES IDX 14 1 13 2 12 3 11 4 9 5 10 6 8 8 6 9 7 10 85 11 5 12 3 13
REMARK SMILES IDX 4 14 88 15 87 16 89 17 86 18 2 19 1 20 15 21 16 22 17 23
REMARK SMILES IDX 18 25 19 26 20 27 84 28 21 29 83 30 22 31 23 32 24 33 77 34
REMARK SMILES IDX 25 35 82 36 76 37 78 38 26 39 81 40 75 41 74 42 27 44 61 45
REMARK SMILES IDX 40 46 60 47 41 48 44 49 59 50 79 51 42 52 43 53 58 55 80 56
REMARK SMILES IDX 45 57 28 58 29 59 38 60 30 61 31 62 37 63 39 64 32 65 33 66
REMARK SMILES IDX 34 67 35 68 36 69 62 70 63 71 72 72 64 73 65 74 71 75 73 76
REMARK SMILES IDX 66 77 67 78 68 79 69 80 70 81 46 82 47 83 56 84 48 85 49 86
REMARK SMILES IDX 55 87 57 88 50 89 51 90 52 91 53 92 54 93
REMARK H PARENT 11 7 16 24 78 43 44 54
REMARK Flexibility Score: inf
ROOT
ATOM      1  C   UNL     1       3.182   6.732   7.636  1.00  0.00     0.023 C 
ENDROOT
BRANCH   1   2
ATOM      2  C   UNL     1       2.423   5.986   6.542  1.00  0.00     0.023 C 
BRANCH   2   3
ATOM      3  C   UNL     1       1.582   4.818   7.043  1.00  0.00     0.116 C 
BRANCH   3   4
ATOM      4  N   UNL     1       0.405   5.237   7.763  1.00  0.00    -0.356 N 
ATOM      5  C   UNL     1      -0.925   5.056   7.461  1.00  0.00     0.223 C 
ATOM      6  O   UNL     1      -1.731   5.512   8.286  1.00  0.00    -0.275 OA
ATOM      7  H   UNL     1       0.579   5.728   8.598  1.00  0.00     0.163 HD
BRANCH   5   8
ATOM      8  C   UNL     1      -1.394   4.320   6.187  1.00  0.00     0.079 C 
ATOM      9  C   UNL     1      -0.893   3.213   4.385  1.00  0.00     0.021 C 
ATOM     10  C   UNL     1      -0.947   2.868   5.898  1.00  0.00     0.022 C 
ATOM     11  C   UNL     1      -0.889   4.718   4.782  1.00  0.00     0.022 C 
BRANCH   9  12
ATOM     12  C   UNL     1       0.304   2.664   3.472  1.00  0.00    -0.041 A 
ATOM     13  C   UNL     1       1.117   1.806   1.306  1.00  0.00     0.133 A 
ATOM     14  C   UNL     1       0.080   2.253   2.142  1.00  0.00     0.051 A 
ATOM     15  C   UNL     1       2.435   1.826   1.757  1.00  0.00     0.060 A 
ATOM     16  C   UNL     1       2.692   2.189   3.073  1.00  0.00     0.020 A 
ATOM     17  Br  UNL     1       3.916   1.429   0.643  1.00  0.00    -0.047 Br
ATOM     18  C   UNL     1       1.640   2.574   3.911  1.00  0.00     0.005 A 
BRANCH  13  19
ATOM     19  O   UNL     1       0.768   1.427   0.035  1.00  0.00    -0.496 OA
ATOM     20  C   UNL     1       0.788   0.003  -0.090  1.00  0.00     0.278 C 
ENDBRANCH  13  19
ENDBRANCH   9  12
ENDBRANCH   5   8
ENDBRANCH   3   4
ENDBRANCH   2   3
ENDBRANCH   1   2
BRANCH   1  21
ATOM     21  C   UNL     1       4.100   5.866   8.491  1.00  0.00     0.116 C 
BRANCH  21  22
ATOM     22  N   UNL     1       5.118   5.173   7.716  1.00  0.00    -0.352 N 
ATOM     23  C   UNL     1       6.458   5.033   7.980  1.00  0.00     0.251 C 
ATOM     24  H   UNL     1       4.801   4.745   6.887  1.00  0.00     0.163 HD
ATOM     25  O   UNL     1       7.194   4.526   7.135  1.00  0.00    -0.269 OA
BRANCH  23  26
ATOM     26  C   UNL     1       7.016   5.516   9.262  1.00  0.00     0.039 A 
ATOM     27  C   UNL     1       8.225   6.214   9.253  1.00  0.00     0.014 A 
ATOM     28  C   UNL     1       6.350   5.286  10.470  1.00  0.00     0.014 A 
ATOM     29  C   UNL     1       8.741   6.720  10.449  1.00  0.00     0.010 A 
ATOM     30  C   UNL     1       6.817   5.869  11.644  1.00  0.00     0.010 A 
ATOM     31  C   UNL     1       8.028   6.575  11.652  1.00  0.00    -0.014 A 
BRANCH  31  32
ATOM     32  C   UNL     1       8.557   7.129  12.926  1.00  0.00     0.031 A 
ATOM     33  C   UNL     1       8.902   6.206  14.066  1.00  0.00     0.074 A 
ATOM     34  C   UNL     1       8.693   8.462  13.072  1.00  0.00     0.049 A 
ATOM     35  N   UNL     1       9.373   6.497  15.251  1.00  0.00    -0.248 NA
ATOM     36  C   UNL     1       8.661   4.768  13.857  1.00  0.00     0.031 C 
ATOM     37  C   UNL     1       8.341   9.464  12.062  1.00  0.00     0.029 A 
ATOM     38  N   UNL     1       9.165   9.206  14.124  1.00  0.00    -0.354 N 
ATOM     39  C   UNL     1       9.469   5.287  15.931  1.00  0.00     0.074 A 
ATOM     40  C   UNL     1       8.949   4.266  15.049  1.00  0.00     0.031 C 
ATOM     41  C   UNL     1       8.649  10.686  12.528  1.00  0.00     0.029 A 
ATOM     42  C   UNL     1       9.184  10.560  13.880  1.00  0.00     0.049 A 
ATOM     43  H   UNL     1       9.463   8.808  14.973  1.00  0.00     0.167 HD
ATOM     44  C   UNL     1       9.969   5.043  17.166  1.00  0.00     0.037 A 
ATOM     45  C   UNL     1       9.591  11.583  14.657  1.00  0.00     0.037 A 
ATOM     46  C   UNL     1      10.511   6.062  18.027  1.00  0.00     0.049 A 
ATOM     47  C   UNL     1      10.150  11.286  16.024  1.00  0.00     0.074 A 
ATOM     48  C   UNL     1      11.105   5.912  19.268  1.00  0.00     0.029 A 
ATOM     49  N   UNL     1      10.521   7.420  17.741  1.00  0.00    -0.354 N 
ATOM     50  N   UNL     1      10.306  10.127  16.619  1.00  0.00    -0.248 NA
ATOM     51  C   UNL     1      10.599  12.436  16.819  1.00  0.00     0.031 C 
ATOM     52  C   UNL     1      11.421   7.184  19.757  1.00  0.00     0.029 A 
ATOM     53  C   UNL     1      11.086   8.121  18.794  1.00  0.00     0.049 A 
ATOM     54  H   UNL     1      10.177   7.825  16.913  1.00  0.00     0.167 HD
ATOM     55  C   UNL     1      10.906  10.406  17.843  1.00  0.00     0.074 A 
ATOM     56  C   UNL     1      11.094  11.841  17.895  1.00  0.00     0.031 C 
ATOM     57  C   UNL     1      11.274   9.551  18.830  1.00  0.00     0.037 A 
BRANCH  44  58
ATOM     58  C   UNL     1       9.951   3.621  17.660  1.00  0.00     0.058 A 
ATOM     59  C   UNL     1      10.758   2.624  17.088  1.00  0.00     0.135 A 
ATOM     60  C   UNL     1       9.134   3.255  18.743  1.00  0.00     0.135 A 
ATOM     61  F   UNL     1      11.548   2.911  16.041  1.00  0.00    -0.206 F 
ATOM     62  C   UNL     1      10.731   1.310  17.547  1.00  0.00     0.059 A 
ATOM     63  C   UNL     1       9.115   1.954  19.240  1.00  0.00     0.059 A 
ATOM     64  F   UNL     1       8.341   4.165  19.330  1.00  0.00    -0.206 F 
ATOM     65  C   UNL     1       9.905   0.985  18.624  1.00  0.00     0.060 A 
BRANCH  65  66
ATOM     66  S   UNL     1       9.881  -0.723  19.206  1.00  0.00     0.124 S 
ATOM     67  O   UNL     1       9.165  -1.390  18.123  1.00  0.00    -0.237 OA
ATOM     68  O   UNL     1      11.303  -1.036  19.312  1.00  0.00    -0.237 OA
ATOM     69  O   UNL     1       9.164  -0.641  20.475  1.00  0.00    -0.744 OA
ENDBRANCH  65  66
ENDBRANCH  44  58
BRANCH  45  70
ATOM     70  C   UNL     1       9.527  12.980  14.147  1.00  0.00     0.058 A 
ATOM     71  C   UNL     1      10.697  13.696  13.855  1.00  0.00     0.135 A 
ATOM     72  C   UNL     1       8.298  13.626  13.937  1.00  0.00     0.135 A 
ATOM     73  F   UNL     1      11.897  13.126  14.045  1.00  0.00    -0.206 F 
ATOM     74  C   UNL     1      10.656  15.008  13.395  1.00  0.00     0.059 A 
ATOM     75  C   UNL     1       8.230  14.928  13.449  1.00  0.00     0.059 A 
ATOM     76  F   UNL     1       7.148  12.980  14.183  1.00  0.00    -0.206 F 
ATOM     77  C   UNL     1       9.416  15.615  13.193  1.00  0.00     0.060 A 
BRANCH  77  78
ATOM     78  S   UNL     1       9.373  17.304  12.555  1.00  0.00     0.124 S 
ATOM     79  O   UNL     1       9.841  18.066  13.707  1.00  0.00    -0.237 OA
ATOM     80  O   UNL     1      10.293  17.226  11.424  1.00  0.00    -0.237 OA
ATOM     81  O   UNL     1       7.970  17.493  12.199  1.00  0.00    -0.744 OA
ENDBRANCH  77  78
ENDBRANCH  45  70
BRANCH  57  82
ATOM     82  C   UNL     1      11.963  10.139  20.032  1.00  0.00     0.058 A 
ATOM     83  C   UNL     1      11.286  10.943  20.962  1.00  0.00     0.135 A 
ATOM     84  C   UNL     1      13.321   9.865  20.272  1.00  0.00     0.135 A 
ATOM     85  F   UNL     1       9.989  11.239  20.781  1.00  0.00    -0.206 F 
ATOM     86  C   UNL     1      11.938  11.489  22.063  1.00  0.00     0.059 A 
ATOM     87  C   UNL     1      13.984  10.371  21.385  1.00  0.00     0.059 A 
ATOM     88  F   UNL     1      14.015   9.089  19.424  1.00  0.00    -0.206 F 
ATOM     89  C   UNL     1      13.289  11.198  22.265  1.00  0.00     0.060 A 
BRANCH  89  90
ATOM     90  S   UNL     1      14.122  11.905  23.701  1.00  0.00     0.124 S 
ATOM     91  O   UNL     1      14.255  13.303  23.305  1.00  0.00    -0.237 OA
ATOM     92  O   UNL     1      13.172  11.638  24.776  1.00  0.00    -0.237 OA
ATOM     93  O   UNL     1      15.371  11.152  23.775  1.00  0.00    -0.744 OA
ENDBRANCH  89  90
ENDBRANCH  57  82
ENDBRANCH  31  32
ENDBRANCH  23  26
ENDBRANCH  21  22
ENDBRANCH   1  21
TORSDOF 16
