REMARK SMILES C=CC[N@@H+](CC(=O)NCCCCNC(=O)c1ccc(-c2c3nc(c(-c4c(F)cc(S(=O)(=O)[O-])cc4F)c4ccc([nH]4)c(-c4c(F)cc(S(=O)(=O)[O-])cc4F)c4nc(c(-c5c(F)cc(S(=O)(=O)[O-])cc5F)c5ccc2[nH]5)C=C4)C=C3)cc1)Cc1ccc([N+](=O)[O-])o1
REMARK SMILES IDX 10 1 9 2 8 3 6 4 7 5 5 7 4 8 3 10 2 11 1 12 82 13 83 14
REMARK SMILES IDX 84 15 90 16 85 17 86 18 87 19 88 20 89 21 11 22 12 23 13 24
REMARK SMILES IDX 14 25 15 27 16 28 17 29 81 30 18 31 80 32 19 33 20 34 21 35
REMARK SMILES IDX 74 36 22 37 79 38 73 39 75 40 23 41 78 42 72 43 71 44 24 46
REMARK SMILES IDX 58 47 37 48 57 49 38 50 41 51 56 52 76 53 39 54 40 55 55 57
REMARK SMILES IDX 77 58 42 59 25 60 26 61 35 62 27 63 28 64 34 65 36 66 29 67
REMARK SMILES IDX 30 68 31 69 32 70 33 71 59 72 60 73 69 74 61 75 62 76 68 77
REMARK SMILES IDX 70 78 63 79 64 80 65 81 66 82 67 83 43 84 44 85 53 86 45 87
REMARK SMILES IDX 46 88 52 89 54 90 47 91 48 92 49 93 50 94 51 95
REMARK H PARENT 8 6 4 9 13 26 75 45 41 56
REMARK Flexibility Score: inf
ROOT
ATOM      1  C   UNL     1      -1.587  -1.750   0.419  1.00  0.00     0.023 C 
ENDROOT
BRANCH   1   2
ATOM      2  C   UNL     1      -2.839  -1.370  -0.388  1.00  0.00     0.116 C 
BRANCH   2   3
ATOM      3  N   UNL     1      -3.463  -0.123   0.018  1.00  0.00    -0.351 N 
ATOM      4  C   UNL     1      -3.637   1.068  -0.627  1.00  0.00     0.275 C 
ATOM      5  O   UNL     1      -4.397   1.881  -0.089  1.00  0.00    -0.269 OA
ATOM      6  H   UNL     1      -3.831  -0.140   0.931  1.00  0.00     0.163 HD
BRANCH   4   7
ATOM      7  C   UNL     1      -2.963   1.405  -1.966  1.00  0.00     0.364 C 
BRANCH   7   8
ATOM      8  N   UNL     1      -1.543   1.843  -1.917  1.00  0.00    -0.318 N 
ATOM      9  H   UNL     1      -1.340   2.247  -2.832  1.00  0.00     0.349 HD
BRANCH   8  10
ATOM     10  C   UNL     1      -0.641   0.721  -1.788  1.00  0.00     0.291 C 
BRANCH  10  11
ATOM     11  C   UNL     1       0.834   0.964  -1.846  1.00  0.00     0.025 C 
ATOM     12  C   UNL     1       1.661   0.692  -0.824  1.00  0.00     0.010 C 
ENDBRANCH  10  11
ENDBRANCH   8  10
BRANCH   8  13
ATOM     13  C   UNL     1      -1.265   3.002  -1.049  1.00  0.00     0.339 C 
BRANCH  13  14
ATOM     14  C   UNL     1      -1.520   2.893   0.425  1.00  0.00     0.165 A 
ATOM     15  C   UNL     1      -1.279   1.954   1.414  1.00  0.00     0.059 A 
ATOM     16  O   UNL     1      -2.136   3.985   0.987  1.00  0.00    -0.400 OA
ATOM     17  C   UNL     1      -1.869   2.436   2.611  1.00  0.00     0.134 A 
ATOM     18  C   UNL     1      -2.345   3.683   2.295  1.00  0.00     0.433 A 
BRANCH  18  19
ATOM     19  N   UNL     1      -2.995   4.679   3.084  1.00  0.00     0.102 N 
ATOM     20  O   UNL     1      -3.392   4.322   4.201  1.00  0.00    -0.256 OA
ATOM     21  O   UNL     1      -3.084   5.822   2.614  1.00  0.00    -0.256 OA
ENDBRANCH  18  19
ENDBRANCH  13  14
ENDBRANCH   8  13
ENDBRANCH   7   8
ENDBRANCH   4   7
ENDBRANCH   2   3
ENDBRANCH   1   2
BRANCH   1  22
ATOM     22  C   UNL     1      -1.767  -1.832   1.927  1.00  0.00     0.023 C 
BRANCH  22  23
ATOM     23  C   UNL     1      -2.491  -3.083   2.365  1.00  0.00     0.116 C 
BRANCH  23  24
ATOM     24  N   UNL     1      -1.792  -4.288   1.933  1.00  0.00    -0.352 N 
ATOM     25  C   UNL     1      -1.331  -5.341   2.684  1.00  0.00     0.251 C 
ATOM     26  H   UNL     1      -1.627  -4.356   0.965  1.00  0.00     0.163 HD
ATOM     27  O   UNL     1      -0.557  -6.153   2.197  1.00  0.00    -0.269 OA
BRANCH  25  28
ATOM     28  C   UNL     1      -1.780  -5.457   4.082  1.00  0.00     0.039 A 
ATOM     29  C   UNL     1      -0.866  -5.818   5.071  1.00  0.00     0.014 A 
ATOM     30  C   UNL     1      -3.107  -5.165   4.407  1.00  0.00     0.014 A 
ATOM     31  C   UNL     1      -1.278  -5.831   6.402  1.00  0.00     0.010 A 
ATOM     32  C   UNL     1      -3.476  -5.050   5.734  1.00  0.00     0.010 A 
ATOM     33  C   UNL     1      -2.575  -5.413   6.743  1.00  0.00    -0.014 A 
BRANCH  33  34
ATOM     34  C   UNL     1      -3.039  -5.392   8.147  1.00  0.00     0.031 A 
ATOM     35  C   UNL     1      -4.214  -6.244   8.547  1.00  0.00     0.074 A 
ATOM     36  C   UNL     1      -2.454  -4.558   9.027  1.00  0.00     0.049 A 
ATOM     37  N   UNL     1      -4.827  -6.313   9.698  1.00  0.00    -0.248 NA
ATOM     38  C   UNL     1      -4.805  -7.102   7.504  1.00  0.00     0.031 C 
ATOM     39  C   UNL     1      -1.354  -3.639   8.723  1.00  0.00     0.029 A 
ATOM     40  N   UNL     1      -2.709  -4.340  10.356  1.00  0.00    -0.354 N 
ATOM     41  C   UNL     1      -5.882  -7.199   9.509  1.00  0.00     0.074 A 
ATOM     42  C   UNL     1      -5.872  -7.587   8.119  1.00  0.00     0.031 C 
ATOM     43  C   UNL     1      -1.008  -2.981   9.841  1.00  0.00     0.029 A 
ATOM     44  C   UNL     1      -1.887  -3.398  10.928  1.00  0.00     0.049 A 
ATOM     45  H   UNL     1      -3.414  -4.813  10.854  1.00  0.00     0.167 HD
ATOM     46  C   UNL     1      -6.759  -7.672  10.424  1.00  0.00     0.037 A 
ATOM     47  C   UNL     1      -1.855  -2.923  12.187  1.00  0.00     0.037 A 
ATOM     48  C   UNL     1      -6.727  -7.306  11.814  1.00  0.00     0.049 A 
ATOM     49  C   UNL     1      -2.828  -3.480  13.192  1.00  0.00     0.074 A 
ATOM     50  C   UNL     1      -7.517  -7.778  12.846  1.00  0.00     0.029 A 
ATOM     51  N   UNL     1      -5.857  -6.376  12.366  1.00  0.00    -0.354 N 
ATOM     52  N   UNL     1      -3.769  -4.379  13.017  1.00  0.00    -0.248 NA
ATOM     53  C   UNL     1      -2.731  -2.968  14.564  1.00  0.00     0.031 C 
ATOM     54  C   UNL     1      -7.160  -7.095  14.012  1.00  0.00     0.029 A 
ATOM     55  C   UNL     1      -6.106  -6.242  13.720  1.00  0.00     0.049 A 
ATOM     56  H   UNL     1      -5.164  -5.885  11.868  1.00  0.00     0.167 HD
ATOM     57  C   UNL     1      -4.357  -4.560  14.263  1.00  0.00     0.074 A 
ATOM     58  C   UNL     1      -3.655  -3.689  15.184  1.00  0.00     0.031 C 
ATOM     59  C   UNL     1      -5.385  -5.372  14.616  1.00  0.00     0.037 A 
BRANCH  46  60
ATOM     60  C   UNL     1      -7.811  -8.638   9.954  1.00  0.00     0.058 A 
ATOM     61  C   UNL     1      -7.488  -9.936   9.526  1.00  0.00     0.135 A 
ATOM     62  C   UNL     1      -9.167  -8.271   9.959  1.00  0.00     0.135 A 
ATOM     63  F   UNL     1      -6.207 -10.335   9.479  1.00  0.00    -0.206 F 
ATOM     64  C   UNL     1      -8.466 -10.826   9.095  1.00  0.00     0.059 A 
ATOM     65  C   UNL     1     -10.166  -9.157   9.563  1.00  0.00     0.059 A 
ATOM     66  F   UNL     1      -9.533  -7.041  10.350  1.00  0.00    -0.206 F 
ATOM     67  C   UNL     1      -9.803 -10.428   9.121  1.00  0.00     0.060 A 
BRANCH  67  68
ATOM     68  S   UNL     1     -11.060 -11.603   8.576  1.00  0.00     0.124 S 
ATOM     69  O   UNL     1     -10.825 -11.634   7.136  1.00  0.00    -0.237 OA
ATOM     70  O   UNL     1     -10.691 -12.812   9.305  1.00  0.00    -0.237 OA
ATOM     71  O   UNL     1     -12.313 -10.980   8.993  1.00  0.00    -0.744 OA
ENDBRANCH  67  68
ENDBRANCH  46  60
BRANCH  47  72
ATOM     72  C   UNL     1      -0.856  -1.889  12.569  1.00  0.00     0.058 A 
ATOM     73  C   UNL     1       0.205  -2.193  13.434  1.00  0.00     0.135 A 
ATOM     74  C   UNL     1      -0.931  -0.582  12.062  1.00  0.00     0.135 A 
ATOM     75  F   UNL     1       0.322  -3.428  13.945  1.00  0.00    -0.206 F 
ATOM     76  C   UNL     1       1.144  -1.234  13.802  1.00  0.00     0.059 A 
ATOM     77  C   UNL     1       0.011   0.387  12.393  1.00  0.00     0.059 A 
ATOM     78  F   UNL     1      -1.914  -0.245  11.212  1.00  0.00    -0.206 F 
ATOM     79  C   UNL     1       1.039   0.054  13.273  1.00  0.00     0.060 A 
BRANCH  79  80
ATOM     80  S   UNL     1       2.288   1.278  13.725  1.00  0.00     0.124 S 
ATOM     81  O   UNL     1       1.940   1.553  15.114  1.00  0.00    -0.237 OA
ATOM     82  O   UNL     1       3.529   0.541  13.510  1.00  0.00    -0.237 OA
ATOM     83  O   UNL     1       2.044   2.368  12.784  1.00  0.00    -0.744 OA
ENDBRANCH  79  80
ENDBRANCH  47  72
BRANCH  59  84
ATOM     84  C   UNL     1      -5.787  -5.386  16.064  1.00  0.00     0.058 A 
ATOM     85  C   UNL     1      -6.456  -4.304  16.656  1.00  0.00     0.135 A 
ATOM     86  C   UNL     1      -5.553  -6.525  16.852  1.00  0.00     0.135 A 
ATOM     87  F   UNL     1      -6.700  -3.190  15.947  1.00  0.00    -0.206 F 
ATOM     88  C   UNL     1      -6.856  -4.340  17.987  1.00  0.00     0.059 A 
ATOM     89  C   UNL     1      -5.973  -6.596  18.175  1.00  0.00     0.059 A 
ATOM     90  F   UNL     1      -4.928  -7.593  16.329  1.00  0.00    -0.206 F 
ATOM     91  C   UNL     1      -6.613  -5.492  18.738  1.00  0.00     0.060 A 
BRANCH  91  92
ATOM     92  S   UNL     1      -7.169  -5.539  20.453  1.00  0.00     0.124 S 
ATOM     93  O   UNL     1      -6.216  -4.639  21.095  1.00  0.00    -0.237 OA
ATOM     94  O   UNL     1      -8.538  -5.044  20.350  1.00  0.00    -0.237 OA
ATOM     95  O   UNL     1      -7.043  -6.948  20.814  1.00  0.00    -0.744 OA
ENDBRANCH  91  92
ENDBRANCH  59  84
ENDBRANCH  33  34
ENDBRANCH  25  28
ENDBRANCH  23  24
ENDBRANCH  22  23
ENDBRANCH   1  22
TORSDOF 20
