REMARK SMILES O=C(CCC(=O)N1CCc2sccc2C1)NC1(C(=O)NCCCCNC(=O)c2ccc(-c3c4nc(c(-c5c(F)cc(S(=O)(=O)[O-])cc5F)c5ccc([nH]5)c(-c5c(F)cc(S(=O)(=O)[O-])cc5F)c5nc(c(-c6c(F)cc(S(=O)(=O)[O-])cc6F)c6ccc3[nH]6)C=C5)C=C4)cc2)CCCCC1
REMARK SMILES IDX 21 1 20 2 18 3 19 4 17 6 94 7 98 8 95 9 97 10 96 11 16 12
REMARK SMILES IDX 1 13 2 14 3 16 4 17 5 18 6 19 7 20 8 21 15 22 9 23 14 24
REMARK SMILES IDX 10 25 13 26 11 27 12 28 22 29 23 30 24 31 25 32 26 33 27 35
REMARK SMILES IDX 28 36 29 37 93 38 30 39 92 40 31 41 32 42 33 43 86 44 34 45
REMARK SMILES IDX 91 46 85 47 87 48 35 49 90 50 84 51 83 52 36 54 70 55 49 56
REMARK SMILES IDX 69 57 50 58 53 59 68 60 88 61 51 62 52 63 67 65 89 66 54 67
REMARK SMILES IDX 37 68 38 69 47 70 39 71 40 72 46 73 48 74 41 75 42 76 43 77
REMARK SMILES IDX 44 78 45 79 71 80 72 81 81 82 73 83 74 84 80 85 82 86 75 87
REMARK SMILES IDX 76 88 77 89 78 90 79 91 55 92 56 93 65 94 57 95 58 96 64 97
REMARK SMILES IDX 66 98 59 99 60 100 61 101 62 102 63 103
REMARK H PARENT 20 5 16 15 25 34 87 53 53 64
REMARK Flexibility Score: inf
ROOT
ATOM      1  C   UNL     1      -0.702   1.774   4.601  1.00  0.00     0.116 C 
ENDROOT
BRANCH   1   2
ATOM      2  N   UNL     1      -0.932   1.199   3.306  1.00  0.00    -0.354 N 
ATOM      3  C   UNL     1      -0.065   0.558   2.477  1.00  0.00     0.245 C 
ATOM      4  O   UNL     1      -0.591  -0.152   1.605  1.00  0.00    -0.272 OA
ATOM      5  H   UNL     1      -1.853   1.281   2.968  1.00  0.00     0.163 HD
BRANCH   3   6
ATOM      6  C   UNL     1       1.499   0.586   2.654  1.00  0.00     0.119 C 
ATOM      7  C   UNL     1       1.978  -0.478   3.672  1.00  0.00     0.038 C 
ATOM      8  C   UNL     1       2.137   1.974   2.894  1.00  0.00     0.038 C 
ATOM      9  C   UNL     1       2.167  -0.039   5.115  1.00  0.00     0.003 C 
ATOM     10  C   UNL     1       2.557   2.383   4.303  1.00  0.00     0.003 C 
ATOM     11  C   UNL     1       2.937   1.264   5.259  1.00  0.00     0.000 C 
BRANCH   6  12
ATOM     12  N   UNL     1       1.962   0.063   1.324  1.00  0.00    -0.342 N 
ATOM     13  O   UNL     1       1.839   1.988   0.054  1.00  0.00    -0.275 OA
ATOM     14  C   UNL     1       2.149   0.812   0.182  1.00  0.00     0.221 C 
ATOM     15  H   UNL     1       2.148  -0.901   1.262  1.00  0.00     0.164 HD
BRANCH  14  16
ATOM     16  C   UNL     1       2.878   0.036  -0.893  1.00  0.00     0.110 C 
BRANCH  16  17
ATOM     17  C   UNL     1       3.937   0.862  -1.607  1.00  0.00     0.110 C 
BRANCH  17  18
ATOM     18  C   UNL     1       4.918   1.765  -0.859  1.00  0.00     0.223 C 
ATOM     19  O   UNL     1       5.344   2.757  -1.472  1.00  0.00    -0.275 OA
BRANCH  18  20
ATOM     20  N   UNL     1       5.394   1.504   0.416  1.00  0.00    -0.338 N 
ATOM     21  C   UNL     1       5.264   0.236   1.149  1.00  0.00     0.125 C 
ATOM     22  C   UNL     1       5.945   2.694   1.089  1.00  0.00     0.156 C 
ATOM     23  C   UNL     1       6.253  -0.024   2.298  1.00  0.00     0.068 C 
ATOM     24  C   UNL     1       6.275   2.478   2.528  1.00  0.00    -0.015 A 
ATOM     25  C   UNL     1       6.437   1.228   3.077  1.00  0.00     0.011 A 
ATOM     26  C   UNL     1       6.479   3.498   3.509  1.00  0.00     0.017 A 
ATOM     27  S   UNL     1       6.885   1.266   4.713  1.00  0.00    -0.149 S 
ATOM     28  C   UNL     1       6.790   2.976   4.747  1.00  0.00     0.065 A 
ENDBRANCH  18  20
ENDBRANCH  17  18
ENDBRANCH  16  17
ENDBRANCH  14  16
ENDBRANCH   6  12
ENDBRANCH   3   6
ENDBRANCH   1   2
BRANCH   1  29
ATOM     29  C   UNL     1      -0.899   3.281   4.661  1.00  0.00     0.023 C 
BRANCH  29  30
ATOM     30  C   UNL     1      -2.332   3.722   4.914  1.00  0.00     0.023 C 
BRANCH  30  31
ATOM     31  C   UNL     1      -3.021   3.012   6.071  1.00  0.00     0.116 C 
BRANCH  31  32
ATOM     32  N   UNL     1      -2.259   2.989   7.317  1.00  0.00    -0.352 N 
ATOM     33  C   UNL     1      -2.774   2.826   8.588  1.00  0.00     0.251 C 
ATOM     34  H   UNL     1      -1.284   3.100   7.244  1.00  0.00     0.163 HD
ATOM     35  O   UNL     1      -2.069   2.848   9.580  1.00  0.00    -0.269 OA
BRANCH  33  36
ATOM     36  C   UNL     1      -4.238   2.675   8.683  1.00  0.00     0.039 A 
ATOM     37  C   UNL     1      -4.983   3.716   9.237  1.00  0.00     0.014 A 
ATOM     38  C   UNL     1      -4.851   1.623   7.998  1.00  0.00     0.014 A 
ATOM     39  C   UNL     1      -6.361   3.743   9.029  1.00  0.00     0.010 A 
ATOM     40  C   UNL     1      -6.205   1.707   7.714  1.00  0.00     0.010 A 
ATOM     41  C   UNL     1      -6.973   2.768   8.223  1.00  0.00    -0.014 A 
BRANCH  41  42
ATOM     42  C   UNL     1      -8.420   2.830   7.903  1.00  0.00     0.031 A 
ATOM     43  C   UNL     1      -9.319   1.710   8.345  1.00  0.00     0.074 A 
ATOM     44  C   UNL     1      -8.904   3.840   7.153  1.00  0.00     0.049 A 
ATOM     45  N   UNL     1     -10.590   1.525   8.100  1.00  0.00    -0.248 NA
ATOM     46  C   UNL     1      -8.694   0.632   9.129  1.00  0.00     0.031 C 
ATOM     47  C   UNL     1      -8.113   4.941   6.598  1.00  0.00     0.029 A 
ATOM     48  N   UNL     1     -10.179   4.096   6.716  1.00  0.00    -0.354 N 
ATOM     49  C   UNL     1     -10.909   0.306   8.684  1.00  0.00     0.074 A 
ATOM     50  C   UNL     1      -9.684  -0.240   9.225  1.00  0.00     0.031 C 
ATOM     51  C   UNL     1      -8.924   5.764   5.913  1.00  0.00     0.029 A 
ATOM     52  C   UNL     1     -10.285   5.237   5.955  1.00  0.00     0.049 A 
ATOM     53  H   UNL     1     -10.947   3.518   6.927  1.00  0.00     0.167 HD
ATOM     54  C   UNL     1     -12.119  -0.290   8.794  1.00  0.00     0.037 A 
ATOM     55  C   UNL     1     -11.358   5.793   5.360  1.00  0.00     0.037 A 
ATOM     56  C   UNL     1     -13.337   0.277   8.282  1.00  0.00     0.049 A 
ATOM     57  C   UNL     1     -12.703   5.139   5.528  1.00  0.00     0.074 A 
ATOM     58  C   UNL     1     -14.626  -0.212   8.388  1.00  0.00     0.029 A 
ATOM     59  N   UNL     1     -13.414   1.465   7.569  1.00  0.00    -0.354 N 
ATOM     60  N   UNL     1     -13.002   4.021   6.147  1.00  0.00    -0.248 NA
ATOM     61  C   UNL     1     -13.857   5.825   4.932  1.00  0.00     0.031 C 
ATOM     62  C   UNL     1     -15.480   0.668   7.712  1.00  0.00     0.029 A 
ATOM     63  C   UNL     1     -14.728   1.724   7.221  1.00  0.00     0.049 A 
ATOM     64  H   UNL     1     -12.646   2.039   7.345  1.00  0.00     0.167 HD
ATOM     65  C   UNL     1     -14.380   3.878   6.031  1.00  0.00     0.074 A 
ATOM     66  C   UNL     1     -14.857   5.033   5.296  1.00  0.00     0.031 C 
ATOM     67  C   UNL     1     -15.179   2.883   6.491  1.00  0.00     0.037 A 
BRANCH  54  68
ATOM     68  C   UNL     1     -12.167  -1.611   9.511  1.00  0.00     0.058 A 
ATOM     69  C   UNL     1     -11.923  -1.705  10.892  1.00  0.00     0.135 A 
ATOM     70  C   UNL     1     -12.430  -2.798   8.811  1.00  0.00     0.135 A 
ATOM     71  F   UNL     1     -11.647  -0.602  11.606  1.00  0.00    -0.206 F 
ATOM     72  C   UNL     1     -11.886  -2.933  11.543  1.00  0.00     0.059 A 
ATOM     73  C   UNL     1     -12.430  -4.036   9.448  1.00  0.00     0.059 A 
ATOM     74  F   UNL     1     -12.669  -2.767   7.490  1.00  0.00    -0.206 F 
ATOM     75  C   UNL     1     -12.132  -4.094  10.810  1.00  0.00     0.060 A 
BRANCH  75  76
ATOM     76  S   UNL     1     -12.047  -5.684  11.660  1.00  0.00     0.124 S 
ATOM     77  O   UNL     1     -10.605  -5.864  11.793  1.00  0.00    -0.237 OA
ATOM     78  O   UNL     1     -12.768  -5.415  12.901  1.00  0.00    -0.237 OA
ATOM     79  O   UNL     1     -12.712  -6.598  10.737  1.00  0.00    -0.744 OA
ENDBRANCH  75  76
ENDBRANCH  54  68
BRANCH  55  80
ATOM     80  C   UNL     1     -11.204   7.053   4.585  1.00  0.00     0.058 A 
ATOM     81  C   UNL     1     -11.674   8.274   5.091  1.00  0.00     0.135 A 
ATOM     82  C   UNL     1     -10.549   7.069   3.344  1.00  0.00     0.135 A 
ATOM     83  F   UNL     1     -12.311   8.311   6.271  1.00  0.00    -0.206 F 
ATOM     84  C   UNL     1     -11.506   9.466   4.392  1.00  0.00     0.059 A 
ATOM     85  C   UNL     1     -10.350   8.251   2.636  1.00  0.00     0.059 A 
ATOM     86  F   UNL     1     -10.066   5.929   2.825  1.00  0.00    -0.206 F 
ATOM     87  C   UNL     1     -10.837   9.445   3.167  1.00  0.00     0.060 A 
BRANCH  87  88
ATOM     88  S   UNL     1     -10.559  11.007   2.304  1.00  0.00     0.124 S 
ATOM     89  O   UNL     1     -11.891  11.300   1.789  1.00  0.00    -0.237 OA
ATOM     90  O   UNL     1     -10.085  11.872   3.381  1.00  0.00    -0.237 OA
ATOM     91  O   UNL     1      -9.554  10.662   1.302  1.00  0.00    -0.744 OA
ENDBRANCH  87  88
ENDBRANCH  55  80
BRANCH  67  92
ATOM     92  C   UNL     1     -16.654   3.007   6.233  1.00  0.00     0.058 A 
ATOM     93  C   UNL     1     -17.198   2.783   4.960  1.00  0.00     0.135 A 
ATOM     94  C   UNL     1     -17.538   3.288   7.287  1.00  0.00     0.135 A 
ATOM     95  F   UNL     1     -16.395   2.515   3.918  1.00  0.00    -0.206 F 
ATOM     96  C   UNL     1     -18.569   2.852   4.736  1.00  0.00     0.059 A 
ATOM     97  C   UNL     1     -18.913   3.338   7.091  1.00  0.00     0.059 A 
ATOM     98  F   UNL     1     -17.066   3.499   8.527  1.00  0.00    -0.206 F 
ATOM     99  C   UNL     1     -19.419   3.128   5.809  1.00  0.00     0.060 A 
BRANCH  99 100
ATOM    100  S   UNL     1     -21.200   3.174   5.514  1.00  0.00     0.124 S 
ATOM    101  O   UNL     1     -21.352   4.458   4.839  1.00  0.00    -0.237 OA
ATOM    102  O   UNL     1     -21.411   1.992   4.685  1.00  0.00    -0.237 OA
ATOM    103  O   UNL     1     -21.767   3.099   6.857  1.00  0.00    -0.744 OA
ENDBRANCH  99 100
ENDBRANCH  67  92
ENDBRANCH  41  42
ENDBRANCH  33  36
ENDBRANCH  31  32
ENDBRANCH  30  31
ENDBRANCH  29  30
ENDBRANCH   1  29
TORSDOF 19
