REMARK SMILES C#Cc1ccc2c(c1)C=C(C(=O)NCCCCNC(=O)c1ccc(-c3c4nc(c(-c5c(F)cc(S(=O)(=O)[O-])cc5F)c5ccc([nH]5)c(-c5c(F)cc(S(=O)(=O)[O-])cc5F)c5nc(c(-c6c(F)cc(S(=O)(=O)[O-])cc6F)c6ccc3[nH]6)C=C5)C=C4)cc1)[C@@H](C(F)(F)F)O2
REMARK SMILES IDX 16 1 15 2 14 3 13 4 11 5 12 6 10 8 3 9 4 10 8 11 5 12 7 13
REMARK SMILES IDX 6 14 9 15 92 16 87 17 2 18 1 19 88 20 89 21 90 22 91 23
REMARK SMILES IDX 17 24 18 25 19 26 20 28 21 29 22 30 86 31 23 32 85 33 24 34
REMARK SMILES IDX 25 35 26 36 79 37 27 38 84 39 78 40 80 41 28 42 83 43 77 44
REMARK SMILES IDX 76 45 29 47 63 48 42 49 62 50 43 51 46 52 61 53 81 54 44 55
REMARK SMILES IDX 45 56 60 58 82 59 47 60 30 61 31 62 40 63 32 64 33 65 39 66
REMARK SMILES IDX 41 67 34 68 35 69 36 70 37 71 38 72 64 73 65 74 74 75 66 76
REMARK SMILES IDX 67 77 73 78 75 79 68 80 69 81 70 82 71 83 72 84 48 85 49 86
REMARK SMILES IDX 58 87 50 88 51 89 57 90 59 91 52 92 53 93 54 94 55 95 56 96
REMARK H PARENT 13 7 18 27 80 46 46 57
REMARK Flexibility Score: inf
ROOT
ATOM      1  C   UNL     1     -10.855   3.638   1.597  1.00  0.00     0.023 C 
ENDROOT
BRANCH   1   2
ATOM      2  C   UNL     1      -9.796   2.558   1.432  1.00  0.00     0.023 C 
BRANCH   2   3
ATOM      3  C   UNL     1      -9.049   2.648   0.108  1.00  0.00     0.116 C 
BRANCH   3   4
ATOM      4  N   UNL     1      -7.952   3.600   0.155  1.00  0.00    -0.352 N 
ATOM      5  C   UNL     1      -6.599   3.553   0.073  1.00  0.00     0.251 C 
ATOM      6  O   UNL     1      -6.019   4.642   0.105  1.00  0.00    -0.270 OA
ATOM      7  H   UNL     1      -8.276   4.521   0.278  1.00  0.00     0.163 HD
BRANCH   5   8
ATOM      8  C   UNL     1      -5.800   2.296  -0.043  1.00  0.00     0.067 C 
ATOM      9  C   UNL     1      -1.491   0.101  -0.054  1.00  0.00     0.025 A 
ATOM     10  C   UNL     1      -2.127  -1.143  -0.055  1.00  0.00     0.021 A 
ATOM     11  C   UNL     1      -2.245   1.281  -0.031  1.00  0.00     0.029 A 
ATOM     12  C   UNL     1      -3.515  -1.210  -0.037  1.00  0.00     0.048 A 
ATOM     13  C   UNL     1      -3.642   1.216  -0.013  1.00  0.00     0.018 A 
ATOM     14  C   UNL     1      -4.261  -0.035  -0.024  1.00  0.00     0.128 A 
ATOM     15  C   UNL     1      -4.464   2.418   0.072  1.00  0.00     0.025 C 
ATOM     16  O   UNL     1      -5.610  -0.202   0.022  1.00  0.00    -0.475 OA
ATOM     17  C   UNL     1      -6.420   0.954  -0.298  1.00  0.00     0.314 C 
BRANCH   9  18
ATOM     18  C   UNL     1      -0.063   0.151  -0.061  1.00  0.00    -0.070 C 
ATOM     19  C   UNL     1       1.139   0.157  -0.062  1.00  0.00     0.010 C 
ENDBRANCH   9  18
BRANCH  17  20
ATOM     20  C   UNL     1      -6.940   0.814  -1.743  1.00  0.00     0.429 C 
ATOM     21  F   UNL     1      -7.847  -0.192  -1.821  1.00  0.00    -0.167 F 
ATOM     22  F   UNL     1      -7.566   1.927  -2.191  1.00  0.00    -0.167 F 
ATOM     23  F   UNL     1      -5.953   0.539  -2.625  1.00  0.00    -0.167 F 
ENDBRANCH  17  20
ENDBRANCH   5   8
ENDBRANCH   3   4
ENDBRANCH   2   3
ENDBRANCH   1   2
BRANCH   1  24
ATOM     24  C   UNL     1     -11.867   3.709   0.461  1.00  0.00     0.116 C 
BRANCH  24  25
ATOM     25  N   UNL     1     -12.575   2.455   0.215  1.00  0.00    -0.352 N 
ATOM     26  C   UNL     1     -13.922   2.286  -0.029  1.00  0.00     0.251 C 
ATOM     27  H   UNL     1     -12.028   1.637   0.224  1.00  0.00     0.163 HD
ATOM     28  O   UNL     1     -14.416   1.169  -0.119  1.00  0.00    -0.269 OA
BRANCH  26  29
ATOM     29  C   UNL     1     -14.755   3.500  -0.125  1.00  0.00     0.039 A 
ATOM     30  C   UNL     1     -14.331   4.546  -0.944  1.00  0.00     0.014 A 
ATOM     31  C   UNL     1     -15.838   3.660   0.741  1.00  0.00     0.014 A 
ATOM     32  C   UNL     1     -14.838   5.817  -0.725  1.00  0.00     0.010 A 
ATOM     33  C   UNL     1     -16.434   4.918   0.859  1.00  0.00     0.010 A 
ATOM     34  C   UNL     1     -15.897   6.022   0.177  1.00  0.00    -0.014 A 
BRANCH  34  35
ATOM     35  C   UNL     1     -16.416   7.401   0.382  1.00  0.00     0.031 A 
ATOM     36  C   UNL     1     -16.380   8.059   1.738  1.00  0.00     0.074 A 
ATOM     37  C   UNL     1     -16.870   8.084  -0.688  1.00  0.00     0.049 A 
ATOM     38  N   UNL     1     -16.791   9.254   2.082  1.00  0.00    -0.248 NA
ATOM     39  C   UNL     1     -15.818   7.281   2.855  1.00  0.00     0.031 C 
ATOM     40  C   UNL     1     -16.934   7.559  -2.056  1.00  0.00     0.029 A 
ATOM     41  N   UNL     1     -17.336   9.368  -0.808  1.00  0.00    -0.354 N 
ATOM     42  C   UNL     1     -16.552   9.366   3.448  1.00  0.00     0.074 A 
ATOM     43  C   UNL     1     -15.997   8.103   3.881  1.00  0.00     0.031 C 
ATOM     44  C   UNL     1     -17.349   8.527  -2.882  1.00  0.00     0.029 A 
ATOM     45  C   UNL     1     -17.670   9.712  -2.096  1.00  0.00     0.049 A 
ATOM     46  H   UNL     1     -17.422   9.984  -0.045  1.00  0.00     0.167 HD
ATOM     47  C   UNL     1     -16.763  10.431   4.260  1.00  0.00     0.037 A 
ATOM     48  C   UNL     1     -18.202  10.844  -2.594  1.00  0.00     0.037 A 
ATOM     49  C   UNL     1     -17.304  11.691   3.812  1.00  0.00     0.049 A 
ATOM     50  C   UNL     1     -18.494  11.980  -1.659  1.00  0.00     0.074 A 
ATOM     51  C   UNL     1     -17.544  12.834   4.556  1.00  0.00     0.029 A 
ATOM     52  N   UNL     1     -17.691  11.976   2.510  1.00  0.00    -0.354 N 
ATOM     53  N   UNL     1     -18.256  12.069  -0.372  1.00  0.00    -0.248 NA
ATOM     54  C   UNL     1     -19.134  13.168  -2.238  1.00  0.00     0.031 C 
ATOM     55  C   UNL     1     -18.133  13.785   3.719  1.00  0.00     0.029 A 
ATOM     56  C   UNL     1     -18.195  13.264   2.437  1.00  0.00     0.049 A 
ATOM     57  H   UNL     1     -17.618  11.354   1.750  1.00  0.00     0.167 HD
ATOM     58  C   UNL     1     -18.695  13.331   0.008  1.00  0.00     0.074 A 
ATOM     59  C   UNL     1     -19.196  13.976  -1.188  1.00  0.00     0.031 C 
ATOM     60  C   UNL     1     -18.685  13.901   1.238  1.00  0.00     0.037 A 
BRANCH  47  61
ATOM     61  C   UNL     1     -16.420  10.294   5.721  1.00  0.00     0.058 A 
ATOM     62  C   UNL     1     -15.090  10.216   6.165  1.00  0.00     0.135 A 
ATOM     63  C   UNL     1     -17.430  10.324   6.698  1.00  0.00     0.135 A 
ATOM     64  F   UNL     1     -14.082  10.171   5.278  1.00  0.00    -0.206 F 
ATOM     65  C   UNL     1     -14.775  10.155   7.519  1.00  0.00     0.059 A 
ATOM     66  C   UNL     1     -17.137  10.295   8.059  1.00  0.00     0.059 A 
ATOM     67  F   UNL     1     -18.720  10.400   6.334  1.00  0.00    -0.206 F 
ATOM     68  C   UNL     1     -15.806  10.202   8.460  1.00  0.00     0.060 A 
BRANCH  68  69
ATOM     69  S   UNL     1     -15.373  10.136  10.211  1.00  0.00     0.124 S 
ATOM     70  O   UNL     1     -14.834   8.785  10.328  1.00  0.00    -0.237 OA
ATOM     71  O   UNL     1     -14.401  11.218  10.329  1.00  0.00    -0.237 OA
ATOM     72  O   UNL     1     -16.646  10.361  10.888  1.00  0.00    -0.744 OA
ENDBRANCH  68  69
ENDBRANCH  47  61
BRANCH  48  73
ATOM     73  C   UNL     1     -18.494  10.940  -4.050  1.00  0.00     0.058 A 
ATOM     74  C   UNL     1     -17.780  11.822  -4.871  1.00  0.00     0.135 A 
ATOM     75  C   UNL     1     -19.465  10.124  -4.655  1.00  0.00     0.135 A 
ATOM     76  F   UNL     1     -16.845  12.626  -4.341  1.00  0.00    -0.206 F 
ATOM     77  C   UNL     1     -18.023  11.902  -6.238  1.00  0.00     0.059 A 
ATOM     78  C   UNL     1     -19.701  10.160  -6.024  1.00  0.00     0.059 A 
ATOM     79  F   UNL     1     -20.166   9.249  -3.916  1.00  0.00    -0.206 F 
ATOM     80  C   UNL     1     -18.980  11.059  -6.806  1.00  0.00     0.060 A 
BRANCH  80  81
ATOM     81  S   UNL     1     -19.249  11.139  -8.589  1.00  0.00     0.124 S 
ATOM     82  O   UNL     1     -19.831  12.468  -8.740  1.00  0.00    -0.237 OA
ATOM     83  O   UNL     1     -17.894  10.972  -9.106  1.00  0.00    -0.237 OA
ATOM     84  O   UNL     1     -20.153  10.022  -8.845  1.00  0.00    -0.744 OA
ENDBRANCH  80  81
ENDBRANCH  48  73
BRANCH  60  85
ATOM     85  C   UNL     1     -19.206  15.307   1.361  1.00  0.00     0.058 A 
ATOM     86  C   UNL     1     -20.572  15.602   1.240  1.00  0.00     0.135 A 
ATOM     87  C   UNL     1     -18.334  16.362   1.684  1.00  0.00     0.135 A 
ATOM     88  F   UNL     1     -21.448  14.634   0.925  1.00  0.00    -0.206 F 
ATOM     89  C   UNL     1     -21.055  16.894   1.419  1.00  0.00     0.059 A 
ATOM     90  C   UNL     1     -18.799  17.654   1.901  1.00  0.00     0.059 A 
ATOM     91  F   UNL     1     -17.018  16.134   1.820  1.00  0.00    -0.206 F 
ATOM     92  C   UNL     1     -20.161  17.912   1.759  1.00  0.00     0.060 A 
BRANCH  92  93
ATOM     93  S   UNL     1     -20.814  19.572   2.035  1.00  0.00     0.124 S 
ATOM     94  O   UNL     1     -21.253  19.944   0.694  1.00  0.00    -0.237 OA
ATOM     95  O   UNL     1     -21.877  19.327   3.005  1.00  0.00    -0.237 OA
ATOM     96  O   UNL     1     -19.664  20.311   2.546  1.00  0.00    -0.744 OA
ENDBRANCH  92  93
ENDBRANCH  60  85
ENDBRANCH  34  35
ENDBRANCH  26  29
ENDBRANCH  24  25
ENDBRANCH   1  24
TORSDOF 16
