REMARK SMILES COc1ccc(CCc2nnc(NC(=O)[C@@H]3[C@@H](C(=O)NCCCCNC(=O)c4ccc(-c5c6nc(c(-c7c(F)cc(S(=O)(=O)[O-])cc7F)c7ccc([nH]7)c(-c7c(F)cc(S(=O)(=O)[O-])cc7F)c7nc(c(-c8c(F)cc(S(=O)(=O)[O-])cc8F)c8ccc5[nH]8)C=C7)C=C6)cc4)C3(C)C)s2)cc1
REMARK SMILES IDX 21 1 20 2 18 3 19 4 17 6 16 7 94 8 95 9 96 10 14 11 13 12
REMARK SMILES IDX 15 14 12 15 9 16 10 17 97 18 11 19 8 20 7 21 6 22 3 23 4 24
REMARK SMILES IDX 99 25 5 26 98 27 2 28 1 29 22 30 23 31 24 32 25 33 26 34
REMARK SMILES IDX 27 36 28 37 29 38 93 39 30 40 92 41 31 42 32 43 33 44 86 45
REMARK SMILES IDX 34 46 91 47 85 48 87 49 35 50 90 51 84 52 83 53 36 55 70 56
REMARK SMILES IDX 49 57 69 58 50 59 53 60 68 61 88 62 51 63 52 64 67 66 89 67
REMARK SMILES IDX 54 68 37 69 38 70 47 71 39 72 40 73 46 74 48 75 41 76 42 77
REMARK SMILES IDX 43 78 44 79 45 80 71 81 72 82 81 83 73 84 74 85 80 86 82 87
REMARK SMILES IDX 75 88 76 89 77 90 78 91 79 92 55 93 56 94 65 95 57 96 58 97
REMARK SMILES IDX 64 98 66 99 59 100 60 101 61 102 62 103 63 104
REMARK H PARENT 20 5 13 13 25 35 87 54 53 65
REMARK Flexibility Score: inf
ROOT
ATOM      1  C   UNL     1      -3.475  -5.812   1.348  1.00  0.00     0.116 C 
ENDROOT
BRANCH   1   2
ATOM      2  N   UNL     1      -2.434  -6.470   0.589  1.00  0.00    -0.356 N 
ATOM      3  C   UNL     1      -2.293  -7.715   0.047  1.00  0.00     0.224 C 
ATOM      4  O   UNL     1      -1.206  -7.974  -0.469  1.00  0.00    -0.275 OA
ATOM      5  H   UNL     1      -1.654  -5.891   0.428  1.00  0.00     0.163 HD
BRANCH   3   6
ATOM      6  C   UNL     1      -3.330  -8.778   0.001  1.00  0.00     0.098 C 
ATOM      7  C   UNL     1      -4.785  -8.711   0.349  1.00  0.00     0.098 C 
ATOM      8  C   UNL     1      -3.836  -9.525   1.234  1.00  0.00    -0.011 C 
ATOM      9  C   UNL     1      -3.583  -8.984   2.625  1.00  0.00     0.013 C 
ATOM     10  C   UNL     1      -3.834 -11.032   1.181  1.00  0.00     0.013 C 
BRANCH   7  11
ATOM     11  C   UNL     1      -5.800  -9.289  -0.578  1.00  0.00     0.230 C 
ATOM     12  N   UNL     1      -6.633  -8.409  -1.223  1.00  0.00    -0.300 N 
ATOM     13  H   UNL     1      -7.504  -8.751  -1.530  1.00  0.00     0.172 HD
ATOM     14  O   UNL     1      -5.994 -10.491  -0.658  1.00  0.00    -0.274 OA
BRANCH  12  15
ATOM     15  C   UNL     1      -6.350  -7.099  -1.471  1.00  0.00     0.212 A 
ATOM     16  C   UNL     1      -6.572  -4.876  -2.255  1.00  0.00     0.119 A 
ATOM     17  N   UNL     1      -5.328  -5.171  -1.923  1.00  0.00    -0.142 NA
ATOM     18  S   UNL     1      -7.685  -6.144  -1.901  1.00  0.00    -0.080 S 
ATOM     19  N   UNL     1      -5.205  -6.464  -1.441  1.00  0.00    -0.120 NA
BRANCH  16  20
ATOM     20  C   UNL     1      -7.013  -3.562  -2.835  1.00  0.00     0.074 C 
BRANCH  20  21
ATOM     21  C   UNL     1      -7.404  -3.629  -4.323  1.00  0.00     0.043 C 
BRANCH  21  22
ATOM     22  C   UNL     1      -8.789  -4.203  -4.541  1.00  0.00    -0.047 A 
ATOM     23  C   UNL     1     -11.332  -5.359  -4.530  1.00  0.00     0.118 A 
ATOM     24  C   UNL     1     -10.219  -6.145  -4.812  1.00  0.00     0.046 A 
ATOM     25  C   UNL     1     -11.197  -3.993  -4.302  1.00  0.00     0.046 A 
ATOM     26  C   UNL     1      -8.953  -5.560  -4.855  1.00  0.00     0.007 A 
ATOM     27  C   UNL     1      -9.926  -3.414  -4.309  1.00  0.00     0.007 A 
BRANCH  23  28
ATOM     28  O   UNL     1     -12.543  -5.968  -4.355  1.00  0.00    -0.497 OA
ATOM     29  C   UNL     1     -13.301  -5.925  -5.561  1.00  0.00     0.278 C 
ENDBRANCH  23  28
ENDBRANCH  21  22
ENDBRANCH  20  21
ENDBRANCH  16  20
ENDBRANCH  12  15
ENDBRANCH   7  11
ENDBRANCH   3   6
ENDBRANCH   1   2
BRANCH   1  30
ATOM     30  C   UNL     1      -2.967  -5.347   2.710  1.00  0.00     0.023 C 
BRANCH  30  31
ATOM     31  C   UNL     1      -2.102  -4.092   2.667  1.00  0.00     0.023 C 
BRANCH  31  32
ATOM     32  C   UNL     1      -2.774  -2.871   2.051  1.00  0.00     0.116 C 
BRANCH  32  33
ATOM     33  N   UNL     1      -4.043  -2.532   2.682  1.00  0.00    -0.352 N 
ATOM     34  C   UNL     1      -4.491  -1.308   3.119  1.00  0.00     0.251 C 
ATOM     35  H   UNL     1      -4.666  -3.284   2.814  1.00  0.00     0.163 HD
ATOM     36  O   UNL     1      -5.548  -1.217   3.734  1.00  0.00    -0.269 OA
BRANCH  34  37
ATOM     37  C   UNL     1      -3.667  -0.111   2.863  1.00  0.00     0.039 A 
ATOM     38  C   UNL     1      -3.370   0.750   3.922  1.00  0.00     0.014 A 
ATOM     39  C   UNL     1      -3.145   0.125   1.588  1.00  0.00     0.014 A 
ATOM     40  C   UNL     1      -2.481   1.807   3.718  1.00  0.00     0.010 A 
ATOM     41  C   UNL     1      -2.201   1.129   1.408  1.00  0.00     0.010 A 
ATOM     42  C   UNL     1      -1.859   1.979   2.471  1.00  0.00    -0.014 A 
BRANCH  42  43
ATOM     43  C   UNL     1      -0.852   3.046   2.244  1.00  0.00     0.031 A 
ATOM     44  C   UNL     1      -1.133   4.132   1.242  1.00  0.00     0.074 A 
ATOM     45  C   UNL     1       0.336   2.994   2.878  1.00  0.00     0.049 A 
ATOM     46  N   UNL     1      -0.346   5.082   0.810  1.00  0.00    -0.248 NA
ATOM     47  C   UNL     1      -2.467   4.127   0.617  1.00  0.00     0.031 C 
ATOM     48  C   UNL     1       0.745   1.963   3.836  1.00  0.00     0.029 A 
ATOM     49  N   UNL     1       1.428   3.821   2.800  1.00  0.00    -0.354 N 
ATOM     50  C   UNL     1      -1.079   5.774  -0.146  1.00  0.00     0.074 A 
ATOM     51  C   UNL     1      -2.354   5.104  -0.271  1.00  0.00     0.031 C 
ATOM     52  C   UNL     1       1.987   2.233   4.271  1.00  0.00     0.029 A 
ATOM     53  C   UNL     1       2.478   3.431   3.598  1.00  0.00     0.049 A 
ATOM     54  H   UNL     1       1.457   4.621   2.226  1.00  0.00     0.167 HD
ATOM     55  C   UNL     1      -0.731   6.885  -0.838  1.00  0.00     0.037 A 
ATOM     56  C   UNL     1       3.699   3.975   3.762  1.00  0.00     0.037 A 
ATOM     57  C   UNL     1       0.524   7.570  -0.681  1.00  0.00     0.049 A 
ATOM     58  C   UNL     1       4.055   5.218   2.992  1.00  0.00     0.074 A 
ATOM     59  C   UNL     1       0.956   8.728  -1.303  1.00  0.00     0.029 A 
ATOM     60  N   UNL     1       1.543   7.167   0.170  1.00  0.00    -0.354 N 
ATOM     61  N   UNL     1       3.334   5.883   2.121  1.00  0.00    -0.248 NA
ATOM     62  C   UNL     1       5.389   5.789   3.229  1.00  0.00     0.031 C 
ATOM     63  C   UNL     1       2.248   9.012  -0.846  1.00  0.00     0.029 A 
ATOM     64  C   UNL     1       2.604   8.052   0.087  1.00  0.00     0.049 A 
ATOM     65  H   UNL     1       1.515   6.370   0.746  1.00  0.00     0.167 HD
ATOM     66  C   UNL     1       4.113   6.967   1.732  1.00  0.00     0.074 A 
ATOM     67  C   UNL     1       5.357   6.873   2.466  1.00  0.00     0.031 C 
ATOM     68  C   UNL     1       3.825   7.952   0.846  1.00  0.00     0.037 A 
BRANCH  55  69
ATOM     69  C   UNL     1      -1.733   7.439  -1.812  1.00  0.00     0.058 A 
ATOM     70  C   UNL     1      -2.904   8.077  -1.372  1.00  0.00     0.135 A 
ATOM     71  C   UNL     1      -1.508   7.360  -3.195  1.00  0.00     0.135 A 
ATOM     72  F   UNL     1      -3.176   8.162  -0.060  1.00  0.00    -0.206 F 
ATOM     73  C   UNL     1      -3.830   8.596  -2.270  1.00  0.00     0.059 A 
ATOM     74  C   UNL     1      -2.409   7.895  -4.112  1.00  0.00     0.059 A 
ATOM     75  F   UNL     1      -0.407   6.757  -3.669  1.00  0.00    -0.206 F 
ATOM     76  C   UNL     1      -3.574   8.499  -3.639  1.00  0.00     0.060 A 
BRANCH  76  77
ATOM     77  S   UNL     1      -4.783   9.184  -4.791  1.00  0.00     0.124 S 
ATOM     78  O   UNL     1      -5.846   8.186  -4.723  1.00  0.00    -0.237 OA
ATOM     79  O   UNL     1      -5.090  10.478  -4.191  1.00  0.00    -0.237 OA
ATOM     80  O   UNL     1      -4.054   9.240  -6.054  1.00  0.00    -0.744 OA
ENDBRANCH  76  77
ENDBRANCH  55  69
BRANCH  56  81
ATOM     81  C   UNL     1       4.670   3.368   4.711  1.00  0.00     0.058 A 
ATOM     82  C   UNL     1       4.994   4.012   5.914  1.00  0.00     0.135 A 
ATOM     83  C   UNL     1       5.301   2.147   4.432  1.00  0.00     0.135 A 
ATOM     84  F   UNL     1       4.419   5.185   6.223  1.00  0.00    -0.206 F 
ATOM     85  C   UNL     1       5.930   3.482   6.796  1.00  0.00     0.059 A 
ATOM     86  C   UNL     1       6.224   1.584   5.310  1.00  0.00     0.059 A 
ATOM     87  F   UNL     1       5.012   1.482   3.303  1.00  0.00    -0.206 F 
ATOM     88  C   UNL     1       6.543   2.268   6.482  1.00  0.00     0.060 A 
BRANCH  88  89
ATOM     89  S   UNL     1       7.741   1.576   7.644  1.00  0.00     0.124 S 
ATOM     90  O   UNL     1       8.910   2.410   7.391  1.00  0.00    -0.237 OA
ATOM     91  O   UNL     1       7.078   1.777   8.928  1.00  0.00    -0.237 OA
ATOM     92  O   UNL     1       7.853   0.184   7.217  1.00  0.00    -0.744 OA
ENDBRANCH  88  89
ENDBRANCH  56  81
BRANCH  68  93
ATOM     93  C   UNL     1       4.849   9.033   0.657  1.00  0.00     0.058 A 
ATOM     94  C   UNL     1       6.024   8.815  -0.076  1.00  0.00     0.135 A 
ATOM     95  C   UNL     1       4.621  10.321   1.169  1.00  0.00     0.135 A 
ATOM     96  F   UNL     1       6.290   7.599  -0.580  1.00  0.00    -0.206 F 
ATOM     97  C   UNL     1       6.949   9.833  -0.282  1.00  0.00     0.059 A 
ATOM     98  C   UNL     1       5.521  11.359   0.956  1.00  0.00     0.059 A 
ATOM     99  F   UNL     1       3.506  10.582   1.870  1.00  0.00    -0.206 F 
ATOM    100  C   UNL     1       6.688  11.103   0.237  1.00  0.00     0.060 A 
BRANCH 100 101
ATOM    101  S   UNL     1       7.874  12.428  -0.073  1.00  0.00     0.124 S 
ATOM    102  O   UNL     1       8.937  12.097   0.870  1.00  0.00    -0.237 OA
ATOM    103  O   UNL     1       8.197  12.237  -1.484  1.00  0.00    -0.237 OA
ATOM    104  O   UNL     1       7.117  13.638   0.232  1.00  0.00    -0.744 OA
ENDBRANCH 100 101
ENDBRANCH  68  93
ENDBRANCH  42  43
ENDBRANCH  34  37
ENDBRANCH  32  33
ENDBRANCH  31  32
ENDBRANCH  30  31
ENDBRANCH   1  30
TORSDOF 20
