REMARK SMILES O=C1NC[C@@H](CSc2ccnc(C(=O)NCCCCNC(=O)c3ccc(-c4c5nc(c(-c6c(F)cc(S(=O)(=O)[O-])cc6F)c6ccc([nH]6)c(-c6c(F)cc(S(=O)(=O)[O-])cc6F)c6nc(c(-c7c(F)cc(S(=O)(=O)[O-])cc7F)c7ccc4[nH]7)C=C6)C=C5)cc3)c2)O1
REMARK SMILES IDX 17 1 16 2 15 3 13 4 14 5 12 7 8 8 9 9 89 10 10 11 11 12 7 13
REMARK SMILES IDX 6 14 5 15 1 16 2 17 3 18 90 19 4 20 18 22 19 23 20 24 21 25
REMARK SMILES IDX 22 27 23 28 24 29 88 30 25 31 87 32 26 33 27 34 28 35 81 36
REMARK SMILES IDX 29 37 86 38 80 39 82 40 30 41 85 42 79 43 78 44 31 46 65 47
REMARK SMILES IDX 44 48 64 49 45 50 48 51 63 52 83 53 46 54 47 55 62 57 84 58
REMARK SMILES IDX 49 59 32 60 33 61 42 62 34 63 35 64 41 65 43 66 36 67 37 68
REMARK SMILES IDX 38 69 39 70 40 71 66 72 67 73 76 74 68 75 69 76 75 77 77 78
REMARK SMILES IDX 70 79 71 80 72 81 73 82 74 83 50 84 51 85 60 86 52 87 53 88
REMARK SMILES IDX 59 89 61 90 54 91 55 92 56 93 57 94 58 95
REMARK H PARENT 15 6 3 21 20 26 82 45 48 56
REMARK Flexibility Score: inf
ROOT
ATOM      1  C   UNL     1       3.954  -1.929  -6.141  1.00  0.00     0.023 C 
ENDROOT
BRANCH   1   2
ATOM      2  C   UNL     1       2.666  -2.754  -6.129  1.00  0.00     0.116 C 
BRANCH   2   3
ATOM      3  N   UNL     1       2.913  -4.016  -5.463  1.00  0.00    -0.351 N 
ATOM      4  C   UNL     1       2.716  -4.435  -4.166  1.00  0.00     0.269 C 
ATOM      5  O   UNL     1       3.143  -5.553  -3.871  1.00  0.00    -0.268 OA
ATOM      6  H   UNL     1       3.295  -4.708  -6.050  1.00  0.00     0.163 HD
BRANCH   4   7
ATOM      7  C   UNL     1       1.941  -3.637  -3.154  1.00  0.00     0.129 A 
ATOM      8  C   UNL     1       0.887  -1.650  -2.356  1.00  0.00     0.011 A 
ATOM      9  C   UNL     1       0.080  -2.442  -1.546  1.00  0.00     0.035 A 
ATOM     10  C   UNL     1       1.866  -2.252  -3.143  1.00  0.00     0.049 A 
ATOM     11  C   UNL     1       0.328  -3.796  -1.498  1.00  0.00     0.113 A 
ATOM     12  N   UNL     1       1.230  -4.405  -2.286  1.00  0.00    -0.251 NA
BRANCH   8  13
ATOM     13  S   UNL     1       0.526   0.084  -2.532  1.00  0.00    -0.122 SA
BRANCH  13  14
ATOM     14  C   UNL     1       1.778   0.858  -1.441  1.00  0.00     0.122 C 
BRANCH  14  15
ATOM     15  C   UNL     1       1.448   0.939   0.057  1.00  0.00     0.208 C 
ATOM     16  O   UNL     1      -1.820   0.344   1.001  1.00  0.00    -0.225 OA
ATOM     17  C   UNL     1      -0.613   0.350   0.819  1.00  0.00     0.407 C 
ATOM     18  N   UNL     1       0.225  -0.677   1.134  1.00  0.00    -0.318 N 
ATOM     19  O   UNL     1       0.096   1.382   0.282  1.00  0.00    -0.443 OA
ATOM     20  C   UNL     1       1.574  -0.358   0.830  1.00  0.00     0.165 C 
ATOM     21  H   UNL     1      -0.068  -1.532   1.523  1.00  0.00     0.167 HD
ENDBRANCH  14  15
ENDBRANCH  13  14
ENDBRANCH   8  13
ENDBRANCH   4   7
ENDBRANCH   2   3
ENDBRANCH   1   2
BRANCH   1  22
ATOM     22  C   UNL     1       4.939  -2.359  -7.233  1.00  0.00     0.023 C 
BRANCH  22  23
ATOM     23  C   UNL     1       4.400  -2.232  -8.653  1.00  0.00     0.116 C 
BRANCH  23  24
ATOM     24  N   UNL     1       3.912  -0.895  -8.957  1.00  0.00    -0.352 N 
ATOM     25  C   UNL     1       3.964  -0.223 -10.153  1.00  0.00     0.251 C 
ATOM     26  H   UNL     1       3.490  -0.411  -8.210  1.00  0.00     0.163 HD
ATOM     27  O   UNL     1       3.636   0.956 -10.216  1.00  0.00    -0.269 OA
BRANCH  25  28
ATOM     28  C   UNL     1       4.457  -0.937 -11.347  1.00  0.00     0.039 A 
ATOM     29  C   UNL     1       5.453  -0.344 -12.122  1.00  0.00     0.014 A 
ATOM     30  C   UNL     1       3.973  -2.211 -11.658  1.00  0.00     0.014 A 
ATOM     31  C   UNL     1       6.007  -1.060 -13.182  1.00  0.00     0.010 A 
ATOM     32  C   UNL     1       4.587  -2.954 -12.658  1.00  0.00     0.010 A 
ATOM     33  C   UNL     1       5.605  -2.384 -13.436  1.00  0.00    -0.014 A 
BRANCH  33  34
ATOM     34  C   UNL     1       6.247  -3.179 -14.513  1.00  0.00     0.031 A 
ATOM     35  C   UNL     1       5.434  -3.666 -15.681  1.00  0.00     0.074 A 
ATOM     36  C   UNL     1       7.554  -3.491 -14.415  1.00  0.00     0.049 A 
ATOM     37  N   UNL     1       5.817  -4.370 -16.714  1.00  0.00    -0.248 NA
ATOM     38  C   UNL     1       3.997  -3.344 -15.676  1.00  0.00     0.031 C 
ATOM     39  C   UNL     1       8.430  -3.127 -13.297  1.00  0.00     0.029 A 
ATOM     40  N   UNL     1       8.378  -4.182 -15.266  1.00  0.00    -0.354 N 
ATOM     41  C   UNL     1       4.673  -4.577 -17.476  1.00  0.00     0.074 A 
ATOM     42  C   UNL     1       3.570  -3.985 -16.754  1.00  0.00     0.031 C 
ATOM     43  C   UNL     1       9.673  -3.565 -13.550  1.00  0.00     0.029 A 
ATOM     44  C   UNL     1       9.678  -4.274 -14.825  1.00  0.00     0.049 A 
ATOM     45  H   UNL     1       8.068  -4.576 -16.114  1.00  0.00     0.167 HD
ATOM     46  C   UNL     1       4.558  -5.181 -18.683  1.00  0.00     0.037 A 
ATOM     47  C   UNL     1      10.752  -4.864 -15.386  1.00  0.00     0.037 A 
ATOM     48  C   UNL     1       5.667  -5.755 -19.401  1.00  0.00     0.049 A 
ATOM     49  C   UNL     1      10.597  -5.532 -16.726  1.00  0.00     0.074 A 
ATOM     50  C   UNL     1       5.669  -6.340 -20.654  1.00  0.00     0.029 A 
ATOM     51  N   UNL     1       6.970  -5.822 -18.926  1.00  0.00    -0.354 N 
ATOM     52  N   UNL     1       9.523  -5.649 -17.470  1.00  0.00    -0.248 NA
ATOM     53  C   UNL     1      11.802  -6.138 -17.307  1.00  0.00     0.031 C 
ATOM     54  C   UNL     1       6.959  -6.813 -20.913  1.00  0.00     0.029 A 
ATOM     55  C   UNL     1       7.778  -6.463 -19.851  1.00  0.00     0.049 A 
ATOM     56  H   UNL     1       7.274  -5.466 -18.061  1.00  0.00     0.167 HD
ATOM     57  C   UNL     1       9.929  -6.318 -18.620  1.00  0.00     0.074 A 
ATOM     58  C   UNL     1      11.350  -6.560 -18.480  1.00  0.00     0.031 C 
ATOM     59  C   UNL     1       9.193  -6.697 -19.695  1.00  0.00     0.037 A 
BRANCH  46  60
ATOM     60  C   UNL     1       3.188  -5.249 -19.304  1.00  0.00     0.058 A 
ATOM     61  C   UNL     1       2.528  -4.098 -19.766  1.00  0.00     0.135 A 
ATOM     62  C   UNL     1       2.542  -6.484 -19.475  1.00  0.00     0.135 A 
ATOM     63  F   UNL     1       3.089  -2.888 -19.613  1.00  0.00    -0.206 F 
ATOM     64  C   UNL     1       1.266  -4.166 -20.348  1.00  0.00     0.059 A 
ATOM     65  C   UNL     1       1.294  -6.579 -20.085  1.00  0.00     0.059 A 
ATOM     66  F   UNL     1       3.124  -7.616 -19.051  1.00  0.00    -0.206 F 
ATOM     67  C   UNL     1       0.658  -5.412 -20.506  1.00  0.00     0.060 A 
BRANCH  67  68
ATOM     68  S   UNL     1      -0.973  -5.481 -21.276  1.00  0.00     0.124 S 
ATOM     69  O   UNL     1      -1.812  -4.895 -20.235  1.00  0.00    -0.237 OA
ATOM     70  O   UNL     1      -0.786  -4.667 -22.472  1.00  0.00    -0.237 OA
ATOM     71  O   UNL     1      -1.176  -6.906 -21.516  1.00  0.00    -0.744 OA
ENDBRANCH  67  68
ENDBRANCH  46  60
BRANCH  47  72
ATOM     72  C   UNL     1      12.069  -4.827 -14.694  1.00  0.00     0.058 A 
ATOM     73  C   UNL     1      13.140  -4.083 -15.212  1.00  0.00     0.135 A 
ATOM     74  C   UNL     1      12.281  -5.527 -13.495  1.00  0.00     0.135 A 
ATOM     75  F   UNL     1      12.991  -3.400 -16.357  1.00  0.00    -0.206 F 
ATOM     76  C   UNL     1      14.380  -4.052 -14.580  1.00  0.00     0.059 A 
ATOM     77  C   UNL     1      13.502  -5.486 -12.829  1.00  0.00     0.059 A 
ATOM     78  F   UNL     1      11.284  -6.239 -12.947  1.00  0.00    -0.206 F 
ATOM     79  C   UNL     1      14.550  -4.755 -13.386  1.00  0.00     0.060 A 
BRANCH  79  80
ATOM     80  S   UNL     1      16.149  -4.670 -12.552  1.00  0.00     0.124 S 
ATOM     81  O   UNL     1      16.986  -5.468 -13.440  1.00  0.00    -0.237 OA
ATOM     82  O   UNL     1      16.412  -3.235 -12.542  1.00  0.00    -0.237 OA
ATOM     83  O   UNL     1      15.876  -5.258 -11.244  1.00  0.00    -0.744 OA
ENDBRANCH  79  80
ENDBRANCH  47  72
BRANCH  59  84
ATOM     84  C   UNL     1       9.918  -7.382 -20.822  1.00  0.00     0.058 A 
ATOM     85  C   UNL     1      10.430  -8.683 -20.692  1.00  0.00     0.135 A 
ATOM     86  C   UNL     1      10.071  -6.740 -22.062  1.00  0.00     0.135 A 
ATOM     87  F   UNL     1      10.316  -9.342 -19.528  1.00  0.00    -0.206 F 
ATOM     88  C   UNL     1      11.100  -9.308 -21.739  1.00  0.00     0.059 A 
ATOM     89  C   UNL     1      10.705  -7.360 -23.134  1.00  0.00     0.059 A 
ATOM     90  F   UNL     1       9.588  -5.501 -22.247  1.00  0.00    -0.206 F 
ATOM     91  C   UNL     1      11.232  -8.638 -22.957  1.00  0.00     0.060 A 
BRANCH  91  92
ATOM     92  S   UNL     1      12.089  -9.467 -24.311  1.00  0.00     0.124 S 
ATOM     93  O   UNL     1      13.474  -9.417 -23.857  1.00  0.00    -0.237 OA
ATOM     94  O   UNL     1      11.469 -10.788 -24.310  1.00  0.00    -0.237 OA
ATOM     95  O   UNL     1      11.778  -8.636 -25.471  1.00  0.00    -0.744 OA
ENDBRANCH  91  92
ENDBRANCH  59  84
ENDBRANCH  33  34
ENDBRANCH  25  28
ENDBRANCH  23  24
ENDBRANCH  22  23
ENDBRANCH   1  22
TORSDOF 17
