REMARK SMILES O=C(NCCCCNC(=O)c1ccccc1Nc1cccc(S(F)(F)(F)(F)F)c1)c1ccc(-c2c3nc(c(-c4c(F)cc(S(=O)(=O)[O-])cc4F)c4ccc([nH]4)c(-c4c(F)cc(S(=O)(=O)[O-])cc4F)c4nc(c(-c5c(F)cc(S(=O)(=O)[O-])cc5F)c5ccc2[nH]5)C=C4)C=C3)cc1
REMARK SMILES IDX 5 1 4 2 3 3 1 4 2 5 30 7 31 8 95 9 32 10 94 11 33 12 34 13
REMARK SMILES IDX 35 14 88 15 36 16 93 17 87 18 89 19 37 20 92 21 86 22 85 23
REMARK SMILES IDX 38 25 72 26 51 27 71 28 52 29 55 30 70 31 90 32 53 33 54 34
REMARK SMILES IDX 69 36 91 37 56 38 39 39 40 40 49 41 41 42 42 43 48 44 50 45
REMARK SMILES IDX 43 46 44 47 45 48 46 49 47 50 73 51 74 52 83 53 75 54 76 55
REMARK SMILES IDX 82 56 84 57 77 58 78 59 79 60 80 61 81 62 57 63 58 64 67 65
REMARK SMILES IDX 59 66 60 67 66 68 68 69 61 70 62 71 63 72 64 73 65 74 6 75
REMARK SMILES IDX 7 76 8 77 9 78 10 80 11 81 12 82 16 83 13 84 15 85 14 86
REMARK SMILES IDX 17 87 18 89 19 90 29 91 20 92 22 93 21 94 23 95 24 96 25 97
REMARK SMILES IDX 26 98 27 99 28 100
REMARK H PARENT 3 6 89 24 55 35 8 79 17 88
REMARK Flexibility Score: inf
ROOT
ATOM      1  C   UNL     1       5.043  -0.683  -2.296  1.00  0.00     0.023 C 
ENDROOT
BRANCH   1   2
ATOM      2  C   UNL     1       4.537   0.350  -1.302  1.00  0.00     0.116 C 
BRANCH   2   3
ATOM      3  N   UNL     1       3.067   0.350  -1.302  1.00  0.00    -0.352 N 
ATOM      4  O   UNL     1       1.061   0.043  -0.066  1.00  0.00    -0.269 OA
ATOM      5  C   UNL     1       2.332   0.043  -0.066  1.00  0.00     0.251 C 
ATOM      6  H   UNL     1       2.575   0.555  -2.130  1.00  0.00     0.163 HD
BRANCH   5   7
ATOM      7  C   UNL     1       3.092  -0.273   1.211  1.00  0.00     0.039 A 
ATOM      8  C   UNL     1       4.195   0.494   1.546  1.00  0.00     0.014 A 
ATOM      9  C   UNL     1       2.713  -1.300   1.963  1.00  0.00     0.014 A 
ATOM     10  C   UNL     1       5.013  -0.083   2.546  1.00  0.00     0.010 A 
ATOM     11  C   UNL     1       3.495  -1.726   3.010  1.00  0.00     0.010 A 
ATOM     12  C   UNL     1       4.631  -1.051   3.360  1.00  0.00    -0.014 A 
BRANCH  12  13
ATOM     13  C   UNL     1       5.411  -1.394   4.618  1.00  0.00     0.031 A 
ATOM     14  C   UNL     1       5.933  -2.683   4.747  1.00  0.00     0.074 A 
ATOM     15  C   UNL     1       5.598  -0.387   5.549  1.00  0.00     0.049 A 
ATOM     16  N   UNL     1       6.703  -3.154   5.730  1.00  0.00    -0.248 NA
ATOM     17  C   UNL     1       5.708  -3.764   3.777  1.00  0.00     0.031 C 
ATOM     18  C   UNL     1       5.082   0.918   5.421  1.00  0.00     0.029 A 
ATOM     19  N   UNL     1       6.293  -0.451   6.736  1.00  0.00    -0.354 N 
ATOM     20  C   UNL     1       7.020  -4.429   5.496  1.00  0.00     0.074 A 
ATOM     21  C   UNL     1       6.379  -4.842   4.240  1.00  0.00     0.031 C 
ATOM     22  C   UNL     1       5.451   1.627   6.520  1.00  0.00     0.029 A 
ATOM     23  C   UNL     1       6.204   0.777   7.353  1.00  0.00     0.049 A 
ATOM     24  H   UNL     1       6.771  -1.238   7.083  1.00  0.00     0.167 HD
ATOM     25  C   UNL     1       7.819  -5.263   6.279  1.00  0.00     0.037 A 
ATOM     26  C   UNL     1       6.741   1.154   8.574  1.00  0.00     0.037 A 
ATOM     27  C   UNL     1       8.392  -4.872   7.479  1.00  0.00     0.049 A 
ATOM     28  C   UNL     1       7.492   0.302   9.387  1.00  0.00     0.074 A 
ATOM     29  C   UNL     1       9.207  -5.698   8.278  1.00  0.00     0.029 A 
ATOM     30  N   UNL     1       8.283  -3.652   8.109  1.00  0.00    -0.354 N 
ATOM     31  N   UNL     1       7.842  -0.960   9.134  1.00  0.00    -0.248 NA
ATOM     32  C   UNL     1       8.038   0.681  10.697  1.00  0.00     0.031 C 
ATOM     33  C   UNL     1       9.576  -4.989   9.378  1.00  0.00     0.029 A 
ATOM     34  C   UNL     1       8.997  -3.709   9.285  1.00  0.00     0.049 A 
ATOM     35  H   UNL     1       7.780  -2.873   7.775  1.00  0.00     0.167 HD
ATOM     36  C   UNL     1       8.577  -1.443  10.137  1.00  0.00     0.074 A 
ATOM     37  C   UNL     1       8.708  -0.397  11.160  1.00  0.00     0.031 C 
ATOM     38  C   UNL     1       9.148  -2.713  10.238  1.00  0.00     0.037 A 
BRANCH  25  39
ATOM     39  C   UNL     1       8.076  -6.678   5.789  1.00  0.00     0.058 A 
ATOM     40  C   UNL     1       8.752  -6.785   4.585  1.00  0.00     0.135 A 
ATOM     41  C   UNL     1       7.726  -7.757   6.480  1.00  0.00     0.135 A 
ATOM     42  F   UNL     1       9.339  -5.751   3.989  1.00  0.00    -0.206 F 
ATOM     43  C   UNL     1       8.760  -8.093   4.045  1.00  0.00     0.059 A 
ATOM     44  C   UNL     1       7.888  -9.012   5.947  1.00  0.00     0.059 A 
ATOM     45  F   UNL     1       7.215  -7.620   7.700  1.00  0.00    -0.206 F 
ATOM     46  C   UNL     1       8.495  -9.188   4.734  1.00  0.00     0.060 A 
BRANCH  46  47
ATOM     47  S   UNL     1       8.912 -10.834   4.105  1.00  0.00     0.124 S 
ATOM     48  O   UNL     1       8.182 -11.074   2.781  1.00  0.00    -0.237 OA
ATOM     49  O   UNL     1      10.422 -10.926   3.880  1.00  0.00    -0.237 OA
ATOM     50  O   UNL     1       8.432 -12.017   5.243  1.00  0.00    -0.744 OA
ENDBRANCH  46  47
ENDBRANCH  25  39
BRANCH  26  51
ATOM     51  C   UNL     1       6.498   2.575   9.056  1.00  0.00     0.058 A 
ATOM     52  C   UNL     1       7.573   3.385   9.384  1.00  0.00     0.135 A 
ATOM     53  C   UNL     1       5.247   2.983   9.239  1.00  0.00     0.135 A 
ATOM     54  F   UNL     1       8.818   3.132   8.991  1.00  0.00    -0.206 F 
ATOM     55  C   UNL     1       7.226   4.506  10.175  1.00  0.00     0.059 A 
ATOM     56  C   UNL     1       4.985   4.157   9.902  1.00  0.00     0.059 A 
ATOM     57  F   UNL     1       4.240   2.247   8.777  1.00  0.00    -0.206 F 
ATOM     58  C   UNL     1       6.000   4.979  10.307  1.00  0.00     0.060 A 
BRANCH  58  59
ATOM     59  S   UNL     1       5.681   6.625  10.989  1.00  0.00     0.124 S 
ATOM     60  O   UNL     1       6.236   6.704  12.412  1.00  0.00    -0.237 OA
ATOM     61  O   UNL     1       6.364   7.680  10.115  1.00  0.00    -0.237 OA
ATOM     62  O   UNL     1       3.995   6.913  11.017  1.00  0.00    -0.744 OA
ENDBRANCH  58  59
ENDBRANCH  26  51
BRANCH  38  63
ATOM     63  C   UNL     1       9.985  -3.024  11.468  1.00  0.00     0.058 A 
ATOM     64  C   UNL     1       9.406  -2.914  12.722  1.00  0.00     0.135 A 
ATOM     65  C   UNL     1      11.261  -3.361  11.325  1.00  0.00     0.135 A 
ATOM     66  F   UNL     1       8.092  -2.831  12.910  1.00  0.00    -0.206 F 
ATOM     67  C   UNL     1      10.340  -2.898  13.785  1.00  0.00     0.059 A 
ATOM     68  C   UNL     1      12.085  -3.460  12.421  1.00  0.00     0.059 A 
ATOM     69  F   UNL     1      11.746  -3.605  10.111  1.00  0.00    -0.206 F 
ATOM     70  C   UNL     1      11.593  -3.305  13.687  1.00  0.00     0.060 A 
BRANCH  70  71
ATOM     71  S   UNL     1      12.604  -3.639  15.150  1.00  0.00     0.124 S 
ATOM     72  O   UNL     1      12.720  -2.365  15.992  1.00  0.00    -0.237 OA
ATOM     73  O   UNL     1      11.948  -4.742  15.983  1.00  0.00    -0.237 OA
ATOM     74  O   UNL     1      14.164  -4.143  14.663  1.00  0.00    -0.744 OA
ENDBRANCH  70  71
ENDBRANCH  38  63
ENDBRANCH  12  13
ENDBRANCH   5   7
ENDBRANCH   2   3
ENDBRANCH   1   2
BRANCH   1  75
ATOM     75  C   UNL     1       4.537  -0.338  -3.687  1.00  0.00     0.023 C 
BRANCH  75  76
ATOM     76  C   UNL     1       5.043   1.039  -4.084  1.00  0.00     0.116 C 
BRANCH  76  77
ATOM     77  N   UNL     1       6.513   1.039  -4.084  1.00  0.00    -0.352 N 
ATOM     78  C   UNL     1       7.248   1.345  -5.320  1.00  0.00     0.253 C 
ATOM     79  H   UNL     1       7.006   0.834  -3.256  1.00  0.00     0.163 HD
ATOM     80  O   UNL     1       8.519   1.345  -5.320  1.00  0.00    -0.269 OA
BRANCH  78  81
ATOM     81  C   UNL     1       6.489   1.662  -6.598  1.00  0.00     0.063 A 
ATOM     82  C   UNL     1       6.872   1.040  -7.774  1.00  0.00     0.016 A 
ATOM     83  C   UNL     1       5.453   2.492  -6.563  1.00  0.00     0.051 A 
ATOM     84  C   UNL     1       6.271   1.586  -8.933  1.00  0.00     0.001 A 
ATOM     85  C   UNL     1       4.826   2.877  -7.723  1.00  0.00     0.027 A 
ATOM     86  C   UNL     1       5.192   2.348  -8.930  1.00  0.00     0.002 A 
BRANCH  83  87
ATOM     87  N   UNL     1       4.972   3.003  -5.271  1.00  0.00    -0.355 N 
ATOM     88  H   UNL     1       5.418   2.730  -4.437  1.00  0.00     0.167 HD
BRANCH  87  89
ATOM     89  C   UNL     1       3.826   3.922  -5.225  1.00  0.00     0.040 A 
ATOM     90  C   UNL     1       3.984   5.188  -4.685  1.00  0.00     0.026 A 
ATOM     91  C   UNL     1       2.655   3.520  -5.705  1.00  0.00     0.050 A 
ATOM     92  C   UNL     1       2.765   5.860  -4.432  1.00  0.00     0.004 A 
ATOM     93  C   UNL     1       1.529   4.291  -5.541  1.00  0.00     0.109 A 
ATOM     94  C   UNL     1       1.603   5.528  -4.962  1.00  0.00     0.024 A 
BRANCH  93  95
ATOM     95  S   UNL     1      -0.073   3.660  -6.098  1.00  0.00     0.310 S 
ATOM     96  F   UNL     1      -0.655   3.614  -4.624  1.00  0.00    -0.094 F 
ATOM     97  F   UNL     1       0.466   2.200  -5.858  1.00  0.00    -0.094 F 
ATOM     98  F   UNL     1      -1.440   3.105  -6.590  1.00  0.00    -0.094 F 
ATOM     99  F   UNL     1      -0.643   5.130  -6.200  1.00  0.00    -0.094 F 
ATOM    100  F   UNL     1       1.269   4.239  -5.495  1.00  0.00    -0.094 F 
ENDBRANCH  93  95
ENDBRANCH  87  89
ENDBRANCH  83  87
ENDBRANCH  78  81
ENDBRANCH  76  77
ENDBRANCH  75  76
ENDBRANCH   1  75
TORSDOF 17
