REMARK SMILES Cc1ccn2c([C@H]3C[C@@H]3C(=O)NCCCCNC(=O)c3ccc(-c4c5nc(c(-c6c(F)cc(S(=O)(=O)[O-])cc6F)c6ccc([nH]6)c(-c6c(F)cc(S(=O)(=O)[O-])cc6F)c6nc(c(-c7c(F)cc(S(=O)(=O)[O-])cc7F)c7ccc4[nH]7)C=C6)C=C5)cc3)nnc2c1
REMARK SMILES IDX 15 1 14 2 13 3 12 4 10 5 11 6 9 8 7 9 8 10 6 11 1 12 2 13
REMARK SMILES IDX 3 14 89 15 4 16 88 17 5 18 87 19 86 20 16 21 17 22 18 23
REMARK SMILES IDX 19 25 20 26 21 27 85 28 22 29 84 30 23 31 24 32 25 33 78 34
REMARK SMILES IDX 26 35 83 36 77 37 79 38 27 39 82 40 76 41 75 42 28 44 62 45
REMARK SMILES IDX 41 46 61 47 42 48 45 49 60 50 80 51 43 52 44 53 59 55 81 56
REMARK SMILES IDX 46 57 29 58 30 59 39 60 31 61 32 62 38 63 40 64 33 65 34 66
REMARK SMILES IDX 35 67 36 68 37 69 63 70 64 71 73 72 65 73 66 74 72 75 74 76
REMARK SMILES IDX 67 77 68 78 69 79 70 80 71 81 47 82 48 83 57 84 49 85 50 86
REMARK SMILES IDX 56 87 58 88 51 89 52 90 53 91 54 92 55 93
REMARK H PARENT 12 7 17 24 79 43 45 54
REMARK Flexibility Score: inf
ROOT
ATOM      1  C   UNL     1      -3.733  -5.260   0.143  1.00  0.00     0.023 C 
ENDROOT
BRANCH   1   2
ATOM      2  C   UNL     1      -3.251  -5.412   1.593  1.00  0.00     0.023 C 
BRANCH   2   3
ATOM      3  C   UNL     1      -2.333  -6.610   1.817  1.00  0.00     0.116 C 
BRANCH   3   4
ATOM      4  N   UNL     1      -1.002  -6.385   1.282  1.00  0.00    -0.356 N 
ATOM      5  C   UNL     1       0.159  -6.223   1.997  1.00  0.00     0.223 C 
ATOM      6  O   UNL     1       1.232  -6.043   1.453  1.00  0.00    -0.275 OA
ATOM      7  H   UNL     1      -0.924  -6.343   0.301  1.00  0.00     0.163 HD
BRANCH   5   8
ATOM      8  C   UNL     1       0.050  -6.316   3.467  1.00  0.00     0.090 C 
ATOM      9  C   UNL     1      -0.306  -5.069   4.253  1.00  0.00     0.071 C 
ATOM     10  C   UNL     1       1.040  -5.705   4.425  1.00  0.00     0.026 C 
BRANCH   9  11
ATOM     11  C   UNL     1      -1.425  -5.209   5.264  1.00  0.00     0.141 A 
ATOM     12  C   UNL     1      -3.148  -2.661   9.916  1.00  0.00     0.044 C 
ATOM     13  C   UNL     1      -2.679  -3.305   8.647  1.00  0.00    -0.046 A 
ATOM     14  C   UNL     1      -1.348  -2.935   8.159  1.00  0.00     0.022 A 
ATOM     15  C   UNL     1      -3.436  -4.199   7.974  1.00  0.00     0.053 A 
ATOM     16  C   UNL     1      -0.889  -3.479   7.017  1.00  0.00     0.095 A 
ATOM     17  C   UNL     1      -2.910  -4.841   6.823  1.00  0.00     0.161 A 
ATOM     18  N   UNL     1      -1.673  -4.421   6.360  1.00  0.00    -0.286 N 
ATOM     19  N   UNL     1      -3.329  -5.860   6.107  1.00  0.00    -0.130 NA
ATOM     20  N   UNL     1      -2.366  -6.127   5.165  1.00  0.00    -0.134 NA
ENDBRANCH   9  11
ENDBRANCH   5   8
ENDBRANCH   3   4
ENDBRANCH   2   3
ENDBRANCH   1   2
BRANCH   1  21
ATOM     21  C   UNL     1      -4.388  -6.517  -0.435  1.00  0.00     0.116 C 
BRANCH  21  22
ATOM     22  N   UNL     1      -5.506  -6.997   0.352  1.00  0.00    -0.352 N 
ATOM     23  C   UNL     1      -6.864  -6.867   0.270  1.00  0.00     0.251 C 
ATOM     24  H   UNL     1      -5.222  -7.542   1.121  1.00  0.00     0.163 HD
ATOM     25  O   UNL     1      -7.520  -7.597   1.019  1.00  0.00    -0.269 OA
BRANCH  23  26
ATOM     26  C   UNL     1      -7.581  -5.883  -0.584  1.00  0.00     0.039 A 
ATOM     27  C   UNL     1      -6.983  -4.987  -1.470  1.00  0.00     0.014 A 
ATOM     28  C   UNL     1      -8.975  -5.808  -0.390  1.00  0.00     0.014 A 
ATOM     29  C   UNL     1      -7.734  -3.979  -2.060  1.00  0.00     0.010 A 
ATOM     30  C   UNL     1      -9.732  -4.808  -0.986  1.00  0.00     0.010 A 
ATOM     31  C   UNL     1      -9.096  -3.858  -1.774  1.00  0.00    -0.014 A 
BRANCH  31  32
ATOM     32  C   UNL     1      -9.818  -2.750  -2.391  1.00  0.00     0.031 A 
ATOM     33  C   UNL     1      -9.793  -2.767  -3.880  1.00  0.00     0.074 A 
ATOM     34  C   UNL     1     -10.499  -1.825  -1.682  1.00  0.00     0.049 A 
ATOM     35  N   UNL     1      -9.196  -1.941  -4.675  1.00  0.00    -0.248 NA
ATOM     36  C   UNL     1     -10.369  -3.938  -4.562  1.00  0.00     0.031 C 
ATOM     37  C   UNL     1     -10.810  -1.841  -0.249  1.00  0.00     0.029 A 
ATOM     38  N   UNL     1     -11.144  -0.705  -2.117  1.00  0.00    -0.354 N 
ATOM     39  C   UNL     1      -9.501  -2.366  -5.966  1.00  0.00     0.074 A 
ATOM     40  C   UNL     1     -10.085  -3.675  -5.839  1.00  0.00     0.031 C 
ATOM     41  C   UNL     1     -11.776  -0.930   0.012  1.00  0.00     0.029 A 
ATOM     42  C   UNL     1     -12.034  -0.164  -1.195  1.00  0.00     0.049 A 
ATOM     43  H   UNL     1     -10.993  -0.313  -3.007  1.00  0.00     0.167 HD
ATOM     44  C   UNL     1      -9.469  -1.512  -7.026  1.00  0.00     0.037 A 
ATOM     45  C   UNL     1     -12.948   0.812  -1.429  1.00  0.00     0.037 A 
ATOM     46  C   UNL     1      -8.797  -0.286  -6.694  1.00  0.00     0.049 A 
ATOM     47  C   UNL     1     -12.488   1.557  -2.625  1.00  0.00     0.074 A 
ATOM     48  C   UNL     1      -7.497   0.110  -6.474  1.00  0.00     0.029 A 
ATOM     49  N   UNL     1      -9.612   0.684  -6.173  1.00  0.00    -0.354 N 
ATOM     50  N   UNL     1     -11.403   2.281  -2.657  1.00  0.00    -0.248 NA
ATOM     51  C   UNL     1     -13.048   1.217  -3.925  1.00  0.00     0.031 C 
ATOM     52  C   UNL     1      -7.576   1.191  -5.547  1.00  0.00     0.029 A 
ATOM     53  C   UNL     1      -8.920   1.445  -5.271  1.00  0.00     0.049 A 
ATOM     54  H   UNL     1     -10.558   0.814  -6.413  1.00  0.00     0.167 HD
ATOM     55  C   UNL     1     -10.916   2.123  -3.942  1.00  0.00     0.074 A 
ATOM     56  C   UNL     1     -12.041   1.604  -4.711  1.00  0.00     0.031 C 
ATOM     57  C   UNL     1      -9.574   2.149  -4.186  1.00  0.00     0.037 A 
BRANCH  44  58
ATOM     58  C   UNL     1     -10.412  -1.593  -8.202  1.00  0.00     0.058 A 
ATOM     59  C   UNL     1     -10.152  -0.854  -9.373  1.00  0.00     0.135 A 
ATOM     60  C   UNL     1     -11.710  -2.143  -8.102  1.00  0.00     0.135 A 
ATOM     61  F   UNL     1      -8.965  -0.251  -9.549  1.00  0.00    -0.206 F 
ATOM     62  C   UNL     1     -11.119  -0.661 -10.364  1.00  0.00     0.059 A 
ATOM     63  C   UNL     1     -12.670  -2.007  -9.098  1.00  0.00     0.059 A 
ATOM     64  F   UNL     1     -12.132  -2.755  -6.987  1.00  0.00    -0.206 F 
ATOM     65  C   UNL     1     -12.376  -1.242 -10.215  1.00  0.00     0.060 A 
BRANCH  65  66
ATOM     66  S   UNL     1     -13.641  -0.956 -11.468  1.00  0.00     0.124 S 
ATOM     67  O   UNL     1     -13.891   0.473 -11.315  1.00  0.00    -0.237 OA
ATOM     68  O   UNL     1     -12.950  -1.357 -12.689  1.00  0.00    -0.237 OA
ATOM     69  O   UNL     1     -14.730  -1.835 -11.054  1.00  0.00    -0.744 OA
ENDBRANCH  65  66
ENDBRANCH  44  58
BRANCH  45  70
ATOM     70  C   UNL     1     -14.349   0.912  -0.936  1.00  0.00     0.058 A 
ATOM     71  C   UNL     1     -15.094   2.094  -1.113  1.00  0.00     0.135 A 
ATOM     72  C   UNL     1     -15.084  -0.238  -0.588  1.00  0.00     0.135 A 
ATOM     73  F   UNL     1     -14.476   3.236  -1.454  1.00  0.00    -0.206 F 
ATOM     74  C   UNL     1     -16.490   2.117  -1.032  1.00  0.00     0.059 A 
ATOM     75  C   UNL     1     -16.476  -0.238  -0.495  1.00  0.00     0.059 A 
ATOM     76  F   UNL     1     -14.476  -1.423  -0.430  1.00  0.00    -0.206 F 
ATOM     77  C   UNL     1     -17.176   0.936  -0.753  1.00  0.00     0.060 A 
BRANCH  77  78
ATOM     78  S   UNL     1     -18.982   0.915  -0.855  1.00  0.00     0.124 S 
ATOM     79  O   UNL     1     -19.359   1.764   0.269  1.00  0.00    -0.237 OA
ATOM     80  O   UNL     1     -19.220   1.472  -2.183  1.00  0.00    -0.237 OA
ATOM     81  O   UNL     1     -19.314  -0.500  -0.708  1.00  0.00    -0.744 OA
ENDBRANCH  77  78
ENDBRANCH  45  70
BRANCH  57  82
ATOM     82  C   UNL     1      -8.700   2.840  -3.176  1.00  0.00     0.058 A 
ATOM     83  C   UNL     1      -8.478   2.405  -1.858  1.00  0.00     0.135 A 
ATOM     84  C   UNL     1      -7.986   3.967  -3.611  1.00  0.00     0.135 A 
ATOM     85  F   UNL     1      -9.055   1.287  -1.393  1.00  0.00    -0.206 F 
ATOM     86  C   UNL     1      -7.617   3.091  -0.998  1.00  0.00     0.059 A 
ATOM     87  C   UNL     1      -7.098   4.645  -2.784  1.00  0.00     0.059 A 
ATOM     88  F   UNL     1      -8.118   4.401  -4.875  1.00  0.00    -0.206 F 
ATOM     89  C   UNL     1      -6.931   4.211  -1.472  1.00  0.00     0.060 A 
BRANCH  89  90
ATOM     90  S   UNL     1      -5.783   5.075  -0.377  1.00  0.00     0.124 S 
ATOM     91  O   UNL     1      -6.680   5.653   0.618  1.00  0.00    -0.237 OA
ATOM     92  O   UNL     1      -4.924   3.993   0.096  1.00  0.00    -0.237 OA
ATOM     93  O   UNL     1      -5.128   6.039  -1.258  1.00  0.00    -0.744 OA
ENDBRANCH  89  90
ENDBRANCH  57  82
ENDBRANCH  31  32
ENDBRANCH  23  26
ENDBRANCH  21  22
ENDBRANCH   1  21
TORSDOF 15
