REMARK SMILES O=C(NCCCCNC(=O)[C@H]1CCCC[C@H]1C(=O)N1CCN(S(=O)(=O)c2ccc(F)cc2)CC1)c1ccc(-c2c3nc(c(-c4c(F)cc(S(=O)(=O)[O-])cc4F)c4ccc([nH]4)c(-c4c(F)cc(S(=O)(=O)[O-])cc4F)c4nc(c(-c5c(F)cc(S(=O)(=O)[O-])cc5F)c5ccc2[nH]5)C=C4)C=C3)cc1
REMARK SMILES IDX 5 1 4 2 3 3 1 4 2 5 35 7 36 8 100 9 37 10 99 11 38 12 39 13
REMARK SMILES IDX 40 14 93 15 41 16 98 17 92 18 94 19 42 20 97 21 91 22 90 23
REMARK SMILES IDX 43 25 77 26 56 27 76 28 57 29 60 30 75 31 95 32 58 33 59 34
REMARK SMILES IDX 74 36 96 37 61 38 44 39 45 40 54 41 46 42 47 43 53 44 55 45
REMARK SMILES IDX 48 46 49 47 50 48 51 49 52 50 78 51 79 52 88 53 80 54 81 55
REMARK SMILES IDX 87 56 89 57 82 58 83 59 84 60 85 61 86 62 62 63 63 64 72 65
REMARK SMILES IDX 64 66 65 67 71 68 73 69 66 70 67 71 68 72 69 73 70 74 6 75
REMARK SMILES IDX 7 76 8 77 9 78 10 80 11 81 12 82 16 83 13 84 15 85 14 86
REMARK SMILES IDX 17 87 18 88 19 89 20 90 34 91 21 92 33 93 22 94 23 95 24 96
REMARK SMILES IDX 25 97 26 98 27 99 32 100 28 101 31 102 29 103 30 104
REMARK H PARENT 3 6 94 24 60 35 8 79
REMARK Flexibility Score: inf
ROOT
ATOM      1  C   UNL     1       3.621   9.210  -0.805  1.00  0.00     0.023 C 
ENDROOT
BRANCH   1   2
ATOM      2  C   UNL     1       2.843  10.122   0.132  1.00  0.00     0.116 C 
BRANCH   2   3
ATOM      3  N   UNL     1       3.424  11.454   0.244  1.00  0.00    -0.352 N 
ATOM      4  O   UNL     1       3.534  13.694  -0.010  1.00  0.00    -0.269 OA
ATOM      5  C   UNL     1       2.855  12.674  -0.036  1.00  0.00     0.251 C 
ATOM      6  H   UNL     1       4.354  11.484   0.566  1.00  0.00     0.163 HD
BRANCH   5   7
ATOM      7  C   UNL     1       1.426  12.726  -0.394  1.00  0.00     0.039 A 
ATOM      8  C   UNL     1       0.490  12.051   0.392  1.00  0.00     0.014 A 
ATOM      9  C   UNL     1       1.029  13.410  -1.545  1.00  0.00     0.014 A 
ATOM     10  C   UNL     1      -0.814  11.925  -0.058  1.00  0.00     0.010 A 
ATOM     11  C   UNL     1      -0.309  13.366  -1.943  1.00  0.00     0.010 A 
ATOM     12  C   UNL     1      -1.235  12.602  -1.216  1.00  0.00    -0.014 A 
BRANCH  12  13
ATOM     13  C   UNL     1      -2.673  12.574  -1.574  1.00  0.00     0.031 A 
ATOM     14  C   UNL     1      -3.155  11.932  -2.843  1.00  0.00     0.074 A 
ATOM     15  C   UNL     1      -3.545  13.115  -0.700  1.00  0.00     0.049 A 
ATOM     16  N   UNL     1      -4.380  11.833  -3.292  1.00  0.00    -0.248 NA
ATOM     17  C   UNL     1      -2.145  11.326  -3.726  1.00  0.00     0.031 C 
ATOM     18  C   UNL     1      -3.172  13.771   0.559  1.00  0.00     0.029 A 
ATOM     19  N   UNL     1      -4.912  13.184  -0.713  1.00  0.00    -0.354 N 
ATOM     20  C   UNL     1      -4.290  11.175  -4.513  1.00  0.00     0.074 A 
ATOM     21  C   UNL     1      -2.888  10.905  -4.744  1.00  0.00     0.031 C 
ATOM     22  C   UNL     1      -4.282  14.126   1.218  1.00  0.00     0.029 A 
ATOM     23  C   UNL     1      -5.440  13.798   0.398  1.00  0.00     0.049 A 
ATOM     24  H   UNL     1      -5.464  12.829  -1.447  1.00  0.00     0.167 HD
ATOM     25  C   UNL     1      -5.294  10.828  -5.353  1.00  0.00     0.037 A 
ATOM     26  C   UNL     1      -6.714  14.095   0.713  1.00  0.00     0.037 A 
ATOM     27  C   UNL     1      -6.688  11.083  -5.090  1.00  0.00     0.049 A 
ATOM     28  C   UNL     1      -7.798  13.720  -0.252  1.00  0.00     0.074 A 
ATOM     29  C   UNL     1      -7.784  10.734  -5.861  1.00  0.00     0.029 A 
ATOM     30  N   UNL     1      -7.181  11.747  -3.975  1.00  0.00    -0.354 N 
ATOM     31  N   UNL     1      -7.694  13.085  -1.394  1.00  0.00    -0.248 NA
ATOM     32  C   UNL     1      -9.167  14.115   0.101  1.00  0.00     0.031 C 
ATOM     33  C   UNL     1      -8.934  11.224  -5.235  1.00  0.00     0.029 A 
ATOM     34  C   UNL     1      -8.560  11.841  -4.052  1.00  0.00     0.049 A 
ATOM     35  H   UNL     1      -6.630  12.099  -3.239  1.00  0.00     0.167 HD
ATOM     36  C   UNL     1      -8.983  13.007  -1.901  1.00  0.00     0.074 A 
ATOM     37  C   UNL     1      -9.854  13.633  -0.926  1.00  0.00     0.031 C 
ATOM     38  C   UNL     1      -9.406  12.477  -3.074  1.00  0.00     0.037 A 
BRANCH  25  39
ATOM     39  C   UNL     1      -4.951  10.134  -6.642  1.00  0.00     0.058 A 
ATOM     40  C   UNL     1      -5.097  10.804  -7.868  1.00  0.00     0.135 A 
ATOM     41  C   UNL     1      -4.612   8.774  -6.676  1.00  0.00     0.135 A 
ATOM     42  F   UNL     1      -5.413  12.109  -7.892  1.00  0.00    -0.206 F 
ATOM     43  C   UNL     1      -4.955  10.141  -9.082  1.00  0.00     0.059 A 
ATOM     44  C   UNL     1      -4.446   8.093  -7.880  1.00  0.00     0.059 A 
ATOM     45  F   UNL     1      -4.440   8.092  -5.532  1.00  0.00    -0.206 F 
ATOM     46  C   UNL     1      -4.641   8.781  -9.078  1.00  0.00     0.060 A 
BRANCH  46  47
ATOM     47  S   UNL     1      -4.488   7.928 -10.663  1.00  0.00     0.124 S 
ATOM     48  O   UNL     1      -5.866   7.926 -11.139  1.00  0.00    -0.237 OA
ATOM     49  O   UNL     1      -3.564   8.795 -11.388  1.00  0.00    -0.237 OA
ATOM     50  O   UNL     1      -3.947   6.622 -10.293  1.00  0.00    -0.744 OA
ENDBRANCH  46  47
ENDBRANCH  25  39
BRANCH  26  51
ATOM     51  C   UNL     1      -7.009  14.815   1.977  1.00  0.00     0.058 A 
ATOM     52  C   UNL     1      -6.595  16.144   2.164  1.00  0.00     0.135 A 
ATOM     53  C   UNL     1      -7.667  14.180   3.039  1.00  0.00     0.135 A 
ATOM     54  F   UNL     1      -5.948  16.793   1.183  1.00  0.00    -0.206 F 
ATOM     55  C   UNL     1      -6.798  16.808   3.366  1.00  0.00     0.059 A 
ATOM     56  C   UNL     1      -7.909  14.834   4.243  1.00  0.00     0.059 A 
ATOM     57  F   UNL     1      -8.087  12.912   2.904  1.00  0.00    -0.206 F 
ATOM     58  C   UNL     1      -7.454  16.143   4.402  1.00  0.00     0.060 A 
BRANCH  58  59
ATOM     59  S   UNL     1      -7.718  17.026   5.954  1.00  0.00     0.124 S 
ATOM     60  O   UNL     1      -6.375  17.018   6.524  1.00  0.00    -0.237 OA
ATOM     61  O   UNL     1      -8.205  18.322   5.492  1.00  0.00    -0.237 OA
ATOM     62  O   UNL     1      -8.702  16.200   6.646  1.00  0.00    -0.744 OA
ENDBRANCH  58  59
ENDBRANCH  26  51
BRANCH  38  63
ATOM     63  C   UNL     1     -10.874  12.556  -3.372  1.00  0.00     0.058 A 
ATOM     64  C   UNL     1     -11.678  11.408  -3.318  1.00  0.00     0.135 A 
ATOM     65  C   UNL     1     -11.469  13.762  -3.773  1.00  0.00     0.135 A 
ATOM     66  F   UNL     1     -11.154  10.231  -2.940  1.00  0.00    -0.206 F 
ATOM     67  C   UNL     1     -13.021  11.448  -3.673  1.00  0.00     0.059 A 
ATOM     68  C   UNL     1     -12.816  13.830  -4.110  1.00  0.00     0.059 A 
ATOM     69  F   UNL     1     -10.742  14.890  -3.823  1.00  0.00    -0.206 F 
ATOM     70  C   UNL     1     -13.580  12.663  -4.072  1.00  0.00     0.060 A 
BRANCH  70  71
ATOM     71  S   UNL     1     -15.327  12.700  -4.521  1.00  0.00     0.124 S 
ATOM     72  O   UNL     1     -15.321  12.003  -5.802  1.00  0.00    -0.237 OA
ATOM     73  O   UNL     1     -15.946  11.983  -3.410  1.00  0.00    -0.237 OA
ATOM     74  O   UNL     1     -15.631  14.127  -4.583  1.00  0.00    -0.744 OA
ENDBRANCH  70  71
ENDBRANCH  38  63
ENDBRANCH  12  13
ENDBRANCH   5   7
ENDBRANCH   2   3
ENDBRANCH   1   2
BRANCH   1  75
ATOM     75  C   UNL     1       5.101   9.048  -0.470  1.00  0.00     0.023 C 
BRANCH  75  76
ATOM     76  C   UNL     1       5.419   8.742   0.997  1.00  0.00     0.116 C 
BRANCH  76  77
ATOM     77  N   UNL     1       4.960   7.428   1.415  1.00  0.00    -0.356 N 
ATOM     78  C   UNL     1       5.773   6.362   1.647  1.00  0.00     0.223 C 
ATOM     79  H   UNL     1       3.992   7.300   1.540  1.00  0.00     0.163 HD
ATOM     80  O   UNL     1       5.619   5.398   0.889  1.00  0.00    -0.275 OA
BRANCH  78  81
ATOM     81  C   UNL     1       6.773   6.278   2.815  1.00  0.00     0.091 C 
ATOM     82  C   UNL     1       7.818   7.417   2.819  1.00  0.00     0.014 C 
ATOM     83  C   UNL     1       6.286   6.042   4.267  1.00  0.00     0.091 C 
ATOM     84  C   UNL     1       7.431   8.667   3.626  1.00  0.00     0.001 C 
ATOM     85  C   UNL     1       5.754   7.319   4.926  1.00  0.00     0.014 C 
ATOM     86  C   UNL     1       6.868   8.357   5.003  1.00  0.00     0.001 C 
BRANCH  83  87
ATOM     87  C   UNL     1       5.480   4.824   4.771  1.00  0.00     0.226 C 
ATOM     88  O   UNL     1       5.973   4.081   5.625  1.00  0.00    -0.275 OA
ATOM     89  N   UNL     1       4.136   4.778   4.496  1.00  0.00    -0.340 N 
ATOM     90  C   UNL     1       3.151   4.506   5.548  1.00  0.00     0.136 C 
ATOM     91  C   UNL     1       3.641   4.473   3.174  1.00  0.00     0.136 C 
ATOM     92  C   UNL     1       1.839   5.284   5.276  1.00  0.00     0.124 C 
ATOM     93  C   UNL     1       2.450   5.377   2.884  1.00  0.00     0.124 C 
ATOM     94  N   UNL     1       1.335   5.117   3.852  1.00  0.00    -0.194 NA
BRANCH  94  95
ATOM     95  S   UNL     1       0.379   3.712   3.629  1.00  0.00     0.243 S 
ATOM     96  O   UNL     1       1.252   2.553   3.682  1.00  0.00    -0.207 OA
ATOM     97  O   UNL     1      -0.743   3.817   4.529  1.00  0.00    -0.207 OA
BRANCH  95  98
ATOM     98  C   UNL     1      -0.232   3.830   1.959  1.00  0.00     0.082 A 
ATOM     99  C   UNL     1       0.612   3.502   0.886  1.00  0.00     0.025 A 
ATOM    100  C   UNL     1      -1.574   4.152   1.727  1.00  0.00     0.025 A 
ATOM    101  C   UNL     1       0.137   3.584  -0.422  1.00  0.00     0.040 A 
ATOM    102  C   UNL     1      -2.054   4.190   0.415  1.00  0.00     0.040 A 
ATOM    103  C   UNL     1      -1.192   3.923  -0.645  1.00  0.00     0.123 A 
ATOM    104  F   UNL     1      -1.652   3.974  -1.901  1.00  0.00    -0.207 F 
ENDBRANCH  95  98
ENDBRANCH  94  95
ENDBRANCH  83  87
ENDBRANCH  78  81
ENDBRANCH  76  77
ENDBRANCH  75  76
ENDBRANCH   1  75
TORSDOF 17
