REMARK SMILES CCCc1nc(C[N@H+]2CCCC[C@@H]2C(=O)NCCCCNC(=O)c2ccc(-c3c4nc(c(-c5c(F)cc(S(=O)(=O)[O-])cc5F)c5ccc([nH]5)c(-c5c(F)cc(S(=O)(=O)[O-])cc5F)c5nc(c(-c6c(F)cc(S(=O)(=O)[O-])cc6F)c6ccc3[nH]6)C=C5)C=C4)cc2)cs1
REMARK SMILES IDX 18 1 17 2 16 3 14 4 15 5 13 7 8 8 9 9 10 11 12 12 11 13 7 14
REMARK SMILES IDX 6 15 4 16 5 17 91 18 90 19 3 20 2 21 1 22 19 23 20 24 21 25
REMARK SMILES IDX 22 26 23 28 24 29 25 30 89 31 26 32 88 33 27 34 28 35 29 36
REMARK SMILES IDX 82 37 30 38 87 39 81 40 83 41 31 42 86 43 80 44 79 45 32 47
REMARK SMILES IDX 66 48 45 49 65 50 46 51 49 52 64 53 84 54 47 55 48 56 63 58
REMARK SMILES IDX 85 59 50 60 33 61 34 62 43 63 35 64 36 65 42 66 44 67 37 68
REMARK SMILES IDX 38 69 39 70 40 71 41 72 67 73 68 74 77 75 69 76 70 77 76 78
REMARK SMILES IDX 78 79 71 80 72 81 73 82 74 83 75 84 51 85 52 86 61 87 53 88
REMARK SMILES IDX 54 89 60 90 62 91 55 92 56 93 57 94 58 95 59 96
REMARK H PARENT 16 6 8 10 21 27 83 46 49 57
REMARK Flexibility Score: inf
ROOT
ATOM      1  C   UNL     1      -4.474  -8.828  -1.093  1.00  0.00     0.023 C 
ENDROOT
BRANCH   1   2
ATOM      2  C   UNL     1      -3.972  -7.458  -0.635  1.00  0.00     0.116 C 
BRANCH   2   3
ATOM      3  N   UNL     1      -2.546  -7.505  -0.371  1.00  0.00    -0.351 N 
ATOM      4  C   UNL     1      -1.512  -7.016  -1.115  1.00  0.00     0.278 C 
ATOM      5  O   UNL     1      -0.363  -7.258  -0.733  1.00  0.00    -0.268 OA
ATOM      6  H   UNL     1      -2.288  -7.955   0.465  1.00  0.00     0.163 HD
BRANCH   4   7
ATOM      7  C   UNL     1      -1.760  -6.129  -2.360  1.00  0.00     0.274 C 
ATOM      8  N   UNL     1      -2.529  -4.918  -1.975  1.00  0.00    -0.320 N 
ATOM      9  C   UNL     1      -2.941  -4.100  -3.119  1.00  0.00     0.263 C 
ATOM     10  H   UNL     1      -3.382  -5.286  -1.556  1.00  0.00     0.349 HD
ATOM     11  C   UNL     1      -3.682  -4.926  -4.168  1.00  0.00     0.062 C 
ATOM     12  C   UNL     1      -2.386  -6.946  -3.501  1.00  0.00     0.076 C 
ATOM     13  C   UNL     1      -2.802  -6.064  -4.668  1.00  0.00     0.012 C 
BRANCH   8  14
ATOM     14  C   UNL     1      -1.862  -4.099  -0.934  1.00  0.00     0.321 C 
BRANCH  14  15
ATOM     15  C   UNL     1      -0.566  -3.472  -1.376  1.00  0.00     0.106 A 
ATOM     16  C   UNL     1       0.654  -1.747  -2.051  1.00  0.00     0.093 A 
ATOM     17  N   UNL     1      -0.572  -2.143  -1.783  1.00  0.00    -0.240 NA
ATOM     18  S   UNL     1       1.862  -2.964  -1.965  1.00  0.00    -0.127 S 
ATOM     19  C   UNL     1       0.686  -4.063  -1.389  1.00  0.00     0.096 A 
BRANCH  16  20
ATOM     20  C   UNL     1       1.032  -0.328  -2.335  1.00  0.00     0.067 C 
BRANCH  20  21
ATOM     21  C   UNL     1       0.562   0.617  -1.223  1.00  0.00     0.004 C 
ATOM     22  C   UNL     1       1.120   0.261   0.150  1.00  0.00     0.004 C 
ENDBRANCH  20  21
ENDBRANCH  16  20
ENDBRANCH  14  15
ENDBRANCH   8  14
ENDBRANCH   4   7
ENDBRANCH   2   3
ENDBRANCH   1   2
BRANCH   1  23
ATOM     23  C   UNL     1      -4.459  -9.896   0.000  1.00  0.00     0.023 C 
BRANCH  23  24
ATOM     24  C   UNL     1      -5.280  -9.551   1.235  1.00  0.00     0.116 C 
BRANCH  24  25
ATOM     25  N   UNL     1      -6.673  -9.277   0.919  1.00  0.00    -0.352 N 
ATOM     26  C   UNL     1      -7.803  -9.706   1.567  1.00  0.00     0.251 C 
ATOM     27  H   UNL     1      -6.826  -8.704   0.133  1.00  0.00     0.163 HD
ATOM     28  O   UNL     1      -8.907  -9.516   1.061  1.00  0.00    -0.269 OA
BRANCH  26  29
ATOM     29  C   UNL     1      -7.683 -10.417   2.857  1.00  0.00     0.039 A 
ATOM     30  C   UNL     1      -8.471 -11.548   3.080  1.00  0.00     0.014 A 
ATOM     31  C   UNL     1      -6.793  -9.975   3.840  1.00  0.00     0.014 A 
ATOM     32  C   UNL     1      -8.332 -12.258   4.272  1.00  0.00     0.010 A 
ATOM     33  C   UNL     1      -6.589 -10.737   4.984  1.00  0.00     0.010 A 
ATOM     34  C   UNL     1      -7.371 -11.875   5.223  1.00  0.00    -0.014 A 
BRANCH  34  35
ATOM     35  C   UNL     1      -7.191 -12.648   6.478  1.00  0.00     0.031 A 
ATOM     36  C   UNL     1      -7.467 -12.006   7.811  1.00  0.00     0.074 A 
ATOM     37  C   UNL     1      -6.752 -13.920   6.417  1.00  0.00     0.049 A 
ATOM     38  N   UNL     1      -7.400 -12.528   9.009  1.00  0.00    -0.248 NA
ATOM     39  C   UNL     1      -7.841 -10.583   7.800  1.00  0.00     0.031 C 
ATOM     40  C   UNL     1      -6.401 -14.634   5.188  1.00  0.00     0.029 A 
ATOM     41  N   UNL     1      -6.536 -14.842   7.409  1.00  0.00    -0.354 N 
ATOM     42  C   UNL     1      -7.716 -11.499   9.889  1.00  0.00     0.074 A 
ATOM     43  C   UNL     1      -7.900 -10.306   9.093  1.00  0.00     0.031 C 
ATOM     44  C   UNL     1      -6.071 -15.899   5.493  1.00  0.00     0.029 A 
ATOM     45  C   UNL     1      -6.147 -16.075   6.940  1.00  0.00     0.049 A 
ATOM     46  H   UNL     1      -6.649 -14.641   8.366  1.00  0.00     0.167 HD
ATOM     47  C   UNL     1      -7.871 -11.549  11.235  1.00  0.00     0.037 A 
ATOM     48  C   UNL     1      -5.895 -17.221   7.601  1.00  0.00     0.037 A 
ATOM     49  C   UNL     1      -7.692 -12.745  12.016  1.00  0.00     0.049 A 
ATOM     50  C   UNL     1      -6.050 -17.251   9.097  1.00  0.00     0.074 A 
ATOM     51  C   UNL     1      -7.872 -12.920  13.377  1.00  0.00     0.029 A 
ATOM     52  N   UNL     1      -7.278 -13.969  11.508  1.00  0.00    -0.354 N 
ATOM     53  N   UNL     1      -6.426 -16.290   9.908  1.00  0.00    -0.248 NA
ATOM     54  C   UNL     1      -5.754 -18.524   9.767  1.00  0.00     0.031 C 
ATOM     55  C   UNL     1      -7.510 -14.233  13.699  1.00  0.00     0.029 A 
ATOM     56  C   UNL     1      -7.168 -14.896  12.531  1.00  0.00     0.049 A 
ATOM     57  H   UNL     1      -7.090 -14.151  10.558  1.00  0.00     0.167 HD
ATOM     58  C   UNL     1      -6.447 -16.852  11.180  1.00  0.00     0.074 A 
ATOM     59  C   UNL     1      -6.050 -18.238  11.028  1.00  0.00     0.031 C 
ATOM     60  C   UNL     1      -6.773 -16.275  12.364  1.00  0.00     0.037 A 
BRANCH  47  61
ATOM     61  C   UNL     1      -8.240 -10.266  11.935  1.00  0.00     0.058 A 
ATOM     62  C   UNL     1      -9.480  -9.638  11.728  1.00  0.00     0.135 A 
ATOM     63  C   UNL     1      -7.335  -9.645  12.811  1.00  0.00     0.135 A 
ATOM     64  F   UNL     1     -10.382 -10.179  10.894  1.00  0.00    -0.206 F 
ATOM     65  C   UNL     1      -9.785  -8.413  12.314  1.00  0.00     0.059 A 
ATOM     66  C   UNL     1      -7.634  -8.438  13.438  1.00  0.00     0.059 A 
ATOM     67  F   UNL     1      -6.138 -10.200  13.054  1.00  0.00    -0.206 F 
ATOM     68  C   UNL     1      -8.850  -7.816  13.160  1.00  0.00     0.060 A 
BRANCH  68  69
ATOM     69  S   UNL     1      -9.239  -6.205  13.874  1.00  0.00     0.124 S 
ATOM     70  O   UNL     1      -9.101  -5.332  12.711  1.00  0.00    -0.237 OA
ATOM     71  O   UNL     1     -10.601  -6.399  14.361  1.00  0.00    -0.237 OA
ATOM     72  O   UNL     1      -8.224  -6.036  14.909  1.00  0.00    -0.744 OA
ENDBRANCH  68  69
ENDBRANCH  47  61
BRANCH  48  73
ATOM     73  C   UNL     1      -5.538 -18.448   6.840  1.00  0.00     0.058 A 
ATOM     74  C   UNL     1      -6.445 -19.514   6.736  1.00  0.00     0.135 A 
ATOM     75  C   UNL     1      -4.311 -18.568   6.171  1.00  0.00     0.135 A 
ATOM     76  F   UNL     1      -7.629 -19.450   7.364  1.00  0.00    -0.206 F 
ATOM     77  C   UNL     1      -6.148 -20.656   6.001  1.00  0.00     0.059 A 
ATOM     78  C   UNL     1      -4.000 -19.689   5.407  1.00  0.00     0.059 A 
ATOM     79  F   UNL     1      -3.415 -17.570   6.225  1.00  0.00    -0.206 F 
ATOM     80  C   UNL     1      -4.925 -20.731   5.332  1.00  0.00     0.060 A 
BRANCH  80  81
ATOM     81  S   UNL     1      -4.581 -22.188   4.323  1.00  0.00     0.124 S 
ATOM     82  O   UNL     1      -4.399 -23.216   5.341  1.00  0.00    -0.237 OA
ATOM     83  O   UNL     1      -5.795 -22.294   3.518  1.00  0.00    -0.237 OA
ATOM     84  O   UNL     1      -3.380 -21.811   3.585  1.00  0.00    -0.744 OA
ENDBRANCH  80  81
ENDBRANCH  48  73
BRANCH  60  85
ATOM     85  C   UNL     1      -6.757 -17.149  13.589  1.00  0.00     0.058 A 
ATOM     86  C   UNL     1      -5.561 -17.620  14.152  1.00  0.00     0.135 A 
ATOM     87  C   UNL     1      -7.959 -17.480  14.237  1.00  0.00     0.135 A 
ATOM     88  F   UNL     1      -4.383 -17.340  13.571  1.00  0.00    -0.206 F 
ATOM     89  C   UNL     1      -5.558 -18.408  15.299  1.00  0.00     0.059 A 
ATOM     90  C   UNL     1      -7.978 -18.239  15.402  1.00  0.00     0.059 A 
ATOM     91  F   UNL     1      -9.133 -17.047  13.748  1.00  0.00    -0.206 F 
ATOM     92  C   UNL     1      -6.772 -18.710  15.919  1.00  0.00     0.060 A 
BRANCH  92  93
ATOM     93  S   UNL     1      -6.752 -19.705  17.424  1.00  0.00     0.124 S 
ATOM     94  O   UNL     1      -6.422 -21.026  16.900  1.00  0.00    -0.237 OA
ATOM     95  O   UNL     1      -5.707 -19.057  18.212  1.00  0.00    -0.237 OA
ATOM     96  O   UNL     1      -8.106 -19.558  17.949  1.00  0.00    -0.744 OA
ENDBRANCH  92  93
ENDBRANCH  60  85
ENDBRANCH  34  35
ENDBRANCH  26  29
ENDBRANCH  24  25
ENDBRANCH  23  24
ENDBRANCH   1  23
TORSDOF 18
