REMARK SMILES C[C@@H]1SC[C@H](C(=O)NCCCCNC(=O)c2ccc(-c3c4nc(c(-c5c(F)cc(S(=O)(=O)[O-])cc5F)c5ccc([nH]5)c(-c5c(F)cc(S(=O)(=O)[O-])cc5F)c5nc(c(-c6c(F)cc(S(=O)(=O)[O-])cc6F)c6ccc3[nH]6)C=C5)C=C4)cc2)N1C(=O)N(C)[C@@H](C)Cc1cccs1
REMARK SMILES IDX 9 1 8 2 6 3 7 4 5 6 1 7 2 8 3 9 82 10 4 11 83 12 84 13 85 14
REMARK SMILES IDX 86 15 87 16 88 17 89 18 90 19 91 20 94 21 92 22 93 23 10 24
REMARK SMILES IDX 11 25 12 26 13 27 14 28 15 30 16 31 17 32 81 33 18 34 80 35
REMARK SMILES IDX 19 36 20 37 21 38 74 39 22 40 79 41 73 42 75 43 23 44 78 45
REMARK SMILES IDX 72 46 71 47 24 49 58 50 37 51 57 52 38 53 41 54 56 55 76 56
REMARK SMILES IDX 39 57 40 58 55 60 77 61 42 62 25 63 26 64 35 65 27 66 28 67
REMARK SMILES IDX 34 68 36 69 29 70 30 71 31 72 32 73 33 74 59 75 60 76 69 77
REMARK SMILES IDX 61 78 62 79 68 80 70 81 63 82 64 83 65 84 66 85 67 86 43 87
REMARK SMILES IDX 44 88 53 89 45 90 46 91 52 92 54 93 47 94 48 95 49 96 50 97
REMARK SMILES IDX 51 98
REMARK H PARENT 8 5 13 29 75 48 41 59
REMARK Flexibility Score: inf
ROOT
ATOM      1  C   UNL     1       3.561  -3.098   1.267  1.00  0.00     0.116 C 
ENDROOT
BRANCH   1   2
ATOM      2  N   UNL     1       2.716  -4.135   1.812  1.00  0.00    -0.354 N 
ATOM      3  C   UNL     1       1.416  -4.084   2.216  1.00  0.00     0.243 C 
ATOM      4  O   UNL     1       0.994  -5.056   2.855  1.00  0.00    -0.273 OA
ATOM      5  H   UNL     1       3.146  -5.015   1.907  1.00  0.00     0.163 HD
BRANCH   3   6
ATOM      6  C   UNL     1       0.564  -2.798   2.116  1.00  0.00     0.187 C 
ATOM      7  C   UNL     1       1.759   0.274   0.780  1.00  0.00     0.043 C 
ATOM      8  C   UNL     1       0.525  -0.532   1.174  1.00  0.00     0.142 C 
ATOM      9  S   UNL     1       0.294  -0.332   2.972  1.00  0.00    -0.135 SA
ATOM     10  N   UNL     1       0.616  -1.960   0.886  1.00  0.00    -0.300 N 
ATOM     11  C   UNL     1       0.958  -1.958   3.331  1.00  0.00     0.107 C 
BRANCH  10  12
ATOM     12  C   UNL     1       0.390  -2.638  -0.300  1.00  0.00     0.321 C 
ATOM     13  O   UNL     1       0.304  -3.870  -0.253  1.00  0.00    -0.248 OA
BRANCH  12  14
ATOM     14  N   UNL     1       0.343  -2.020  -1.535  1.00  0.00    -0.325 N 
ATOM     15  C   UNL     1       0.152  -0.613  -1.861  1.00  0.00     0.149 C 
BRANCH  14  16
ATOM     16  C   UNL     1       0.499  -2.879  -2.752  1.00  0.00     0.088 C 
ATOM     17  C   UNL     1       1.874  -3.566  -2.790  1.00  0.00     0.031 C 
BRANCH  16  18
ATOM     18  C   UNL     1      -0.634  -3.906  -3.016  1.00  0.00     0.071 C 
BRANCH  18  19
ATOM     19  C   UNL     1      -2.032  -3.339  -3.000  1.00  0.00     0.007 A 
ATOM     20  C   UNL     1      -3.110  -3.797  -2.266  1.00  0.00     0.015 A 
ATOM     21  S   UNL     1      -2.494  -2.039  -4.019  1.00  0.00    -0.149 S 
ATOM     22  C   UNL     1      -4.266  -2.981  -2.427  1.00  0.00     0.012 A 
ATOM     23  C   UNL     1      -4.043  -1.943  -3.303  1.00  0.00     0.065 A 
ENDBRANCH  18  19
ENDBRANCH  16  18
ENDBRANCH  14  16
ENDBRANCH  12  14
ENDBRANCH  10  12
ENDBRANCH   3   6
ENDBRANCH   1   2
BRANCH   1  24
ATOM     24  C   UNL     1       4.812  -2.898   2.119  1.00  0.00     0.023 C 
BRANCH  24  25
ATOM     25  C   UNL     1       5.771  -4.090   2.133  1.00  0.00     0.023 C 
BRANCH  25  26
ATOM     26  C   UNL     1       6.223  -4.567   0.759  1.00  0.00     0.116 C 
BRANCH  26  27
ATOM     27  N   UNL     1       6.883  -3.522  -0.010  1.00  0.00    -0.352 N 
ATOM     28  C   UNL     1       8.068  -3.580  -0.703  1.00  0.00     0.251 C 
ATOM     29  H   UNL     1       6.417  -2.655  -0.037  1.00  0.00     0.163 HD
ATOM     30  O   UNL     1       8.555  -2.557  -1.176  1.00  0.00    -0.269 OA
BRANCH  28  31
ATOM     31  C   UNL     1       8.762  -4.877  -0.846  1.00  0.00     0.039 A 
ATOM     32  C   UNL     1      10.127  -4.950  -0.564  1.00  0.00     0.014 A 
ATOM     33  C   UNL     1       8.055  -6.023  -1.220  1.00  0.00     0.014 A 
ATOM     34  C   UNL     1      10.770  -6.189  -0.590  1.00  0.00     0.010 A 
ATOM     35  C   UNL     1       8.678  -7.265  -1.167  1.00  0.00     0.010 A 
ATOM     36  C   UNL     1      10.042  -7.363  -0.852  1.00  0.00    -0.014 A 
BRANCH  36  37
ATOM     37  C   UNL     1      10.687  -8.700  -0.798  1.00  0.00     0.031 A 
ATOM     38  C   UNL     1      10.751  -9.556  -2.035  1.00  0.00     0.074 A 
ATOM     39  C   UNL     1      11.151  -9.171   0.377  1.00  0.00     0.049 A 
ATOM     40  N   UNL     1      11.204 -10.775  -2.172  1.00  0.00    -0.248 NA
ATOM     41  C   UNL     1      10.211  -8.975  -3.275  1.00  0.00     0.031 C 
ATOM     42  C   UNL     1      11.099  -8.457   1.655  1.00  0.00     0.029 A 
ATOM     43  N   UNL     1      11.748 -10.366   0.692  1.00  0.00    -0.354 N 
ATOM     44  C   UNL     1      10.991 -11.111  -3.504  1.00  0.00     0.074 A 
ATOM     45  C   UNL     1      10.319  -9.989  -4.121  1.00  0.00     0.031 C 
ATOM     46  C   UNL     1      11.660  -9.218   2.609  1.00  0.00     0.029 A 
ATOM     47  C   UNL     1      12.074 -10.488   2.023  1.00  0.00     0.049 A 
ATOM     48  H   UNL     1      11.927 -11.070   0.027  1.00  0.00     0.167 HD
ATOM     49  C   UNL     1      11.346 -12.242  -4.159  1.00  0.00     0.037 A 
ATOM     50  C   UNL     1      12.634 -11.512   2.697  1.00  0.00     0.037 A 
ATOM     51  C   UNL     1      12.038 -13.345  -3.543  1.00  0.00     0.049 A 
ATOM     52  C   UNL     1      13.016 -12.760   1.947  1.00  0.00     0.074 A 
ATOM     53  C   UNL     1      12.495 -14.510  -4.134  1.00  0.00     0.029 A 
ATOM     54  N   UNL     1      12.373 -13.420  -2.199  1.00  0.00    -0.354 N 
ATOM     55  N   UNL     1      12.869 -13.033   0.672  1.00  0.00    -0.248 NA
ATOM     56  C   UNL     1      13.647 -13.837   2.723  1.00  0.00     0.031 C 
ATOM     57  C   UNL     1      13.062 -15.311  -3.139  1.00  0.00     0.029 A 
ATOM     58  C   UNL     1      13.011 -14.622  -1.938  1.00  0.00     0.049 A 
ATOM     59  H   UNL     1      12.184 -12.723  -1.530  1.00  0.00     0.167 HD
ATOM     60  C   UNL     1      13.418 -14.298   0.488  1.00  0.00     0.074 A 
ATOM     61  C   UNL     1      13.909 -14.731   1.779  1.00  0.00     0.031 C 
ATOM     62  C   UNL     1      13.508 -15.033  -0.648  1.00  0.00     0.037 A 
BRANCH  49  63
ATOM     63  C   UNL     1      11.000 -12.345  -5.620  1.00  0.00     0.058 A 
ATOM     64  C   UNL     1      11.645 -11.557  -6.587  1.00  0.00     0.135 A 
ATOM     65  C   UNL     1      10.047 -13.275  -6.065  1.00  0.00     0.135 A 
ATOM     66  F   UNL     1      12.553 -10.640  -6.217  1.00  0.00    -0.206 F 
ATOM     67  C   UNL     1      11.341 -11.671  -7.939  1.00  0.00     0.059 A 
ATOM     68  C   UNL     1       9.748 -13.428  -7.416  1.00  0.00     0.059 A 
ATOM     69  F   UNL     1       9.398 -14.053  -5.184  1.00  0.00    -0.206 F 
ATOM     70  C   UNL     1      10.393 -12.611  -8.345  1.00  0.00     0.060 A 
BRANCH  70  71
ATOM     71  S   UNL     1      10.024 -12.758 -10.105  1.00  0.00     0.124 S 
ATOM     72  O   UNL     1       9.280 -11.525 -10.350  1.00  0.00    -0.237 OA
ATOM     73  O   UNL     1      11.356 -12.821 -10.698  1.00  0.00    -0.237 OA
ATOM     74  O   UNL     1       9.244 -13.988 -10.190  1.00  0.00    -0.744 OA
ENDBRANCH  70  71
ENDBRANCH  49  63
BRANCH  50  75
ATOM     75  C   UNL     1      12.883 -11.397   4.160  1.00  0.00     0.058 A 
ATOM     76  C   UNL     1      14.189 -11.316   4.667  1.00  0.00     0.135 A 
ATOM     77  C   UNL     1      11.824 -11.366   5.081  1.00  0.00     0.135 A 
ATOM     78  F   UNL     1      15.236 -11.347   3.828  1.00  0.00    -0.206 F 
ATOM     79  C   UNL     1      14.438 -11.233   6.033  1.00  0.00     0.059 A 
ATOM     80  C   UNL     1      12.046 -11.254   6.450  1.00  0.00     0.059 A 
ATOM     81  F   UNL     1      10.554 -11.421   4.648  1.00  0.00    -0.206 F 
ATOM     82  C   UNL     1      13.359 -11.202   6.917  1.00  0.00     0.060 A 
BRANCH  82  83
ATOM     83  S   UNL     1      13.693 -11.058   8.686  1.00  0.00     0.124 S 
ATOM     84  O   UNL     1      14.205 -12.388   8.997  1.00  0.00    -0.237 OA
ATOM     85  O   UNL     1      14.667  -9.972   8.727  1.00  0.00    -0.237 OA
ATOM     86  O   UNL     1      12.385 -10.738   9.249  1.00  0.00    -0.744 OA
ENDBRANCH  82  83
ENDBRANCH  50  75
BRANCH  62  87
ATOM     87  C   UNL     1      14.205 -16.363  -0.563  1.00  0.00     0.058 A 
ATOM     88  C   UNL     1      13.619 -17.467   0.075  1.00  0.00     0.135 A 
ATOM     89  C   UNL     1      15.453 -16.549  -1.181  1.00  0.00     0.135 A 
ATOM     90  F   UNL     1      12.430 -17.342   0.687  1.00  0.00    -0.206 F 
ATOM     91  C   UNL     1      14.255 -18.704   0.116  1.00  0.00     0.059 A 
ATOM     92  C   UNL     1      16.093 -17.784  -1.178  1.00  0.00     0.059 A 
ATOM     93  F   UNL     1      16.053 -15.529  -1.814  1.00  0.00    -0.206 F 
ATOM     94  C   UNL     1      15.491 -18.853  -0.517  1.00  0.00     0.060 A 
BRANCH  94  95
ATOM     95  S   UNL     1      16.287 -20.473  -0.489  1.00  0.00     0.124 S 
ATOM     96  O   UNL     1      16.738 -20.556   0.896  1.00  0.00    -0.237 OA
ATOM     97  O   UNL     1      15.191 -21.366  -0.854  1.00  0.00    -0.237 OA
ATOM     98  O   UNL     1      17.345 -20.350  -1.487  1.00  0.00    -0.744 OA
ENDBRANCH  94  95
ENDBRANCH  62  87
ENDBRANCH  36  37
ENDBRANCH  28  31
ENDBRANCH  26  27
ENDBRANCH  25  26
ENDBRANCH  24  25
ENDBRANCH   1  24
TORSDOF 19
