REMARK SMILES CCOC(=O)c1cccc(Nc2c(-c3ccc(C(=O)NCCCCNC(=O)c4ccc(-c5c6nc(c(-c7c(F)cc(S(=O)(=O)[O-])cc7F)c7ccc([nH]7)c(-c7c(F)cc(S(=O)(=O)[O-])cc7F)c7nc(c(-c8c(F)cc(S(=O)(=O)[O-])cc8F)c8ccc5[nH]8)C=C7)C=C6)cc4)cc3)nc3cnccn23)c1
REMARK SMILES IDX 21 1 20 2 18 3 19 4 17 6 14 7 15 8 95 9 16 10 94 11 13 12
REMARK SMILES IDX 12 13 102 14 96 15 97 16 101 17 98 18 100 19 99 20 11 21
REMARK SMILES IDX 10 23 6 24 7 25 103 26 8 27 9 28 4 29 5 30 3 31 2 32 1 33
REMARK SMILES IDX 22 34 23 35 24 36 25 37 26 38 27 40 28 41 29 42 93 43 30 44
REMARK SMILES IDX 92 45 31 46 32 47 33 48 86 49 34 50 91 51 85 52 87 53 35 54
REMARK SMILES IDX 90 55 84 56 83 57 36 59 70 60 49 61 69 62 50 63 53 64 68 65
REMARK SMILES IDX 88 66 51 67 52 68 67 70 89 71 54 72 37 73 38 74 47 75 39 76
REMARK SMILES IDX 40 77 46 78 48 79 41 80 42 81 43 82 44 83 45 84 71 85 72 86
REMARK SMILES IDX 81 87 73 88 74 89 80 90 82 91 75 92 76 93 77 94 78 95 79 96
REMARK SMILES IDX 55 97 56 98 65 99 57 100 58 101 64 102 66 103 59 104 60 105
REMARK SMILES IDX 61 106 62 107 63 108
REMARK H PARENT 20 5 11 22 25 39 87 58 53 69
REMARK Flexibility Score: inf
ROOT
ATOM      1  C   UNL     1       2.841 -12.501  -4.737  1.00  0.00     0.116 C 
ENDROOT
BRANCH   1   2
ATOM      2  N   UNL     1       3.137 -11.155  -5.185  1.00  0.00    -0.352 N 
ATOM      3  C   UNL     1       3.421 -10.005  -4.494  1.00  0.00     0.251 C 
ATOM      4  O   UNL     1       3.696  -8.995  -5.143  1.00  0.00    -0.269 OA
ATOM      5  H   UNL     1       3.135 -11.047  -6.164  1.00  0.00     0.163 HD
BRANCH   3   6
ATOM      6  C   UNL     1       3.450  -9.928  -3.006  1.00  0.00     0.039 A 
ATOM      7  C   UNL     1       3.603  -9.626  -0.210  1.00  0.00     0.004 A 
ATOM      8  C   UNL     1       4.374  -8.813  -1.045  1.00  0.00     0.011 A 
ATOM      9  C   UNL     1       2.747 -10.574  -0.770  1.00  0.00     0.011 A 
ATOM     10  C   UNL     1       4.301  -8.969  -2.433  1.00  0.00     0.014 A 
ATOM     11  C   UNL     1       2.651 -10.700  -2.158  1.00  0.00     0.014 A 
BRANCH   7  12
ATOM     12  C   UNL     1       3.648  -9.480   1.225  1.00  0.00     0.114 A 
ATOM     13  C   UNL     1       3.192  -8.370   1.923  1.00  0.00     0.143 A 
ATOM     14  N   UNL     1       3.362  -8.716   3.248  1.00  0.00    -0.283 N 
ATOM     15  N   UNL     1       4.148 -10.450   2.063  1.00  0.00    -0.225 NA
ATOM     16  C   UNL     1       3.982  -9.942   3.261  1.00  0.00     0.157 A 
ATOM     17  C   UNL     1       3.022  -8.107   4.444  1.00  0.00     0.115 A 
ATOM     18  C   UNL     1       4.325 -10.522   4.529  1.00  0.00     0.158 A 
ATOM     19  C   UNL     1       3.356  -8.723   5.592  1.00  0.00     0.129 A 
ATOM     20  N   UNL     1       4.029  -9.933   5.659  1.00  0.00    -0.259 NA
BRANCH  13  21
ATOM     21  N   UNL     1       2.615  -7.213   1.494  1.00  0.00    -0.339 N 
ATOM     22  H   UNL     1       1.723  -7.276   1.081  1.00  0.00     0.168 HD
BRANCH  21  23
ATOM     23  C   UNL     1       3.200  -5.925   1.597  1.00  0.00     0.040 A 
ATOM     24  C   UNL     1       3.159  -3.570   0.978  1.00  0.00     0.062 A 
ATOM     25  C   UNL     1       4.341  -3.349   1.690  1.00  0.00     0.016 A 
ATOM     26  C   UNL     1       2.576  -4.845   0.952  1.00  0.00     0.041 A 
ATOM     27  C   UNL     1       4.936  -4.398   2.381  1.00  0.00     0.003 A 
ATOM     28  C   UNL     1       4.371  -5.674   2.329  1.00  0.00     0.026 A 
BRANCH  24  29
ATOM     29  C   UNL     1       2.612  -2.449   0.186  1.00  0.00     0.338 C 
ATOM     30  O   UNL     1       3.319  -1.650  -0.405  1.00  0.00    -0.246 OA
BRANCH  29  31
ATOM     31  O   UNL     1       1.260  -2.428   0.274  1.00  0.00    -0.462 OA
BRANCH  31  32
ATOM     32  C   UNL     1       0.620  -1.380  -0.473  1.00  0.00     0.230 C 
ATOM     33  C   UNL     1       0.767  -0.029   0.209  1.00  0.00     0.049 C 
ENDBRANCH  31  32
ENDBRANCH  29  31
ENDBRANCH  24  29
ENDBRANCH  21  23
ENDBRANCH  13  21
ENDBRANCH   7  12
ENDBRANCH   3   6
ENDBRANCH   1   2
BRANCH   1  34
ATOM     34  C   UNL     1       1.330 -12.748  -4.716  1.00  0.00     0.023 C 
BRANCH  34  35
ATOM     35  C   UNL     1       0.715 -13.038  -6.087  1.00  0.00     0.023 C 
BRANCH  35  36
ATOM     36  C   UNL     1       1.196 -14.325  -6.747  1.00  0.00     0.116 C 
BRANCH  36  37
ATOM     37  N   UNL     1       0.952 -15.510  -5.938  1.00  0.00    -0.352 N 
ATOM     38  C   UNL     1       0.712 -16.795  -6.362  1.00  0.00     0.251 C 
ATOM     39  H   UNL     1       0.961 -15.374  -4.963  1.00  0.00     0.163 HD
ATOM     40  O   UNL     1       0.420 -17.668  -5.551  1.00  0.00    -0.269 OA
BRANCH  38  41
ATOM     41  C   UNL     1       0.764 -17.099  -7.807  1.00  0.00     0.039 A 
ATOM     42  C   UNL     1      -0.311 -17.774  -8.390  1.00  0.00     0.014 A 
ATOM     43  C   UNL     1       1.848 -16.686  -8.586  1.00  0.00     0.014 A 
ATOM     44  C   UNL     1      -0.331 -17.973  -9.771  1.00  0.00     0.010 A 
ATOM     45  C   UNL     1       1.797 -16.831  -9.968  1.00  0.00     0.010 A 
ATOM     46  C   UNL     1       0.706 -17.472 -10.574  1.00  0.00    -0.014 A 
BRANCH  46  47
ATOM     47  C   UNL     1       0.663 -17.597 -12.051  1.00  0.00     0.031 A 
ATOM     48  C   UNL     1       1.682 -18.439 -12.765  1.00  0.00     0.074 A 
ATOM     49  C   UNL     1      -0.247 -16.892 -12.751  1.00  0.00     0.049 A 
ATOM     50  N   UNL     1       1.858 -18.609 -14.050  1.00  0.00    -0.248 NA
ATOM     51  C   UNL     1       2.649 -19.164 -11.925  1.00  0.00     0.031 C 
ATOM     52  C   UNL     1      -1.252 -15.997 -12.172  1.00  0.00     0.029 A 
ATOM     53  N   UNL     1      -0.466 -16.805 -14.102  1.00  0.00    -0.354 N 
ATOM     54  C   UNL     1       2.962 -19.443 -14.174  1.00  0.00     0.074 A 
ATOM     55  C   UNL     1       3.443 -19.709 -12.835  1.00  0.00     0.031 C 
ATOM     56  C   UNL     1      -1.990 -15.464 -13.160  1.00  0.00     0.029 A 
ATOM     57  C   UNL     1      -1.492 -15.954 -14.442  1.00  0.00     0.049 A 
ATOM     58  H   UNL     1       0.061 -17.304 -14.767  1.00  0.00     0.167 HD
ATOM     59  C   UNL     1       3.512 -19.957 -15.300  1.00  0.00     0.037 A 
ATOM     60  C   UNL     1      -1.973 -15.605 -15.650  1.00  0.00     0.037 A 
ATOM     61  C   UNL     1       3.009 -19.714 -16.626  1.00  0.00     0.049 A 
ATOM     62  C   UNL     1      -1.361 -16.208 -16.885  1.00  0.00     0.074 A 
ATOM     63  C   UNL     1       3.457 -20.238 -17.826  1.00  0.00     0.029 A 
ATOM     64  N   UNL     1       1.944 -18.877 -16.927  1.00  0.00    -0.354 N 
ATOM     65  N   UNL     1      -0.356 -17.045 -16.980  1.00  0.00    -0.248 NA
ATOM     66  C   UNL     1      -1.952 -15.826 -18.175  1.00  0.00     0.031 C 
ATOM     67  C   UNL     1       2.680 -19.695 -18.856  1.00  0.00     0.029 A 
ATOM     68  C   UNL     1       1.727 -18.861 -18.295  1.00  0.00     0.049 A 
ATOM     69  H   UNL     1       1.420 -18.370 -16.266  1.00  0.00     0.167 HD
ATOM     70  C   UNL     1      -0.208 -17.307 -18.337  1.00  0.00     0.074 A 
ATOM     71  C   UNL     1      -1.234 -16.548 -19.024  1.00  0.00     0.031 C 
ATOM     72  C   UNL     1       0.696 -18.105 -18.959  1.00  0.00     0.037 A 
BRANCH  59  73
ATOM     73  C   UNL     1       4.717 -20.841 -15.141  1.00  0.00     0.058 A 
ATOM     74  C   UNL     1       4.612 -22.135 -14.608  1.00  0.00     0.135 A 
ATOM     75  C   UNL     1       5.987 -20.399 -15.546  1.00  0.00     0.135 A 
ATOM     76  F   UNL     1       3.424 -22.600 -14.190  1.00  0.00    -0.206 F 
ATOM     77  C   UNL     1       5.729 -22.950 -14.453  1.00  0.00     0.059 A 
ATOM     78  C   UNL     1       7.114 -21.207 -15.423  1.00  0.00     0.059 A 
ATOM     79  F   UNL     1       6.143 -19.170 -16.061  1.00  0.00    -0.206 F 
ATOM     80  C   UNL     1       6.976 -22.475 -14.860  1.00  0.00     0.060 A 
BRANCH  80  81
ATOM     81  S   UNL     1       8.417 -23.543 -14.649  1.00  0.00     0.124 S 
ATOM     82  O   UNL     1       8.654 -23.429 -13.214  1.00  0.00    -0.237 OA
ATOM     83  O   UNL     1       7.921 -24.836 -15.109  1.00  0.00    -0.237 OA
ATOM     84  O   UNL     1       9.425 -22.923 -15.504  1.00  0.00    -0.744 OA
ENDBRANCH  80  81
ENDBRANCH  59  73
BRANCH  60  85
ATOM     85  C   UNL     1      -3.114 -14.658 -15.748  1.00  0.00     0.058 A 
ATOM     86  C   UNL     1      -4.393 -15.109 -16.104  1.00  0.00     0.135 A 
ATOM     87  C   UNL     1      -2.954 -13.292 -15.469  1.00  0.00     0.135 A 
ATOM     88  F   UNL     1      -4.593 -16.406 -16.384  1.00  0.00    -0.206 F 
ATOM     89  C   UNL     1      -5.474 -14.238 -16.193  1.00  0.00     0.059 A 
ATOM     90  C   UNL     1      -4.024 -12.405 -15.531  1.00  0.00     0.059 A 
ATOM     91  F   UNL     1      -1.753 -12.816 -15.107  1.00  0.00    -0.206 F 
ATOM     92  C   UNL     1      -5.279 -12.886 -15.903  1.00  0.00     0.060 A 
BRANCH  92  93
ATOM     93  S   UNL     1      -6.699 -11.771 -15.968  1.00  0.00     0.124 S 
ATOM     94  O   UNL     1      -6.868 -11.596 -17.405  1.00  0.00    -0.237 OA
ATOM     95  O   UNL     1      -7.733 -12.550 -15.293  1.00  0.00    -0.237 OA
ATOM     96  O   UNL     1      -6.234 -10.597 -15.236  1.00  0.00    -0.744 OA
ENDBRANCH  92  93
ENDBRANCH  60  85
BRANCH  72  97
ATOM     97  C   UNL     1       0.598 -18.221 -20.453  1.00  0.00     0.058 A 
ATOM     98  C   UNL     1       1.030 -17.189 -21.300  1.00  0.00     0.135 A 
ATOM     99  C   UNL     1       0.116 -19.400 -21.044  1.00  0.00     0.135 A 
ATOM    100  F   UNL     1       1.492 -16.039 -20.783  1.00  0.00    -0.206 F 
ATOM    101  C   UNL     1       0.969 -17.314 -22.684  1.00  0.00     0.059 A 
ATOM    102  C   UNL     1       0.068 -19.555 -22.425  1.00  0.00     0.059 A 
ATOM    103  F   UNL     1      -0.300 -20.419 -20.276  1.00  0.00    -0.206 F 
ATOM    104  C   UNL     1       0.487 -18.502 -23.237  1.00  0.00     0.060 A 
BRANCH 104 105
ATOM    105  S   UNL     1       0.448 -18.669 -25.035  1.00  0.00     0.124 S 
ATOM    106  O   UNL     1      -0.724 -17.871 -25.378  1.00  0.00    -0.237 OA
ATOM    107  O   UNL     1       1.736 -18.107 -25.431  1.00  0.00    -0.237 OA
ATOM    108  O   UNL     1       0.311 -20.108 -25.238  1.00  0.00    -0.744 OA
ENDBRANCH 104 105
ENDBRANCH  72  97
ENDBRANCH  46  47
ENDBRANCH  38  41
ENDBRANCH  36  37
ENDBRANCH  35  36
ENDBRANCH  34  35
ENDBRANCH   1  34
TORSDOF 20
