REMARK SMILES CS(=O)(=O)N1C[C@@H]2CN(C(=O)c3ccco3)C[C@]2(C(=O)NCCCCNC(=O)c2ccc(-c3c4nc(c(-c5c(F)cc(S(=O)(=O)[O-])cc5F)c5ccc([nH]5)c(-c5c(F)cc(S(=O)(=O)[O-])cc5F)c5nc(c(-c6c(F)cc(S(=O)(=O)[O-])cc6F)c6ccc3[nH]6)C=C5)C=C4)cc2)C1
REMARK SMILES IDX 24 1 23 2 22 3 21 4 19 5 20 6 18 8 5 9 6 10 95 11 7 12 8 13
REMARK SMILES IDX 17 14 9 15 2 16 1 17 3 18 4 19 10 20 11 21 12 22 13 23 16 24
REMARK SMILES IDX 14 25 15 26 25 27 26 28 27 29 28 31 29 32 30 33 94 34 31 35
REMARK SMILES IDX 93 36 32 37 33 38 34 39 87 40 35 41 92 42 86 43 88 44 36 45
REMARK SMILES IDX 91 46 85 47 84 48 37 50 71 51 50 52 70 53 51 54 54 55 69 56
REMARK SMILES IDX 89 57 52 58 53 59 68 61 90 62 55 63 38 64 39 65 48 66 40 67
REMARK SMILES IDX 41 68 47 69 49 70 42 71 43 72 44 73 45 74 46 75 72 76 73 77
REMARK SMILES IDX 82 78 74 79 75 80 81 81 83 82 76 83 77 84 78 85 79 86 80 87
REMARK SMILES IDX 56 88 57 89 66 90 58 91 59 92 65 93 67 94 60 95 61 96 62 97
REMARK SMILES IDX 63 98 64 99
REMARK H PARENT 21 7 26 30 88 49 54 60
REMARK Flexibility Score: inf
ROOT
ATOM      1  C   UNL     1       2.575   8.869   0.578  1.00  0.00     0.023 C 
ENDROOT
BRANCH   1   2
ATOM      2  C   UNL     1       2.814   7.685  -0.345  1.00  0.00     0.023 C 
BRANCH   2   3
ATOM      3  C   UNL     1       2.395   6.335   0.216  1.00  0.00     0.116 C 
BRANCH   3   4
ATOM      4  N   UNL     1       0.963   6.185   0.071  1.00  0.00    -0.356 N 
ATOM      5  C   UNL     1       0.316   5.779  -1.073  1.00  0.00     0.229 C 
ATOM      6  O   UNL     1      -0.880   6.039  -1.203  1.00  0.00    -0.274 OA
ATOM      7  H   UNL     1       0.406   6.391   0.856  1.00  0.00     0.163 HD
BRANCH   5   8
ATOM      8  C   UNL     1       1.166   4.977  -2.089  1.00  0.00     0.086 C 
ATOM      9  N   UNL     1       0.992   2.489  -1.901  1.00  0.00    -0.201 NA
ATOM     10  C   UNL     1       1.918   2.765  -2.977  1.00  0.00     0.108 C 
ATOM     11  C   UNL     1       0.204   3.729  -1.649  1.00  0.00     0.121 C 
ATOM     12  C   UNL     1       1.467   4.147  -3.392  1.00  0.00     0.042 C 
ATOM     13  C   UNL     1       2.545   4.847  -4.180  1.00  0.00     0.126 C 
ATOM     14  C   UNL     1       1.079   6.288  -3.054  1.00  0.00     0.138 C 
ATOM     15  N   UNL     1       2.302   6.219  -3.871  1.00  0.00    -0.334 N 
BRANCH   9  16
ATOM     16  S   UNL     1       0.264   0.982  -1.762  1.00  0.00     0.211 S 
ATOM     17  C   UNL     1       0.973   0.409  -0.235  1.00  0.00     0.176 C 
ATOM     18  O   UNL     1       0.773   0.123  -2.814  1.00  0.00    -0.213 OA
ATOM     19  O   UNL     1      -1.152   1.166  -1.554  1.00  0.00    -0.213 OA
ENDBRANCH   9  16
BRANCH  15  20
ATOM     20  C   UNL     1       3.333   7.119  -4.147  1.00  0.00     0.289 C 
ATOM     21  O   UNL     1       4.301   6.723  -4.806  1.00  0.00    -0.265 OA
BRANCH  20  22
ATOM     22  C   UNL     1       3.358   8.444  -3.568  1.00  0.00     0.191 A 
ATOM     23  C   UNL     1       4.433   9.114  -3.002  1.00  0.00     0.056 A 
ATOM     24  O   UNL     1       2.265   9.266  -3.576  1.00  0.00    -0.459 OA
ATOM     25  C   UNL     1       3.973  10.395  -2.628  1.00  0.00     0.043 A 
ATOM     26  C   UNL     1       2.659  10.452  -3.031  1.00  0.00     0.196 A 
ENDBRANCH  20  22
ENDBRANCH  15  20
ENDBRANCH   5   8
ENDBRANCH   3   4
ENDBRANCH   2   3
ENDBRANCH   1   2
BRANCH   1  27
ATOM     27  C   UNL     1       3.626   8.979   1.657  1.00  0.00     0.116 C 
BRANCH  27  28
ATOM     28  N   UNL     1       4.977   9.121   1.126  1.00  0.00    -0.352 N 
ATOM     29  C   UNL     1       6.020   9.876   1.599  1.00  0.00     0.251 C 
ATOM     30  H   UNL     1       5.167   8.601   0.312  1.00  0.00     0.163 HD
ATOM     31  O   UNL     1       7.056   9.963   0.950  1.00  0.00    -0.269 OA
BRANCH  29  32
ATOM     32  C   UNL     1       5.848  10.619   2.862  1.00  0.00     0.039 A 
ATOM     33  C   UNL     1       6.329  11.924   2.952  1.00  0.00     0.014 A 
ATOM     34  C   UNL     1       5.140  10.052   3.923  1.00  0.00     0.014 A 
ATOM     35  C   UNL     1       6.038  12.678   4.087  1.00  0.00     0.010 A 
ATOM     36  C   UNL     1       4.719  10.851   4.970  1.00  0.00     0.010 A 
ATOM     37  C   UNL     1       5.194  12.161   5.085  1.00  0.00    -0.014 A 
BRANCH  37  38
ATOM     38  C   UNL     1       4.829  12.961   6.276  1.00  0.00     0.031 A 
ATOM     39  C   UNL     1       5.181  12.461   7.652  1.00  0.00     0.074 A 
ATOM     40  C   UNL     1       4.148  14.111   6.115  1.00  0.00     0.049 A 
ATOM     41  N   UNL     1       4.976  13.027   8.812  1.00  0.00    -0.248 NA
ATOM     42  C   UNL     1       5.810  11.132   7.742  1.00  0.00     0.031 C 
ATOM     43  C   UNL     1       3.686  14.652   4.833  1.00  0.00     0.029 A 
ATOM     44  N   UNL     1       3.742  15.044   7.033  1.00  0.00    -0.354 N 
ATOM     45  C   UNL     1       5.443  12.123   9.759  1.00  0.00     0.074 A 
ATOM     46  C   UNL     1       5.843  10.932   9.048  1.00  0.00     0.031 C 
ATOM     47  C   UNL     1       3.130  15.855   5.039  1.00  0.00     0.029 A 
ATOM     48  C   UNL     1       3.159  16.153   6.467  1.00  0.00     0.049 A 
ATOM     49  H   UNL     1       3.857  14.932   8.004  1.00  0.00     0.167 HD
ATOM     50  C   UNL     1       5.573  12.286  11.097  1.00  0.00     0.037 A 
ATOM     51  C   UNL     1       2.721  17.291   7.037  1.00  0.00     0.037 A 
ATOM     52  C   UNL     1       5.182  13.484  11.788  1.00  0.00     0.049 A 
ATOM     53  C   UNL     1       2.870  17.454   8.525  1.00  0.00     0.074 A 
ATOM     54  C   UNL     1       5.301  13.785  13.132  1.00  0.00     0.029 A 
ATOM     55  N   UNL     1       4.588  14.584  11.182  1.00  0.00    -0.354 N 
ATOM     56  N   UNL     1       3.381  16.621   9.401  1.00  0.00    -0.248 NA
ATOM     57  C   UNL     1       2.394  18.718   9.098  1.00  0.00     0.031 C 
ATOM     58  C   UNL     1       4.730  15.044  13.348  1.00  0.00     0.029 A 
ATOM     59  C   UNL     1       4.314  15.557  12.128  1.00  0.00     0.049 A 
ATOM     60  H   UNL     1       4.391  14.661  10.220  1.00  0.00     0.167 HD
ATOM     61  C   UNL     1       3.322  17.275  10.627  1.00  0.00     0.074 A 
ATOM     62  C   UNL     1       2.733  18.575  10.372  1.00  0.00     0.031 C 
ATOM     63  C   UNL     1       3.724  16.844  11.850  1.00  0.00     0.037 A 
BRANCH  50  64
ATOM     64  C   UNL     1       6.158  11.135  11.876  1.00  0.00     0.058 A 
ATOM     65  C   UNL     1       7.486  10.710  11.685  1.00  0.00     0.135 A 
ATOM     66  C   UNL     1       5.375  10.423  12.797  1.00  0.00     0.135 A 
ATOM     67  F   UNL     1       8.279  11.341  10.805  1.00  0.00    -0.206 F 
ATOM     68  C   UNL     1       7.992   9.586  12.329  1.00  0.00     0.059 A 
ATOM     69  C   UNL     1       5.874   9.318  13.482  1.00  0.00     0.059 A 
ATOM     70  F   UNL     1       4.101  10.781  13.024  1.00  0.00    -0.206 F 
ATOM     71  C   UNL     1       7.174   8.890  13.219  1.00  0.00     0.060 A 
BRANCH  71  72
ATOM     72  S   UNL     1       7.829   7.405  14.009  1.00  0.00     0.124 S 
ATOM     73  O   UNL     1       7.829   6.461  12.895  1.00  0.00    -0.237 OA
ATOM     74  O   UNL     1       9.143   7.847  14.464  1.00  0.00    -0.237 OA
ATOM     75  O   UNL     1       6.862   7.128  15.066  1.00  0.00    -0.744 OA
ENDBRANCH  71  72
ENDBRANCH  50  64
BRANCH  51  76
ATOM     76  C   UNL     1       2.187  18.386   6.185  1.00  0.00     0.058 A 
ATOM     77  C   UNL     1       2.922  19.567   5.996  1.00  0.00     0.135 A 
ATOM     78  C   UNL     1       0.966  18.261   5.506  1.00  0.00     0.135 A 
ATOM     79  F   UNL     1       4.095  19.735   6.624  1.00  0.00    -0.206 F 
ATOM     80  C   UNL     1       2.462  20.588   5.171  1.00  0.00     0.059 A 
ATOM     81  C   UNL     1       0.497  19.257   4.655  1.00  0.00     0.059 A 
ATOM     82  F   UNL     1       0.235  17.143   5.637  1.00  0.00    -0.206 F 
ATOM     83  C   UNL     1       1.251  20.419   4.497  1.00  0.00     0.060 A 
BRANCH  83  84
ATOM     84  S   UNL     1       0.703  21.721   3.372  1.00  0.00     0.124 S 
ATOM     85  O   UNL     1       0.354  22.788   4.304  1.00  0.00    -0.237 OA
ATOM     86  O   UNL     1       1.895  21.945   2.561  1.00  0.00    -0.237 OA
ATOM     87  O   UNL     1      -0.419  21.106   2.669  1.00  0.00    -0.744 OA
ENDBRANCH  83  84
ENDBRANCH  51  76
BRANCH  63  88
ATOM     88  C   UNL     1       3.581  17.808  12.996  1.00  0.00     0.058 A 
ATOM     89  C   UNL     1       2.327  18.170  13.512  1.00  0.00     0.135 A 
ATOM     90  C   UNL     1       4.723  18.356  13.602  1.00  0.00     0.135 A 
ATOM     91  F   UNL     1       1.203  17.677  12.968  1.00  0.00    -0.206 F 
ATOM     92  C   UNL     1       2.209  19.075  14.561  1.00  0.00     0.059 A 
ATOM     93  C   UNL     1       4.630  19.235  14.675  1.00  0.00     0.059 A 
ATOM     94  F   UNL     1       5.948  18.031  13.158  1.00  0.00    -0.206 F 
ATOM     95  C   UNL     1       3.367  19.604  15.135  1.00  0.00     0.060 A 
BRANCH  95  96
ATOM     96  S   UNL     1       3.200  20.774  16.498  1.00  0.00     0.124 S 
ATOM     97  O   UNL     1       2.727  21.967  15.805  1.00  0.00    -0.237 OA
ATOM     98  O   UNL     1       2.225  20.111  17.359  1.00  0.00    -0.237 OA
ATOM     99  O   UNL     1       4.553  20.858  17.041  1.00  0.00    -0.744 OA
ENDBRANCH  95  96
ENDBRANCH  63  88
ENDBRANCH  37  38
ENDBRANCH  29  32
ENDBRANCH  27  28
ENDBRANCH   1  27
TORSDOF 17
