REMARK SMILES COc1ccc(S(=O)(=O)N2CCC[C@H](C(=O)N3CCC[C@H](C(=O)NCCCCNC(=O)c4ccc(-c5c6nc(c(-c7c(F)cc(S(=O)(=O)[O-])cc7F)c7ccc([nH]7)c(-c7c(F)cc(S(=O)(=O)[O-])cc7F)c7nc(c(-c8c(F)cc(S(=O)(=O)[O-])cc8F)c8ccc5[nH]8)C=C7)C=C6)cc4)C3)C2)cc1
REMARK SMILES IDX 25 1 24 2 22 3 23 4 21 6 17 7 18 8 98 9 19 10 20 11 15 12
REMARK SMILES IDX 16 13 14 14 10 15 11 16 99 17 12 18 13 19 7 20 8 21 9 22
REMARK SMILES IDX 6 23 3 24 4 25 101 26 5 27 100 28 2 29 1 30 26 31 27 32
REMARK SMILES IDX 28 33 29 34 30 35 31 37 32 38 33 39 97 40 34 41 96 42 35 43
REMARK SMILES IDX 36 44 37 45 90 46 38 47 95 48 89 49 91 50 39 51 94 52 88 53
REMARK SMILES IDX 87 54 40 56 74 57 53 58 73 59 54 60 57 61 72 62 92 63 55 64
REMARK SMILES IDX 56 65 71 67 93 68 58 69 41 70 42 71 51 72 43 73 44 74 50 75
REMARK SMILES IDX 52 76 45 77 46 78 47 79 48 80 49 81 75 82 76 83 85 84 77 85
REMARK SMILES IDX 78 86 84 87 86 88 79 89 80 90 81 91 82 92 83 93 59 94 60 95
REMARK SMILES IDX 69 96 61 97 62 98 68 99 70 100 63 101 64 102 65 103 66 104
REMARK SMILES IDX 67 105
REMARK H PARENT 24 5 29 36 91 55 57 66
REMARK Flexibility Score: inf
ROOT
ATOM      1  C   UNL     1       8.154 -10.516   1.390  1.00  0.00     0.116 C 
ENDROOT
BRANCH   1   2
ATOM      2  N   UNL     1       8.700 -10.761   0.077  1.00  0.00    -0.356 N 
ATOM      3  C   UNL     1       8.138 -10.571  -1.143  1.00  0.00     0.224 C 
ATOM      4  O   UNL     1       8.886 -10.662  -2.123  1.00  0.00    -0.275 OA
ATOM      5  H   UNL     1       9.617 -11.120   0.065  1.00  0.00     0.163 HD
BRANCH   3   6
ATOM      6  C   UNL     1       6.653 -10.252  -1.364  1.00  0.00     0.098 C 
ATOM      7  N   UNL     1       5.546  -8.729   0.306  1.00  0.00    -0.342 N 
ATOM      8  C   UNL     1       4.481  -9.694   0.558  1.00  0.00     0.119 C 
ATOM      9  C   UNL     1       6.237  -8.832  -0.970  1.00  0.00     0.133 C 
ATOM     10  C   UNL     1       4.917 -11.138   0.347  1.00  0.00     0.022 C 
ATOM     11  C   UNL     1       5.670 -11.356  -0.963  1.00  0.00     0.017 C 
BRANCH   7  12
ATOM     12  C   UNL     1       5.967  -7.923   1.346  1.00  0.00     0.227 C 
ATOM     13  O   UNL     1       6.112  -8.389   2.482  1.00  0.00    -0.275 OA
BRANCH  12  14
ATOM     14  C   UNL     1       6.002  -6.404   1.175  1.00  0.00     0.094 C 
ATOM     15  N   UNL     1       3.613  -6.161   0.612  1.00  0.00    -0.197 NA
ATOM     16  C   UNL     1       3.877  -5.886  -0.811  1.00  0.00     0.102 C 
ATOM     17  C   UNL     1       4.646  -5.871   1.623  1.00  0.00     0.116 C 
ATOM     18  C   UNL     1       5.332  -5.653  -1.202  1.00  0.00     0.018 C 
ATOM     19  C   UNL     1       6.404  -5.727  -0.122  1.00  0.00     0.016 C 
BRANCH  15  20
ATOM     20  S   UNL     1       1.989  -6.155   1.110  1.00  0.00     0.243 S 
ATOM     21  O   UNL     1       1.915  -6.634   2.466  1.00  0.00    -0.207 OA
ATOM     22  O   UNL     1       1.219  -6.777   0.044  1.00  0.00    -0.207 OA
BRANCH  20  23
ATOM     23  C   UNL     1       1.485  -4.446   1.140  1.00  0.00     0.082 A 
ATOM     24  C   UNL     1       0.539  -1.819   1.028  1.00  0.00     0.118 A 
ATOM     25  C   UNL     1      -0.334  -2.867   1.329  1.00  0.00     0.048 A 
ATOM     26  C   UNL     1       1.895  -2.082   0.842  1.00  0.00     0.048 A 
ATOM     27  C   UNL     1       0.132  -4.182   1.376  1.00  0.00     0.025 A 
ATOM     28  C   UNL     1       2.367  -3.394   0.892  1.00  0.00     0.025 A 
BRANCH  24  29
ATOM     29  O   UNL     1      -0.022  -0.574   0.955  1.00  0.00    -0.497 OA
ATOM     30  C   UNL     1       0.614   0.309   0.034  1.00  0.00     0.278 C 
ENDBRANCH  24  29
ENDBRANCH  20  23
ENDBRANCH  15  20
ENDBRANCH  12  14
ENDBRANCH   7  12
ENDBRANCH   3   6
ENDBRANCH   1   2
BRANCH   1  31
ATOM     31  C   UNL     1       8.127 -11.744   2.290  1.00  0.00     0.023 C 
BRANCH  31  32
ATOM     32  C   UNL     1       9.272 -11.812   3.292  1.00  0.00     0.023 C 
BRANCH  32  33
ATOM     33  C   UNL     1       9.395 -10.615   4.232  1.00  0.00     0.116 C 
BRANCH  33  34
ATOM     34  N   UNL     1       8.210 -10.347   5.037  1.00  0.00    -0.352 N 
ATOM     35  C   UNL     1       8.166  -9.984   6.368  1.00  0.00     0.251 C 
ATOM     36  H   UNL     1       7.342 -10.434   4.580  1.00  0.00     0.163 HD
ATOM     37  O   UNL     1       7.104  -9.858   6.966  1.00  0.00    -0.269 OA
BRANCH  35  38
ATOM     38  C   UNL     1       9.448  -9.785   7.074  1.00  0.00     0.039 A 
ATOM     39  C   UNL     1       9.737 -10.562   8.197  1.00  0.00     0.014 A 
ATOM     40  C   UNL     1      10.408  -8.925   6.533  1.00  0.00     0.014 A 
ATOM     41  C   UNL     1      11.033 -10.553   8.717  1.00  0.00     0.010 A 
ATOM     42  C   UNL     1      11.715  -8.981   7.002  1.00  0.00     0.010 A 
ATOM     43  C   UNL     1      12.045  -9.807   8.089  1.00  0.00    -0.014 A 
BRANCH  43  44
ATOM     44  C   UNL     1      13.461  -9.894   8.529  1.00  0.00     0.031 A 
ATOM     45  C   UNL     1      14.167  -8.667   9.037  1.00  0.00     0.074 A 
ATOM     46  C   UNL     1      14.137 -11.052   8.384  1.00  0.00     0.049 A 
ATOM     47  N   UNL     1      15.421  -8.516   9.375  1.00  0.00    -0.248 NA
ATOM     48  C   UNL     1      13.364  -7.438   9.142  1.00  0.00     0.031 C 
ATOM     49  C   UNL     1      13.587 -12.296   7.839  1.00  0.00     0.029 A 
ATOM     50  N   UNL     1      15.442 -11.370   8.672  1.00  0.00    -0.354 N 
ATOM     51  C   UNL     1      15.564  -7.174   9.705  1.00  0.00     0.074 A 
ATOM     52  C   UNL     1      14.282  -6.544   9.479  1.00  0.00     0.031 C 
ATOM     53  C   UNL     1      14.536 -13.246   7.859  1.00  0.00     0.029 A 
ATOM     54  C   UNL     1      15.771 -12.675   8.386  1.00  0.00     0.049 A 
ATOM     55  H   UNL     1      16.082 -10.724   9.049  1.00  0.00     0.167 HD
ATOM     56  C   UNL     1      16.657  -6.530  10.177  1.00  0.00     0.037 A 
ATOM     57  C   UNL     1      16.936 -13.335   8.533  1.00  0.00     0.037 A 
ATOM     58  C   UNL     1      17.916  -7.171  10.448  1.00  0.00     0.049 A 
ATOM     59  C   UNL     1      18.125 -12.609   9.100  1.00  0.00     0.074 A 
ATOM     60  C   UNL     1      19.059  -6.623  11.004  1.00  0.00     0.029 A 
ATOM     61  N   UNL     1      18.196  -8.505  10.189  1.00  0.00    -0.354 N 
ATOM     62  N   UNL     1      18.223 -11.355   9.473  1.00  0.00    -0.248 NA
ATOM     63  C   UNL     1      19.360 -13.386   9.273  1.00  0.00     0.031 C 
ATOM     64  C   UNL     1      20.039  -7.620  11.057  1.00  0.00     0.029 A 
ATOM     65  C   UNL     1      19.496  -8.796  10.564  1.00  0.00     0.049 A 
ATOM     66  H   UNL     1      17.563  -9.149   9.797  1.00  0.00     0.167 HD
ATOM     67  C   UNL     1      19.520 -11.200   9.948  1.00  0.00     0.074 A 
ATOM     68  C   UNL     1      20.168 -12.490   9.824  1.00  0.00     0.031 C 
ATOM     69  C   UNL     1      20.120 -10.090  10.444  1.00  0.00     0.037 A 
BRANCH  56  70
ATOM     70  C   UNL     1      16.530  -5.056  10.441  1.00  0.00     0.058 A 
ATOM     71  C   UNL     1      15.771  -4.565  11.515  1.00  0.00     0.135 A 
ATOM     72  C   UNL     1      17.184  -4.124   9.620  1.00  0.00     0.135 A 
ATOM     73  F   UNL     1      15.111  -5.413  12.320  1.00  0.00    -0.206 F 
ATOM     74  C   UNL     1      15.633  -3.200  11.745  1.00  0.00     0.059 A 
ATOM     75  C   UNL     1      17.083  -2.754   9.848  1.00  0.00     0.059 A 
ATOM     76  F   UNL     1      17.923  -4.539   8.579  1.00  0.00    -0.206 F 
ATOM     77  C   UNL     1      16.289  -2.302  10.902  1.00  0.00     0.060 A 
BRANCH  77  78
ATOM     78  S   UNL     1      16.096  -0.533  11.205  1.00  0.00     0.124 S 
ATOM     79  O   UNL     1      14.758  -0.293  10.673  1.00  0.00    -0.237 OA
ATOM     80  O   UNL     1      16.226  -0.446  12.656  1.00  0.00    -0.237 OA
ATOM     81  O   UNL     1      17.190   0.062  10.444  1.00  0.00    -0.744 OA
ENDBRANCH  77  78
ENDBRANCH  56  70
BRANCH  57  82
ATOM     82  C   UNL     1      17.027 -14.775   8.174  1.00  0.00     0.058 A 
ATOM     83  C   UNL     1      17.107 -15.757   9.173  1.00  0.00     0.135 A 
ATOM     84  C   UNL     1      17.026 -15.200   6.837  1.00  0.00     0.135 A 
ATOM     85  F   UNL     1      17.117 -15.399  10.466  1.00  0.00    -0.206 F 
ATOM     86  C   UNL     1      17.200 -17.109   8.860  1.00  0.00     0.059 A 
ATOM     87  C   UNL     1      17.097 -16.548   6.499  1.00  0.00     0.059 A 
ATOM     88  F   UNL     1      16.935 -14.300   5.846  1.00  0.00    -0.206 F 
ATOM     89  C   UNL     1      17.194 -17.495   7.519  1.00  0.00     0.060 A 
BRANCH  89  90
ATOM     90  S   UNL     1      17.267 -19.256   7.123  1.00  0.00     0.124 S 
ATOM     91  O   UNL     1      18.674 -19.553   7.364  1.00  0.00    -0.237 OA
ATOM     92  O   UNL     1      16.321 -19.827   8.077  1.00  0.00    -0.237 OA
ATOM     93  O   UNL     1      16.840 -19.302   5.727  1.00  0.00    -0.744 OA
ENDBRANCH  89  90
ENDBRANCH  57  82
BRANCH  69  94
ATOM     94  C   UNL     1      21.537 -10.226  10.921  1.00  0.00     0.058 A 
ATOM     95  C   UNL     1      22.610 -10.313  10.021  1.00  0.00     0.135 A 
ATOM     96  C   UNL     1      21.828 -10.212  12.294  1.00  0.00     0.135 A 
ATOM     97  F   UNL     1      22.382 -10.337   8.698  1.00  0.00    -0.206 F 
ATOM     98  C   UNL     1      23.925 -10.398  10.467  1.00  0.00     0.059 A 
ATOM     99  C   UNL     1      23.137 -10.274  12.762  1.00  0.00     0.059 A 
ATOM    100  F   UNL     1      20.837 -10.122  13.195  1.00  0.00    -0.206 F 
ATOM    101  C   UNL     1      24.178 -10.376  11.840  1.00  0.00     0.060 A 
BRANCH 101 102
ATOM    102  S   UNL     1      25.890 -10.444  12.408  1.00  0.00     0.124 S 
ATOM    103  O   UNL     1      26.200 -11.860  12.238  1.00  0.00    -0.237 OA
ATOM    104  O   UNL     1      26.564  -9.533  11.488  1.00  0.00    -0.237 OA
ATOM    105  O   UNL     1      25.807  -9.980  13.790  1.00  0.00    -0.744 OA
ENDBRANCH 101 102
ENDBRANCH  69  94
ENDBRANCH  43  44
ENDBRANCH  35  38
ENDBRANCH  33  34
ENDBRANCH  32  33
ENDBRANCH  31  32
ENDBRANCH   1  31
TORSDOF 19
