REMARK SMILES CC(C)[C@H](NC(=O)[C@H](C)NC(=O)CNC(=O)OCc1ccccc1)C(=O)NCCCCNC(=O)c1ccc(-c2c3nc(c(-c4c(F)cc(S(=O)(=O)[O-])cc4F)c4ccc([nH]4)c(-c4c(F)cc(S(=O)(=O)[O-])cc4F)c4nc(c(-c5c(F)cc(S(=O)(=O)[O-])cc5F)c5ccc2[nH]5)C=C4)C=C3)cc1
REMARK SMILES IDX 25 1 26 2 27 3 4 5 2 6 1 7 3 8 5 9 6 10 7 12 8 13 9 14 10 15
REMARK SMILES IDX 11 16 12 18 13 19 14 20 15 21 16 23 17 24 18 25 19 26 20 27
REMARK SMILES IDX 24 28 21 29 23 30 22 31 28 32 29 33 30 34 31 35 32 36 33 37
REMARK SMILES IDX 34 39 35 40 36 41 100 42 37 43 99 44 38 45 39 46 40 47 93 48
REMARK SMILES IDX 41 49 98 50 92 51 94 52 42 53 97 54 91 55 90 56 43 58 77 59
REMARK SMILES IDX 56 60 76 61 57 62 60 63 75 64 95 65 58 66 59 67 74 69 96 70
REMARK SMILES IDX 61 71 44 72 45 73 54 74 46 75 47 76 53 77 55 78 48 79 49 80
REMARK SMILES IDX 50 81 51 82 52 83 78 84 79 85 88 86 80 87 81 88 87 89 89 90
REMARK SMILES IDX 82 91 83 92 84 93 85 94 86 95 62 96 63 97 72 98 64 99 65 100
REMARK SMILES IDX 71 101 73 102 66 103 67 104 68 105 69 106 70 107
REMARK H PARENT 27 4 5 11 10 17 14 22 32 38 94 57 60 68
REMARK Flexibility Score: inf
ROOT
ATOM      1  C   UNL     1       0.663  -0.948  -0.397  1.00  0.00     0.242 C 
ATOM      2  O   UNL     1       1.496  -0.272   0.216  1.00  0.00    -0.273 OA
ATOM      3  N   UNL     1       0.997  -2.234  -0.677  1.00  0.00    -0.354 N 
ATOM      4  H   UNL     1       1.956  -2.440  -0.597  1.00  0.00     0.163 HD
ENDROOT
BRANCH   1   5
ATOM      5  C   UNL     1      -0.731  -0.356  -0.714  1.00  0.00     0.173 C 
BRANCH   5   6
ATOM      6  C   UNL     1      -1.774  -0.585   0.433  1.00  0.00     0.015 C 
ATOM      7  C   UNL     1      -2.791  -1.714   0.230  1.00  0.00     0.010 C 
ATOM      8  C   UNL     1      -1.127  -0.756   1.815  1.00  0.00     0.010 C 
ENDBRANCH   5   6
BRANCH   5   9
ATOM      9  N   UNL     1      -1.209  -0.734  -2.048  1.00  0.00    -0.342 N 
ATOM     10  C   UNL     1      -0.828  -0.416  -3.307  1.00  0.00     0.242 C 
ATOM     11  H   UNL     1      -1.973  -1.355  -2.022  1.00  0.00     0.164 HD
ATOM     12  O   UNL     1      -1.498  -0.960  -4.197  1.00  0.00    -0.273 OA
BRANCH  10  13
ATOM     13  C   UNL     1       0.258   0.610  -3.714  1.00  0.00     0.168 C 
ATOM     14  C   UNL     1       1.294   1.071  -2.711  1.00  0.00     0.041 C 
BRANCH  13  15
ATOM     15  N   UNL     1      -0.420   1.763  -4.312  1.00  0.00    -0.343 N 
ATOM     16  C   UNL     1      -0.219   2.340  -5.534  1.00  0.00     0.240 C 
ATOM     17  H   UNL     1      -1.118   2.180  -3.756  1.00  0.00     0.164 HD
ATOM     18  O   UNL     1      -0.999   3.228  -5.890  1.00  0.00    -0.273 OA
BRANCH  16  19
ATOM     19  C   UNL     1       0.909   1.855  -6.458  1.00  0.00     0.219 C 
BRANCH  19  20
ATOM     20  N   UNL     1       2.196   1.978  -5.801  1.00  0.00    -0.312 N 
ATOM     21  C   UNL     1       3.108   0.987  -5.604  1.00  0.00     0.407 C 
ATOM     22  H   UNL     1       2.435   2.872  -5.463  1.00  0.00     0.167 HD
ATOM     23  O   UNL     1       3.974   1.110  -4.749  1.00  0.00    -0.225 OA
BRANCH  21  24
ATOM     24  O   UNL     1       2.905  -0.101  -6.380  1.00  0.00    -0.445 OA
BRANCH  24  25
ATOM     25  C   UNL     1       3.680  -1.265  -6.044  1.00  0.00     0.270 C 
BRANCH  25  26
ATOM     26  C   UNL     1       4.994  -1.385  -6.784  1.00  0.00    -0.011 A 
ATOM     27  C   UNL     1       5.328  -2.585  -7.433  1.00  0.00     0.007 A 
ATOM     28  C   UNL     1       5.956  -0.365  -6.742  1.00  0.00     0.007 A 
ATOM     29  C   UNL     1       6.585  -2.755  -8.021  1.00  0.00     0.000 A 
ATOM     30  C   UNL     1       7.210  -0.534  -7.333  1.00  0.00     0.000 A 
ATOM     31  C   UNL     1       7.525  -1.730  -7.969  1.00  0.00     0.000 A 
ENDBRANCH  25  26
ENDBRANCH  24  25
ENDBRANCH  21  24
ENDBRANCH  19  20
ENDBRANCH  16  19
ENDBRANCH  13  15
ENDBRANCH  10  13
ENDBRANCH   5   9
ENDBRANCH   1   5
BRANCH   3  32
ATOM     32  C   UNL     1       0.166  -3.348  -1.075  1.00  0.00     0.116 C 
BRANCH  32  33
ATOM     33  C   UNL     1       0.729  -4.125  -2.258  1.00  0.00     0.023 C 
BRANCH  33  34
ATOM     34  C   UNL     1       2.119  -4.722  -2.051  1.00  0.00     0.023 C 
BRANCH  34  35
ATOM     35  C   UNL     1       2.344  -5.440  -0.725  1.00  0.00     0.116 C 
BRANCH  35  36
ATOM     36  N   UNL     1       1.382  -6.503  -0.467  1.00  0.00    -0.352 N 
ATOM     37  C   UNL     1       1.611  -7.812  -0.113  1.00  0.00     0.251 C 
ATOM     38  H   UNL     1       0.435  -6.248  -0.558  1.00  0.00     0.163 HD
ATOM     39  O   UNL     1       0.676  -8.597  -0.002  1.00  0.00    -0.269 OA
BRANCH  37  40
ATOM     40  C   UNL     1       3.001  -8.269   0.076  1.00  0.00     0.039 A 
ATOM     41  C   UNL     1       3.459  -9.353  -0.675  1.00  0.00     0.014 A 
ATOM     42  C   UNL     1       3.868  -7.566   0.916  1.00  0.00     0.014 A 
ATOM     43  C   UNL     1       4.819  -9.666  -0.667  1.00  0.00     0.010 A 
ATOM     44  C   UNL     1       5.232  -7.835   0.868  1.00  0.00     0.010 A 
ATOM     45  C   UNL     1       5.722  -8.871   0.057  1.00  0.00    -0.014 A 
BRANCH  45  46
ATOM     46  C   UNL     1       7.189  -9.067  -0.054  1.00  0.00     0.031 A 
ATOM     47  C   UNL     1       7.990  -9.460   1.153  1.00  0.00     0.074 A 
ATOM     48  C   UNL     1       7.809  -8.796  -1.221  1.00  0.00     0.049 A 
ATOM     49  N   UNL     1       9.287  -9.553   1.289  1.00  0.00    -0.248 NA
ATOM     50  C   UNL     1       7.231  -9.762   2.377  1.00  0.00     0.031 C 
ATOM     51  C   UNL     1       7.144  -8.366  -2.454  1.00  0.00     0.029 A 
ATOM     52  N   UNL     1       9.139  -8.822  -1.556  1.00  0.00    -0.354 N 
ATOM     53  C   UNL     1       9.503  -9.909   2.614  1.00  0.00     0.074 A 
ATOM     54  C   UNL     1       8.205  -9.969   3.252  1.00  0.00     0.031 C 
ATOM     55  C   UNL     1       8.066  -8.188  -3.413  1.00  0.00     0.029 A 
ATOM     56  C   UNL     1       9.390  -8.445  -2.854  1.00  0.00     0.049 A 
ATOM     57  H   UNL     1       9.848  -9.086  -0.926  1.00  0.00     0.167 HD
ATOM     58  C   UNL     1      10.674 -10.182   3.236  1.00  0.00     0.037 A 
ATOM     59  C   UNL     1      10.555  -8.304  -3.516  1.00  0.00     0.037 A 
ATOM     60  C   UNL     1      11.959 -10.139   2.590  1.00  0.00     0.049 A 
ATOM     61  C   UNL     1      11.845  -8.583  -2.797  1.00  0.00     0.074 A 
ATOM     62  C   UNL     1      13.199 -10.453   3.119  1.00  0.00     0.029 A 
ATOM     63  N   UNL     1      12.171  -9.755   1.274  1.00  0.00    -0.354 N 
ATOM     64  N   UNL     1      12.029  -8.969  -1.557  1.00  0.00    -0.248 NA
ATOM     65  C   UNL     1      13.087  -8.401  -3.563  1.00  0.00     0.031 C 
ATOM     66  C   UNL     1      14.165 -10.223   2.132  1.00  0.00     0.029 A 
ATOM     67  C   UNL     1      13.523  -9.802   0.978  1.00  0.00     0.049 A 
ATOM     68  H   UNL     1      11.464  -9.489   0.643  1.00  0.00     0.167 HD
ATOM     69  C   UNL     1      13.404  -9.093  -1.398  1.00  0.00     0.074 A 
ATOM     70  C   UNL     1      14.005  -8.751  -2.671  1.00  0.00     0.031 C 
ATOM     71  C   UNL     1      14.104  -9.459  -0.296  1.00  0.00     0.037 A 
BRANCH  58  72
ATOM     72  C   UNL     1      10.609 -10.554   4.690  1.00  0.00     0.058 A 
ATOM     73  C   UNL     1      10.085 -11.787   5.109  1.00  0.00     0.135 A 
ATOM     74  C   UNL     1      11.076  -9.671   5.677  1.00  0.00     0.135 A 
ATOM     75  F   UNL     1       9.610 -12.661   4.207  1.00  0.00    -0.206 F 
ATOM     76  C   UNL     1       9.988 -12.116   6.457  1.00  0.00     0.059 A 
ATOM     77  C   UNL     1      11.013  -9.990   7.030  1.00  0.00     0.059 A 
ATOM     78  F   UNL     1      11.588  -8.479   5.331  1.00  0.00    -0.206 F 
ATOM     79  C   UNL     1      10.448 -11.207   7.411  1.00  0.00     0.060 A 
BRANCH  79  80
ATOM     80  S   UNL     1      10.292 -11.636   9.157  1.00  0.00     0.124 S 
ATOM     81  O   UNL     1       8.867 -11.416   9.383  1.00  0.00    -0.237 OA
ATOM     82  O   UNL     1      10.729 -13.028   9.179  1.00  0.00    -0.237 OA
ATOM     83  O   UNL     1      11.186 -10.691   9.819  1.00  0.00    -0.744 OA
ENDBRANCH  79  80
ENDBRANCH  58  72
BRANCH  59  84
ATOM     84  C   UNL     1      10.548  -7.890  -4.944  1.00  0.00     0.058 A 
ATOM     85  C   UNL     1      10.849  -8.810  -5.958  1.00  0.00     0.135 A 
ATOM     86  C   UNL     1      10.209  -6.582  -5.324  1.00  0.00     0.135 A 
ATOM     87  F   UNL     1      11.188 -10.069  -5.642  1.00  0.00    -0.206 F 
ATOM     88  C   UNL     1      10.816  -8.450  -7.301  1.00  0.00     0.059 A 
ATOM     89  C   UNL     1      10.148  -6.204  -6.662  1.00  0.00     0.059 A 
ATOM     90  F   UNL     1       9.899  -5.669  -4.391  1.00  0.00    -0.206 F 
ATOM     91  C   UNL     1      10.458  -7.144  -7.644  1.00  0.00     0.060 A 
BRANCH  91  92
ATOM     92  S   UNL     1      10.338  -6.705  -9.392  1.00  0.00     0.124 S 
ATOM     93  O   UNL     1      11.743  -6.570  -9.757  1.00  0.00    -0.237 OA
ATOM     94  O   UNL     1       9.640  -7.857  -9.953  1.00  0.00    -0.237 OA
ATOM     95  O   UNL     1       9.566  -5.465  -9.372  1.00  0.00    -0.744 OA
ENDBRANCH  91  92
ENDBRANCH  59  84
BRANCH  71  96
ATOM     96  C   UNL     1      15.600  -9.526  -0.418  1.00  0.00     0.058 A 
ATOM     97  C   UNL     1      16.386  -8.364  -0.429  1.00  0.00     0.135 A 
ATOM     98  C   UNL     1      16.257 -10.766  -0.450  1.00  0.00     0.135 A 
ATOM     99  F   UNL     1      15.805  -7.154  -0.411  1.00  0.00    -0.206 F 
ATOM    100  C   UNL     1      17.775  -8.429  -0.474  1.00  0.00     0.059 A 
ATOM    101  C   UNL     1      17.645 -10.855  -0.473  1.00  0.00     0.059 A 
ATOM    102  F   UNL     1      15.548 -11.907  -0.435  1.00  0.00    -0.206 F 
ATOM    103  C   UNL     1      18.395  -9.681  -0.490  1.00  0.00     0.060 A 
BRANCH 103 104
ATOM    104  S   UNL     1      20.200  -9.752  -0.487  1.00  0.00     0.124 S 
ATOM    105  O   UNL     1      20.511  -9.387  -1.865  1.00  0.00    -0.237 OA
ATOM    106  O   UNL     1      20.551  -8.762   0.526  1.00  0.00    -0.237 OA
ATOM    107  O   UNL     1      20.483 -11.138  -0.124  1.00  0.00    -0.744 OA
ENDBRANCH 103 104
ENDBRANCH  71  96
ENDBRANCH  45  46
ENDBRANCH  37  40
ENDBRANCH  35  36
ENDBRANCH  34  35
ENDBRANCH  33  34
ENDBRANCH  32  33
ENDBRANCH   3  32
TORSDOF 23
