REMARK SMILES O=C(NCCCCNC(=O)c1nccnc1C(=O)Nc1n[nH]c2ncccc12)c1ccc(-c2c3nc(c(-c4c(F)cc(S(=O)(=O)[O-])cc4F)c4ccc([nH]4)c(-c4c(F)cc(S(=O)(=O)[O-])cc4F)c4nc(c(-c5c(F)cc(S(=O)(=O)[O-])cc5F)c5ccc2[nH]5)C=C4)C=C3)cc1
REMARK SMILES IDX 5 1 4 2 3 3 1 4 2 5 29 7 30 8 94 9 31 10 93 11 32 12 33 13
REMARK SMILES IDX 34 14 87 15 35 16 92 17 86 18 88 19 36 20 91 21 85 22 84 23
REMARK SMILES IDX 37 25 71 26 50 27 70 28 51 29 54 30 69 31 89 32 52 33 53 34
REMARK SMILES IDX 68 36 90 37 55 38 38 39 39 40 48 41 40 42 41 43 47 44 49 45
REMARK SMILES IDX 42 46 43 47 44 48 45 49 46 50 72 51 73 52 82 53 74 54 75 55
REMARK SMILES IDX 81 56 83 57 76 58 77 59 78 60 79 61 80 62 56 63 57 64 66 65
REMARK SMILES IDX 58 66 59 67 65 68 67 69 60 70 61 71 62 72 63 73 64 74 6 75
REMARK SMILES IDX 7 76 8 77 9 78 10 80 11 81 12 82 16 83 13 84 15 85 14 86
REMARK SMILES IDX 17 87 18 88 19 89 20 91 21 92 28 93 22 94 23 95 27 96 24 98
REMARK SMILES IDX 26 99 25 100
REMARK H PARENT 3 6 88 24 54 35 8 79 19 90 22 97
REMARK Flexibility Score: inf
ROOT
ATOM      1  C   UNL     1       5.380  -0.235   2.017  1.00  0.00     0.023 C 
ENDROOT
BRANCH   1   2
ATOM      2  C   UNL     1       4.552  -0.145   0.742  1.00  0.00     0.116 C 
BRANCH   2   3
ATOM      3  N   UNL     1       3.105  -0.204   0.904  1.00  0.00    -0.352 N 
ATOM      4  O   UNL     1       0.974  -0.104   0.132  1.00  0.00    -0.269 OA
ATOM      5  C   UNL     1       2.164   0.123  -0.045  1.00  0.00     0.251 C 
ATOM      6  H   UNL     1       2.768  -0.508   1.778  1.00  0.00     0.163 HD
BRANCH   5   7
ATOM      7  C   UNL     1       2.639   0.886  -1.214  1.00  0.00     0.039 A 
ATOM      8  C   UNL     1       3.669   0.388  -2.015  1.00  0.00     0.014 A 
ATOM      9  C   UNL     1       2.213   2.210  -1.323  1.00  0.00     0.014 A 
ATOM     10  C   UNL     1       4.403   1.272  -2.792  1.00  0.00     0.010 A 
ATOM     11  C   UNL     1       2.875   3.064  -2.198  1.00  0.00     0.010 A 
ATOM     12  C   UNL     1       4.000   2.612  -2.908  1.00  0.00    -0.014 A 
BRANCH  12  13
ATOM     13  C   UNL     1       4.697   3.526  -3.841  1.00  0.00     0.031 A 
ATOM     14  C   UNL     1       5.332   4.796  -3.355  1.00  0.00     0.074 A 
ATOM     15  C   UNL     1       4.672   3.225  -5.152  1.00  0.00     0.049 A 
ATOM     16  N   UNL     1       5.823   5.788  -4.051  1.00  0.00    -0.248 NA
ATOM     17  C   UNL     1       5.410   4.987  -1.898  1.00  0.00     0.031 C 
ATOM     18  C   UNL     1       4.078   2.013  -5.724  1.00  0.00     0.029 A 
ATOM     19  N   UNL     1       5.125   3.919  -6.242  1.00  0.00    -0.354 N 
ATOM     20  C   UNL     1       6.237   6.738  -3.124  1.00  0.00     0.074 A 
ATOM     21  C   UNL     1       5.917   6.209  -1.814  1.00  0.00     0.031 C 
ATOM     22  C   UNL     1       4.205   2.046  -7.055  1.00  0.00     0.029 A 
ATOM     23  C   UNL     1       4.800   3.320  -7.434  1.00  0.00     0.049 A 
ATOM     24  H   UNL     1       5.631   4.761  -6.177  1.00  0.00     0.167 HD
ATOM     25  C   UNL     1       6.821   7.939  -3.356  1.00  0.00     0.037 A 
ATOM     26  C   UNL     1       4.904   3.768  -8.698  1.00  0.00     0.037 A 
ATOM     27  C   UNL     1       7.111   8.439  -4.678  1.00  0.00     0.049 A 
ATOM     28  C   UNL     1       5.499   5.120  -8.936  1.00  0.00     0.074 A 
ATOM     29  C   UNL     1       7.734   9.622  -5.033  1.00  0.00     0.029 A 
ATOM     30  N   UNL     1       6.773   7.796  -5.863  1.00  0.00    -0.354 N 
ATOM     31  N   UNL     1       5.914   5.998  -8.053  1.00  0.00    -0.248 NA
ATOM     32  C   UNL     1       5.647   5.546 -10.331  1.00  0.00     0.031 C 
ATOM     33  C   UNL     1       7.699   9.732  -6.426  1.00  0.00     0.029 A 
ATOM     34  C   UNL     1       7.141   8.575  -6.948  1.00  0.00     0.049 A 
ATOM     35  H   UNL     1       6.336   6.916  -5.923  1.00  0.00     0.167 HD
ATOM     36  C   UNL     1       6.406   7.069  -8.787  1.00  0.00     0.074 A 
ATOM     37  C   UNL     1       6.228   6.730 -10.185  1.00  0.00     0.031 C 
ATOM     38  C   UNL     1       6.967   8.219  -8.338  1.00  0.00     0.037 A 
BRANCH  25  39
ATOM     39  C   UNL     1       7.128   8.813  -2.165  1.00  0.00     0.058 A 
ATOM     40  C   UNL     1       8.074   8.452  -1.191  1.00  0.00     0.135 A 
ATOM     41  C   UNL     1       6.460  10.039  -1.995  1.00  0.00     0.135 A 
ATOM     42  F   UNL     1       8.745   7.294  -1.295  1.00  0.00    -0.206 F 
ATOM     43  C   UNL     1       8.297   9.239  -0.064  1.00  0.00     0.059 A 
ATOM     44  C   UNL     1       6.697  10.860  -0.896  1.00  0.00     0.059 A 
ATOM     45  F   UNL     1       5.553  10.446  -2.897  1.00  0.00    -0.206 F 
ATOM     46  C   UNL     1       7.596  10.437   0.079  1.00  0.00     0.060 A 
BRANCH  46  47
ATOM     47  S   UNL     1       7.854  11.415   1.574  1.00  0.00     0.124 S 
ATOM     48  O   UNL     1       7.217  10.574   2.583  1.00  0.00    -0.237 OA
ATOM     49  O   UNL     1       9.309  11.496   1.645  1.00  0.00    -0.237 OA
ATOM     50  O   UNL     1       7.171  12.671   1.284  1.00  0.00    -0.744 OA
ENDBRANCH  46  47
ENDBRANCH  25  39
BRANCH  26  51
ATOM     51  C   UNL     1       4.403   2.910  -9.802  1.00  0.00     0.058 A 
ATOM     52  C   UNL     1       5.290   2.255 -10.665  1.00  0.00     0.135 A 
ATOM     53  C   UNL     1       3.030   2.641  -9.941  1.00  0.00     0.135 A 
ATOM     54  F   UNL     1       6.609   2.478 -10.568  1.00  0.00    -0.206 F 
ATOM     55  C   UNL     1       4.837   1.356 -11.624  1.00  0.00     0.059 A 
ATOM     56  C   UNL     1       2.556   1.723 -10.870  1.00  0.00     0.059 A 
ATOM     57  F   UNL     1       2.144   3.223  -9.117  1.00  0.00    -0.206 F 
ATOM     58  C   UNL     1       3.469   1.086 -11.708  1.00  0.00     0.060 A 
BRANCH  58  59
ATOM     59  S   UNL     1       2.907  -0.156 -12.892  1.00  0.00     0.124 S 
ATOM     60  O   UNL     1       3.163   0.512 -14.162  1.00  0.00    -0.237 OA
ATOM     61  O   UNL     1       3.775  -1.287 -12.578  1.00  0.00    -0.237 OA
ATOM     62  O   UNL     1       1.501  -0.340 -12.547  1.00  0.00    -0.744 OA
ENDBRANCH  58  59
ENDBRANCH  26  51
BRANCH  38  63
ATOM     63  C   UNL     1       7.499   9.183  -9.361  1.00  0.00     0.058 A 
ATOM     64  C   UNL     1       6.656   9.972 -10.157  1.00  0.00     0.135 A 
ATOM     65  C   UNL     1       8.885   9.396  -9.459  1.00  0.00     0.135 A 
ATOM     66  F   UNL     1       5.326   9.797 -10.116  1.00  0.00    -0.206 F 
ATOM     67  C   UNL     1       7.168  10.946 -11.009  1.00  0.00     0.059 A 
ATOM     68  C   UNL     1       9.416  10.386 -10.278  1.00  0.00     0.059 A 
ATOM     69  F   UNL     1       9.735   8.667  -8.719  1.00  0.00    -0.206 F 
ATOM     70  C   UNL     1       8.549  11.158 -11.048  1.00  0.00     0.060 A 
BRANCH  70  71
ATOM     71  S   UNL     1       9.191  12.491 -12.081  1.00  0.00     0.124 S 
ATOM     72  O   UNL     1       8.941  11.974 -13.422  1.00  0.00    -0.237 OA
ATOM     73  O   UNL     1       8.364  13.623 -11.672  1.00  0.00    -0.237 OA
ATOM     74  O   UNL     1      10.596  12.577 -11.694  1.00  0.00    -0.744 OA
ENDBRANCH  70  71
ENDBRANCH  38  63
ENDBRANCH  12  13
ENDBRANCH   5   7
ENDBRANCH   2   3
ENDBRANCH   1   2
BRANCH   1  75
ATOM     75  C   UNL     1       5.112  -1.480   3.167  1.00  0.00     0.023 C 
BRANCH  75  76
ATOM     76  C   UNL     1       5.420  -3.659   3.170  1.00  0.00     0.116 C 
BRANCH  76  77
ATOM     77  N   UNL     1       6.750  -4.570   3.099  1.00  0.00    -0.351 N 
ATOM     78  C   UNL     1       7.382  -5.292   4.095  1.00  0.00     0.272 C 
ATOM     79  H   UNL     1       7.175  -4.621   2.212  1.00  0.00     0.163 HD
ATOM     80  O   UNL     1       8.475  -5.817   3.928  1.00  0.00    -0.267 OA
BRANCH  78  81
ATOM     81  C   UNL     1       6.657  -5.436   5.368  1.00  0.00     0.159 A 
ATOM     82  N   UNL     1       5.577  -6.283   5.264  1.00  0.00    -0.247 NA
ATOM     83  C   UNL     1       6.919  -4.680   6.503  1.00  0.00     0.159 A 
ATOM     84  C   UNL     1       4.772  -6.349   6.337  1.00  0.00     0.132 A 
ATOM     85  N   UNL     1       6.073  -4.763   7.583  1.00  0.00    -0.247 NA
ATOM     86  C   UNL     1       5.013  -5.601   7.471  1.00  0.00     0.132 A 
BRANCH  83  87
ATOM     87  C   UNL     1       8.102  -3.791   6.732  1.00  0.00     0.277 C 
ATOM     88  O   UNL     1       8.710  -3.919   7.800  1.00  0.00    -0.267 OA
ATOM     89  N   UNL     1       8.582  -2.873   5.825  1.00  0.00    -0.303 N 
ATOM     90  H   UNL     1       9.460  -2.487   6.048  1.00  0.00     0.172 HD
BRANCH  89  91
ATOM     91  C   UNL     1       8.027  -2.413   4.661  1.00  0.00     0.164 A 
ATOM     92  N   UNL     1       8.855  -2.051   3.666  1.00  0.00    -0.155 NA
ATOM     93  C   UNL     1       6.664  -2.385   4.309  1.00  0.00     0.063 A 
ATOM     94  N   UNL     1       8.185  -2.108   2.477  1.00  0.00    -0.259 N 
ATOM     95  C   UNL     1       6.838  -2.312   2.586  1.00  0.00     0.157 A 
ATOM     96  C   UNL     1       5.017  -2.583   4.987  1.00  0.00     0.017 A 
ATOM     97  H   UNL     1       8.637  -2.010   1.608  1.00  0.00     0.192 HD
ATOM     98  N   UNL     1       5.532  -2.564   1.471  1.00  0.00    -0.237 NA
ATOM     99  C   UNL     1       3.610  -2.805   3.916  1.00  0.00     0.021 A 
ATOM    100  C   UNL     1       3.903  -2.756   2.187  1.00  0.00     0.113 A 
ENDBRANCH  89  91
ENDBRANCH  83  87
ENDBRANCH  78  81
ENDBRANCH  76  77
ENDBRANCH  75  76
ENDBRANCH   1  75
TORSDOF 16
