REMARK SMILES CC(C)CCC(=O)N1CC[C@H](C(=O)NCCCCNC(=O)c2ccc(-c3c4nc(c(-c5c(F)cc(S(=O)(=O)[O-])cc5F)c5ccc([nH]5)c(-c5c(F)cc(S(=O)(=O)[O-])cc5F)c5nc(c(-c6c(F)cc(S(=O)(=O)[O-])cc6F)c6ccc3[nH]6)C=C5)C=C4)cc2)[C@H]1C
REMARK SMILES IDX 16 1 15 2 14 3 12 4 13 5 11 7 8 8 9 9 88 10 10 11 89 12 6 13
REMARK SMILES IDX 7 14 5 15 4 16 2 17 1 18 3 19 17 20 18 21 19 22 20 23 21 25
REMARK SMILES IDX 22 26 23 27 87 28 24 29 86 30 25 31 26 32 27 33 80 34 28 35
REMARK SMILES IDX 85 36 79 37 81 38 29 39 84 40 78 41 77 42 30 44 64 45 43 46
REMARK SMILES IDX 63 47 44 48 47 49 62 50 82 51 45 52 46 53 61 55 83 56 48 57
REMARK SMILES IDX 31 58 32 59 41 60 33 61 34 62 40 63 42 64 35 65 36 66 37 67
REMARK SMILES IDX 38 68 39 69 65 70 66 71 75 72 67 73 68 74 74 75 76 76 69 77
REMARK SMILES IDX 70 78 71 79 72 80 73 81 49 82 50 83 59 84 51 85 52 86 58 87
REMARK SMILES IDX 60 88 53 89 54 90 55 91 56 92 57 93
REMARK H PARENT 14 6 19 24 81 43 47 54
REMARK Flexibility Score: inf
ROOT
ATOM      1  C   UNL     1       0.173   5.989  -2.891  1.00  0.00     0.023 C 
ENDROOT
BRANCH   1   2
ATOM      2  C   UNL     1       0.272   4.566  -3.433  1.00  0.00     0.116 C 
BRANCH   2   3
ATOM      3  N   UNL     1       1.598   4.228  -3.903  1.00  0.00    -0.356 N 
ATOM      4  C   UNL     1       2.651   3.633  -3.295  1.00  0.00     0.225 C 
ATOM      5  O   UNL     1       3.607   3.342  -4.026  1.00  0.00    -0.275 OA
ATOM      6  H   UNL     1       1.766   4.478  -4.840  1.00  0.00     0.163 HD
BRANCH   4   7
ATOM      7  C   UNL     1       2.747   3.305  -1.805  1.00  0.00     0.102 C 
ATOM      8  N   UNL     1       0.770   2.894  -0.559  1.00  0.00    -0.339 N 
ATOM      9  C   UNL     1       1.203   4.229  -0.175  1.00  0.00     0.120 C 
ATOM     10  C   UNL     1       1.833   2.192  -1.274  1.00  0.00     0.094 C 
ATOM     11  C   UNL     1       2.560   4.458  -0.826  1.00  0.00     0.037 C 
ATOM     12  C   UNL     1       2.629   1.310  -0.305  1.00  0.00     0.032 C 
BRANCH   8  13
ATOM     13  C   UNL     1      -0.566   2.559  -0.473  1.00  0.00     0.222 C 
ATOM     14  O   UNL     1      -1.421   3.447  -0.376  1.00  0.00    -0.275 OA
BRANCH  13  15
ATOM     15  C   UNL     1      -1.005   1.106  -0.302  1.00  0.00     0.100 C 
BRANCH  15  16
ATOM     16  C   UNL     1      -0.869   0.082  -1.432  1.00  0.00     0.013 C 
BRANCH  16  17
ATOM     17  C   UNL     1       0.285  -0.938  -1.307  1.00  0.00    -0.017 C 
ATOM     18  C   UNL     1       0.344  -1.667   0.037  1.00  0.00     0.007 C 
ATOM     19  C   UNL     1       0.233  -1.968  -2.438  1.00  0.00     0.007 C 
ENDBRANCH  16  17
ENDBRANCH  15  16
ENDBRANCH  13  15
ENDBRANCH   8  13
ENDBRANCH   4   7
ENDBRANCH   2   3
ENDBRANCH   1   2
BRANCH   1  20
ATOM     20  C   UNL     1      -0.107   7.064  -3.935  1.00  0.00     0.023 C 
BRANCH  20  21
ATOM     21  C   UNL     1      -1.434   6.913  -4.663  1.00  0.00     0.116 C 
BRANCH  21  22
ATOM     22  N   UNL     1      -2.593   6.859  -3.780  1.00  0.00    -0.352 N 
ATOM     23  C   UNL     1      -3.862   7.324  -4.038  1.00  0.00     0.251 C 
ATOM     24  H   UNL     1      -2.452   6.442  -2.900  1.00  0.00     0.163 HD
ATOM     25  O   UNL     1      -4.735   7.298  -3.176  1.00  0.00    -0.269 OA
BRANCH  23  26
ATOM     26  C   UNL     1      -4.137   7.901  -5.368  1.00  0.00     0.039 A 
ATOM     27  C   UNL     1      -4.638   9.200  -5.453  1.00  0.00     0.014 A 
ATOM     28  C   UNL     1      -3.790   7.189  -6.520  1.00  0.00     0.014 A 
ATOM     29  C   UNL     1      -4.719   9.819  -6.700  1.00  0.00     0.010 A 
ATOM     30  C   UNL     1      -3.793   7.837  -7.748  1.00  0.00     0.010 A 
ATOM     31  C   UNL     1      -4.256   9.158  -7.850  1.00  0.00    -0.014 A 
BRANCH  31  32
ATOM     32  C   UNL     1      -4.238   9.829  -9.173  1.00  0.00     0.031 A 
ATOM     33  C   UNL     1      -5.063   9.280 -10.302  1.00  0.00     0.074 A 
ATOM     34  C   UNL     1      -3.406  10.868  -9.382  1.00  0.00     0.049 A 
ATOM     35  N   UNL     1      -5.122   9.672 -11.548  1.00  0.00    -0.248 NA
ATOM     36  C   UNL     1      -5.902   8.109 -10.000  1.00  0.00     0.031 C 
ATOM     37  C   UNL     1      -2.492  11.435  -8.387  1.00  0.00     0.029 A 
ATOM     38  N   UNL     1      -3.177  11.618 -10.507  1.00  0.00    -0.354 N 
ATOM     39  C   UNL     1      -5.977   8.780 -12.183  1.00  0.00     0.074 A 
ATOM     40  C   UNL     1      -6.371   7.797 -11.198  1.00  0.00     0.031 C 
ATOM     41  C   UNL     1      -1.811  12.450  -8.943  1.00  0.00     0.029 A 
ATOM     42  C   UNL     1      -2.219  12.590 -10.338  1.00  0.00     0.049 A 
ATOM     43  H   UNL     1      -3.654  11.475 -11.356  1.00  0.00     0.167 HD
ATOM     44  C   UNL     1      -6.411   8.791 -13.466  1.00  0.00     0.037 A 
ATOM     45  C   UNL     1      -1.721  13.488 -11.209  1.00  0.00     0.037 A 
ATOM     46  C   UNL     1      -6.047   9.799 -14.426  1.00  0.00     0.049 A 
ATOM     47  C   UNL     1      -2.266  13.529 -12.609  1.00  0.00     0.074 A 
ATOM     48  C   UNL     1      -6.512   9.964 -15.718  1.00  0.00     0.029 A 
ATOM     49  N   UNL     1      -5.126  10.811 -14.198  1.00  0.00    -0.354 N 
ATOM     50  N   UNL     1      -3.152  12.740 -13.169  1.00  0.00    -0.248 NA
ATOM     51  C   UNL     1      -1.757  14.586 -13.492  1.00  0.00     0.031 C 
ATOM     52  C   UNL     1      -5.843  11.056 -16.285  1.00  0.00     0.029 A 
ATOM     53  C   UNL     1      -4.992  11.594 -15.332  1.00  0.00     0.049 A 
ATOM     54  H   UNL     1      -4.639  10.953 -13.354  1.00  0.00     0.167 HD
ATOM     55  C   UNL     1      -3.320  13.214 -14.464  1.00  0.00     0.074 A 
ATOM     56  C   UNL     1      -2.453  14.367 -14.601  1.00  0.00     0.031 C 
ATOM     57  C   UNL     1      -4.120  12.738 -15.450  1.00  0.00     0.037 A 
BRANCH  44  58
ATOM     58  C   UNL     1      -7.326   7.677 -13.893  1.00  0.00     0.058 A 
ATOM     59  C   UNL     1      -8.641   7.574 -13.410  1.00  0.00     0.135 A 
ATOM     60  C   UNL     1      -6.878   6.692 -14.787  1.00  0.00     0.135 A 
ATOM     61  F   UNL     1      -9.116   8.480 -12.541  1.00  0.00    -0.206 F 
ATOM     62  C   UNL     1      -9.462   6.506 -13.757  1.00  0.00     0.059 A 
ATOM     63  C   UNL     1      -7.693   5.631 -15.172  1.00  0.00     0.059 A 
ATOM     64  F   UNL     1      -5.631   6.743 -15.281  1.00  0.00    -0.206 F 
ATOM     65  C   UNL     1      -8.975   5.534 -14.632  1.00  0.00     0.060 A 
BRANCH  65  66
ATOM     66  S   UNL     1     -10.037   4.136 -15.050  1.00  0.00     0.124 S 
ATOM     67  O   UNL     1      -9.935   3.324 -13.842  1.00  0.00    -0.237 OA
ATOM     68  O   UNL     1     -11.329   4.777 -15.274  1.00  0.00    -0.237 OA
ATOM     69  O   UNL     1      -9.406   3.575 -16.240  1.00  0.00    -0.744 OA
ENDBRANCH  65  66
ENDBRANCH  44  58
BRANCH  45  70
ATOM     70  C   UNL     1      -0.673  14.440 -10.757  1.00  0.00     0.058 A 
ATOM     71  C   UNL     1      -0.980  15.784 -10.501  1.00  0.00     0.135 A 
ATOM     72  C   UNL     1       0.640  14.009 -10.511  1.00  0.00     0.135 A 
ATOM     73  F   UNL     1      -2.221  16.242 -10.727  1.00  0.00    -0.206 F 
ATOM     74  C   UNL     1      -0.024  16.669 -10.014  1.00  0.00     0.059 A 
ATOM     75  C   UNL     1       1.608  14.871 -10.005  1.00  0.00     0.059 A 
ATOM     76  F   UNL     1       0.978  12.728 -10.723  1.00  0.00    -0.206 F 
ATOM     77  C   UNL     1       1.266  16.201  -9.760  1.00  0.00     0.060 A 
BRANCH  77  78
ATOM     78  S   UNL     1       2.474  17.335  -9.040  1.00  0.00     0.124 S 
ATOM     79  O   UNL     1       2.812  18.171 -10.185  1.00  0.00    -0.237 OA
ATOM     80  O   UNL     1       1.699  17.979  -7.984  1.00  0.00    -0.237 OA
ATOM     81  O   UNL     1       3.532  16.444  -8.572  1.00  0.00    -0.744 OA
ENDBRANCH  77  78
ENDBRANCH  45  70
BRANCH  57  82
ATOM     82  C   UNL     1      -4.111  13.471 -16.762  1.00  0.00     0.058 A 
ATOM     83  C   UNL     1      -3.037  13.359 -17.658  1.00  0.00     0.135 A 
ATOM     84  C   UNL     1      -5.215  14.244 -17.153  1.00  0.00     0.135 A 
ATOM     85  F   UNL     1      -1.954  12.636 -17.328  1.00  0.00    -0.206 F 
ATOM     86  C   UNL     1      -3.050  14.002 -18.891  1.00  0.00     0.059 A 
ATOM     87  C   UNL     1      -5.261  14.877 -18.390  1.00  0.00     0.059 A 
ATOM     88  F   UNL     1      -6.273  14.374 -16.335  1.00  0.00    -0.206 F 
ATOM     89  C   UNL     1      -4.168  14.758 -19.249  1.00  0.00     0.060 A 
BRANCH  89  90
ATOM     90  S   UNL     1      -4.193  15.557 -20.868  1.00  0.00     0.124 S 
ATOM     91  O   UNL     1      -3.300  16.689 -20.650  1.00  0.00    -0.237 OA
ATOM     92  O   UNL     1      -3.684  14.507 -21.744  1.00  0.00    -0.237 OA
ATOM     93  O   UNL     1      -5.601  15.895 -21.058  1.00  0.00    -0.744 OA
ENDBRANCH  89  90
ENDBRANCH  57  82
ENDBRANCH  31  32
ENDBRANCH  23  26
ENDBRANCH  21  22
ENDBRANCH  20  21
ENDBRANCH   1  20
TORSDOF 18
