REMARK SMILES Cc1ccccc1/C=C1\SC(=S)N(CCC(=O)N[C@@H](C)C(=O)NCCCCNC(=O)c2ccc(-c3c4nc(c(-c5c(F)cc(S(=O)(=O)[O-])cc5F)c5ccc([nH]5)c(-c5c(F)cc(S(=O)(=O)[O-])cc5F)c5nc(c(-c6c(F)cc(S(=O)(=O)[O-])cc6F)c6ccc3[nH]6)C=C5)C=C4)cc2)C1=O
REMARK SMILES IDX 24 1 23 2 21 3 22 4 19 6 20 7 18 8 16 9 17 10 15 12 14 13
REMARK SMILES IDX 13 14 8 15 9 16 10 17 97 18 11 19 98 20 12 21 7 22 1 23 2 24
REMARK SMILES IDX 3 25 4 26 6 27 5 28 25 29 26 30 27 31 28 32 29 33 30 35
REMARK SMILES IDX 31 36 32 37 96 38 33 39 95 40 34 41 35 42 36 43 89 44 37 45
REMARK SMILES IDX 94 46 88 47 90 48 38 49 93 50 87 51 86 52 39 54 73 55 52 56
REMARK SMILES IDX 72 57 53 58 56 59 71 60 91 61 54 62 55 63 70 65 92 66 57 67
REMARK SMILES IDX 40 68 41 69 50 70 42 71 43 72 49 73 51 74 44 75 45 76 46 77
REMARK SMILES IDX 47 78 48 79 74 80 75 81 84 82 76 83 77 84 83 85 85 86 78 87
REMARK SMILES IDX 79 88 80 89 81 90 82 91 58 92 59 93 68 94 60 95 61 96 67 97
REMARK SMILES IDX 69 98 62 99 63 100 64 101 65 102 66 103
REMARK H PARENT 23 5 18 11 28 34 90 53 56 64
REMARK Flexibility Score: inf
ROOT
ATOM      1  C   UNL     1      -1.078   5.894   0.786  1.00  0.00     0.116 C 
ENDROOT
BRANCH   1   2
ATOM      2  N   UNL     1      -1.407   5.777  -0.628  1.00  0.00    -0.354 N 
ATOM      3  C   UNL     1      -0.624   5.609  -1.727  1.00  0.00     0.242 C 
ATOM      4  O   UNL     1      -1.184   5.564  -2.827  1.00  0.00    -0.273 OA
ATOM      5  H   UNL     1      -2.371   5.830  -0.824  1.00  0.00     0.163 HD
BRANCH   3   6
ATOM      6  C   UNL     1       0.901   5.446  -1.633  1.00  0.00     0.168 C 
ATOM      7  C   UNL     1       1.264   4.311  -0.702  1.00  0.00     0.041 C 
BRANCH   6   8
ATOM      8  N   UNL     1       1.666   6.635  -1.285  1.00  0.00    -0.345 N 
ATOM      9  C   UNL     1       2.972   6.894  -1.601  1.00  0.00     0.222 C 
ATOM     10  O   UNL     1       3.563   7.791  -0.997  1.00  0.00    -0.275 OA
ATOM     11  H   UNL     1       1.193   7.326  -0.767  1.00  0.00     0.164 HD
BRANCH   9  12
ATOM     12  C   UNL     1       3.662   6.139  -2.730  1.00  0.00     0.122 C 
BRANCH  12  13
ATOM     13  C   UNL     1       4.660   5.049  -2.296  1.00  0.00     0.137 C 
BRANCH  13  14
ATOM     14  N   UNL     1       4.122   3.674  -2.281  1.00  0.00    -0.292 N 
ATOM     15  C   UNL     1       2.554   1.286  -0.172  1.00  0.00     0.029 C 
ATOM     16  C   UNL     1       3.226   1.768  -1.231  1.00  0.00     0.081 C 
ATOM     17  S   UNL     1       2.992   1.428  -2.896  1.00  0.00    -0.054 SA
ATOM     18  C   UNL     1       4.105   2.963  -1.089  1.00  0.00     0.266 C 
ATOM     19  C   UNL     1       3.713   2.961  -3.393  1.00  0.00     0.148 C 
ATOM     20  O   UNL     1       4.662   3.281  -0.048  1.00  0.00    -0.268 OA
ATOM     21  S   UNL     1       3.837   3.398  -5.000  1.00  0.00    -0.052 S 
BRANCH  15  22
ATOM     22  C   UNL     1       1.429   0.337  -0.221  1.00  0.00    -0.021 A 
ATOM     23  C   UNL     1       2.983  -1.649   0.079  1.00  0.00     0.045 C 
ATOM     24  C   UNL     1       1.622  -1.048  -0.117  1.00  0.00    -0.044 A 
ATOM     25  C   UNL     1       0.511  -1.901  -0.229  1.00  0.00     0.004 A 
ATOM     26  C   UNL     1      -0.776  -1.391  -0.399  1.00  0.00     0.000 A 
ATOM     27  C   UNL     1       0.119   0.838  -0.347  1.00  0.00     0.008 A 
ATOM     28  C   UNL     1      -0.977  -0.018  -0.438  1.00  0.00     0.001 A 
ENDBRANCH  15  22
ENDBRANCH  13  14
ENDBRANCH  12  13
ENDBRANCH   9  12
ENDBRANCH   6   8
ENDBRANCH   3   6
ENDBRANCH   1   2
BRANCH   1  29
ATOM     29  C   UNL     1      -1.786   7.067   1.464  1.00  0.00     0.023 C 
BRANCH  29  30
ATOM     30  C   UNL     1      -3.301   7.140   1.275  1.00  0.00     0.023 C 
BRANCH  30  31
ATOM     31  C   UNL     1      -4.063   5.914   1.731  1.00  0.00     0.116 C 
BRANCH  31  32
ATOM     32  N   UNL     1      -4.216   5.745   3.163  1.00  0.00    -0.352 N 
ATOM     33  C   UNL     1      -5.435   5.229   3.608  1.00  0.00     0.251 C 
ATOM     34  H   UNL     1      -3.497   5.984   3.791  1.00  0.00     0.163 HD
ATOM     35  O   UNL     1      -6.462   5.867   3.733  1.00  0.00    -0.269 OA
BRANCH  33  36
ATOM     36  C   UNL     1      -5.450   3.748   3.588  1.00  0.00     0.039 A 
ATOM     37  C   UNL     1      -5.475   2.968   4.741  1.00  0.00     0.014 A 
ATOM     38  C   UNL     1      -5.306   3.165   2.326  1.00  0.00     0.014 A 
ATOM     39  C   UNL     1      -5.242   1.592   4.628  1.00  0.00     0.010 A 
ATOM     40  C   UNL     1      -4.980   1.839   2.225  1.00  0.00     0.010 A 
ATOM     41  C   UNL     1      -4.941   1.051   3.376  1.00  0.00    -0.014 A 
BRANCH  41  42
ATOM     42  C   UNL     1      -4.577  -0.329   3.105  1.00  0.00     0.031 A 
ATOM     43  C   UNL     1      -5.572  -1.250   2.510  1.00  0.00     0.074 A 
ATOM     44  C   UNL     1      -3.269  -0.659   3.128  1.00  0.00     0.049 A 
ATOM     45  N   UNL     1      -5.442  -2.531   2.475  1.00  0.00    -0.248 NA
ATOM     46  C   UNL     1      -6.811  -0.784   1.893  1.00  0.00     0.031 C 
ATOM     47  C   UNL     1      -2.634  -1.803   2.487  1.00  0.00     0.029 A 
ATOM     48  N   UNL     1      -2.249  -0.075   3.880  1.00  0.00    -0.354 N 
ATOM     49  C   UNL     1      -6.395  -3.028   1.613  1.00  0.00     0.074 A 
ATOM     50  C   UNL     1      -7.258  -1.907   1.321  1.00  0.00     0.031 C 
ATOM     51  C   UNL     1      -1.425  -1.997   3.036  1.00  0.00     0.029 A 
ATOM     52  C   UNL     1      -1.324  -1.097   4.171  1.00  0.00     0.049 A 
ATOM     53  H   UNL     1      -2.188   0.869   4.154  1.00  0.00     0.167 HD
ATOM     54  C   UNL     1      -6.265  -4.298   1.132  1.00  0.00     0.037 A 
ATOM     55  C   UNL     1      -1.145  -1.512   5.463  1.00  0.00     0.037 A 
ATOM     56  C   UNL     1      -5.066  -4.936   1.675  1.00  0.00     0.049 A 
ATOM     57  C   UNL     1      -1.552  -2.951   5.695  1.00  0.00     0.074 A 
ATOM     58  C   UNL     1      -3.787  -5.096   1.165  1.00  0.00     0.029 A 
ATOM     59  N   UNL     1      -4.988  -5.223   3.033  1.00  0.00    -0.354 N 
ATOM     60  N   UNL     1      -2.338  -3.626   4.902  1.00  0.00    -0.248 NA
ATOM     61  C   UNL     1      -1.094  -3.748   6.828  1.00  0.00     0.031 C 
ATOM     62  C   UNL     1      -2.924  -5.420   2.239  1.00  0.00     0.029 A 
ATOM     63  C   UNL     1      -3.679  -5.475   3.398  1.00  0.00     0.049 A 
ATOM     64  H   UNL     1      -5.757  -5.244   3.648  1.00  0.00     0.167 HD
ATOM     65  C   UNL     1      -2.520  -4.892   5.395  1.00  0.00     0.074 A 
ATOM     66  C   UNL     1      -1.702  -4.925   6.592  1.00  0.00     0.031 C 
ATOM     67  C   UNL     1      -3.331  -5.801   4.774  1.00  0.00     0.037 A 
BRANCH  54  68
ATOM     68  C   UNL     1      -7.052  -4.851  -0.039  1.00  0.00     0.058 A 
ATOM     69  C   UNL     1      -6.477  -5.796  -0.918  1.00  0.00     0.135 A 
ATOM     70  C   UNL     1      -8.369  -4.471  -0.368  1.00  0.00     0.135 A 
ATOM     71  F   UNL     1      -5.266  -6.322  -0.693  1.00  0.00    -0.206 F 
ATOM     72  C   UNL     1      -7.110  -6.243  -2.080  1.00  0.00     0.059 A 
ATOM     73  C   UNL     1      -9.005  -4.864  -1.552  1.00  0.00     0.059 A 
ATOM     74  F   UNL     1      -9.108  -3.733   0.474  1.00  0.00    -0.206 F 
ATOM     75  C   UNL     1      -8.361  -5.746  -2.409  1.00  0.00     0.060 A 
BRANCH  75  76
ATOM     76  S   UNL     1      -9.120  -6.276  -3.956  1.00  0.00     0.124 S 
ATOM     77  O   UNL     1      -8.086  -5.949  -4.933  1.00  0.00    -0.237 OA
ATOM     78  O   UNL     1      -9.338  -7.698  -3.715  1.00  0.00    -0.237 OA
ATOM     79  O   UNL     1     -10.329  -5.461  -4.039  1.00  0.00    -0.744 OA
ENDBRANCH  75  76
ENDBRANCH  54  68
BRANCH  55  80
ATOM     80  C   UNL     1      -1.284  -0.390   6.439  1.00  0.00     0.058 A 
ATOM     81  C   UNL     1      -0.304   0.622   6.390  1.00  0.00     0.135 A 
ATOM     82  C   UNL     1      -2.539  -0.050   6.968  1.00  0.00     0.135 A 
ATOM     83  F   UNL     1       0.923   0.344   5.920  1.00  0.00    -0.206 F 
ATOM     84  C   UNL     1      -0.617   1.954   6.647  1.00  0.00     0.059 A 
ATOM     85  C   UNL     1      -2.868   1.280   7.246  1.00  0.00     0.059 A 
ATOM     86  F   UNL     1      -3.507  -0.974   7.057  1.00  0.00    -0.206 F 
ATOM     87  C   UNL     1      -1.928   2.279   6.986  1.00  0.00     0.060 A 
BRANCH  87  88
ATOM     88  S   UNL     1      -2.421   4.021   6.903  1.00  0.00     0.124 S 
ATOM     89  O   UNL     1      -1.399   4.668   7.720  1.00  0.00    -0.237 OA
ATOM     90  O   UNL     1      -2.346   4.295   5.465  1.00  0.00    -0.237 OA
ATOM     91  O   UNL     1      -3.766   4.019   7.466  1.00  0.00    -0.744 OA
ENDBRANCH  87  88
ENDBRANCH  55  80
BRANCH  67  92
ATOM     92  C   UNL     1      -3.796  -7.122   5.345  1.00  0.00     0.058 A 
ATOM     93  C   UNL     1      -3.926  -7.383   6.719  1.00  0.00     0.135 A 
ATOM     94  C   UNL     1      -4.275  -8.145   4.486  1.00  0.00     0.135 A 
ATOM     95  F   UNL     1      -3.623  -6.457   7.639  1.00  0.00    -0.206 F 
ATOM     96  C   UNL     1      -4.422  -8.593   7.209  1.00  0.00     0.059 A 
ATOM     97  C   UNL     1      -4.829  -9.334   4.953  1.00  0.00     0.059 A 
ATOM     98  F   UNL     1      -4.236  -8.018   3.151  1.00  0.00    -0.206 F 
ATOM     99  C   UNL     1      -4.871  -9.563   6.319  1.00  0.00     0.060 A 
BRANCH  99 100
ATOM    100  S   UNL     1      -5.566 -11.103   6.945  1.00  0.00     0.124 S 
ATOM    101  O   UNL     1      -4.378 -11.947   7.019  1.00  0.00    -0.237 OA
ATOM    102  O   UNL     1      -6.135 -10.704   8.229  1.00  0.00    -0.237 OA
ATOM    103  O   UNL     1      -6.541 -11.468   5.923  1.00  0.00    -0.744 OA
ENDBRANCH  99 100
ENDBRANCH  67  92
ENDBRANCH  41  42
ENDBRANCH  33  36
ENDBRANCH  31  32
ENDBRANCH  30  31
ENDBRANCH  29  30
ENDBRANCH   1  29
TORSDOF 19
