REMARK SMILES CC[C@H]1SC[C@H](C(=O)NCCCCNC(=O)c2ccc(-c3c4nc(c(-c5c(F)cc(S(=O)(=O)[O-])cc5F)c5ccc([nH]5)c(-c5c(F)cc(S(=O)(=O)[O-])cc5F)c5nc(c(-c6c(F)cc(S(=O)(=O)[O-])cc6F)c6ccc3[nH]6)C=C5)C=C4)cc2)N1C(=O)c1ccc(F)c(F)c1F
REMARK SMILES IDX 12 1 11 2 10 3 9 4 7 5 8 6 6 8 3 9 4 10 83 11 5 12 2 13 1 14
REMARK SMILES IDX 84 15 85 16 86 17 87 18 93 19 88 20 91 21 94 22 89 23 92 24
REMARK SMILES IDX 90 25 13 26 14 27 15 28 16 30 17 31 18 32 82 33 19 34 81 35
REMARK SMILES IDX 20 36 21 37 22 38 75 39 23 40 80 41 74 42 76 43 24 44 79 45
REMARK SMILES IDX 73 46 72 47 25 49 59 50 38 51 58 52 39 53 42 54 57 55 77 56
REMARK SMILES IDX 40 57 41 58 56 60 78 61 43 62 26 63 27 64 36 65 28 66 29 67
REMARK SMILES IDX 35 68 37 69 30 70 31 71 32 72 33 73 34 74 60 75 61 76 70 77
REMARK SMILES IDX 62 78 63 79 69 80 71 81 64 82 65 83 66 84 67 85 68 86 44 87
REMARK SMILES IDX 45 88 54 89 46 90 47 91 53 92 55 93 48 94 49 95 50 96 51 97
REMARK SMILES IDX 52 98
REMARK H PARENT 9 7 14 29 76 48 42 59
REMARK Flexibility Score: inf
ROOT
ATOM      1  C   UNL     1       6.893   0.987  -0.646  1.00  0.00     0.023 C 
ENDROOT
BRANCH   1   2
ATOM      2  C   UNL     1       5.406   0.683  -0.511  1.00  0.00     0.023 C 
BRANCH   2   3
ATOM      3  C   UNL     1       4.864   0.640   0.915  1.00  0.00     0.116 C 
BRANCH   3   4
ATOM      4  N   UNL     1       4.966   1.916   1.583  1.00  0.00    -0.354 N 
ATOM      5  C   UNL     1       3.990   2.787   1.970  1.00  0.00     0.243 C 
ATOM      6  O   UNL     1       4.333   3.708   2.719  1.00  0.00    -0.273 OA
ATOM      7  H   UNL     1       5.885   2.202   1.793  1.00  0.00     0.163 HD
BRANCH   5   8
ATOM      8  C   UNL     1       2.494   2.494   1.700  1.00  0.00     0.185 C 
ATOM      9  C   UNL     1       0.551   1.946   0.375  1.00  0.00     0.144 C 
ATOM     10  S   UNL     1      -0.030   3.325   1.446  1.00  0.00    -0.134 SA
ATOM     11  N   UNL     1       2.005   2.087   0.369  1.00  0.00    -0.314 N 
ATOM     12  C   UNL     1       1.611   3.643   2.181  1.00  0.00     0.107 C 
BRANCH   9  13
ATOM     13  C   UNL     1       0.018   0.642   0.982  1.00  0.00     0.033 C 
ATOM     14  C   UNL     1       0.421  -0.595   0.200  1.00  0.00     0.007 C 
ENDBRANCH   9  13
BRANCH  11  15
ATOM     15  C   UNL     1       2.576   2.686  -0.760  1.00  0.00     0.258 C 
ATOM     16  O   UNL     1       3.394   3.596  -0.704  1.00  0.00    -0.269 OA
BRANCH  15  17
ATOM     17  C   UNL     1       2.282   2.081  -2.082  1.00  0.00     0.079 A 
ATOM     18  C   UNL     1       2.456   0.701  -2.277  1.00  0.00     0.020 A 
ATOM     19  C   UNL     1       1.947   2.893  -3.163  1.00  0.00     0.174 A 
ATOM     20  C   UNL     1       2.291   0.142  -3.545  1.00  0.00     0.043 A 
ATOM     21  C   UNL     1       1.769   2.332  -4.423  1.00  0.00     0.195 A 
ATOM     22  F   UNL     1       1.754   4.209  -2.997  1.00  0.00    -0.203 F 
ATOM     23  C   UNL     1       1.945   0.965  -4.611  1.00  0.00     0.161 A 
ATOM     24  F   UNL     1       1.417   3.106  -5.459  1.00  0.00    -0.200 F 
ATOM     25  F   UNL     1       1.777   0.422  -5.824  1.00  0.00    -0.204 F 
ENDBRANCH  15  17
ENDBRANCH  11  15
ENDBRANCH   5   8
ENDBRANCH   3   4
ENDBRANCH   2   3
ENDBRANCH   1   2
BRANCH   1  26
ATOM     26  C   UNL     1       7.809   0.013   0.075  1.00  0.00     0.116 C 
BRANCH  26  27
ATOM     27  N   UNL     1       7.619  -1.365  -0.359  1.00  0.00    -0.352 N 
ATOM     28  C   UNL     1       8.543  -2.259  -0.852  1.00  0.00     0.251 C 
ATOM     29  H   UNL     1       6.697  -1.705  -0.291  1.00  0.00     0.163 HD
ATOM     30  O   UNL     1       8.174  -3.321  -1.328  1.00  0.00    -0.269 OA
BRANCH  28  31
ATOM     31  C   UNL     1       9.978  -1.901  -0.818  1.00  0.00     0.039 A 
ATOM     32  C   UNL     1      10.763  -2.115  -1.952  1.00  0.00     0.014 A 
ATOM     33  C   UNL     1      10.530  -1.319   0.326  1.00  0.00     0.014 A 
ATOM     34  C   UNL     1      12.088  -1.675  -1.962  1.00  0.00     0.010 A 
ATOM     35  C   UNL     1      11.814  -0.794   0.278  1.00  0.00     0.010 A 
ATOM     36  C   UNL     1      12.611  -0.976  -0.862  1.00  0.00    -0.014 A 
BRANCH  36  37
ATOM     37  C   UNL     1      13.995  -0.442  -0.863  1.00  0.00     0.031 A 
ATOM     38  C   UNL     1      14.987  -0.939   0.153  1.00  0.00     0.074 A 
ATOM     39  C   UNL     1      14.333   0.540  -1.721  1.00  0.00     0.049 A 
ATOM     40  N   UNL     1      16.214  -0.544   0.374  1.00  0.00    -0.248 NA
ATOM     41  C   UNL     1      14.523  -1.993   1.069  1.00  0.00     0.031 C 
ATOM     42  C   UNL     1      13.440   1.146  -2.712  1.00  0.00     0.029 A 
ATOM     43  N   UNL     1      15.519   1.207  -1.894  1.00  0.00    -0.354 N 
ATOM     44  C   UNL     1      16.656  -1.282   1.466  1.00  0.00     0.074 A 
ATOM     45  C   UNL     1      15.545  -2.098   1.903  1.00  0.00     0.031 C 
ATOM     46  C   UNL     1      14.121   2.066  -3.414  1.00  0.00     0.029 A 
ATOM     47  C   UNL     1      15.486   2.141  -2.901  1.00  0.00     0.049 A 
ATOM     48  H   UNL     1      16.320   1.032  -1.348  1.00  0.00     0.167 HD
ATOM     49  C   UNL     1      17.886  -1.302   2.034  1.00  0.00     0.037 A 
ATOM     50  C   UNL     1      16.450   2.961  -3.361  1.00  0.00     0.037 A 
ATOM     51  C   UNL     1      18.995  -0.513   1.569  1.00  0.00     0.049 A 
ATOM     52  C   UNL     1      17.813   2.910  -2.730  1.00  0.00     0.074 A 
ATOM     53  C   UNL     1      20.300  -0.504   2.028  1.00  0.00     0.029 A 
ATOM     54  N   UNL     1      18.927   0.407   0.532  1.00  0.00    -0.354 N 
ATOM     55  N   UNL     1      18.234   2.163  -1.737  1.00  0.00    -0.248 NA
ATOM     56  C   UNL     1      18.834   3.810  -3.284  1.00  0.00     0.031 C 
ATOM     57  C   UNL     1      21.014   0.447   1.289  1.00  0.00     0.029 A 
ATOM     58  C   UNL     1      20.164   1.002   0.345  1.00  0.00     0.049 A 
ATOM     59  H   UNL     1      18.119   0.608   0.008  1.00  0.00     0.167 HD
ATOM     60  C   UNL     1      19.574   2.487  -1.559  1.00  0.00     0.074 A 
ATOM     61  C   UNL     1      19.895   3.489  -2.557  1.00  0.00     0.031 C 
ATOM     62  C   UNL     1      20.459   2.000  -0.654  1.00  0.00     0.037 A 
BRANCH  49  63
ATOM     63  C   UNL     1      18.078  -2.215   3.215  1.00  0.00     0.058 A 
ATOM     64  C   UNL     1      18.058  -3.613   3.075  1.00  0.00     0.135 A 
ATOM     65  C   UNL     1      18.254  -1.691   4.505  1.00  0.00     0.135 A 
ATOM     66  F   UNL     1      17.876  -4.169   1.866  1.00  0.00    -0.206 F 
ATOM     67  C   UNL     1      18.147  -4.457   4.176  1.00  0.00     0.059 A 
ATOM     68  C   UNL     1      18.376  -2.518   5.619  1.00  0.00     0.059 A 
ATOM     69  F   UNL     1      18.284  -0.363   4.698  1.00  0.00    -0.206 F 
ATOM     70  C   UNL     1      18.294  -3.899   5.447  1.00  0.00     0.060 A 
BRANCH  70  71
ATOM     71  S   UNL     1      18.363  -5.004   6.873  1.00  0.00     0.124 S 
ATOM     72  O   UNL     1      16.958  -5.369   7.023  1.00  0.00    -0.237 OA
ATOM     73  O   UNL     1      19.247  -6.067   6.406  1.00  0.00    -0.237 OA
ATOM     74  O   UNL     1      18.909  -4.159   7.930  1.00  0.00    -0.744 OA
ENDBRANCH  70  71
ENDBRANCH  49  63
BRANCH  50  75
ATOM     75  C   UNL     1      16.169   3.853  -4.517  1.00  0.00     0.058 A 
ATOM     76  C   UNL     1      16.696   3.563  -5.784  1.00  0.00     0.135 A 
ATOM     77  C   UNL     1      15.338   4.977  -4.395  1.00  0.00     0.135 A 
ATOM     78  F   UNL     1      17.500   2.501  -5.948  1.00  0.00    -0.206 F 
ATOM     79  C   UNL     1      16.413   4.355  -6.891  1.00  0.00     0.059 A 
ATOM     80  C   UNL     1      15.023   5.774  -5.492  1.00  0.00     0.059 A 
ATOM     81  F   UNL     1      14.796   5.287  -3.207  1.00  0.00    -0.206 F 
ATOM     82  C   UNL     1      15.569   5.456  -6.736  1.00  0.00     0.060 A 
BRANCH  82  83
ATOM     83  S   UNL     1      15.146   6.432  -8.196  1.00  0.00     0.124 S 
ATOM     84  O   UNL     1      16.390   7.155  -8.437  1.00  0.00    -0.237 OA
ATOM     85  O   UNL     1      14.812   5.397  -9.169  1.00  0.00    -0.237 OA
ATOM     86  O   UNL     1      14.020   7.243  -7.744  1.00  0.00    -0.744 OA
ENDBRANCH  82  83
ENDBRANCH  50  75
BRANCH  62  87
ATOM     87  C   UNL     1      21.863   2.531  -0.715  1.00  0.00     0.058 A 
ATOM     88  C   UNL     1      22.180   3.821  -0.263  1.00  0.00     0.135 A 
ATOM     89  C   UNL     1      22.909   1.724  -1.190  1.00  0.00     0.135 A 
ATOM     90  F   UNL     1      21.214   4.633   0.195  1.00  0.00    -0.206 F 
ATOM     91  C   UNL     1      23.484   4.303  -0.302  1.00  0.00     0.059 A 
ATOM     92  C   UNL     1      24.224   2.176  -1.216  1.00  0.00     0.059 A 
ATOM     93  F   UNL     1      22.658   0.479  -1.624  1.00  0.00    -0.206 F 
ATOM     94  C   UNL     1      24.499   3.472  -0.781  1.00  0.00     0.060 A 
BRANCH  94  95
ATOM     95  S   UNL     1      26.193   4.097  -0.801  1.00  0.00     0.124 S 
ATOM     96  O   UNL     1      26.163   4.990  -1.954  1.00  0.00    -0.237 OA
ATOM     97  O   UNL     1      26.304   4.746   0.501  1.00  0.00    -0.237 OA
ATOM     98  O   UNL     1      26.997   2.889  -0.961  1.00  0.00    -0.744 OA
ENDBRANCH  94  95
ENDBRANCH  62  87
ENDBRANCH  36  37
ENDBRANCH  28  31
ENDBRANCH  26  27
ENDBRANCH   1  26
TORSDOF 17
