REMARK SMILES O=C(NCCCCNC(=O)c1cc(S(=O)(=O)NNC(=O)[C@H]2C=C(c3ccccc3)N=N2)ccc1F)c1ccc(-c2c3nc(c(-c4c(F)cc(S(=O)(=O)[O-])cc4F)c4ccc([nH]4)c(-c4c(F)cc(S(=O)(=O)[O-])cc4F)c4nc(c(-c5c(F)cc(S(=O)(=O)[O-])cc5F)c5ccc2[nH]5)C=C4)C=C3)cc1
REMARK SMILES IDX 6 1 5 2 4 3 3 4 1 5 2 6 36 8 37 9 101 10 38 11 100 12 39 13
REMARK SMILES IDX 40 14 41 15 94 16 42 17 99 18 93 19 95 20 43 21 98 22 92 23
REMARK SMILES IDX 91 24 44 26 78 27 57 28 77 29 58 30 61 31 76 32 96 33 59 34
REMARK SMILES IDX 60 35 75 37 97 38 62 39 45 40 46 41 55 42 47 43 48 44 54 45
REMARK SMILES IDX 56 46 49 47 50 48 51 49 52 50 53 51 79 52 80 53 89 54 81 55
REMARK SMILES IDX 82 56 88 57 90 58 83 59 84 60 85 61 86 62 87 63 63 64 64 65
REMARK SMILES IDX 73 66 65 67 66 68 72 69 74 70 67 71 68 72 69 73 70 74 71 75
REMARK SMILES IDX 7 76 8 77 9 78 10 80 11 81 12 82 34 83 13 84 33 85 35 86
REMARK SMILES IDX 32 87 14 88 15 89 16 90 17 91 18 93 19 94 20 96 21 97 22 98
REMARK SMILES IDX 31 99 23 100 30 101 24 102 25 103 29 104 26 105 28 106
REMARK SMILES IDX 27 107
REMARK H PARENT 3 7 95 25 61 36 8 79 17 92 18 95
REMARK Flexibility Score: inf
ROOT
ATOM      1  C   UNL     1      11.909   8.139 -18.026  1.00  0.00     0.023 C 
ENDROOT
BRANCH   1   2
ATOM      2  C   UNL     1      12.814   8.447 -19.218  1.00  0.00     0.023 C 
BRANCH   2   3
ATOM      3  C   UNL     1      14.304   8.173 -19.006  1.00  0.00     0.116 C 
BRANCH   3   4
ATOM      4  N   UNL     1      14.621   6.820 -18.598  1.00  0.00    -0.352 N 
ATOM      5  O   UNL     1      15.334   4.734 -18.581  1.00  0.00    -0.269 OA
ATOM      6  C   UNL     1      14.882   5.655 -19.267  1.00  0.00     0.251 C 
ATOM      7  H   UNL     1      14.656   6.714 -17.620  1.00  0.00     0.163 HD
BRANCH   6   8
ATOM      8  C   UNL     1      14.602   5.409 -20.710  1.00  0.00     0.039 A 
ATOM      9  C   UNL     1      14.162   6.361 -21.629  1.00  0.00     0.014 A 
ATOM     10  C   UNL     1      14.741   4.075 -21.143  1.00  0.00     0.014 A 
ATOM     11  C   UNL     1      13.769   5.981 -22.909  1.00  0.00     0.010 A 
ATOM     12  C   UNL     1      14.369   3.692 -22.427  1.00  0.00     0.010 A 
ATOM     13  C   UNL     1      13.841   4.642 -23.295  1.00  0.00    -0.014 A 
BRANCH  13  14
ATOM     14  C   UNL     1      13.465   4.303 -24.665  1.00  0.00     0.031 A 
ATOM     15  C   UNL     1      14.352   4.878 -25.722  1.00  0.00     0.074 A 
ATOM     16  C   UNL     1      12.492   3.420 -24.964  1.00  0.00     0.049 A 
ATOM     17  N   UNL     1      14.044   5.656 -26.710  1.00  0.00    -0.248 NA
ATOM     18  C   UNL     1      15.797   4.626 -25.593  1.00  0.00     0.031 C 
ATOM     19  C   UNL     1      11.748   2.550 -24.048  1.00  0.00     0.029 A 
ATOM     20  N   UNL     1      12.034   3.034 -26.188  1.00  0.00    -0.354 N 
ATOM     21  C   UNL     1      15.221   5.835 -27.442  1.00  0.00     0.074 A 
ATOM     22  C   UNL     1      16.285   5.302 -26.633  1.00  0.00     0.031 C 
ATOM     23  C   UNL     1      11.110   1.594 -24.761  1.00  0.00     0.029 A 
ATOM     24  C   UNL     1      11.287   1.862 -26.178  1.00  0.00     0.049 A 
ATOM     25  H   UNL     1      12.216   3.543 -27.011  1.00  0.00     0.167 HD
ATOM     26  C   UNL     1      15.217   6.231 -28.746  1.00  0.00     0.037 A 
ATOM     27  C   UNL     1      10.915   1.130 -27.259  1.00  0.00     0.037 A 
ATOM     28  C   UNL     1      13.981   6.876 -29.098  1.00  0.00     0.049 A 
ATOM     29  C   UNL     1      10.996   2.023 -28.444  1.00  0.00     0.074 A 
ATOM     30  C   UNL     1      13.317   8.006 -28.661  1.00  0.00     0.029 A 
ATOM     31  N   UNL     1      13.056   6.163 -29.821  1.00  0.00    -0.354 N 
ATOM     32  N   UNL     1      10.231   3.063 -28.636  1.00  0.00    -0.248 NA
ATOM     33  C   UNL     1      12.227   2.002 -29.218  1.00  0.00     0.031 C 
ATOM     34  C   UNL     1      11.935   7.662 -28.709  1.00  0.00     0.029 A 
ATOM     35  C   UNL     1      11.841   6.365 -29.218  1.00  0.00     0.049 A 
ATOM     36  H   UNL     1      13.232   5.613 -30.618  1.00  0.00     0.167 HD
ATOM     37  C   UNL     1      11.057   4.009 -29.224  1.00  0.00     0.074 A 
ATOM     38  C   UNL     1      12.249   3.270 -29.634  1.00  0.00     0.031 C 
ATOM     39  C   UNL     1      10.822   5.347 -29.088  1.00  0.00     0.037 A 
BRANCH  26  40
ATOM     40  C   UNL     1      16.205   5.744 -29.785  1.00  0.00     0.058 A 
ATOM     41  C   UNL     1      16.958   4.556 -29.650  1.00  0.00     0.135 A 
ATOM     42  C   UNL     1      16.198   6.311 -31.078  1.00  0.00     0.135 A 
ATOM     43  F   UNL     1      16.997   3.857 -28.510  1.00  0.00    -0.206 F 
ATOM     44  C   UNL     1      17.633   3.965 -30.711  1.00  0.00     0.059 A 
ATOM     45  C   UNL     1      16.825   5.703 -32.170  1.00  0.00     0.059 A 
ATOM     46  F   UNL     1      15.511   7.437 -31.328  1.00  0.00    -0.206 F 
ATOM     47  C   UNL     1      17.530   4.522 -31.976  1.00  0.00     0.060 A 
BRANCH  47  48
ATOM     48  S   UNL     1      18.235   3.603 -33.355  1.00  0.00     0.124 S 
ATOM     49  O   UNL     1      19.664   3.721 -33.085  1.00  0.00    -0.237 OA
ATOM     50  O   UNL     1      17.657   2.278 -33.159  1.00  0.00    -0.237 OA
ATOM     51  O   UNL     1      17.752   4.329 -34.525  1.00  0.00    -0.744 OA
ENDBRANCH  47  48
ENDBRANCH  26  40
BRANCH  27  52
ATOM     52  C   UNL     1      10.887  -0.354 -27.384  1.00  0.00     0.058 A 
ATOM     53  C   UNL     1      11.709  -1.174 -26.583  1.00  0.00     0.135 A 
ATOM     54  C   UNL     1      10.277  -0.982 -28.487  1.00  0.00     0.135 A 
ATOM     55  F   UNL     1      12.383  -0.671 -25.539  1.00  0.00    -0.206 F 
ATOM     56  C   UNL     1      11.946  -2.514 -26.878  1.00  0.00     0.059 A 
ATOM     57  C   UNL     1      10.508  -2.326 -28.808  1.00  0.00     0.059 A 
ATOM     58  F   UNL     1       9.496  -0.274 -29.317  1.00  0.00    -0.206 F 
ATOM     59  C   UNL     1      11.368  -3.076 -28.010  1.00  0.00     0.060 A 
BRANCH  59  60
ATOM     60  S   UNL     1      11.838  -4.766 -28.447  1.00  0.00     0.124 S 
ATOM     61  O   UNL     1      13.274  -4.628 -28.669  1.00  0.00    -0.237 OA
ATOM     62  O   UNL     1      11.455  -5.508 -27.250  1.00  0.00    -0.237 OA
ATOM     63  O   UNL     1      11.042  -5.047 -29.637  1.00  0.00    -0.744 OA
ENDBRANCH  59  60
ENDBRANCH  27  52
BRANCH  39  64
ATOM     64  C   UNL     1       9.501   5.796 -28.518  1.00  0.00     0.058 A 
ATOM     65  C   UNL     1       8.718   6.679 -29.278  1.00  0.00     0.135 A 
ATOM     66  C   UNL     1       9.087   5.549 -27.196  1.00  0.00     0.135 A 
ATOM     67  F   UNL     1       9.087   6.998 -30.530  1.00  0.00    -0.206 F 
ATOM     68  C   UNL     1       7.591   7.304 -28.752  1.00  0.00     0.059 A 
ATOM     69  C   UNL     1       7.941   6.140 -26.658  1.00  0.00     0.059 A 
ATOM     70  F   UNL     1       9.827   4.794 -26.372  1.00  0.00    -0.206 F 
ATOM     71  C   UNL     1       7.212   7.034 -27.438  1.00  0.00     0.060 A 
BRANCH  71  72
ATOM     72  S   UNL     1       5.784   7.910 -26.765  1.00  0.00     0.124 S 
ATOM     73  O   UNL     1       6.271   9.286 -26.717  1.00  0.00    -0.237 OA
ATOM     74  O   UNL     1       4.754   7.642 -27.764  1.00  0.00    -0.237 OA
ATOM     75  O   UNL     1       5.569   7.281 -25.465  1.00  0.00    -0.744 OA
ENDBRANCH  71  72
ENDBRANCH  39  64
ENDBRANCH  13  14
ENDBRANCH   6   8
ENDBRANCH   3   4
ENDBRANCH   2   3
ENDBRANCH   1   2
BRANCH   1  76
ATOM     76  C   UNL     1      12.322   8.764 -16.700  1.00  0.00     0.116 C 
BRANCH  76  77
ATOM     77  N   UNL     1      12.310  10.218 -16.716  1.00  0.00    -0.352 N 
ATOM     78  C   UNL     1      11.820  11.084 -15.769  1.00  0.00     0.254 C 
ATOM     79  H   UNL     1      12.706  10.639 -17.513  1.00  0.00     0.163 HD
ATOM     80  O   UNL     1      11.860  12.298 -15.947  1.00  0.00    -0.269 OA
BRANCH  78  81
ATOM     81  C   UNL     1      11.174  10.562 -14.552  1.00  0.00     0.076 A 
ATOM     82  C   UNL     1       9.901  11.032 -14.220  1.00  0.00     0.038 A 
ATOM     83  C   UNL     1      11.805   9.634 -13.726  1.00  0.00     0.136 A 
ATOM     84  C   UNL     1       9.235  10.493 -13.112  1.00  0.00     0.085 A 
ATOM     85  C   UNL     1      11.125   9.066 -12.651  1.00  0.00     0.041 A 
ATOM     86  F   UNL     1      13.068   9.250 -13.956  1.00  0.00    -0.206 F 
ATOM     87  C   UNL     1       9.822   9.471 -12.358  1.00  0.00     0.025 A 
BRANCH  84  88
ATOM     88  S   UNL     1       7.710  11.266 -12.637  1.00  0.00     0.257 S 
ATOM     89  O   UNL     1       7.984  12.677 -12.482  1.00  0.00    -0.205 OA
ATOM     90  O   UNL     1       6.682  10.764 -13.520  1.00  0.00    -0.205 OA
BRANCH  88  91
ATOM     91  N   UNL     1       7.351  10.677 -11.085  1.00  0.00    -0.123 NA
ATOM     92  H   UNL     1       7.284   9.662 -11.164  1.00  0.00     0.167 HD
BRANCH  91  93
ATOM     93  N   UNL     1       8.242  10.952  -9.982  1.00  0.00    -0.275 N 
ATOM     94  C   UNL     1       7.862  11.247  -8.700  1.00  0.00     0.265 C 
ATOM     95  H   UNL     1       9.208  10.924 -10.169  1.00  0.00     0.186 HD
ATOM     96  O   UNL     1       8.738  11.237  -7.825  1.00  0.00    -0.271 OA
BRANCH  94  97
ATOM     97  C   UNL     1       6.466  11.777  -8.380  1.00  0.00     0.244 C 
ATOM     98  C   UNL     1       6.478  13.250  -8.565  1.00  0.00     0.042 C 
ATOM     99  N   UNL     1       5.420  11.336  -9.341  1.00  0.00    -0.171 NA
ATOM    100  C   UNL     1       5.576  13.489  -9.517  1.00  0.00     0.091 C 
ATOM    101  N   UNL     1       4.941  12.346  -9.939  1.00  0.00    -0.155 NA
BRANCH 100 102
ATOM    102  C   UNL     1       5.284  14.815 -10.056  1.00  0.00     0.002 A 
ATOM    103  C   UNL     1       4.003  15.364  -9.926  1.00  0.00     0.010 A 
ATOM    104  C   UNL     1       6.284  15.561 -10.697  1.00  0.00     0.010 A 
ATOM    105  C   UNL     1       3.732  16.646 -10.411  1.00  0.00     0.001 A 
ATOM    106  C   UNL     1       6.010  16.840 -11.187  1.00  0.00     0.001 A 
ATOM    107  C   UNL     1       4.735  17.384 -11.040  1.00  0.00     0.000 A 
ENDBRANCH 100 102
ENDBRANCH  94  97
ENDBRANCH  91  93
ENDBRANCH  88  91
ENDBRANCH  84  88
ENDBRANCH  78  81
ENDBRANCH  76  77
ENDBRANCH   1  76
TORSDOF 19
