REMARK SMILES O=C(NCCCCNC(=O)c1c(C(=O)N2CCc3ccccc32)cccc1[N+](=O)[O-])c1ccc(-c2c3nc(c(-c4c(F)cc(S(=O)(=O)[O-])cc4F)c4ccc([nH]4)c(-c4c(F)cc(S(=O)(=O)[O-])cc4F)c4nc(c(-c5c(F)cc(S(=O)(=O)[O-])cc5F)c5ccc2[nH]5)C=C4)C=C3)cc1
REMARK SMILES IDX 5 1 4 2 3 3 1 4 2 5 31 7 32 8 96 9 33 10 95 11 34 12 35 13
REMARK SMILES IDX 36 14 89 15 37 16 94 17 88 18 90 19 38 20 93 21 87 22 86 23
REMARK SMILES IDX 39 25 73 26 52 27 72 28 53 29 56 30 71 31 91 32 54 33 55 34
REMARK SMILES IDX 70 36 92 37 57 38 40 39 41 40 50 41 42 42 43 43 49 44 51 45
REMARK SMILES IDX 44 46 45 47 46 48 47 49 48 50 74 51 75 52 84 53 76 54 77 55
REMARK SMILES IDX 83 56 85 57 78 58 79 59 80 60 81 61 82 62 58 63 59 64 68 65
REMARK SMILES IDX 60 66 61 67 67 68 69 69 62 70 63 71 64 72 65 73 66 74 6 75
REMARK SMILES IDX 7 76 8 77 9 78 10 80 11 81 12 82 27 83 24 84 26 85 25 86
REMARK SMILES IDX 13 87 14 88 15 89 16 90 23 91 17 92 18 93 22 94 19 95 21 96
REMARK SMILES IDX 20 97 28 98 29 99 30 100
REMARK H PARENT 3 6 90 24 56 35 8 79
REMARK Flexibility Score: inf
ROOT
ATOM      1  C   UNL     1       5.033  -1.075   2.401  1.00  0.00     0.023 C 
ENDROOT
BRANCH   1   2
ATOM      2  C   UNL     1       4.708  -1.094   0.908  1.00  0.00     0.116 C 
BRANCH   2   3
ATOM      3  N   UNL     1       3.280  -1.097   0.638  1.00  0.00    -0.352 N 
ATOM      4  O   UNL     1       1.267  -0.283   0.052  1.00  0.00    -0.269 OA
ATOM      5  C   UNL     1       2.488  -0.144   0.041  1.00  0.00     0.251 C 
ATOM      6  H   UNL     1       2.804  -1.909   0.928  1.00  0.00     0.163 HD
BRANCH   5   7
ATOM      7  C   UNL     1       3.086   1.058  -0.585  1.00  0.00     0.039 A 
ATOM      8  C   UNL     1       4.196   0.965  -1.428  1.00  0.00     0.014 A 
ATOM      9  C   UNL     1       2.497   2.304  -0.345  1.00  0.00     0.014 A 
ATOM     10  C   UNL     1       4.800   2.124  -1.915  1.00  0.00     0.010 A 
ATOM     11  C   UNL     1       3.065   3.460  -0.889  1.00  0.00     0.010 A 
ATOM     12  C   UNL     1       4.243   3.385  -1.648  1.00  0.00    -0.014 A 
BRANCH  12  13
ATOM     13  C   UNL     1       4.883   4.616  -2.179  1.00  0.00     0.031 A 
ATOM     14  C   UNL     1       5.490   5.628  -1.245  1.00  0.00     0.074 A 
ATOM     15  C   UNL     1       4.911   4.829  -3.508  1.00  0.00     0.049 A 
ATOM     16  N   UNL     1       6.041   6.782  -1.522  1.00  0.00    -0.248 NA
ATOM     17  C   UNL     1       5.468   5.304   0.190  1.00  0.00     0.031 C 
ATOM     18  C   UNL     1       4.354   3.926  -4.517  1.00  0.00     0.029 A 
ATOM     19  N   UNL     1       5.424   5.870  -4.240  1.00  0.00    -0.354 N 
ATOM     20  C   UNL     1       6.409   7.335  -0.301  1.00  0.00     0.074 A 
ATOM     21  C   UNL     1       6.001   6.396   0.723  1.00  0.00     0.031 C 
ATOM     22  C   UNL     1       4.568   4.444  -5.735  1.00  0.00     0.029 A 
ATOM     23  C   UNL     1       5.232   5.736  -5.594  1.00  0.00     0.049 A 
ATOM     24  H   UNL     1       5.886   6.639  -3.834  1.00  0.00     0.167 HD
ATOM     25  C   UNL     1       7.032   8.513  -0.056  1.00  0.00     0.037 A 
ATOM     26  C   UNL     1       5.535   6.567  -6.609  1.00  0.00     0.037 A 
ATOM     27  C   UNL     1       7.451   9.437  -1.079  1.00  0.00     0.049 A 
ATOM     28  C   UNL     1       6.217   7.872  -6.316  1.00  0.00     0.074 A 
ATOM     29  C   UNL     1       8.117  10.642  -0.931  1.00  0.00     0.029 A 
ATOM     30  N   UNL     1       7.243   9.261  -2.439  1.00  0.00    -0.354 N 
ATOM     31  N   UNL     1       6.576   8.368  -5.156  1.00  0.00    -0.248 NA
ATOM     32  C   UNL     1       6.537   8.730  -7.465  1.00  0.00     0.031 C 
ATOM     33  C   UNL     1       8.282  11.210  -2.200  1.00  0.00     0.029 A 
ATOM     34  C   UNL     1       7.753  10.341  -3.141  1.00  0.00     0.049 A 
ATOM     35  H   UNL     1       6.798   8.482  -2.846  1.00  0.00     0.167 HD
ATOM     36  C   UNL     1       7.179   9.588  -5.436  1.00  0.00     0.074 A 
ATOM     37  C   UNL     1       7.142   9.753  -6.875  1.00  0.00     0.031 C 
ATOM     38  C   UNL     1       7.716  10.488  -4.575  1.00  0.00     0.037 A 
BRANCH  25  39
ATOM     39  C   UNL     1       7.277   8.879   1.382  1.00  0.00     0.058 A 
ATOM     40  C   UNL     1       8.261   8.238   2.151  1.00  0.00     0.135 A 
ATOM     41  C   UNL     1       6.521   9.891   1.997  1.00  0.00     0.135 A 
ATOM     42  F   UNL     1       9.002   7.255   1.617  1.00  0.00    -0.206 F 
ATOM     43  C   UNL     1       8.461   8.560   3.490  1.00  0.00     0.059 A 
ATOM     44  C   UNL     1       6.720  10.245   3.328  1.00  0.00     0.059 A 
ATOM     45  F   UNL     1       5.571  10.539   1.306  1.00  0.00    -0.206 F 
ATOM     46  C   UNL     1       7.677   9.557   4.073  1.00  0.00     0.060 A 
BRANCH  46  47
ATOM     47  S   UNL     1       7.920   9.941   5.821  1.00  0.00     0.124 S 
ATOM     48  O   UNL     1       7.231   8.823   6.459  1.00  0.00    -0.237 OA
ATOM     49  O   UNL     1       9.373   9.942   5.946  1.00  0.00    -0.237 OA
ATOM     50  O   UNL     1       7.279  11.243   5.974  1.00  0.00    -0.744 OA
ENDBRANCH  46  47
ENDBRANCH  25  39
BRANCH  26  51
ATOM     51  C   UNL     1       5.187   6.170  -7.997  1.00  0.00     0.058 A 
ATOM     52  C   UNL     1       6.173   5.736  -8.893  1.00  0.00     0.135 A 
ATOM     53  C   UNL     1       3.851   6.148  -8.428  1.00  0.00     0.135 A 
ATOM     54  F   UNL     1       7.464   5.747  -8.526  1.00  0.00    -0.206 F 
ATOM     55  C   UNL     1       5.849   5.286 -10.168  1.00  0.00     0.059 A 
ATOM     56  C   UNL     1       3.499   5.682  -9.690  1.00  0.00     0.059 A 
ATOM     57  F   UNL     1       2.871   6.539  -7.599  1.00  0.00    -0.206 F 
ATOM     58  C   UNL     1       4.507   5.253 -10.554  1.00  0.00     0.060 A 
BRANCH  58  59
ATOM     59  S   UNL     1       4.085   4.577 -12.175  1.00  0.00     0.124 S 
ATOM     60  O   UNL     1       4.455   5.678 -13.057  1.00  0.00    -0.237 OA
ATOM     61  O   UNL     1       4.932   3.391 -12.245  1.00  0.00    -0.237 OA
ATOM     62  O   UNL     1       2.655   4.309 -12.063  1.00  0.00    -0.744 OA
ENDBRANCH  58  59
ENDBRANCH  26  51
BRANCH  38  63
ATOM     63  C   UNL     1       8.338  11.722  -5.164  1.00  0.00     0.058 A 
ATOM     64  C   UNL     1       7.556  12.788  -5.632  1.00  0.00     0.135 A 
ATOM     65  C   UNL     1       9.734  11.864  -5.200  1.00  0.00     0.135 A 
ATOM     66  F   UNL     1       6.216  12.697  -5.626  1.00  0.00    -0.206 F 
ATOM     67  C   UNL     1       8.137  13.952  -6.123  1.00  0.00     0.059 A 
ATOM     68  C   UNL     1      10.337  13.026  -5.670  1.00  0.00     0.059 A 
ATOM     69  F   UNL     1      10.525  10.873  -4.758  1.00  0.00    -0.206 F 
ATOM     70  C   UNL     1       9.529  14.063  -6.136  1.00  0.00     0.060 A 
BRANCH  70  71
ATOM     71  S   UNL     1      10.274  15.598  -6.727  1.00  0.00     0.124 S 
ATOM     72  O   UNL     1      10.141  15.452  -8.172  1.00  0.00    -0.237 OA
ATOM     73  O   UNL     1       9.428  16.617  -6.112  1.00  0.00    -0.237 OA
ATOM     74  O   UNL     1      11.638  15.533  -6.210  1.00  0.00    -0.744 OA
ENDBRANCH  70  71
ENDBRANCH  38  63
ENDBRANCH  12  13
ENDBRANCH   5   7
ENDBRANCH   2   3
ENDBRANCH   1   2
BRANCH   1  75
ATOM     75  C   UNL     1       4.576  -2.295   3.206  1.00  0.00     0.023 C 
BRANCH  75  76
ATOM     76  C   UNL     1       4.977  -3.655   2.641  1.00  0.00     0.116 C 
BRANCH  76  77
ATOM     77  N   UNL     1       6.415  -3.826   2.483  1.00  0.00    -0.352 N 
ATOM     78  C   UNL     1       7.200  -4.948   2.605  1.00  0.00     0.259 C 
ATOM     79  H   UNL     1       6.904  -3.004   2.250  1.00  0.00     0.163 HD
ATOM     80  O   UNL     1       8.413  -4.860   2.451  1.00  0.00    -0.269 OA
BRANCH  78  81
ATOM     81  C   UNL     1       6.598  -6.244   2.970  1.00  0.00     0.130 A 
ATOM     82  C   UNL     1       7.040  -6.930   4.110  1.00  0.00     0.060 A 
ATOM     83  C   UNL     1       5.579  -6.832   2.209  1.00  0.00     0.282 A 
ATOM     84  C   UNL     1       6.389  -8.107   4.521  1.00  0.00     0.015 A 
ATOM     85  C   UNL     1       4.904  -7.987   2.636  1.00  0.00     0.086 A 
ATOM     86  C   UNL     1       5.299  -8.610   3.813  1.00  0.00     0.008 A 
BRANCH  82  87
ATOM     87  C   UNL     1       8.260  -6.543   4.857  1.00  0.00     0.259 C 
ATOM     88  O   UNL     1       9.318  -7.102   4.596  1.00  0.00    -0.269 OA
BRANCH  87  89
ATOM     89  N   UNL     1       8.061  -5.658   5.891  1.00  0.00    -0.308 N 
ATOM     90  C   UNL     1       8.653  -4.310   5.890  1.00  0.00     0.131 C 
ATOM     91  C   UNL     1       8.001  -6.058   7.244  1.00  0.00     0.047 A 
ATOM     92  C   UNL     1       8.333  -3.704   7.265  1.00  0.00     0.059 C 
ATOM     93  C   UNL     1       8.118  -4.944   8.076  1.00  0.00    -0.022 A 
ATOM     94  C   UNL     1       7.881  -7.331   7.771  1.00  0.00     0.026 A 
ATOM     95  C   UNL     1       8.029  -5.068   9.454  1.00  0.00     0.006 A 
ATOM     96  C   UNL     1       7.804  -7.471   9.159  1.00  0.00     0.002 A 
ATOM     97  C   UNL     1       7.861  -6.345   9.994  1.00  0.00     0.000 A 
ENDBRANCH  87  89
ENDBRANCH  82  87
BRANCH  83  98
ATOM     98  N   UNL     1       5.231  -6.317   0.897  1.00  0.00     0.063 N 
ATOM     99  O   UNL     1       4.023  -6.175   0.659  1.00  0.00    -0.258 OA
ATOM    100  O   UNL     1       6.150  -6.094   0.103  1.00  0.00    -0.258 OA
ENDBRANCH  83  98
ENDBRANCH  78  81
ENDBRANCH  76  77
ENDBRANCH  75  76
ENDBRANCH   1  75
TORSDOF 17
