REMARK SMILES Cc1[nH]c2ccc(Br)cc2c(=O)c1CCC(=O)NCCCCNC(=O)c1ccc(-c2c3nc(c(-c4c(F)cc(S(=O)(=O)[O-])cc4F)c4ccc([nH]4)c(-c4c(F)cc(S(=O)(=O)[O-])cc4F)c4nc(c(-c5c(F)cc(S(=O)(=O)[O-])cc5F)c5ccc2[nH]5)C=C4)C=C3)cc1
REMARK SMILES IDX 21 1 20 2 19 3 18 4 16 5 17 6 15 8 14 9 13 10 1 11 2 12 3 13
REMARK SMILES IDX 4 14 11 16 5 17 10 18 12 19 6 20 9 21 7 22 8 23 22 24 23 25
REMARK SMILES IDX 24 26 25 28 26 29 27 30 91 31 28 32 90 33 29 34 30 35 31 36
REMARK SMILES IDX 84 37 32 38 89 39 83 40 85 41 33 42 88 43 82 44 81 45 34 47
REMARK SMILES IDX 68 48 47 49 67 50 48 51 51 52 66 53 86 54 49 55 50 56 65 58
REMARK SMILES IDX 87 59 52 60 35 61 36 62 45 63 37 64 38 65 44 66 46 67 39 68
REMARK SMILES IDX 40 69 41 70 42 71 43 72 69 73 70 74 79 75 71 76 72 77 78 78
REMARK SMILES IDX 80 79 73 80 74 81 75 82 76 83 77 84 53 85 54 86 63 87 55 88
REMARK SMILES IDX 56 89 62 90 64 91 57 92 58 93 59 94 60 95 61 96
REMARK H PARENT 18 7 3 15 23 27 85 46 51 57
REMARK Flexibility Score: inf
ROOT
ATOM      1  C   UNL     1      -0.631   4.489   3.949  1.00  0.00     0.023 C 
ENDROOT
BRANCH   1   2
ATOM      2  C   UNL     1      -0.263   3.135   3.366  1.00  0.00     0.023 C 
BRANCH   2   3
ATOM      3  C   UNL     1       0.140   2.074   4.378  1.00  0.00     0.116 C 
BRANCH   3   4
ATOM      4  N   UNL     1      -1.003   1.245   4.713  1.00  0.00    -0.356 N 
ATOM      5  C   UNL     1      -1.544   0.209   4.008  1.00  0.00     0.220 C 
ATOM      6  O   UNL     1      -2.613  -0.271   4.387  1.00  0.00    -0.275 OA
ATOM      7  H   UNL     1      -1.449   1.459   5.564  1.00  0.00     0.163 HD
BRANCH   5   8
ATOM      8  C   UNL     1      -0.806  -0.378   2.817  1.00  0.00     0.105 C 
BRANCH   8   9
ATOM      9  C   UNL     1      -1.445  -0.054   1.454  1.00  0.00     0.051 C 
BRANCH   9  10
ATOM     10  C   UNL     1      -0.731   1.036   0.678  1.00  0.00     0.020 A 
ATOM     11  C   UNL     1       1.361  -0.282   0.192  1.00  0.00     0.064 C 
ATOM     12  C   UNL     1       0.520   0.972   0.164  1.00  0.00     0.019 A 
ATOM     13  N   UNL     1       1.146   2.068  -0.401  1.00  0.00    -0.358 N 
ATOM     14  C   UNL     1       0.588   3.349  -0.368  1.00  0.00     0.050 A 
ATOM     15  H   UNL     1       2.017   1.941  -0.842  1.00  0.00     0.166 HD
ATOM     16  C   UNL     1      -1.504   2.310   0.443  1.00  0.00     0.192 A 
ATOM     17  C   UNL     1       1.363   4.483  -0.625  1.00  0.00     0.028 A 
ATOM     18  C   UNL     1      -0.740   3.517   0.039  1.00  0.00     0.047 A 
ATOM     19  O   UNL     1      -2.705   2.378   0.644  1.00  0.00    -0.289 OA
ATOM     20  C   UNL     1       0.817   5.761  -0.462  1.00  0.00     0.018 A 
ATOM     21  C   UNL     1      -1.304   4.790   0.177  1.00  0.00     0.030 A 
ATOM     22  C   UNL     1      -0.510   5.908  -0.060  1.00  0.00     0.018 A 
ATOM     23  Br  UNL     1      -1.213   7.638   0.230  1.00  0.00    -0.051 Br
ENDBRANCH   9  10
ENDBRANCH   8   9
ENDBRANCH   5   8
ENDBRANCH   3   4
ENDBRANCH   2   3
ENDBRANCH   1   2
BRANCH   1  24
ATOM     24  C   UNL     1       0.550   5.294   4.464  1.00  0.00     0.116 C 
BRANCH  24  25
ATOM     25  N   UNL     1       1.565   5.577   3.451  1.00  0.00    -0.352 N 
ATOM     26  C   UNL     1       2.092   6.767   2.999  1.00  0.00     0.251 C 
ATOM     27  H   UNL     1       1.937   4.777   3.015  1.00  0.00     0.163 HD
ATOM     28  O   UNL     1       2.900   6.752   2.072  1.00  0.00    -0.269 OA
BRANCH  26  29
ATOM     29  C   UNL     1       1.666   8.059   3.587  1.00  0.00     0.039 A 
ATOM     30  C   UNL     1       1.383   8.166   4.943  1.00  0.00     0.014 A 
ATOM     31  C   UNL     1       1.521   9.183   2.764  1.00  0.00     0.014 A 
ATOM     32  C   UNL     1       0.715   9.284   5.418  1.00  0.00     0.010 A 
ATOM     33  C   UNL     1       0.989  10.371   3.284  1.00  0.00     0.010 A 
ATOM     34  C   UNL     1       0.522  10.413   4.604  1.00  0.00    -0.014 A 
BRANCH  34  35
ATOM     35  C   UNL     1      -0.143  11.601   5.209  1.00  0.00     0.031 A 
ATOM     36  C   UNL     1      -1.449  12.130   4.677  1.00  0.00     0.074 A 
ATOM     37  C   UNL     1       0.384  12.115   6.341  1.00  0.00     0.049 A 
ATOM     38  N   UNL     1      -2.225  13.053   5.189  1.00  0.00    -0.248 NA
ATOM     39  C   UNL     1      -1.950  11.570   3.411  1.00  0.00     0.031 C 
ATOM     40  C   UNL     1       1.655  11.691   6.938  1.00  0.00     0.029 A 
ATOM     41  N   UNL     1      -0.105  13.033   7.234  1.00  0.00    -0.354 N 
ATOM     42  C   UNL     1      -3.284  13.202   4.301  1.00  0.00     0.074 A 
ATOM     43  C   UNL     1      -3.045  12.290   3.205  1.00  0.00     0.031 C 
ATOM     44  C   UNL     1       1.777  12.240   8.153  1.00  0.00     0.029 A 
ATOM     45  C   UNL     1       0.642  13.125   8.386  1.00  0.00     0.049 A 
ATOM     46  H   UNL     1      -0.912  13.573   7.068  1.00  0.00     0.167 HD
ATOM     47  C   UNL     1      -4.359  14.021   4.399  1.00  0.00     0.037 A 
ATOM     48  C   UNL     1       0.440  13.833   9.514  1.00  0.00     0.037 A 
ATOM     49  C   UNL     1      -4.609  14.897   5.514  1.00  0.00     0.049 A 
ATOM     50  C   UNL     1      -0.770  14.713   9.607  1.00  0.00     0.074 A 
ATOM     51  C   UNL     1      -5.674  15.760   5.709  1.00  0.00     0.029 A 
ATOM     52  N   UNL     1      -3.792  15.014   6.630  1.00  0.00    -0.354 N 
ATOM     53  N   UNL     1      -1.750  14.850   8.747  1.00  0.00    -0.248 NA
ATOM     54  C   UNL     1      -0.891  15.555  10.804  1.00  0.00     0.031 C 
ATOM     55  C   UNL     1      -5.485  16.421   6.926  1.00  0.00     0.029 A 
ATOM     56  C   UNL     1      -4.322  15.944   7.509  1.00  0.00     0.049 A 
ATOM     57  H   UNL     1      -2.958  14.511   6.775  1.00  0.00     0.167 HD
ATOM     58  C   UNL     1      -2.602  15.799   9.294  1.00  0.00     0.074 A 
ATOM     59  C   UNL     1      -2.037  16.184  10.572  1.00  0.00     0.031 C 
ATOM     60  C   UNL     1      -3.743  16.314   8.776  1.00  0.00     0.037 A 
BRANCH  47  61
ATOM     61  C   UNL     1      -5.351  14.023   3.268  1.00  0.00     0.058 A 
ATOM     62  C   UNL     1      -6.267  12.975   3.086  1.00  0.00     0.135 A 
ATOM     63  C   UNL     1      -5.435  15.123   2.397  1.00  0.00     0.135 A 
ATOM     64  F   UNL     1      -6.222  11.894   3.881  1.00  0.00    -0.206 F 
ATOM     65  C   UNL     1      -7.222  13.011   2.074  1.00  0.00     0.059 A 
ATOM     66  C   UNL     1      -6.395  15.190   1.392  1.00  0.00     0.059 A 
ATOM     67  F   UNL     1      -4.584  16.153   2.528  1.00  0.00    -0.206 F 
ATOM     68  C   UNL     1      -7.280  14.124   1.233  1.00  0.00     0.060 A 
BRANCH  68  69
ATOM     69  S   UNL     1      -8.540  14.167  -0.060  1.00  0.00     0.124 S 
ATOM     70  O   UNL     1      -8.015  13.193  -1.012  1.00  0.00    -0.237 OA
ATOM     71  O   UNL     1      -9.743  13.763   0.661  1.00  0.00    -0.237 OA
ATOM     72  O   UNL     1      -8.520  15.555  -0.510  1.00  0.00    -0.744 OA
ENDBRANCH  68  69
ENDBRANCH  47  61
BRANCH  48  73
ATOM     73  C   UNL     1       1.407  13.716  10.637  1.00  0.00     0.058 A 
ATOM     74  C   UNL     1       1.062  13.050  11.821  1.00  0.00     0.135 A 
ATOM     75  C   UNL     1       2.719  14.202  10.517  1.00  0.00     0.135 A 
ATOM     76  F   UNL     1      -0.181  12.572  11.985  1.00  0.00    -0.206 F 
ATOM     77  C   UNL     1       1.986  12.858  12.844  1.00  0.00     0.059 A 
ATOM     78  C   UNL     1       3.667  14.000  11.514  1.00  0.00     0.059 A 
ATOM     79  F   UNL     1       3.103  14.832   9.396  1.00  0.00    -0.206 F 
ATOM     80  C   UNL     1       3.291  13.328  12.675  1.00  0.00     0.060 A 
BRANCH  80  81
ATOM     81  S   UNL     1       4.511  12.990  13.963  1.00  0.00     0.124 S 
ATOM     82  O   UNL     1       4.138  13.962  14.983  1.00  0.00    -0.237 OA
ATOM     83  O   UNL     1       4.243  11.591  14.284  1.00  0.00    -0.237 OA
ATOM     84  O   UNL     1       5.783  13.235  13.289  1.00  0.00    -0.744 OA
ENDBRANCH  80  81
ENDBRANCH  48  73
BRANCH  60  85
ATOM     85  C   UNL     1      -4.459  17.356   9.582  1.00  0.00     0.058 A 
ATOM     86  C   UNL     1      -4.006  18.683   9.617  1.00  0.00     0.135 A 
ATOM     87  C   UNL     1      -5.655  17.046  10.248  1.00  0.00     0.135 A 
ATOM     88  F   UNL     1      -2.863  19.024   9.003  1.00  0.00    -0.206 F 
ATOM     89  C   UNL     1      -4.718  19.672  10.286  1.00  0.00     0.059 A 
ATOM     90  C   UNL     1      -6.392  18.023  10.908  1.00  0.00     0.059 A 
ATOM     91  F   UNL     1      -6.128  15.790  10.238  1.00  0.00    -0.206 F 
ATOM     92  C   UNL     1      -5.915  19.334  10.922  1.00  0.00     0.060 A 
BRANCH  92  93
ATOM     93  S   UNL     1      -6.863  20.642  11.727  1.00  0.00     0.124 S 
ATOM     94  O   UNL     1      -6.059  20.899  12.917  1.00  0.00    -0.237 OA
ATOM     95  O   UNL     1      -6.857  21.697  10.719  1.00  0.00    -0.237 OA
ATOM     96  O   UNL     1      -8.162  20.021  11.969  1.00  0.00    -0.744 OA
ENDBRANCH  92  93
ENDBRANCH  60  85
ENDBRANCH  34  35
ENDBRANCH  26  29
ENDBRANCH  24  25
ENDBRANCH   1  24
TORSDOF 16
