REMARK SMILES C[C@H](c1ccc(Br)s1)[NH+]1CCC(CC(=O)NCCCCNC(=O)c2ccc(-c3c4nc(c(-c5c(F)cc(S(=O)(=O)[O-])cc5F)c5ccc([nH]5)c(-c5c(F)cc(S(=O)(=O)[O-])cc5F)c5nc(c(-c6c(F)cc(S(=O)(=O)[O-])cc6F)c6ccc3[nH]6)C=C5)C=C4)cc2)CC1
REMARK SMILES IDX 18 1 17 2 16 3 14 4 15 5 13 7 12 8 9 9 10 10 91 11 11 13
REMARK SMILES IDX 90 14 2 15 1 16 3 17 4 18 8 19 5 20 6 21 7 22 19 23 20 24
REMARK SMILES IDX 21 25 22 26 23 28 24 29 25 30 89 31 26 32 88 33 27 34 28 35
REMARK SMILES IDX 29 36 82 37 30 38 87 39 81 40 83 41 31 42 86 43 80 44 79 45
REMARK SMILES IDX 32 47 66 48 45 49 65 50 46 51 49 52 64 53 84 54 47 55 48 56
REMARK SMILES IDX 63 58 85 59 50 60 33 61 34 62 43 63 35 64 36 65 42 66 44 67
REMARK SMILES IDX 37 68 38 69 39 70 40 71 41 72 67 73 68 74 77 75 69 76 70 77
REMARK SMILES IDX 76 78 78 79 71 80 72 81 73 82 74 83 75 84 51 85 52 86 61 87
REMARK SMILES IDX 53 88 54 89 60 90 62 91 55 92 56 93 57 94 58 95 59 96
REMARK H PARENT 16 6 9 12 21 27 83 46 49 57
REMARK Flexibility Score: inf
ROOT
ATOM      1  C   UNL     1      -3.747   2.574   0.443  1.00  0.00     0.023 C 
ENDROOT
BRANCH   1   2
ATOM      2  C   UNL     1      -5.024   1.787   0.785  1.00  0.00     0.116 C 
BRANCH   2   3
ATOM      3  N   UNL     1      -5.596   1.092  -0.364  1.00  0.00    -0.356 N 
ATOM      4  C   UNL     1      -5.639  -0.236  -0.696  1.00  0.00     0.220 C 
ATOM      5  O   UNL     1      -6.231  -0.553  -1.731  1.00  0.00    -0.275 OA
ATOM      6  H   UNL     1      -6.029   1.685  -1.019  1.00  0.00     0.163 HD
BRANCH   4   7
ATOM      7  C   UNL     1      -4.954  -1.309   0.153  1.00  0.00     0.104 C 
BRANCH   7   8
ATOM      8  C   UNL     1      -3.499  -1.604  -0.289  1.00  0.00     0.009 C 
ATOM      9  N   UNL     1      -0.729  -1.314   0.722  1.00  0.00    -0.328 N 
ATOM     10  C   UNL     1      -1.216  -0.414  -0.319  1.00  0.00     0.263 C 
ATOM     11  C   UNL     1      -1.273  -2.660   0.462  1.00  0.00     0.263 C 
ATOM     12  H   UNL     1      -1.068  -0.970   1.620  1.00  0.00     0.348 HD
ATOM     13  C   UNL     1      -2.715  -0.314  -0.228  1.00  0.00     0.066 C 
ATOM     14  C   UNL     1      -2.813  -2.673   0.578  1.00  0.00     0.066 C 
BRANCH   9  15
ATOM     15  C   UNL     1       0.748  -1.310   0.902  1.00  0.00     0.222 C 
ATOM     16  C   UNL     1       1.016  -1.219   2.413  1.00  0.00     0.082 C 
BRANCH  15  17
ATOM     17  C   UNL     1       1.478  -0.185   0.176  1.00  0.00     0.063 A 
ATOM     18  C   UNL     1       1.544   1.168   0.481  1.00  0.00     0.023 A 
ATOM     19  S   UNL     1       2.299  -0.518  -1.302  1.00  0.00    -0.127 S 
ATOM     20  C   UNL     1       2.156   1.934  -0.557  1.00  0.00     0.028 A 
ATOM     21  C   UNL     1       2.591   1.127  -1.575  1.00  0.00     0.070 A 
ATOM     22  Br  UNL     1       3.413   1.774  -3.128  1.00  0.00    -0.039 Br
ENDBRANCH  15  17
ENDBRANCH   9  15
ENDBRANCH   7   8
ENDBRANCH   4   7
ENDBRANCH   2   3
ENDBRANCH   1   2
BRANCH   1  23
ATOM     23  C   UNL     1      -3.934   4.008  -0.021  1.00  0.00     0.023 C 
BRANCH  23  24
ATOM     24  C   UNL     1      -4.362   4.971   1.069  1.00  0.00     0.116 C 
BRANCH  24  25
ATOM     25  N   UNL     1      -3.408   5.071   2.171  1.00  0.00    -0.352 N 
ATOM     26  C   UNL     1      -2.881   6.198   2.765  1.00  0.00     0.251 C 
ATOM     27  H   UNL     1      -3.099   4.213   2.542  1.00  0.00     0.163 HD
ATOM     28  O   UNL     1      -2.018   6.102   3.624  1.00  0.00    -0.269 OA
BRANCH  26  29
ATOM     29  C   UNL     1      -3.342   7.525   2.304  1.00  0.00     0.039 A 
ATOM     30  C   UNL     1      -2.394   8.486   1.947  1.00  0.00     0.014 A 
ATOM     31  C   UNL     1      -4.704   7.768   2.118  1.00  0.00     0.014 A 
ATOM     32  C   UNL     1      -2.810   9.646   1.290  1.00  0.00     0.010 A 
ATOM     33  C   UNL     1      -5.104   8.868   1.374  1.00  0.00     0.010 A 
ATOM     34  C   UNL     1      -4.160   9.811   0.940  1.00  0.00    -0.014 A 
BRANCH  34  35
ATOM     35  C   UNL     1      -4.616  10.941   0.092  1.00  0.00     0.031 A 
ATOM     36  C   UNL     1      -5.635  11.908   0.624  1.00  0.00     0.074 A 
ATOM     37  C   UNL     1      -4.196  11.028  -1.186  1.00  0.00     0.049 A 
ATOM     38  N   UNL     1      -6.254  12.879   0.005  1.00  0.00    -0.248 NA
ATOM     39  C   UNL     1      -6.040  11.736   2.029  1.00  0.00     0.031 C 
ATOM     40  C   UNL     1      -3.256  10.110  -1.836  1.00  0.00     0.029 A 
ATOM     41  N   UNL     1      -4.517  11.923  -2.176  1.00  0.00    -0.354 N 
ATOM     42  C   UNL     1      -7.135  13.417   0.934  1.00  0.00     0.074 A 
ATOM     43  C   UNL     1      -7.013  12.628   2.141  1.00  0.00     0.031 C 
ATOM     44  C   UNL     1      -3.057  10.506  -3.103  1.00  0.00     0.029 A 
ATOM     45  C   UNL     1      -3.887  11.675  -3.372  1.00  0.00     0.049 A 
ATOM     46  H   UNL     1      -5.142  12.672  -2.041  1.00  0.00     0.167 HD
ATOM     47  C   UNL     1      -7.951  14.489   0.804  1.00  0.00     0.037 A 
ATOM     48  C   UNL     1      -3.976  12.312  -4.556  1.00  0.00     0.037 A 
ATOM     49  C   UNL     1      -8.039  15.289  -0.388  1.00  0.00     0.049 A 
ATOM     50  C   UNL     1      -4.894  13.495  -4.681  1.00  0.00     0.074 A 
ATOM     51  C   UNL     1      -8.766  16.447  -0.595  1.00  0.00     0.029 A 
ATOM     52  N   UNL     1      -7.378  15.011  -1.576  1.00  0.00    -0.354 N 
ATOM     53  N   UNL     1      -5.664  14.038  -3.769  1.00  0.00    -0.248 NA
ATOM     54  C   UNL     1      -4.963  14.148  -5.996  1.00  0.00     0.031 C 
ATOM     55  C   UNL     1      -8.577  16.848  -1.923  1.00  0.00     0.029 A 
ATOM     56  C   UNL     1      -7.704  15.959  -2.531  1.00  0.00     0.049 A 
ATOM     57  H   UNL     1      -6.768  14.252  -1.719  1.00  0.00     0.167 HD
ATOM     58  C   UNL     1      -6.304  15.101  -4.395  1.00  0.00     0.074 A 
ATOM     59  C   UNL     1      -5.816  15.136  -5.760  1.00  0.00     0.031 C 
ATOM     60  C   UNL     1      -7.215  15.967  -3.888  1.00  0.00     0.037 A 
BRANCH  47  61
ATOM     61  C   UNL     1      -8.802  14.855   1.987  1.00  0.00     0.058 A 
ATOM     62  C   UNL     1      -8.241  15.391   3.158  1.00  0.00     0.135 A 
ATOM     63  C   UNL     1     -10.193  14.666   1.954  1.00  0.00     0.135 A 
ATOM     64  F   UNL     1      -6.914  15.576   3.248  1.00  0.00    -0.206 F 
ATOM     65  C   UNL     1      -9.022  15.688   4.269  1.00  0.00     0.059 A 
ATOM     66  C   UNL     1     -10.998  14.983   3.045  1.00  0.00     0.059 A 
ATOM     67  F   UNL     1     -10.780  14.155   0.861  1.00  0.00    -0.206 F 
ATOM     68  C   UNL     1     -10.399  15.474   4.205  1.00  0.00     0.060 A 
BRANCH  68  69
ATOM     69  S   UNL     1     -11.398  15.844   5.663  1.00  0.00     0.124 S 
ATOM     70  O   UNL     1     -11.078  14.712   6.527  1.00  0.00    -0.237 OA
ATOM     71  O   UNL     1     -10.866  17.135   6.088  1.00  0.00    -0.237 OA
ATOM     72  O   UNL     1     -12.761  15.872   5.142  1.00  0.00    -0.744 OA
ENDBRANCH  68  69
ENDBRANCH  47  61
BRANCH  48  73
ATOM     73  C   UNL     1      -3.157  11.850  -5.708  1.00  0.00     0.058 A 
ATOM     74  C   UNL     1      -2.050  12.594  -6.141  1.00  0.00     0.135 A 
ATOM     75  C   UNL     1      -3.438  10.647  -6.373  1.00  0.00     0.135 A 
ATOM     76  F   UNL     1      -1.746  13.755  -5.542  1.00  0.00    -0.206 F 
ATOM     77  C   UNL     1      -1.249  12.163  -7.194  1.00  0.00     0.059 A 
ATOM     78  C   UNL     1      -2.640  10.185  -7.416  1.00  0.00     0.059 A 
ATOM     79  F   UNL     1      -4.479   9.893  -5.987  1.00  0.00    -0.206 F 
ATOM     80  C   UNL     1      -1.550  10.953  -7.822  1.00  0.00     0.060 A 
BRANCH  80  81
ATOM     81  S   UNL     1      -0.461  10.367  -9.139  1.00  0.00     0.124 S 
ATOM     82  O   UNL     1      -0.831  11.250 -10.240  1.00  0.00    -0.237 OA
ATOM     83  O   UNL     1       0.862  10.585  -8.563  1.00  0.00    -0.237 OA
ATOM     84  O   UNL     1      -0.846   8.967  -9.294  1.00  0.00    -0.744 OA
ENDBRANCH  80  81
ENDBRANCH  48  73
BRANCH  60  85
ATOM     85  C   UNL     1      -7.751  17.023  -4.812  1.00  0.00     0.058 A 
ATOM     86  C   UNL     1      -8.699  16.713  -5.798  1.00  0.00     0.135 A 
ATOM     87  C   UNL     1      -7.368  18.365  -4.664  1.00  0.00     0.135 A 
ATOM     88  F   UNL     1      -9.089  15.442  -5.985  1.00  0.00    -0.206 F 
ATOM     89  C   UNL     1      -9.245  17.698  -6.614  1.00  0.00     0.059 A 
ATOM     90  C   UNL     1      -7.918  19.370  -5.453  1.00  0.00     0.059 A 
ATOM     91  F   UNL     1      -6.470  18.713  -3.729  1.00  0.00    -0.206 F 
ATOM     92  C   UNL     1      -8.852  19.025  -6.430  1.00  0.00     0.060 A 
BRANCH  92  93
ATOM     93  S   UNL     1      -9.610  20.301  -7.457  1.00  0.00     0.124 S 
ATOM     94  O   UNL     1      -8.941  20.085  -8.736  1.00  0.00    -0.237 OA
ATOM     95  O   UNL     1     -11.024  19.940  -7.412  1.00  0.00    -0.237 OA
ATOM     96  O   UNL     1      -9.265  21.541  -6.768  1.00  0.00    -0.744 OA
ENDBRANCH  92  93
ENDBRANCH  60  85
ENDBRANCH  34  35
ENDBRANCH  26  29
ENDBRANCH  24  25
ENDBRANCH  23  24
ENDBRANCH   1  23
TORSDOF 17
