REMARK SMILES CCOC(=O)c1sc(NC(=O)CCC(=O)NCCCCNC(=O)c2ccc(-c3c4nc(c(-c5c(F)cc(S(=O)(=O)[O-])cc5F)c5ccc([nH]5)c(-c5c(F)cc(S(=O)(=O)[O-])cc5F)c5nc(c(-c6c(F)cc(S(=O)(=O)[O-])cc6F)c6ccc3[nH]6)C=C5)C=C4)cc2)c(C#N)c1C
REMARK SMILES IDX 17 1 16 2 14 3 15 4 13 6 12 7 10 8 9 9 11 11 8 12 6 13 7 14
REMARK SMILES IDX 93 15 90 16 94 17 4 18 5 19 3 20 2 21 1 22 91 23 92 24 18 25
REMARK SMILES IDX 19 26 20 27 21 28 22 29 23 31 24 32 25 33 89 34 26 35 88 36
REMARK SMILES IDX 27 37 28 38 29 39 82 40 30 41 87 42 81 43 83 44 31 45 86 46
REMARK SMILES IDX 80 47 79 48 32 50 66 51 45 52 65 53 46 54 49 55 64 56 84 57
REMARK SMILES IDX 47 58 48 59 63 61 85 62 50 63 33 64 34 65 43 66 35 67 36 68
REMARK SMILES IDX 42 69 44 70 37 71 38 72 39 73 40 74 41 75 67 76 68 77 77 78
REMARK SMILES IDX 69 79 70 80 76 81 78 82 71 83 72 84 73 85 74 86 75 87 51 88
REMARK SMILES IDX 52 89 61 90 53 91 54 92 60 93 62 94 55 95 56 96 57 97 58 98
REMARK SMILES IDX 59 99
REMARK H PARENT 16 5 9 10 21 30 83 49 49 60
REMARK Flexibility Score: inf
ROOT
ATOM      1  C   UNL     1       6.714   7.464  -0.606  1.00  0.00     0.116 C 
ENDROOT
BRANCH   1   2
ATOM      2  N   UNL     1       5.934   6.370  -0.058  1.00  0.00    -0.356 N 
ATOM      3  C   UNL     1       6.026   5.030  -0.266  1.00  0.00     0.220 C 
ATOM      4  O   UNL     1       5.425   4.288   0.511  1.00  0.00    -0.275 OA
ATOM      5  H   UNL     1       5.223   6.642   0.567  1.00  0.00     0.163 HD
BRANCH   3   6
ATOM      6  C   UNL     1       6.816   4.474  -1.425  1.00  0.00     0.110 C 
BRANCH   6   7
ATOM      7  C   UNL     1       6.117   4.396  -2.781  1.00  0.00     0.110 C 
BRANCH   7   8
ATOM      8  C   UNL     1       5.254   5.563  -3.233  1.00  0.00     0.225 C 
ATOM      9  N   UNL     1       4.022   5.884  -2.732  1.00  0.00    -0.317 N 
ATOM     10  H   UNL     1       3.649   6.727  -3.077  1.00  0.00     0.170 HD
ATOM     11  O   UNL     1       5.710   6.319  -4.104  1.00  0.00    -0.275 OA
BRANCH   9  12
ATOM     12  C   UNL     1       3.211   5.229  -1.825  1.00  0.00     0.114 A 
ATOM     13  C   UNL     1       2.353   3.540  -0.277  1.00  0.00     0.118 A 
ATOM     14  S   UNL     1       3.262   3.540  -1.713  1.00  0.00    -0.109 S 
ATOM     15  C   UNL     1       1.839   4.791   0.020  1.00  0.00    -0.006 A 
ATOM     16  C   UNL     1       2.212   5.733  -1.007  1.00  0.00     0.091 A 
ATOM     17  C   UNL     1       1.054   5.142   1.248  1.00  0.00     0.048 C 
BRANCH  13  18
ATOM     18  C   UNL     1       2.182   2.277   0.389  1.00  0.00     0.348 C 
ATOM     19  O   UNL     1       3.059   1.469   0.659  1.00  0.00    -0.245 OA
BRANCH  18  20
ATOM     20  O   UNL     1       0.844   2.061   0.528  1.00  0.00    -0.462 OA
BRANCH  20  21
ATOM     21  C   UNL     1       0.478   0.754   0.979  1.00  0.00     0.230 C 
ATOM     22  C   UNL     1       0.748  -0.291  -0.093  1.00  0.00     0.049 C 
ENDBRANCH  20  21
ENDBRANCH  18  20
ENDBRANCH  13  18
BRANCH  16  23
ATOM     23  C   UNL     1       1.702   7.070  -1.051  1.00  0.00     0.103 C 
ATOM     24  N   UNL     1       1.278   8.155  -1.074  1.00  0.00    -0.192 NA
ENDBRANCH  16  23
ENDBRANCH   9  12
ENDBRANCH   7   8
ENDBRANCH   6   7
ENDBRANCH   3   6
ENDBRANCH   1   2
BRANCH   1  25
ATOM     25  C   UNL     1       5.927   8.458  -1.470  1.00  0.00     0.023 C 
BRANCH  25  26
ATOM     26  C   UNL     1       4.527   8.832  -0.982  1.00  0.00     0.023 C 
BRANCH  26  27
ATOM     27  C   UNL     1       4.508   9.779   0.192  1.00  0.00     0.116 C 
BRANCH  27  28
ATOM     28  N   UNL     1       5.018  11.111  -0.153  1.00  0.00    -0.352 N 
ATOM     29  C   UNL     1       5.146  12.218   0.673  1.00  0.00     0.251 C 
ATOM     30  H   UNL     1       5.304  11.234  -1.087  1.00  0.00     0.163 HD
ATOM     31  O   UNL     1       5.203  13.350   0.210  1.00  0.00    -0.269 OA
BRANCH  29  32
ATOM     32  C   UNL     1       5.237  11.983   2.124  1.00  0.00     0.039 A 
ATOM     33  C   UNL     1       4.647  12.802   3.090  1.00  0.00     0.014 A 
ATOM     34  C   UNL     1       5.875  10.811   2.491  1.00  0.00     0.014 A 
ATOM     35  C   UNL     1       4.712  12.391   4.422  1.00  0.00     0.010 A 
ATOM     36  C   UNL     1       5.548  10.250   3.680  1.00  0.00     0.010 A 
ATOM     37  C   UNL     1       5.184  11.100   4.701  1.00  0.00    -0.014 A 
BRANCH  37  38
ATOM     38  C   UNL     1       5.198  10.490   6.020  1.00  0.00     0.031 A 
ATOM     39  C   UNL     1       3.835  10.396   6.587  1.00  0.00     0.074 A 
ATOM     40  C   UNL     1       6.286   9.830   6.492  1.00  0.00     0.049 A 
ATOM     41  N   UNL     1       3.307  11.163   7.481  1.00  0.00    -0.248 NA
ATOM     42  C   UNL     1       2.850   9.549   5.885  1.00  0.00     0.031 C 
ATOM     43  C   UNL     1       7.575   9.592   5.821  1.00  0.00     0.029 A 
ATOM     44  N   UNL     1       6.439   9.130   7.652  1.00  0.00    -0.354 N 
ATOM     45  C   UNL     1       2.034  10.644   7.685  1.00  0.00     0.074 A 
ATOM     46  C   UNL     1       1.718   9.924   6.485  1.00  0.00     0.031 C 
ATOM     47  C   UNL     1       8.269   8.630   6.473  1.00  0.00     0.029 A 
ATOM     48  C   UNL     1       7.563   8.290   7.691  1.00  0.00     0.049 A 
ATOM     49  H   UNL     1       5.809   9.207   8.405  1.00  0.00     0.167 HD
ATOM     50  C   UNL     1       1.542  10.523   8.951  1.00  0.00     0.037 A 
ATOM     51  C   UNL     1       7.848   7.370   8.657  1.00  0.00     0.037 A 
ATOM     52  C   UNL     1       2.329  11.326   9.865  1.00  0.00     0.049 A 
ATOM     53  C   UNL     1       7.042   7.759   9.851  1.00  0.00     0.074 A 
ATOM     54  C   UNL     1       2.691  12.660   9.922  1.00  0.00     0.029 A 
ATOM     55  N   UNL     1       3.232  10.661  10.663  1.00  0.00    -0.354 N 
ATOM     56  N   UNL     1       7.223   8.877  10.505  1.00  0.00    -0.248 NA
ATOM     57  C   UNL     1       5.712   7.180   9.959  1.00  0.00     0.031 C 
ATOM     58  C   UNL     1       4.055  12.655  10.338  1.00  0.00     0.029 A 
ATOM     59  C   UNL     1       4.421  11.341  10.632  1.00  0.00     0.049 A 
ATOM     60  H   UNL     1       3.054   9.836  11.169  1.00  0.00     0.167 HD
ATOM     61  C   UNL     1       5.942   9.369  10.724  1.00  0.00     0.074 A 
ATOM     62  C   UNL     1       5.050   8.254  10.399  1.00  0.00     0.031 C 
ATOM     63  C   UNL     1       5.709  10.711  10.838  1.00  0.00     0.037 A 
BRANCH  50  64
ATOM     64  C   UNL     1       0.691   9.360   9.436  1.00  0.00     0.058 A 
ATOM     65  C   UNL     1       0.259   9.368  10.780  1.00  0.00     0.135 A 
ATOM     66  C   UNL     1       0.515   8.128   8.762  1.00  0.00     0.135 A 
ATOM     67  F   UNL     1       0.344  10.485  11.520  1.00  0.00    -0.206 F 
ATOM     68  C   UNL     1      -0.194   8.221  11.433  1.00  0.00     0.059 A 
ATOM     69  C   UNL     1       0.024   6.985   9.382  1.00  0.00     0.059 A 
ATOM     70  F   UNL     1       0.870   7.926   7.491  1.00  0.00    -0.206 F 
ATOM     71  C   UNL     1      -0.287   7.028  10.727  1.00  0.00     0.060 A 
BRANCH  71  72
ATOM     72  S   UNL     1      -0.791   5.528  11.580  1.00  0.00     0.124 S 
ATOM     73  O   UNL     1       0.338   5.312  12.478  1.00  0.00    -0.237 OA
ATOM     74  O   UNL     1      -2.040   5.948  12.206  1.00  0.00    -0.237 OA
ATOM     75  O   UNL     1      -0.934   4.559  10.497  1.00  0.00    -0.744 OA
ENDBRANCH  71  72
ENDBRANCH  50  64
BRANCH  51  76
ATOM     76  C   UNL     1       8.419   5.996   8.497  1.00  0.00     0.058 A 
ATOM     77  C   UNL     1       8.806   5.216   9.607  1.00  0.00     0.135 A 
ATOM     78  C   UNL     1       8.320   5.304   7.274  1.00  0.00     0.135 A 
ATOM     79  F   UNL     1       8.913   5.779  10.821  1.00  0.00    -0.206 F 
ATOM     80  C   UNL     1       9.025   3.831   9.519  1.00  0.00     0.059 A 
ATOM     81  C   UNL     1       8.537   3.929   7.160  1.00  0.00     0.059 A 
ATOM     82  F   UNL     1       7.915   5.930   6.159  1.00  0.00    -0.206 F 
ATOM     83  C   UNL     1       8.864   3.191   8.291  1.00  0.00     0.060 A 
BRANCH  83  84
ATOM     84  S   UNL     1       8.968   1.384   8.194  1.00  0.00     0.124 S 
ATOM     85  O   UNL     1      10.388   1.148   8.435  1.00  0.00    -0.237 OA
ATOM     86  O   UNL     1       8.063   0.962   9.257  1.00  0.00    -0.237 OA
ATOM     87  O   UNL     1       8.511   1.091   6.838  1.00  0.00    -0.744 OA
ENDBRANCH  83  84
ENDBRANCH  51  76
BRANCH  63  88
ATOM     88  C   UNL     1       6.886  11.639  11.026  1.00  0.00     0.058 A 
ATOM     89  C   UNL     1       7.909  11.864  10.085  1.00  0.00     0.135 A 
ATOM     90  C   UNL     1       6.875  12.461  12.162  1.00  0.00     0.135 A 
ATOM     91  F   UNL     1       7.938  11.194   8.925  1.00  0.00    -0.206 F 
ATOM     92  C   UNL     1       8.895  12.836  10.288  1.00  0.00     0.059 A 
ATOM     93  C   UNL     1       7.826  13.454  12.370  1.00  0.00     0.059 A 
ATOM     94  F   UNL     1       5.892  12.339  13.069  1.00  0.00    -0.206 F 
ATOM     95  C   UNL     1       8.844  13.627  11.437  1.00  0.00     0.060 A 
BRANCH  95  96
ATOM     96  S   UNL     1      10.087  14.912  11.693  1.00  0.00     0.124 S 
ATOM     97  O   UNL     1      11.295  14.128  11.928  1.00  0.00    -0.237 OA
ATOM     98  O   UNL     1      10.045  15.650  10.434  1.00  0.00    -0.237 OA
ATOM     99  O   UNL     1       9.586  15.646  12.853  1.00  0.00    -0.744 OA
ENDBRANCH  95  96
ENDBRANCH  63  88
ENDBRANCH  37  38
ENDBRANCH  29  32
ENDBRANCH  27  28
ENDBRANCH  26  27
ENDBRANCH  25  26
ENDBRANCH   1  25
TORSDOF 21
