REMARK SMILES Cc1c(CC(=O)N[C@@H](CCO)C(=O)NCCCCNC(=O)c2ccc(-c3c4nc(c(-c5c(F)cc(S(=O)(=O)[O-])cc5F)c5ccc([nH]5)c(-c5c(F)cc(S(=O)(=O)[O-])cc5F)c5nc(c(-c6c(F)cc(S(=O)(=O)[O-])cc6F)c6ccc3[nH]6)C=C5)C=C4)cc2)cc(-c2ccc(S(C)(=O)=O)cc2)n1-c1ccc(F)cc1
REMARK SMILES IDX 15 1 14 2 12 3 13 4 8 6 7 7 5 8 6 9 4 11 3 12 1 13 2 14
REMARK SMILES IDX 100 15 88 16 89 17 101 18 102 19 107 20 103 21 106 22 104 23
REMARK SMILES IDX 105 24 90 25 91 26 99 27 92 28 98 29 93 30 94 31 95 32 96 33
REMARK SMILES IDX 97 34 9 35 10 36 11 37 16 39 17 40 18 41 19 42 20 43 21 45
REMARK SMILES IDX 22 46 23 47 87 48 24 49 86 50 25 51 26 52 27 53 80 54 28 55
REMARK SMILES IDX 85 56 79 57 81 58 29 59 84 60 78 61 77 62 30 64 64 65 43 66
REMARK SMILES IDX 63 67 44 68 47 69 62 70 82 71 45 72 46 73 61 75 83 76 48 77
REMARK SMILES IDX 31 78 32 79 41 80 33 81 34 82 40 83 42 84 35 85 36 86 37 87
REMARK SMILES IDX 38 88 39 89 65 90 66 91 75 92 67 93 68 94 74 95 76 96 69 97
REMARK SMILES IDX 70 98 71 99 72 100 73 101 49 102 50 103 59 104 51 105 52 106
REMARK SMILES IDX 58 107 60 108 53 109 54 110 55 111 56 112 57 113
REMARK H PARENT 14 5 7 10 11 38 19 44 81 63 47 74
REMARK Flexibility Score: inf
ROOT
ATOM      1  C   UNL     1      -4.402  -4.039  -0.578  1.00  0.00     0.116 C 
ENDROOT
BRANCH   1   2
ATOM      2  N   UNL     1      -3.920  -4.571   0.687  1.00  0.00    -0.354 N 
ATOM      3  C   UNL     1      -3.091  -4.077   1.641  1.00  0.00     0.242 C 
ATOM      4  O   UNL     1      -3.095  -4.661   2.729  1.00  0.00    -0.273 OA
ATOM      5  H   UNL     1      -4.266  -5.469   0.893  1.00  0.00     0.163 HD
BRANCH   3   6
ATOM      6  C   UNL     1      -2.240  -2.817   1.452  1.00  0.00     0.173 C 
BRANCH   6   7
ATOM      7  N   UNL     1      -1.415  -2.899   0.245  1.00  0.00    -0.344 N 
ATOM      8  C   UNL     1      -0.052  -2.984   0.168  1.00  0.00     0.225 C 
ATOM      9  O   UNL     1       0.446  -3.311  -0.913  1.00  0.00    -0.275 OA
ATOM     10  H   UNL     1      -1.899  -2.893  -0.612  1.00  0.00     0.164 HD
BRANCH   8  11
ATOM     11  C   UNL     1       0.820  -2.683   1.382  1.00  0.00     0.137 C 
BRANCH  11  12
ATOM     12  C   UNL     1       0.586  -1.305   1.931  1.00  0.00    -0.017 A 
ATOM     13  C   UNL     1       1.157   0.131  -0.146  1.00  0.00     0.065 C 
ATOM     14  C   UNL     1       0.666  -0.096   1.249  1.00  0.00     0.024 A 
ATOM     15  N   UNL     1       0.282   0.918   2.121  1.00  0.00    -0.314 N 
ATOM     16  C   UNL     1       0.225  -1.001   3.270  1.00  0.00     0.033 A 
ATOM     17  C   UNL     1      -0.004   0.359   3.369  1.00  0.00     0.053 A 
BRANCH  15  18
ATOM     18  C   UNL     1       0.192   2.299   1.808  1.00  0.00     0.046 A 
ATOM     19  C   UNL     1       0.855   3.231   2.617  1.00  0.00     0.029 A 
ATOM     20  C   UNL     1      -0.627   2.721   0.752  1.00  0.00     0.029 A 
ATOM     21  C   UNL     1       0.703   4.592   2.363  1.00  0.00     0.041 A 
ATOM     22  C   UNL     1      -0.780   4.086   0.511  1.00  0.00     0.041 A 
ATOM     23  C   UNL     1      -0.115   5.006   1.316  1.00  0.00     0.123 A 
ATOM     24  F   UNL     1      -0.270   6.316   1.085  1.00  0.00    -0.207 F 
ENDBRANCH  15  18
BRANCH  17  25
ATOM     25  C   UNL     1      -0.518   1.102   4.529  1.00  0.00    -0.001 A 
ATOM     26  C   UNL     1      -1.644   1.935   4.420  1.00  0.00     0.011 A 
ATOM     27  C   UNL     1       0.142   1.009   5.761  1.00  0.00     0.011 A 
ATOM     28  C   UNL     1      -2.049   2.732   5.494  1.00  0.00     0.021 A 
ATOM     29  C   UNL     1      -0.260   1.797   6.841  1.00  0.00     0.021 A 
ATOM     30  C   UNL     1      -1.332   2.679   6.692  1.00  0.00     0.067 A 
BRANCH  30  31
ATOM     31  S   UNL     1      -1.805   3.749   8.029  1.00  0.00     0.175 S 
ATOM     32  C   UNL     1      -1.470   5.379   7.411  1.00  0.00     0.163 C 
ATOM     33  O   UNL     1      -3.220   3.611   8.219  1.00  0.00    -0.224 OA
ATOM     34  O   UNL     1      -0.864   3.515   9.127  1.00  0.00    -0.224 OA
ENDBRANCH  30  31
ENDBRANCH  17  25
ENDBRANCH  11  12
ENDBRANCH   8  11
ENDBRANCH   6   7
BRANCH   6  35
ATOM     35  C   UNL     1      -2.945  -1.466   1.666  1.00  0.00     0.063 C 
BRANCH  35  36
ATOM     36  C   UNL     1      -4.221  -1.157   0.903  1.00  0.00     0.158 C 
BRANCH  36  37
ATOM     37  O   UNL     1      -5.362  -1.789   1.454  1.00  0.00    -0.396 OA
ATOM     38  H   UNL     1      -5.248  -2.752   1.415  1.00  0.00     0.210 HD
ENDBRANCH  36  37
ENDBRANCH  35  36
ENDBRANCH   6  35
ENDBRANCH   3   6
ENDBRANCH   1   2
BRANCH   1  39
ATOM     39  C   UNL     1      -4.645  -5.117  -1.624  1.00  0.00     0.023 C 
BRANCH  39  40
ATOM     40  C   UNL     1      -5.543  -6.296  -1.203  1.00  0.00     0.023 C 
BRANCH  40  41
ATOM     41  C   UNL     1      -6.682  -6.052  -0.191  1.00  0.00     0.116 C 
BRANCH  41  42
ATOM     42  N   UNL     1      -7.984  -5.835  -0.766  1.00  0.00    -0.352 N 
ATOM     43  C   UNL     1      -9.216  -6.038  -0.154  1.00  0.00     0.251 C 
ATOM     44  H   UNL     1      -8.004  -5.507  -1.694  1.00  0.00     0.163 HD
ATOM     45  O   UNL     1     -10.219  -5.835  -0.834  1.00  0.00    -0.269 OA
BRANCH  43  46
ATOM     46  C   UNL     1      -9.332  -6.611   1.249  1.00  0.00     0.039 A 
ATOM     47  C   UNL     1      -9.420  -7.985   1.388  1.00  0.00     0.014 A 
ATOM     48  C   UNL     1      -9.553  -5.867   2.424  1.00  0.00     0.014 A 
ATOM     49  C   UNL     1      -9.649  -8.585   2.672  1.00  0.00     0.010 A 
ATOM     50  C   UNL     1      -9.881  -6.489   3.721  1.00  0.00     0.010 A 
ATOM     51  C   UNL     1      -9.949  -7.888   3.908  1.00  0.00    -0.014 A 
BRANCH  51  52
ATOM     52  C   UNL     1     -10.839  -8.745   5.033  1.00  0.00     0.031 A 
ATOM     53  C   UNL     1     -11.846  -9.378   4.128  1.00  0.00     0.074 A 
ATOM     54  C   UNL     1     -11.063  -8.996   6.406  1.00  0.00     0.049 A 
ATOM     55  N   UNL     1     -12.549  -8.607   3.344  1.00  0.00    -0.248 NA
ATOM     56  C   UNL     1     -11.794 -10.779   3.703  1.00  0.00     0.031 C 
ATOM     57  C   UNL     1     -10.425  -8.355   7.574  1.00  0.00     0.029 A 
ATOM     58  N   UNL     1     -11.945  -9.903   7.124  1.00  0.00    -0.354 N 
ATOM     59  C   UNL     1     -13.284  -9.427   2.531  1.00  0.00     0.074 A 
ATOM     60  C   UNL     1     -12.600 -10.715   2.633  1.00  0.00     0.031 C 
ATOM     61  C   UNL     1     -10.774  -8.949   8.761  1.00  0.00     0.029 A 
ATOM     62  C   UNL     1     -11.754 -10.026   8.576  1.00  0.00     0.049 A 
ATOM     63  H   UNL     1     -12.644 -10.414   6.655  1.00  0.00     0.167 HD
ATOM     64  C   UNL     1     -14.626  -9.180   2.569  1.00  0.00     0.037 A 
ATOM     65  C   UNL     1     -12.392 -10.826   9.555  1.00  0.00     0.037 A 
ATOM     66  C   UNL     1     -15.284 -10.022   3.535  1.00  0.00     0.049 A 
ATOM     67  C   UNL     1     -13.752 -11.019   9.040  1.00  0.00     0.074 A 
ATOM     68  C   UNL     1     -15.159 -11.364   3.838  1.00  0.00     0.029 A 
ATOM     69  N   UNL     1     -15.816  -9.407   4.650  1.00  0.00    -0.354 N 
ATOM     70  N   UNL     1     -14.630 -10.065   9.034  1.00  0.00    -0.248 NA
ATOM     71  C   UNL     1     -14.225 -12.322   8.586  1.00  0.00     0.031 C 
ATOM     72  C   UNL     1     -15.079 -11.392   5.243  1.00  0.00     0.029 A 
ATOM     73  C   UNL     1     -15.596 -10.205   5.748  1.00  0.00     0.049 A 
ATOM     74  H   UNL     1     -16.279  -8.538   4.658  1.00  0.00     0.167 HD
ATOM     75  C   UNL     1     -15.524 -10.490   8.105  1.00  0.00     0.074 A 
ATOM     76  C   UNL     1     -15.396 -11.938   8.075  1.00  0.00     0.031 C 
ATOM     77  C   UNL     1     -15.738  -9.644   7.067  1.00  0.00     0.037 A 
BRANCH  64  78
ATOM     78  C   UNL     1     -14.986  -7.731   2.358  1.00  0.00     0.058 A 
ATOM     79  C   UNL     1     -15.632  -7.362   1.175  1.00  0.00     0.135 A 
ATOM     80  C   UNL     1     -14.655  -6.698   3.265  1.00  0.00     0.135 A 
ATOM     81  F   UNL     1     -16.007  -8.301   0.290  1.00  0.00    -0.206 F 
ATOM     82  C   UNL     1     -15.911  -6.028   0.888  1.00  0.00     0.059 A 
ATOM     83  C   UNL     1     -14.875  -5.357   2.975  1.00  0.00     0.059 A 
ATOM     84  F   UNL     1     -14.142  -6.982   4.473  1.00  0.00    -0.206 F 
ATOM     85  C   UNL     1     -15.513  -5.032   1.785  1.00  0.00     0.060 A 
BRANCH  85  86
ATOM     86  S   UNL     1     -15.860  -3.311   1.373  1.00  0.00     0.124 S 
ATOM     87  O   UNL     1     -15.380  -3.217  -0.004  1.00  0.00    -0.237 OA
ATOM     88  O   UNL     1     -17.309  -3.259   1.531  1.00  0.00    -0.237 OA
ATOM     89  O   UNL     1     -15.080  -2.556   2.347  1.00  0.00    -0.744 OA
ENDBRANCH  85  86
ENDBRANCH  64  78
BRANCH  65  90
ATOM     90  C   UNL     1     -12.377 -11.433  11.040  1.00  0.00     0.058 A 
ATOM     91  C   UNL     1     -13.597 -11.682  11.780  1.00  0.00     0.135 A 
ATOM     92  C   UNL     1     -11.303 -12.190  11.546  1.00  0.00     0.135 A 
ATOM     93  F   UNL     1     -14.734 -11.042  11.468  1.00  0.00    -0.206 F 
ATOM     94  C   UNL     1     -13.756 -12.648  12.809  1.00  0.00     0.059 A 
ATOM     95  C   UNL     1     -11.434 -13.150  12.604  1.00  0.00     0.059 A 
ATOM     96  F   UNL     1     -10.099 -12.098  10.963  1.00  0.00    -0.206 F 
ATOM     97  C   UNL     1     -12.671 -13.409  13.202  1.00  0.00     0.060 A 
BRANCH  97  98
ATOM     98  S   UNL     1     -12.923 -14.794  14.377  1.00  0.00     0.124 S 
ATOM     99  O   UNL     1     -13.300 -14.110  15.610  1.00  0.00    -0.237 OA
ATOM    100  O   UNL     1     -13.986 -15.565  13.737  1.00  0.00    -0.237 OA
ATOM    101  O   UNL     1     -11.621 -15.455  14.407  1.00  0.00    -0.744 OA
ENDBRANCH  97  98
ENDBRANCH  65  90
BRANCH  77 102
ATOM    102  C   UNL     1     -15.968  -8.184   7.407  1.00  0.00     0.058 A 
ATOM    103  C   UNL     1     -15.131  -7.349   8.183  1.00  0.00     0.135 A 
ATOM    104  C   UNL     1     -17.191  -7.625   7.004  1.00  0.00     0.135 A 
ATOM    105  F   UNL     1     -13.895  -7.725   8.544  1.00  0.00    -0.206 F 
ATOM    106  C   UNL     1     -15.537  -6.082   8.615  1.00  0.00     0.059 A 
ATOM    107  C   UNL     1     -17.597  -6.347   7.383  1.00  0.00     0.059 A 
ATOM    108  F   UNL     1     -18.026  -8.341   6.234  1.00  0.00    -0.206 F 
ATOM    109  C   UNL     1     -16.783  -5.598   8.227  1.00  0.00     0.060 A 
BRANCH 109 110
ATOM    110  S   UNL     1     -17.339  -3.994   8.848  1.00  0.00     0.124 S 
ATOM    111  O   UNL     1     -17.595  -4.288  10.255  1.00  0.00    -0.237 OA
ATOM    112  O   UNL     1     -16.191  -3.133   8.586  1.00  0.00    -0.237 OA
ATOM    113  O   UNL     1     -18.531  -3.716   8.052  1.00  0.00    -0.744 OA
ENDBRANCH 109 110
ENDBRANCH  77 102
ENDBRANCH  51  52
ENDBRANCH  43  46
ENDBRANCH  41  42
ENDBRANCH  40  41
ENDBRANCH  39  40
ENDBRANCH   1  39
TORSDOF 23
