REMARK SMILES C[N@@H+](CC(=O)NCCCCNC(=O)c1ccc(-c2c3nc(c(-c4c(F)cc(S(=O)(=O)[O-])cc4F)c4ccc([nH]4)c(-c4c(F)cc(S(=O)(=O)[O-])cc4F)c4nc(c(-c5c(F)cc(S(=O)(=O)[O-])cc5F)c5ccc2[nH]5)C=C4)C=C3)cc1)Cc1cccc2c1OCCO2
REMARK SMILES IDX 8 1 7 2 6 3 4 4 5 5 3 7 2 8 1 9 80 11 81 12 82 13 86 14
REMARK SMILES IDX 83 15 85 16 87 17 84 18 90 19 88 20 89 21 9 22 10 23 11 24
REMARK SMILES IDX 12 25 13 27 14 28 15 29 79 30 16 31 78 32 17 33 18 34 19 35
REMARK SMILES IDX 72 36 20 37 77 38 71 39 73 40 21 41 76 42 70 43 69 44 22 46
REMARK SMILES IDX 56 47 35 48 55 49 36 50 39 51 54 52 74 53 37 54 38 55 53 57
REMARK SMILES IDX 75 58 40 59 23 60 24 61 33 62 25 63 26 64 32 65 34 66 27 67
REMARK SMILES IDX 28 68 29 69 30 70 31 71 57 72 58 73 67 74 59 75 60 76 66 77
REMARK SMILES IDX 68 78 61 79 62 80 63 81 64 82 65 83 41 84 42 85 51 86 43 87
REMARK SMILES IDX 44 88 50 89 52 90 45 91 46 92 47 93 48 94 49 95
REMARK H PARENT 6 6 2 10 11 26 73 45 39 56
REMARK Flexibility Score: inf
ROOT
ATOM      1  C   UNL     1       1.494   0.609   2.887  1.00  0.00     0.023 C 
ENDROOT
BRANCH   1   2
ATOM      2  C   UNL     1      -0.149   0.526   2.569  1.00  0.00     0.116 C 
BRANCH   2   3
ATOM      3  N   UNL     1      -1.382   1.509   1.280  1.00  0.00    -0.351 N 
ATOM      4  C   UNL     1      -1.782   1.738  -0.094  1.00  0.00     0.275 C 
ATOM      5  O   UNL     1      -2.626   2.641  -0.231  1.00  0.00    -0.269 OA
ATOM      6  H   UNL     1      -1.961   2.081   1.834  1.00  0.00     0.163 HD
BRANCH   4   7
ATOM      7  C   UNL     1      -1.357   0.892  -1.397  1.00  0.00     0.363 C 
BRANCH   7   8
ATOM      8  N   UNL     1       0.046   0.831  -1.923  1.00  0.00    -0.326 N 
ATOM      9  C   UNL     1       0.791  -0.414  -1.743  1.00  0.00     0.333 C 
ATOM     10  H   UNL     1      -0.192   0.849  -2.914  1.00  0.00     0.348 HD
BRANCH   8  11
ATOM     11  C   UNL     1       0.886   1.991  -1.685  1.00  0.00     0.303 C 
BRANCH  11  12
ATOM     12  C   UNL     1       1.005   2.442  -0.263  1.00  0.00     0.052 A 
ATOM     13  C   UNL     1       1.256   3.832  -0.031  1.00  0.00     0.014 A 
ATOM     14  C   UNL     1       0.554   1.767   0.855  1.00  0.00     0.170 A 
ATOM     15  C   UNL     1       0.968   4.575   1.184  1.00  0.00     0.005 A 
ATOM     16  C   UNL     1       0.057   2.707   2.196  1.00  0.00     0.161 A 
ATOM     17  O   UNL     1      -0.147   0.137   0.605  1.00  0.00    -0.486 OA
ATOM     18  C   UNL     1       0.329   4.045   2.311  1.00  0.00     0.050 A 
ATOM     19  O   UNL     1      -1.305   2.266   3.170  1.00  0.00    -0.486 OA
ATOM     20  C   UNL     1      -1.737  -0.411   1.446  1.00  0.00     0.271 C 
ATOM     21  C   UNL     1      -2.332   0.759   2.878  1.00  0.00     0.271 C 
ENDBRANCH  11  12
ENDBRANCH   8  11
ENDBRANCH   7   8
ENDBRANCH   4   7
ENDBRANCH   2   3
ENDBRANCH   1   2
BRANCH   1  22
ATOM     22  C   UNL     1       1.802   0.770   4.388  1.00  0.00     0.023 C 
BRANCH  22  23
ATOM     23  C   UNL     1       1.100  -0.166   5.362  1.00  0.00     0.116 C 
BRANCH  23  24
ATOM     24  N   UNL     1       1.497  -1.558   5.302  1.00  0.00    -0.352 N 
ATOM     25  C   UNL     1       1.333  -2.461   6.337  1.00  0.00     0.251 C 
ATOM     26  H   UNL     1       1.911  -1.883   4.470  1.00  0.00     0.163 HD
ATOM     27  O   UNL     1       1.742  -3.612   6.261  1.00  0.00    -0.269 OA
BRANCH  25  28
ATOM     28  C   UNL     1       0.685  -1.960   7.572  1.00  0.00     0.039 A 
ATOM     29  C   UNL     1       1.451  -1.846   8.730  1.00  0.00     0.014 A 
ATOM     30  C   UNL     1      -0.614  -1.440   7.521  1.00  0.00     0.014 A 
ATOM     31  C   UNL     1       0.921  -1.176   9.833  1.00  0.00     0.010 A 
ATOM     32  C   UNL     1      -1.102  -0.696   8.594  1.00  0.00     0.010 A 
ATOM     33  C   UNL     1      -0.349  -0.571   9.771  1.00  0.00    -0.014 A 
BRANCH  33  34
ATOM     34  C   UNL     1      -0.876   0.157  10.957  1.00  0.00     0.031 A 
ATOM     35  C   UNL     1      -2.095  -0.352  11.681  1.00  0.00     0.074 A 
ATOM     36  C   UNL     1      -0.229   1.248  11.418  1.00  0.00     0.049 A 
ATOM     37  N   UNL     1      -2.606   0.048  12.817  1.00  0.00    -0.248 NA
ATOM     38  C   UNL     1      -2.849  -1.442  11.041  1.00  0.00     0.031 C 
ATOM     39  C   UNL     1       0.925   1.879  10.772  1.00  0.00     0.029 A 
ATOM     40  N   UNL     1      -0.426   2.001  12.549  1.00  0.00    -0.354 N 
ATOM     41  C   UNL     1      -3.724  -0.748  13.034  1.00  0.00     0.074 A 
ATOM     42  C   UNL     1      -3.865  -1.601  11.876  1.00  0.00     0.031 C 
ATOM     43  C   UNL     1       1.369   2.882  11.547  1.00  0.00     0.029 A 
ATOM     44  C   UNL     1       0.516   2.988  12.728  1.00  0.00     0.049 A 
ATOM     45  H   UNL     1      -1.172   1.849  13.173  1.00  0.00     0.167 HD
ATOM     46  C   UNL     1      -4.541  -0.792  14.113  1.00  0.00     0.037 A 
ATOM     47  C   UNL     1       0.685   3.869  13.735  1.00  0.00     0.037 A 
ATOM     48  C   UNL     1      -4.397   0.061  15.265  1.00  0.00     0.049 A 
ATOM     49  C   UNL     1      -0.244   3.810  14.920  1.00  0.00     0.074 A 
ATOM     50  C   UNL     1      -5.147   0.070  16.427  1.00  0.00     0.029 A 
ATOM     51  N   UNL     1      -3.447   1.065  15.396  1.00  0.00    -0.354 N 
ATOM     52  N   UNL     1      -1.244   2.991  15.146  1.00  0.00    -0.248 NA
ATOM     53  C   UNL     1      -0.010   4.784  15.994  1.00  0.00     0.031 C 
ATOM     54  C   UNL     1      -4.694   1.121  17.232  1.00  0.00     0.029 A 
ATOM     55  C   UNL     1      -3.613   1.719  16.606  1.00  0.00     0.049 A 
ATOM     56  H   UNL     1      -2.758   1.281  14.727  1.00  0.00     0.167 HD
ATOM     57  C   UNL     1      -1.741   3.334  16.400  1.00  0.00     0.074 A 
ATOM     58  C   UNL     1      -0.913   4.416  16.891  1.00  0.00     0.031 C 
ATOM     59  C   UNL     1      -2.786   2.801  17.083  1.00  0.00     0.037 A 
BRANCH  46  60
ATOM     60  C   UNL     1      -5.667  -1.793  14.099  1.00  0.00     0.058 A 
ATOM     61  C   UNL     1      -5.429  -3.177  14.159  1.00  0.00     0.135 A 
ATOM     62  C   UNL     1      -7.003  -1.364  14.061  1.00  0.00     0.135 A 
ATOM     63  F   UNL     1      -4.171  -3.648  14.178  1.00  0.00    -0.206 F 
ATOM     64  C   UNL     1      -6.472  -4.097  14.154  1.00  0.00     0.059 A 
ATOM     65  C   UNL     1      -8.063  -2.266  14.090  1.00  0.00     0.059 A 
ATOM     66  F   UNL     1      -7.292  -0.054  13.999  1.00  0.00    -0.206 F 
ATOM     67  C   UNL     1      -7.787  -3.631  14.122  1.00  0.00     0.060 A 
BRANCH  67  68
ATOM     68  S   UNL     1      -9.128  -4.840  14.128  1.00  0.00     0.124 S 
ATOM     69  O   UNL     1      -8.993  -5.431  12.800  1.00  0.00    -0.237 OA
ATOM     70  O   UNL     1      -8.762  -5.703  15.246  1.00  0.00    -0.237 OA
ATOM     71  O   UNL     1     -10.321  -4.024  14.332  1.00  0.00    -0.744 OA
ENDBRANCH  67  68
ENDBRANCH  46  60
BRANCH  47  72
ATOM     72  C   UNL     1       1.792   4.865  13.681  1.00  0.00     0.058 A 
ATOM     73  C   UNL     1       2.867   4.818  14.581  1.00  0.00     0.135 A 
ATOM     74  C   UNL     1       1.791   5.893  12.724  1.00  0.00     0.135 A 
ATOM     75  F   UNL     1       2.913   3.862  15.522  1.00  0.00    -0.206 F 
ATOM     76  C   UNL     1       3.890   5.762  14.550  1.00  0.00     0.059 A 
ATOM     77  C   UNL     1       2.818   6.828  12.651  1.00  0.00     0.059 A 
ATOM     78  F   UNL     1       0.794   5.979  11.829  1.00  0.00    -0.206 F 
ATOM     79  C   UNL     1       3.858   6.762  13.576  1.00  0.00     0.060 A 
BRANCH  79  80
ATOM     80  S   UNL     1       5.213   7.955  13.513  1.00  0.00     0.124 S 
ATOM     81  O   UNL     1       4.969   8.742  14.716  1.00  0.00    -0.237 OA
ATOM     82  O   UNL     1       6.385   7.086  13.543  1.00  0.00    -0.237 OA
ATOM     83  O   UNL     1       4.989   8.650  12.249  1.00  0.00    -0.744 OA
ENDBRANCH  79  80
ENDBRANCH  47  72
BRANCH  59  84
ATOM     84  C   UNL     1      -3.071   3.359  18.454  1.00  0.00     0.058 A 
ATOM     85  C   UNL     1      -3.546   4.668  18.642  1.00  0.00     0.135 A 
ATOM     86  C   UNL     1      -2.878   2.565  19.597  1.00  0.00     0.135 A 
ATOM     87  F   UNL     1      -3.750   5.472  17.587  1.00  0.00    -0.206 F 
ATOM     88  C   UNL     1      -3.766   5.186  19.915  1.00  0.00     0.059 A 
ATOM     89  C   UNL     1      -3.130   3.050  20.876  1.00  0.00     0.059 A 
ATOM     90  F   UNL     1      -2.443   1.301  19.478  1.00  0.00    -0.206 F 
ATOM     91  C   UNL     1      -3.551   4.369  21.026  1.00  0.00     0.060 A 
BRANCH  91  92
ATOM     92  S   UNL     1      -3.830   5.057  22.671  1.00  0.00     0.124 S 
ATOM     93  O   UNL     1      -2.697   5.967  22.805  1.00  0.00    -0.237 OA
ATOM     94  O   UNL     1      -5.138   5.690  22.527  1.00  0.00    -0.237 OA
ATOM     95  O   UNL     1      -3.800   3.885  23.541  1.00  0.00    -0.744 OA
ENDBRANCH  91  92
ENDBRANCH  59  84
ENDBRANCH  33  34
ENDBRANCH  25  28
ENDBRANCH  23  24
ENDBRANCH  22  23
ENDBRANCH   1  22
TORSDOF 17
