REMARK SMILES COc1cc2c(CC(=O)NCCCCNC(=O)c3ccc(-c4c5nc(c(-c6c(F)cc(S(=O)(=O)[O-])cc6F)c6ccc([nH]6)c(-c6c(F)cc(S(=O)(=O)[O-])cc6F)c6nc(c(-c7c(F)cc(S(=O)(=O)[O-])cc7F)c7ccc4[nH]7)C=C6)C=C5)cc3)c(C)n(C(=O)c3ccc(Cl)cc3)c2cc1Cl
REMARK SMILES IDX 12 1 11 2 10 3 8 4 9 5 7 7 6 8 3 9 4 10 98 11 5 12 97 13
REMARK SMILES IDX 99 14 96 15 84 16 86 17 85 18 2 19 1 20 87 21 88 22 89 23
REMARK SMILES IDX 90 24 95 25 91 26 94 27 92 28 93 29 13 30 14 31 15 32 16 33
REMARK SMILES IDX 17 35 18 36 19 37 83 38 20 39 82 40 21 41 22 42 23 43 76 44
REMARK SMILES IDX 24 45 81 46 75 47 77 48 25 49 80 50 74 51 73 52 26 54 60 55
REMARK SMILES IDX 39 56 59 57 40 58 43 59 58 60 78 61 41 62 42 63 57 65 79 66
REMARK SMILES IDX 44 67 27 68 28 69 37 70 29 71 30 72 36 73 38 74 31 75 32 76
REMARK SMILES IDX 33 77 34 78 35 79 61 80 62 81 71 82 63 83 64 84 70 85 72 86
REMARK SMILES IDX 65 87 66 88 67 89 68 90 69 91 45 92 46 93 55 94 47 95 48 96
REMARK SMILES IDX 54 97 56 98 49 99 50 100 51 101 52 102 53 103
REMARK H PARENT 10 6 15 34 77 53 43 64
REMARK Flexibility Score: inf
ROOT
ATOM      1  C   UNL     1       0.170  -7.846  -1.460  1.00  0.00     0.023 C 
ENDROOT
BRANCH   1   2
ATOM      2  C   UNL     1      -1.184  -7.636  -2.134  1.00  0.00     0.116 C 
BRANCH   2   3
ATOM      3  N   UNL     1      -2.017  -6.697  -1.411  1.00  0.00    -0.356 N 
ATOM      4  C   UNL     1      -2.454  -5.468  -1.818  1.00  0.00     0.224 C 
ATOM      5  O   UNL     1      -3.192  -4.827  -1.066  1.00  0.00    -0.275 OA
ATOM      6  H   UNL     1      -2.304  -6.980  -0.513  1.00  0.00     0.163 HD
BRANCH   4   7
ATOM      7  C   UNL     1      -2.089  -4.947  -3.200  1.00  0.00     0.138 C 
BRANCH   7   8
ATOM      8  C   UNL     1      -0.620  -4.675  -3.373  1.00  0.00    -0.009 A 
ATOM      9  C   UNL     1       0.875  -2.174  -0.891  1.00  0.00     0.138 A 
ATOM     10  C   UNL     1      -0.118  -2.980  -1.460  1.00  0.00     0.058 A 
ATOM     11  C   UNL     1       2.163  -2.198  -1.412  1.00  0.00     0.085 A 
ATOM     12  C   UNL     1       0.173  -3.808  -2.571  1.00  0.00     0.008 A 
ATOM     13  C   UNL     1       2.459  -2.987  -2.530  1.00  0.00     0.051 A 
ATOM     14  Cl  UNL     1       3.484  -1.335  -0.709  1.00  0.00    -0.080 Cl
ATOM     15  C   UNL     1       1.474  -3.833  -3.080  1.00  0.00     0.058 A 
ATOM     16  C   UNL     1       0.205  -5.174  -4.377  1.00  0.00     0.028 A 
ATOM     17  N   UNL     1       1.528  -4.816  -4.083  1.00  0.00    -0.280 N 
ATOM     18  C   UNL     1      -0.196  -6.014  -5.550  1.00  0.00     0.065 C 
BRANCH   9  19
ATOM     19  O   UNL     1       0.493  -1.453   0.210  1.00  0.00    -0.495 OA
ATOM     20  C   UNL     1       0.612  -0.044   0.018  1.00  0.00     0.278 C 
ENDBRANCH   9  19
BRANCH  17  21
ATOM     21  C   UNL     1       2.701  -5.359  -4.693  1.00  0.00     0.262 C 
ATOM     22  O   UNL     1       2.580  -6.221  -5.553  1.00  0.00    -0.268 OA
BRANCH  21  23
ATOM     23  C   UNL     1       4.081  -4.941  -4.382  1.00  0.00     0.040 A 
ATOM     24  C   UNL     1       4.668  -5.241  -3.148  1.00  0.00     0.015 A 
ATOM     25  C   UNL     1       4.763  -4.177  -5.337  1.00  0.00     0.015 A 
ATOM     26  C   UNL     1       5.917  -4.693  -2.836  1.00  0.00     0.021 A 
ATOM     27  C   UNL     1       6.013  -3.644  -5.022  1.00  0.00     0.021 A 
ATOM     28  C   UNL     1       6.575  -3.887  -3.767  1.00  0.00     0.041 A 
ATOM     29  Cl  UNL     1       8.080  -3.158  -3.364  1.00  0.00    -0.084 Cl
ENDBRANCH  21  23
ENDBRANCH  17  21
ENDBRANCH   7   8
ENDBRANCH   4   7
ENDBRANCH   2   3
ENDBRANCH   1   2
BRANCH   1  30
ATOM     30  C   UNL     1       0.105  -8.632  -0.143  1.00  0.00     0.023 C 
BRANCH  30  31
ATOM     31  C   UNL     1      -0.699  -9.933  -0.224  1.00  0.00     0.116 C 
BRANCH  31  32
ATOM     32  N   UNL     1      -0.233 -10.833  -1.260  1.00  0.00    -0.352 N 
ATOM     33  C   UNL     1       0.708 -11.823  -1.320  1.00  0.00     0.251 C 
ATOM     34  H   UNL     1      -0.701 -10.701  -2.116  1.00  0.00     0.163 HD
ATOM     35  O   UNL     1       0.760 -12.451  -2.382  1.00  0.00    -0.269 OA
BRANCH  33  36
ATOM     36  C   UNL     1       1.672 -12.153  -0.236  1.00  0.00     0.039 A 
ATOM     37  C   UNL     1       1.707 -11.553   1.023  1.00  0.00     0.014 A 
ATOM     38  C   UNL     1       2.650 -13.117  -0.547  1.00  0.00     0.014 A 
ATOM     39  C   UNL     1       2.729 -11.838   1.916  1.00  0.00     0.010 A 
ATOM     40  C   UNL     1       3.669 -13.420   0.351  1.00  0.00     0.010 A 
ATOM     41  C   UNL     1       3.729 -12.740   1.564  1.00  0.00    -0.014 A 
BRANCH  41  42
ATOM     42  C   UNL     1       4.805 -12.936   2.526  1.00  0.00     0.031 A 
ATOM     43  C   UNL     1       4.423 -13.541   3.837  1.00  0.00     0.074 A 
ATOM     44  C   UNL     1       6.089 -12.670   2.221  1.00  0.00     0.049 A 
ATOM     45  N   UNL     1       4.607 -13.079   5.033  1.00  0.00    -0.248 NA
ATOM     46  C   UNL     1       3.666 -14.803   3.793  1.00  0.00     0.031 C 
ATOM     47  C   UNL     1       6.657 -12.348   0.909  1.00  0.00     0.029 A 
ATOM     48  N   UNL     1       7.184 -12.757   3.022  1.00  0.00    -0.354 N 
ATOM     49  C   UNL     1       4.146 -14.068   5.903  1.00  0.00     0.074 A 
ATOM     50  C   UNL     1       3.478 -15.051   5.089  1.00  0.00     0.031 C 
ATOM     51  C   UNL     1       7.996 -12.510   0.960  1.00  0.00     0.029 A 
ATOM     52  C   UNL     1       8.380 -12.821   2.327  1.00  0.00     0.049 A 
ATOM     53  H   UNL     1       7.132 -12.772   4.005  1.00  0.00     0.167 HD
ATOM     54  C   UNL     1       4.478 -14.113   7.224  1.00  0.00     0.037 A 
ATOM     55  C   UNL     1       9.574 -13.227   2.823  1.00  0.00     0.037 A 
ATOM     56  C   UNL     1       4.954 -12.851   7.713  1.00  0.00     0.049 A 
ATOM     57  C   UNL     1       9.518 -13.077   4.302  1.00  0.00     0.074 A 
ATOM     58  C   UNL     1       4.402 -11.589   7.822  1.00  0.00     0.029 A 
ATOM     59  N   UNL     1       6.305 -12.675   7.890  1.00  0.00    -0.354 N 
ATOM     60  N   UNL     1       9.421 -11.931   4.924  1.00  0.00    -0.248 NA
ATOM     61  C   UNL     1       9.136 -14.241   5.089  1.00  0.00     0.031 C 
ATOM     62  C   UNL     1       5.474 -10.691   7.548  1.00  0.00     0.029 A 
ATOM     63  C   UNL     1       6.617 -11.462   7.326  1.00  0.00     0.049 A 
ATOM     64  H   UNL     1       6.927 -13.296   8.333  1.00  0.00     0.167 HD
ATOM     65  C   UNL     1       8.598 -12.179   6.014  1.00  0.00     0.074 A 
ATOM     66  C   UNL     1       8.533 -13.634   6.114  1.00  0.00     0.031 C 
ATOM     67  C   UNL     1       7.827 -11.199   6.574  1.00  0.00     0.037 A 
BRANCH  54  68
ATOM     68  C   UNL     1       4.600 -15.396   8.006  1.00  0.00     0.058 A 
ATOM     69  C   UNL     1       4.606 -15.387   9.414  1.00  0.00     0.135 A 
ATOM     70  C   UNL     1       4.957 -16.621   7.399  1.00  0.00     0.135 A 
ATOM     71  F   UNL     1       4.319 -14.264  10.091  1.00  0.00    -0.206 F 
ATOM     72  C   UNL     1       4.966 -16.510  10.164  1.00  0.00     0.059 A 
ATOM     73  C   UNL     1       5.265 -17.765   8.125  1.00  0.00     0.059 A 
ATOM     74  F   UNL     1       5.107 -16.731   6.071  1.00  0.00    -0.206 F 
ATOM     75  C   UNL     1       5.303 -17.692   9.508  1.00  0.00     0.060 A 
BRANCH  75  76
ATOM     76  S   UNL     1       5.857 -19.114  10.466  1.00  0.00     0.124 S 
ATOM     77  O   UNL     1       7.163 -18.660  10.931  1.00  0.00    -0.237 OA
ATOM     78  O   UNL     1       4.817 -19.221  11.485  1.00  0.00    -0.237 OA
ATOM     79  O   UNL     1       5.877 -20.194   9.484  1.00  0.00    -0.744 OA
ENDBRANCH  75  76
ENDBRANCH  54  68
BRANCH  55  80
ATOM     80  C   UNL     1      10.547 -14.105   2.119  1.00  0.00     0.058 A 
ATOM     81  C   UNL     1      11.858 -14.275   2.593  1.00  0.00     0.135 A 
ATOM     82  C   UNL     1      10.139 -14.989   1.096  1.00  0.00     0.135 A 
ATOM     83  F   UNL     1      12.318 -13.509   3.594  1.00  0.00    -0.206 F 
ATOM     84  C   UNL     1      12.706 -15.272   2.094  1.00  0.00     0.059 A 
ATOM     85  C   UNL     1      10.970 -15.973   0.570  1.00  0.00     0.059 A 
ATOM     86  F   UNL     1       8.881 -14.984   0.630  1.00  0.00    -0.206 F 
ATOM     87  C   UNL     1      12.247 -16.125   1.089  1.00  0.00     0.060 A 
BRANCH  87  88
ATOM     88  S   UNL     1      13.284 -17.496   0.534  1.00  0.00     0.124 S 
ATOM     89  O   UNL     1      14.405 -16.796  -0.083  1.00  0.00    -0.237 OA
ATOM     90  O   UNL     1      13.573 -18.185   1.787  1.00  0.00    -0.237 OA
ATOM     91  O   UNL     1      12.420 -18.225  -0.391  1.00  0.00    -0.744 OA
ENDBRANCH  87  88
ENDBRANCH  55  80
BRANCH  67  92
ATOM     92  C   UNL     1       8.060  -9.765   6.161  1.00  0.00     0.058 A 
ATOM     93  C   UNL     1       7.860  -9.289   4.853  1.00  0.00     0.135 A 
ATOM     94  C   UNL     1       8.303  -8.806   7.157  1.00  0.00     0.135 A 
ATOM     95  F   UNL     1       7.512 -10.119   3.862  1.00  0.00    -0.206 F 
ATOM     96  C   UNL     1       7.933  -7.930   4.543  1.00  0.00     0.059 A 
ATOM     97  C   UNL     1       8.347  -7.440   6.876  1.00  0.00     0.059 A 
ATOM     98  F   UNL     1       8.436  -9.185   8.439  1.00  0.00    -0.206 F 
ATOM     99  C   UNL     1       8.168  -7.010   5.563  1.00  0.00     0.060 A 
BRANCH  99 100
ATOM    100  S   UNL     1       8.146  -5.247   5.169  1.00  0.00     0.124 S 
ATOM    101  O   UNL     1       9.377  -5.088   4.403  1.00  0.00    -0.237 OA
ATOM    102  O   UNL     1       6.905  -5.110   4.410  1.00  0.00    -0.237 OA
ATOM    103  O   UNL     1       8.137  -4.604   6.480  1.00  0.00    -0.744 OA
ENDBRANCH  99 100
ENDBRANCH  67  92
ENDBRANCH  41  42
ENDBRANCH  33  36
ENDBRANCH  31  32
ENDBRANCH  30  31
ENDBRANCH   1  30
TORSDOF 18
