REMARK SMILES CC1=NN(c2ccc(Cl)c(C(=O)NCCCCNC(=O)c3ccc(-c4c5nc(c(-c6c(F)cc(S(=O)(=O)[O-])cc6F)c6ccc([nH]6)c(-c6c(F)cc(S(=O)(=O)[O-])cc6F)c6nc(c(-c7c(F)cc(S(=O)(=O)[O-])cc7F)c7ccc4[nH]7)C=C6)C=C5)cc3)c2)C(=O)/C1=C\c1ccc(N(C)C)c(Br)c1
REMARK SMILES IDX 15 1 14 2 13 3 11 4 12 5 10 7 5 8 6 9 87 10 7 11 8 12 9 13
REMARK SMILES IDX 4 14 1 15 2 16 3 17 90 18 88 19 91 20 89 21 92 22 93 23
REMARK SMILES IDX 101 24 94 25 99 26 95 27 100 28 96 29 97 30 98 31 16 32
REMARK SMILES IDX 17 33 18 34 19 35 20 37 21 38 22 39 86 40 23 41 85 42 24 43
REMARK SMILES IDX 25 44 26 45 79 46 27 47 84 48 78 49 80 50 28 51 83 52 77 53
REMARK SMILES IDX 76 54 29 56 63 57 42 58 62 59 43 60 46 61 61 62 81 63 44 64
REMARK SMILES IDX 45 65 60 67 82 68 47 69 30 70 31 71 40 72 32 73 33 74 39 75
REMARK SMILES IDX 41 76 34 77 35 78 36 79 37 80 38 81 64 82 65 83 74 84 66 85
REMARK SMILES IDX 67 86 73 87 75 88 68 89 69 90 70 91 71 92 72 93 48 94 49 95
REMARK SMILES IDX 58 96 50 97 51 98 57 99 59 100 52 101 53 102 54 103 55 104
REMARK SMILES IDX 56 105
REMARK H PARENT 13 6 18 36 80 55 46 66
REMARK Flexibility Score: inf
ROOT
ATOM      1  C   UNL     1       2.229   8.984   0.378  1.00  0.00     0.023 C 
ENDROOT
BRANCH   1   2
ATOM      2  C   UNL     1       2.803   7.603   0.662  1.00  0.00     0.116 C 
BRANCH   2   3
ATOM      3  N   UNL     1       2.190   6.895   1.772  1.00  0.00    -0.352 N 
ATOM      4  C   UNL     1       1.899   5.555   1.918  1.00  0.00     0.252 C 
ATOM      5  O   UNL     1       1.406   5.167   2.976  1.00  0.00    -0.269 OA
ATOM      6  H   UNL     1       1.944   7.460   2.540  1.00  0.00     0.163 HD
BRANCH   4   7
ATOM      7  C   UNL     1       2.087   4.571   0.818  1.00  0.00     0.060 A 
ATOM      8  C   UNL     1       1.228   2.588  -0.310  1.00  0.00     0.070 A 
ATOM      9  C   UNL     1       2.298   2.665  -1.208  1.00  0.00     0.030 A 
ATOM     10  C   UNL     1       1.063   3.607   0.636  1.00  0.00     0.044 A 
ATOM     11  C   UNL     1       3.314   3.591  -1.025  1.00  0.00     0.023 A 
ATOM     12  C   UNL     1       3.262   4.464   0.058  1.00  0.00     0.053 A 
ATOM     13  Cl  UNL     1       4.771   5.191   0.487  1.00  0.00    -0.083 Cl
BRANCH   8  14
ATOM     14  N   UNL     1       0.498   1.383  -0.258  1.00  0.00    -0.196 N 
ATOM     15  C   UNL     1      -2.559  -0.467   0.194  1.00  0.00     0.069 C 
ATOM     16  C   UNL     1      -1.172   0.065   0.038  1.00  0.00     0.071 C 
ATOM     17  N   UNL     1      -0.857   1.339   0.037  1.00  0.00    -0.169 NA
ATOM     18  C   UNL     1       0.006  -0.809  -0.134  1.00  0.00     0.065 C 
ATOM     19  C   UNL     1       1.108   0.129  -0.420  1.00  0.00     0.280 C 
ATOM     20  C   UNL     1       0.105  -2.135   0.047  1.00  0.00     0.024 C 
ATOM     21  O   UNL     1       2.258  -0.161  -0.700  1.00  0.00    -0.267 OA
BRANCH  20  22
ATOM     22  C   UNL     1       1.407  -2.815   0.120  1.00  0.00    -0.024 A 
ATOM     23  C   UNL     1       1.902  -3.583  -0.919  1.00  0.00     0.010 A 
ATOM     24  C   UNL     1       2.218  -2.631   1.240  1.00  0.00     0.026 A 
ATOM     25  C   UNL     1       3.202  -4.124  -0.840  1.00  0.00     0.028 A 
ATOM     26  C   UNL     1       3.518  -3.183   1.323  1.00  0.00     0.041 A 
ATOM     27  C   UNL     1       4.074  -3.955   0.269  1.00  0.00     0.051 A 
ATOM     28  Br  UNL     1       4.348  -2.778   2.999  1.00  0.00    -0.049 Br
BRANCH  27  29
ATOM     29  N   UNL     1       5.343  -4.543   0.242  1.00  0.00    -0.377 N 
ATOM     30  C   UNL     1       5.785  -5.422  -0.842  1.00  0.00     0.143 C 
ATOM     31  C   UNL     1       6.426  -4.140   1.136  1.00  0.00     0.143 C 
ENDBRANCH  27  29
ENDBRANCH  20  22
ENDBRANCH   8  14
ENDBRANCH   4   7
ENDBRANCH   2   3
ENDBRANCH   1   2
BRANCH   1  32
ATOM     32  C   UNL     1       2.431  10.039   1.464  1.00  0.00     0.023 C 
BRANCH  32  33
ATOM     33  C   UNL     1       3.842  10.192   2.026  1.00  0.00     0.116 C 
BRANCH  33  34
ATOM     34  N   UNL     1       4.861  10.460   1.021  1.00  0.00    -0.352 N 
ATOM     35  C   UNL     1       5.820  11.447   0.977  1.00  0.00     0.251 C 
ATOM     36  H   UNL     1       4.866   9.840   0.256  1.00  0.00     0.163 HD
ATOM     37  O   UNL     1       6.553  11.539  -0.004  1.00  0.00    -0.269 OA
BRANCH  35  38
ATOM     38  C   UNL     1       5.942  12.423   2.085  1.00  0.00     0.039 A 
ATOM     39  C   UNL     1       6.070  13.781   1.776  1.00  0.00     0.014 A 
ATOM     40  C   UNL     1       5.909  12.013   3.419  1.00  0.00     0.014 A 
ATOM     41  C   UNL     1       6.075  14.730   2.803  1.00  0.00     0.010 A 
ATOM     42  C   UNL     1       5.824  12.963   4.434  1.00  0.00     0.010 A 
ATOM     43  C   UNL     1       5.905  14.333   4.139  1.00  0.00    -0.014 A 
BRANCH  43  44
ATOM     44  C   UNL     1       5.811  15.331   5.238  1.00  0.00     0.031 A 
ATOM     45  C   UNL     1       6.836  15.340   6.342  1.00  0.00     0.074 A 
ATOM     46  C   UNL     1       4.769  16.187   5.280  1.00  0.00     0.049 A 
ATOM     47  N   UNL     1       6.889  16.088   7.414  1.00  0.00    -0.248 NA
ATOM     48  C   UNL     1       7.927  14.357   6.243  1.00  0.00     0.031 C 
ATOM     49  C   UNL     1       3.679  16.242   4.303  1.00  0.00     0.029 A 
ATOM     50  N   UNL     1       4.451  17.171   6.183  1.00  0.00    -0.354 N 
ATOM     51  C   UNL     1       8.005  15.656   8.123  1.00  0.00     0.074 A 
ATOM     52  C   UNL     1       8.563  14.541   7.390  1.00  0.00     0.031 C 
ATOM     53  C   UNL     1       2.831  17.227   4.643  1.00  0.00     0.029 A 
ATOM     54  C   UNL     1       3.294  17.850   5.879  1.00  0.00     0.049 A 
ATOM     55  H   UNL     1       5.000  17.372   6.975  1.00  0.00     0.167 HD
ATOM     56  C   UNL     1       8.535  16.160   9.263  1.00  0.00     0.037 A 
ATOM     57  C   UNL     1       2.675  18.860   6.522  1.00  0.00     0.037 A 
ATOM     58  C   UNL     1       7.993  17.289   9.972  1.00  0.00     0.049 A 
ATOM     59  C   UNL     1       3.287  19.411   7.782  1.00  0.00     0.074 A 
ATOM     60  C   UNL     1       8.487  17.913  11.104  1.00  0.00     0.029 A 
ATOM     61  N   UNL     1       6.835  17.967   9.616  1.00  0.00    -0.354 N 
ATOM     62  N   UNL     1       4.380  19.032   8.402  1.00  0.00    -0.248 NA
ATOM     63  C   UNL     1       2.590  20.533   8.425  1.00  0.00     0.031 C 
ATOM     64  C   UNL     1       7.607  18.943  11.455  1.00  0.00     0.029 A 
ATOM     65  C   UNL     1       6.591  18.992  10.514  1.00  0.00     0.049 A 
ATOM     66  H   UNL     1       6.271  17.750   8.839  1.00  0.00     0.167 HD
ATOM     67  C   UNL     1       4.516  19.887   9.489  1.00  0.00     0.074 A 
ATOM     68  C   UNL     1       3.400  20.809   9.438  1.00  0.00     0.031 C 
ATOM     69  C   UNL     1       5.481  19.909  10.443  1.00  0.00     0.037 A 
BRANCH  56  70
ATOM     70  C   UNL     1       9.771  15.496   9.807  1.00  0.00     0.058 A 
ATOM     71  C   UNL     1      11.008  15.591   9.147  1.00  0.00     0.135 A 
ATOM     72  C   UNL     1       9.727  14.772  11.010  1.00  0.00     0.135 A 
ATOM     73  F   UNL     1      11.106  16.258   7.986  1.00  0.00    -0.206 F 
ATOM     74  C   UNL     1      12.146  14.962   9.639  1.00  0.00     0.059 A 
ATOM     75  C   UNL     1      10.861  14.160  11.537  1.00  0.00     0.059 A 
ATOM     76  F   UNL     1       8.573  14.650  11.684  1.00  0.00    -0.206 F 
ATOM     77  C   UNL     1      12.062  14.245  10.834  1.00  0.00     0.060 A 
BRANCH  77  78
ATOM     78  S   UNL     1      13.548  13.431  11.457  1.00  0.00     0.124 S 
ATOM     79  O   UNL     1      13.667  12.303  10.538  1.00  0.00    -0.237 OA
ATOM     80  O   UNL     1      14.560  14.473  11.313  1.00  0.00    -0.237 OA
ATOM     81  O   UNL     1      13.197  13.087  12.831  1.00  0.00    -0.744 OA
ENDBRANCH  77  78
ENDBRANCH  56  70
BRANCH  57  82
ATOM     82  C   UNL     1       1.425  19.442   5.963  1.00  0.00     0.058 A 
ATOM     83  C   UNL     1       1.420  20.724   5.394  1.00  0.00     0.135 A 
ATOM     84  C   UNL     1       0.217  18.727   5.971  1.00  0.00     0.135 A 
ATOM     85  F   UNL     1       2.549  21.450   5.369  1.00  0.00    -0.206 F 
ATOM     86  C   UNL     1       0.262  21.284   4.864  1.00  0.00     0.059 A 
ATOM     87  C   UNL     1      -0.949  19.256   5.425  1.00  0.00     0.059 A 
ATOM     88  F   UNL     1       0.171  17.490   6.489  1.00  0.00    -0.206 F 
ATOM     89  C   UNL     1      -0.918  20.540   4.882  1.00  0.00     0.060 A 
BRANCH  89  90
ATOM     90  S   UNL     1      -2.404  21.256   4.144  1.00  0.00     0.124 S 
ATOM     91  O   UNL     1      -2.771  22.259   5.136  1.00  0.00    -0.237 OA
ATOM     92  O   UNL     1      -1.899  21.767   2.874  1.00  0.00    -0.237 OA
ATOM     93  O   UNL     1      -3.308  20.114   4.036  1.00  0.00    -0.744 OA
ENDBRANCH  89  90
ENDBRANCH  57  82
BRANCH  69  94
ATOM     94  C   UNL     1       5.399  20.987  11.487  1.00  0.00     0.058 A 
ATOM     95  C   UNL     1       4.442  20.953  12.513  1.00  0.00     0.135 A 
ATOM     96  C   UNL     1       6.330  22.039  11.494  1.00  0.00     0.135 A 
ATOM     97  F   UNL     1       3.526  19.973  12.549  1.00  0.00    -0.206 F 
ATOM     98  C   UNL     1       4.397  21.935  13.497  1.00  0.00     0.059 A 
ATOM     99  C   UNL     1       6.321  23.017  12.483  1.00  0.00     0.059 A 
ATOM    100  F   UNL     1       7.273  22.113  10.541  1.00  0.00    -0.206 F 
ATOM    101  C   UNL     1       5.343  22.963  13.475  1.00  0.00     0.060 A 
BRANCH 101 102
ATOM    102  S   UNL     1       5.297  24.210  14.779  1.00  0.00     0.124 S 
ATOM    103  O   UNL     1       4.140  25.006  14.384  1.00  0.00    -0.237 OA
ATOM    104  O   UNL     1       5.130  23.400  15.981  1.00  0.00    -0.237 OA
ATOM    105  O   UNL     1       6.590  24.878  14.656  1.00  0.00    -0.744 OA
ENDBRANCH 101 102
ENDBRANCH  69  94
ENDBRANCH  43  44
ENDBRANCH  35  38
ENDBRANCH  33  34
ENDBRANCH  32  33
ENDBRANCH   1  32
TORSDOF 17
