REMARK SMILES C[C@@H](SC1CCOCC1)c1ccc(C(=O)NCCCCNC(=O)c2ccc(-c3c4nc(c(-c5c(F)cc(S(=O)(=O)[O-])cc5F)c5ccc([nH]5)c(-c5c(F)cc(S(=O)(=O)[O-])cc5F)c5nc(c(-c6c(F)cc(S(=O)(=O)[O-])cc6F)c6ccc3[nH]6)C=C5)C=C4)cc2)o1
REMARK SMILES IDX 18 1 17 2 16 3 14 4 15 5 13 7 10 8 11 9 90 10 12 11 2 12
REMARK SMILES IDX 1 13 3 14 4 15 5 16 9 17 6 18 8 19 7 20 19 21 20 22 21 23
REMARK SMILES IDX 22 24 23 26 24 27 25 28 89 29 26 30 88 31 27 32 28 33 29 34
REMARK SMILES IDX 82 35 30 36 87 37 81 38 83 39 31 40 86 41 80 42 79 43 32 45
REMARK SMILES IDX 66 46 45 47 65 48 46 49 49 50 64 51 84 52 47 53 48 54 63 56
REMARK SMILES IDX 85 57 50 58 33 59 34 60 43 61 35 62 36 63 42 64 44 65 37 66
REMARK SMILES IDX 38 67 39 68 40 69 41 70 67 71 68 72 77 73 69 74 70 75 76 76
REMARK SMILES IDX 78 77 71 78 72 79 73 80 74 81 75 82 51 83 52 84 61 85 53 86
REMARK SMILES IDX 54 87 60 88 62 89 55 90 56 91 57 92 58 93 59 94
REMARK H PARENT 16 6 21 25 83 44 49 55
REMARK Flexibility Score: inf
ROOT
ATOM      1  C   UNL     1      -6.410  -2.147   0.314  1.00  0.00     0.023 C 
ENDROOT
BRANCH   1   2
ATOM      2  C   UNL     1      -5.904  -1.598  -1.019  1.00  0.00     0.116 C 
BRANCH   2   3
ATOM      3  N   UNL     1      -5.258  -0.317  -0.852  1.00  0.00    -0.349 N 
ATOM      4  C   UNL     1      -3.936   0.019  -0.674  1.00  0.00     0.286 C 
ATOM      5  O   UNL     1      -3.707   1.231  -0.611  1.00  0.00    -0.266 OA
ATOM      6  H   UNL     1      -5.872   0.452  -0.868  1.00  0.00     0.163 HD
BRANCH   4   7
ATOM      7  C   UNL     1      -2.883  -0.981  -0.577  1.00  0.00     0.191 A 
ATOM      8  C   UNL     1      -0.724  -1.528  -0.432  1.00  0.00     0.117 A 
ATOM      9  C   UNL     1      -1.432  -2.710  -0.417  1.00  0.00     0.047 A 
ATOM     10  O   UNL     1      -1.599  -0.491  -0.564  1.00  0.00    -0.455 OA
ATOM     11  C   UNL     1      -2.807  -2.358  -0.466  1.00  0.00     0.056 A 
BRANCH   8  12
ATOM     12  C   UNL     1       0.739  -1.180  -0.345  1.00  0.00     0.110 C 
ATOM     13  C   UNL     1       0.932   0.321  -0.094  1.00  0.00     0.028 C 
BRANCH  12  14
ATOM     14  S   UNL     1       1.502  -2.114   1.056  1.00  0.00    -0.147 SA
BRANCH  14  15
ATOM     15  C   UNL     1       3.239  -2.385   0.520  1.00  0.00     0.052 C 
ATOM     16  C   UNL     1       3.933  -1.214  -0.171  1.00  0.00     0.043 C 
ATOM     17  C   UNL     1       3.385  -3.660  -0.314  1.00  0.00     0.043 C 
ATOM     18  C   UNL     1       5.376  -1.584  -0.493  1.00  0.00     0.161 C 
ATOM     19  C   UNL     1       4.863  -3.896  -0.612  1.00  0.00     0.161 C 
ATOM     20  O   UNL     1       5.429  -2.771  -1.283  1.00  0.00    -0.381 OA
ENDBRANCH  14  15
ENDBRANCH  12  14
ENDBRANCH   8  12
ENDBRANCH   4   7
ENDBRANCH   2   3
ENDBRANCH   1   2
BRANCH   1  21
ATOM     21  C   UNL     1      -7.770  -1.584   0.748  1.00  0.00     0.023 C 
BRANCH  21  22
ATOM     22  C   UNL     1      -8.927  -1.854  -0.213  1.00  0.00     0.116 C 
BRANCH  22  23
ATOM     23  N   UNL     1      -9.107  -3.264  -0.522  1.00  0.00    -0.352 N 
ATOM     24  C   UNL     1     -10.267  -3.925  -0.856  1.00  0.00     0.251 C 
ATOM     25  H   UNL     1      -8.294  -3.818  -0.487  1.00  0.00     0.163 HD
ATOM     26  O   UNL     1     -10.265  -5.141  -0.993  1.00  0.00    -0.269 OA
BRANCH  24  27
ATOM     27  C   UNL     1     -11.520  -3.154  -1.003  1.00  0.00     0.039 A 
ATOM     28  C   UNL     1     -12.653  -3.576  -0.304  1.00  0.00     0.014 A 
ATOM     29  C   UNL     1     -11.563  -2.003  -1.793  1.00  0.00     0.014 A 
ATOM     30  C   UNL     1     -13.814  -2.800  -0.342  1.00  0.00     0.010 A 
ATOM     31  C   UNL     1     -12.700  -1.200  -1.780  1.00  0.00     0.010 A 
ATOM     32  C   UNL     1     -13.833  -1.587  -1.049  1.00  0.00    -0.014 A 
BRANCH  32  33
ATOM     33  C   UNL     1     -15.024  -0.701  -1.024  1.00  0.00     0.031 A 
ATOM     34  C   UNL     1     -15.794  -0.434  -2.288  1.00  0.00     0.074 A 
ATOM     35  C   UNL     1     -15.365  -0.079   0.123  1.00  0.00     0.049 A 
ATOM     36  N   UNL     1     -16.805   0.372  -2.484  1.00  0.00    -0.248 NA
ATOM     37  C   UNL     1     -15.351  -1.147  -3.498  1.00  0.00     0.031 C 
ATOM     38  C   UNL     1     -14.663  -0.215   1.402  1.00  0.00     0.029 A 
ATOM     39  N   UNL     1     -16.380   0.803   0.397  1.00  0.00    -0.354 N 
ATOM     40  C   UNL     1     -17.108   0.278  -3.837  1.00  0.00     0.074 A 
ATOM     41  C   UNL     1     -16.146  -0.629  -4.424  1.00  0.00     0.031 C 
ATOM     42  C   UNL     1     -15.277   0.542   2.325  1.00  0.00     0.029 A 
ATOM     43  C   UNL     1     -16.394   1.243   1.700  1.00  0.00     0.049 A 
ATOM     44  H   UNL     1     -17.036   1.094  -0.277  1.00  0.00     0.167 HD
ATOM     45  C   UNL     1     -18.110   0.877  -4.522  1.00  0.00     0.037 A 
ATOM     46  C   UNL     1     -17.211   2.118   2.318  1.00  0.00     0.037 A 
ATOM     47  C   UNL     1     -19.087   1.750  -3.925  1.00  0.00     0.049 A 
ATOM     48  C   UNL     1     -18.330   2.754   1.538  1.00  0.00     0.074 A 
ATOM     49  C   UNL     1     -20.180   2.354  -4.521  1.00  0.00     0.029 A 
ATOM     50  N   UNL     1     -19.091   2.140  -2.594  1.00  0.00    -0.354 N 
ATOM     51  N   UNL     1     -18.640   2.603   0.273  1.00  0.00    -0.248 NA
ATOM     52  C   UNL     1     -19.213   3.673   2.269  1.00  0.00     0.031 C 
ATOM     53  C   UNL     1     -20.827   3.136  -3.559  1.00  0.00     0.029 A 
ATOM     54  C   UNL     1     -20.160   2.987  -2.353  1.00  0.00     0.049 A 
ATOM     55  H   UNL     1     -18.432   1.857  -1.920  1.00  0.00     0.167 HD
ATOM     56  C   UNL     1     -19.771   3.385   0.064  1.00  0.00     0.074 A 
ATOM     57  C   UNL     1     -20.095   3.999   1.335  1.00  0.00     0.031 C 
ATOM     58  C   UNL     1     -20.477   3.577  -1.077  1.00  0.00     0.037 A 
BRANCH  45  59
ATOM     59  C   UNL     1     -18.213   0.599  -5.996  1.00  0.00     0.058 A 
ATOM     60  C   UNL     1     -18.644  -0.646  -6.479  1.00  0.00     0.135 A 
ATOM     61  C   UNL     1     -17.927   1.603  -6.934  1.00  0.00     0.135 A 
ATOM     62  F   UNL     1     -18.914  -1.646  -5.625  1.00  0.00    -0.206 F 
ATOM     63  C   UNL     1     -18.766  -0.894  -7.842  1.00  0.00     0.059 A 
ATOM     64  C   UNL     1     -18.067   1.386  -8.302  1.00  0.00     0.059 A 
ATOM     65  F   UNL     1     -17.510   2.812  -6.526  1.00  0.00    -0.206 F 
ATOM     66  C   UNL     1     -18.477   0.129  -8.746  1.00  0.00     0.060 A 
BRANCH  66  67
ATOM     67  S   UNL     1     -18.660  -0.203 -10.511  1.00  0.00     0.124 S 
ATOM     68  O   UNL     1     -17.493  -1.040 -10.771  1.00  0.00    -0.237 OA
ATOM     69  O   UNL     1     -19.951  -0.881 -10.570  1.00  0.00    -0.237 OA
ATOM     70  O   UNL     1     -18.625   1.126 -11.113  1.00  0.00    -0.744 OA
ENDBRANCH  66  67
ENDBRANCH  45  59
BRANCH  46  71
ATOM     71  C   UNL     1     -17.018   2.430   3.760  1.00  0.00     0.058 A 
ATOM     72  C   UNL     1     -17.931   1.975   4.723  1.00  0.00     0.135 A 
ATOM     73  C   UNL     1     -15.925   3.190   4.202  1.00  0.00     0.135 A 
ATOM     74  F   UNL     1     -18.995   1.249   4.348  1.00  0.00    -0.206 F 
ATOM     75  C   UNL     1     -17.782   2.283   6.071  1.00  0.00     0.059 A 
ATOM     76  C   UNL     1     -15.741   3.490   5.548  1.00  0.00     0.059 A 
ATOM     77  F   UNL     1     -15.013   3.632   3.322  1.00  0.00    -0.206 F 
ATOM     78  C   UNL     1     -16.683   3.043   6.474  1.00  0.00     0.060 A 
BRANCH  78  79
ATOM     79  S   UNL     1     -16.479   3.411   8.230  1.00  0.00     0.124 S 
ATOM     80  O   UNL     1     -17.482   4.451   8.430  1.00  0.00    -0.237 OA
ATOM     81  O   UNL     1     -16.764   2.121   8.851  1.00  0.00    -0.237 OA
ATOM     82  O   UNL     1     -15.089   3.847   8.321  1.00  0.00    -0.744 OA
ENDBRANCH  78  79
ENDBRANCH  46  71
BRANCH  58  83
ATOM     83  C   UNL     1     -21.693   4.456  -0.998  1.00  0.00     0.058 A 
ATOM     84  C   UNL     1     -21.589   5.851  -0.895  1.00  0.00     0.135 A 
ATOM     85  C   UNL     1     -22.978   3.896  -1.083  1.00  0.00     0.135 A 
ATOM     86  F   UNL     1     -20.383   6.434  -0.805  1.00  0.00    -0.206 F 
ATOM     87  C   UNL     1     -22.719   6.662  -0.858  1.00  0.00     0.059 A 
ATOM     88  C   UNL     1     -24.121   4.689  -1.072  1.00  0.00     0.059 A 
ATOM     89  F   UNL     1     -23.131   2.567  -1.193  1.00  0.00    -0.206 F 
ATOM     90  C   UNL     1     -23.981   6.071  -0.949  1.00  0.00     0.060 A 
BRANCH  90  91
ATOM     91  S   UNL     1     -25.439   7.135  -0.938  1.00  0.00     0.124 S 
ATOM     92  O   UNL     1     -25.531   7.493   0.474  1.00  0.00    -0.237 OA
ATOM     93  O   UNL     1     -25.048   8.213  -1.841  1.00  0.00    -0.237 OA
ATOM     94  O   UNL     1     -26.499   6.263  -1.436  1.00  0.00    -0.744 OA
ENDBRANCH  90  91
ENDBRANCH  58  83
ENDBRANCH  32  33
ENDBRANCH  24  27
ENDBRANCH  22  23
ENDBRANCH  21  22
ENDBRANCH   1  21
TORSDOF 17
