REMARK SMILES COC(=O)Cc1nc(NC(=O)[C@H]2CC[C@@H]2C(=O)NCCCCNC(=O)c2ccc(-c3c4nc(c(-c5c(F)cc(S(=O)(=O)[O-])cc5F)c5ccc([nH]5)c(-c5c(F)cc(S(=O)(=O)[O-])cc5F)c5nc(c(-c6c(F)cc(S(=O)(=O)[O-])cc6F)c6ccc3[nH]6)C=C5)C=C4)cc2)sc1C
REMARK SMILES IDX 19 1 18 2 16 3 17 4 15 6 12 7 13 8 14 9 10 10 9 11 11 13
REMARK SMILES IDX 8 14 6 15 7 16 93 17 92 18 94 19 5 20 3 21 4 22 2 23 1 24
REMARK SMILES IDX 20 25 21 26 22 27 23 28 24 29 25 31 26 32 27 33 91 34 28 35
REMARK SMILES IDX 90 36 29 37 30 38 31 39 84 40 32 41 89 42 83 43 85 44 33 45
REMARK SMILES IDX 88 46 82 47 81 48 34 50 68 51 47 52 67 53 48 54 51 55 66 56
REMARK SMILES IDX 86 57 49 58 50 59 65 61 87 62 52 63 35 64 36 65 45 66 37 67
REMARK SMILES IDX 38 68 44 69 46 70 39 71 40 72 41 73 42 74 43 75 69 76 70 77
REMARK SMILES IDX 79 78 71 79 72 80 78 81 80 82 73 83 74 84 75 85 76 86 77 87
REMARK SMILES IDX 53 88 54 89 63 90 55 91 56 92 62 93 64 94 57 95 58 96 59 97
REMARK SMILES IDX 60 98 61 99
REMARK H PARENT 18 5 9 12 23 30 85 49 51 60
REMARK Flexibility Score: inf
ROOT
ATOM      1  C   UNL     1       5.716   3.901  -3.692  1.00  0.00     0.116 C 
ENDROOT
BRANCH   1   2
ATOM      2  N   UNL     1       4.856   4.973  -3.227  1.00  0.00    -0.356 N 
ATOM      3  C   UNL     1       3.862   5.621  -3.921  1.00  0.00     0.223 C 
ATOM      4  O   UNL     1       3.327   6.594  -3.387  1.00  0.00    -0.275 OA
ATOM      5  H   UNL     1       5.002   5.274  -2.301  1.00  0.00     0.163 HD
BRANCH   3   6
ATOM      6  C   UNL     1       3.421   4.985  -5.279  1.00  0.00     0.091 C 
ATOM      7  C   UNL     1       2.051   5.459  -5.917  1.00  0.00     0.091 C 
ATOM      8  C   UNL     1       1.406   4.415  -4.990  1.00  0.00     0.015 C 
ATOM      9  C   UNL     1       2.719   3.606  -5.095  1.00  0.00     0.015 C 
BRANCH   7  10
ATOM     10  C   UNL     1       2.003   5.570  -7.465  1.00  0.00     0.230 C 
ATOM     11  N   UNL     1       1.933   4.561  -8.406  1.00  0.00    -0.302 N 
ATOM     12  H   UNL     1       2.177   4.860  -9.312  1.00  0.00     0.172 HD
ATOM     13  O   UNL     1       2.186   6.696  -7.978  1.00  0.00    -0.274 OA
BRANCH  11  14
ATOM     14  C   UNL     1       1.599   3.244  -8.350  1.00  0.00     0.189 A 
ATOM     15  C   UNL     1       1.778   1.058  -8.624  1.00  0.00     0.068 A 
ATOM     16  N   UNL     1       2.044   2.322  -9.176  1.00  0.00    -0.224 NA
ATOM     17  C   UNL     1       1.183   1.148  -7.372  1.00  0.00     0.027 A 
ATOM     18  S   UNL     1       0.378   2.662  -7.333  1.00  0.00    -0.102 S 
ATOM     19  C   UNL     1       1.134   0.235  -6.204  1.00  0.00     0.058 C 
BRANCH  15  20
ATOM     20  C   UNL     1       2.275  -0.151  -9.351  1.00  0.00     0.180 C 
BRANCH  20  21
ATOM     21  C   UNL     1       1.688  -1.435  -8.816  1.00  0.00     0.311 C 
ATOM     22  O   UNL     1       0.570  -1.857  -9.084  1.00  0.00    -0.252 OA
BRANCH  21  23
ATOM     23  O   UNL     1       2.544  -2.011  -7.923  1.00  0.00    -0.469 OA
ATOM     24  C   UNL     1       2.006  -3.118  -7.193  1.00  0.00     0.282 C 
ENDBRANCH  21  23
ENDBRANCH  20  21
ENDBRANCH  15  20
ENDBRANCH  11  14
ENDBRANCH   7  10
ENDBRANCH   3   6
ENDBRANCH   1   2
BRANCH   1  25
ATOM     25  C   UNL     1       7.184   4.304  -3.594  1.00  0.00     0.023 C 
BRANCH  25  26
ATOM     26  C   UNL     1       7.677   4.534  -2.163  1.00  0.00     0.023 C 
BRANCH  26  27
ATOM     27  C   UNL     1       7.564   3.323  -1.243  1.00  0.00     0.116 C 
BRANCH  27  28
ATOM     28  N   UNL     1       8.391   2.212  -1.683  1.00  0.00    -0.352 N 
ATOM     29  C   UNL     1       9.326   1.491  -0.974  1.00  0.00     0.251 C 
ATOM     30  H   UNL     1       8.266   1.935  -2.620  1.00  0.00     0.163 HD
ATOM     31  O   UNL     1      10.054   0.699  -1.554  1.00  0.00    -0.269 OA
BRANCH  29  32
ATOM     32  C   UNL     1       9.460   1.704   0.485  1.00  0.00     0.039 A 
ATOM     33  C   UNL     1      10.736   1.863   1.030  1.00  0.00     0.014 A 
ATOM     34  C   UNL     1       8.333   1.758   1.310  1.00  0.00     0.014 A 
ATOM     35  C   UNL     1      10.877   2.144   2.391  1.00  0.00     0.010 A 
ATOM     36  C   UNL     1       8.471   2.111   2.650  1.00  0.00     0.010 A 
ATOM     37  C   UNL     1       9.744   2.308   3.206  1.00  0.00    -0.014 A 
BRANCH  37  38
ATOM     38  C   UNL     1       9.870   2.696   4.636  1.00  0.00     0.031 A 
ATOM     39  C   UNL     1       9.387   1.769   5.718  1.00  0.00     0.074 A 
ATOM     40  C   UNL     1      10.354   3.913   4.956  1.00  0.00     0.049 A 
ATOM     41  N   UNL     1       9.343   1.962   7.011  1.00  0.00    -0.248 NA
ATOM     42  C   UNL     1       8.861   0.463   5.289  1.00  0.00     0.031 C 
ATOM     43  C   UNL     1      10.807   4.923   3.997  1.00  0.00     0.029 A 
ATOM     44  N   UNL     1      10.532   4.515   6.178  1.00  0.00    -0.354 N 
ATOM     45  C   UNL     1       8.771   0.814   7.548  1.00  0.00     0.074 A 
ATOM     46  C   UNL     1       8.439  -0.050   6.436  1.00  0.00     0.031 C 
ATOM     47  C   UNL     1      11.226   6.009   4.666  1.00  0.00     0.029 A 
ATOM     48  C   UNL     1      11.036   5.792   6.097  1.00  0.00     0.049 A 
ATOM     49  H   UNL     1      10.319   4.073   7.031  1.00  0.00     0.167 HD
ATOM     50  C   UNL     1       8.561   0.500   8.849  1.00  0.00     0.037 A 
ATOM     51  C   UNL     1      11.304   6.693   7.063  1.00  0.00     0.037 A 
ATOM     52  C   UNL     1       8.918   1.354   9.952  1.00  0.00     0.049 A 
ATOM     53  C   UNL     1      11.065   6.321   8.501  1.00  0.00     0.074 A 
ATOM     54  C   UNL     1       8.807   1.097  11.308  1.00  0.00     0.029 A 
ATOM     55  N   UNL     1       9.450   2.630   9.830  1.00  0.00    -0.354 N 
ATOM     56  N   UNL     1      10.587   5.202   8.994  1.00  0.00    -0.248 NA
ATOM     57  C   UNL     1      11.407   7.327   9.516  1.00  0.00     0.031 C 
ATOM     58  C   UNL     1       9.224   2.236  12.005  1.00  0.00     0.029 A 
ATOM     59  C   UNL     1       9.649   3.182  11.085  1.00  0.00     0.049 A 
ATOM     60  H   UNL     1       9.655   3.077   8.978  1.00  0.00     0.167 HD
ATOM     61  C   UNL     1      10.597   5.361  10.376  1.00  0.00     0.074 A 
ATOM     62  C   UNL     1      11.139   6.678  10.640  1.00  0.00     0.031 C 
ATOM     63  C   UNL     1      10.196   4.492  11.337  1.00  0.00     0.037 A 
BRANCH  50  64
ATOM     64  C   UNL     1       7.916  -0.825   9.154  1.00  0.00     0.058 A 
ATOM     65  C   UNL     1       8.589  -2.040   8.951  1.00  0.00     0.135 A 
ATOM     66  C   UNL     1       6.622  -0.879   9.699  1.00  0.00     0.135 A 
ATOM     67  F   UNL     1       9.822  -2.049   8.419  1.00  0.00    -0.206 F 
ATOM     68  C   UNL     1       7.994  -3.261   9.248  1.00  0.00     0.059 A 
ATOM     69  C   UNL     1       6.018  -2.088  10.033  1.00  0.00     0.059 A 
ATOM     70  F   UNL     1       5.931   0.252   9.915  1.00  0.00    -0.206 F 
ATOM     71  C   UNL     1       6.708  -3.275   9.790  1.00  0.00     0.060 A 
BRANCH  71  72
ATOM     72  S   UNL     1       5.953  -4.869  10.176  1.00  0.00     0.124 S 
ATOM     73  O   UNL     1       5.663  -5.384   8.841  1.00  0.00    -0.237 OA
ATOM     74  O   UNL     1       7.021  -5.551  10.900  1.00  0.00    -0.237 OA
ATOM     75  O   UNL     1       4.787  -4.509  10.976  1.00  0.00    -0.744 OA
ENDBRANCH  71  72
ENDBRANCH  50  64
BRANCH  51  76
ATOM     76  C   UNL     1      11.845   8.031   6.700  1.00  0.00     0.058 A 
ATOM     77  C   UNL     1      13.171   8.379   6.997  1.00  0.00     0.135 A 
ATOM     78  C   UNL     1      11.054   8.980   6.032  1.00  0.00     0.135 A 
ATOM     79  F   UNL     1      13.964   7.509   7.640  1.00  0.00    -0.206 F 
ATOM     80  C   UNL     1      13.691   9.624   6.659  1.00  0.00     0.059 A 
ATOM     81  C   UNL     1      11.559  10.222   5.660  1.00  0.00     0.059 A 
ATOM     82  F   UNL     1       9.784   8.690   5.710  1.00  0.00    -0.206 F 
ATOM     83  C   UNL     1      12.877  10.538   5.987  1.00  0.00     0.060 A 
BRANCH  83  84
ATOM     84  S   UNL     1      13.580  12.130   5.504  1.00  0.00     0.124 S 
ATOM     85  O   UNL     1      13.674  12.812   6.790  1.00  0.00    -0.237 OA
ATOM     86  O   UNL     1      14.847  11.734   4.897  1.00  0.00    -0.237 OA
ATOM     87  O   UNL     1      12.590  12.666   4.575  1.00  0.00    -0.744 OA
ENDBRANCH  83  84
ENDBRANCH  51  76
BRANCH  63  88
ATOM     88  C   UNL     1      10.358   4.918  12.771  1.00  0.00     0.058 A 
ATOM     89  C   UNL     1       9.537   5.898  13.350  1.00  0.00     0.135 A 
ATOM     90  C   UNL     1      11.312   4.293  13.592  1.00  0.00     0.135 A 
ATOM     91  F   UNL     1       8.615   6.531  12.608  1.00  0.00    -0.206 F 
ATOM     92  C   UNL     1       9.670   6.259  14.687  1.00  0.00     0.059 A 
ATOM     93  C   UNL     1      11.442   4.617  14.938  1.00  0.00     0.059 A 
ATOM     94  F   UNL     1      12.116   3.341  13.091  1.00  0.00    -0.206 F 
ATOM     95  C   UNL     1      10.623   5.610  15.475  1.00  0.00     0.060 A 
BRANCH  95  96
ATOM     96  S   UNL     1      10.759   6.061  17.217  1.00  0.00     0.124 S 
ATOM     97  O   UNL     1      11.401   7.369  17.134  1.00  0.00    -0.237 OA
ATOM     98  O   UNL     1       9.364   6.066  17.648  1.00  0.00    -0.237 OA
ATOM     99  O   UNL     1      11.579   4.994  17.782  1.00  0.00    -0.744 OA
ENDBRANCH  95  96
ENDBRANCH  63  88
ENDBRANCH  37  38
ENDBRANCH  29  32
ENDBRANCH  27  28
ENDBRANCH  26  27
ENDBRANCH  25  26
ENDBRANCH   1  25
TORSDOF 19
