REMARK SMILES CCCCOCc1cc(C(=O)NCCCCNC(=O)c2ccc(-c3c4nc(c(-c5c(F)cc(S(=O)(=O)[O-])cc5F)c5ccc([nH]5)c(-c5c(F)cc(S(=O)(=O)[O-])cc5F)c5nc(c(-c6c(F)cc(S(=O)(=O)[O-])cc6F)c6ccc3[nH]6)C=C5)C=C4)cc2)[nH]n1
REMARK SMILES IDX 13 1 12 2 10 3 11 4 9 6 7 7 8 8 87 9 86 10 6 12 5 13 4 14
REMARK SMILES IDX 3 15 2 16 1 17 14 18 15 19 16 20 17 21 18 22 19 24 20 25
REMARK SMILES IDX 21 26 85 27 22 28 84 29 23 30 24 31 25 32 78 33 26 34 83 35
REMARK SMILES IDX 77 36 79 37 27 38 82 39 76 40 75 41 28 43 62 44 41 45 61 46
REMARK SMILES IDX 42 47 45 48 60 49 80 50 43 51 44 52 59 54 81 55 46 56 29 57
REMARK SMILES IDX 30 58 39 59 31 60 32 61 38 62 40 63 33 64 34 65 35 66 36 67
REMARK SMILES IDX 37 68 63 69 64 70 73 71 65 72 66 73 72 74 74 75 67 76 68 77
REMARK SMILES IDX 69 78 70 79 71 80 47 81 48 82 57 83 49 84 50 85 56 86 58 87
REMARK SMILES IDX 51 88 52 89 53 90 54 91 55 92
REMARK H PARENT 12 5 86 11 17 23 79 42 45 53
REMARK Flexibility Score: inf
ROOT
ATOM      1  C   UNL     1      -1.927   5.852  -0.123  1.00  0.00     0.116 C 
ENDROOT
BRANCH   1   2
ATOM      2  N   UNL     1      -1.178   5.612  -1.342  1.00  0.00    -0.351 N 
ATOM      3  C   UNL     1      -0.736   4.432  -1.878  1.00  0.00     0.269 C 
ATOM      4  O   UNL     1      -0.231   4.456  -3.002  1.00  0.00    -0.268 OA
ATOM      5  H   UNL     1      -0.954   6.418  -1.861  1.00  0.00     0.163 HD
BRANCH   3   6
ATOM      6  C   UNL     1      -0.922   3.201  -1.164  1.00  0.00     0.123 A 
ATOM      7  C   UNL     1      -1.363   1.499   0.203  1.00  0.00     0.089 A 
ATOM      8  C   UNL     1      -1.060   2.877   0.168  1.00  0.00     0.061 A 
ATOM      9  N   UNL     1      -1.303   0.958  -1.021  1.00  0.00    -0.178 NA
ATOM     10  N   UNL     1      -0.976   1.997  -1.814  1.00  0.00    -0.273 N 
ATOM     11  H   UNL     1      -0.791   1.899  -2.776  1.00  0.00     0.190 HD
BRANCH   7  12
ATOM     12  C   UNL     1      -1.732   0.692   1.407  1.00  0.00     0.218 C 
BRANCH  12  13
ATOM     13  O   UNL     1      -1.053   1.036   2.623  1.00  0.00    -0.375 OA
BRANCH  13  14
ATOM     14  C   UNL     1       0.371   1.079   2.594  1.00  0.00     0.160 C 
BRANCH  14  15
ATOM     15  C   UNL     1       1.069  -0.281   2.612  1.00  0.00     0.028 C 
BRANCH  15  16
ATOM     16  C   UNL     1       1.079  -1.079   1.306  1.00  0.00    -0.001 C 
ATOM     17  C   UNL     1       1.746  -0.374   0.135  1.00  0.00     0.004 C 
ENDBRANCH  15  16
ENDBRANCH  14  15
ENDBRANCH  13  14
ENDBRANCH  12  13
ENDBRANCH   7  12
ENDBRANCH   3   6
ENDBRANCH   1   2
BRANCH   1  18
ATOM     18  C   UNL     1      -1.026   6.430   0.967  1.00  0.00     0.023 C 
BRANCH  18  19
ATOM     19  C   UNL     1      -0.823   7.941   0.840  1.00  0.00     0.023 C 
BRANCH  19  20
ATOM     20  C   UNL     1      -2.106   8.761   0.927  1.00  0.00     0.116 C 
BRANCH  20  21
ATOM     21  N   UNL     1      -2.844   8.544   2.163  1.00  0.00    -0.352 N 
ATOM     22  C   UNL     1      -3.580   9.460   2.876  1.00  0.00     0.251 C 
ATOM     23  H   UNL     1      -2.812   7.632   2.532  1.00  0.00     0.163 HD
ATOM     24  O   UNL     1      -4.046   9.169   3.972  1.00  0.00    -0.269 OA
BRANCH  22  25
ATOM     25  C   UNL     1      -3.760  10.812   2.312  1.00  0.00     0.039 A 
ATOM     26  C   UNL     1      -3.430  11.920   3.093  1.00  0.00     0.014 A 
ATOM     27  C   UNL     1      -4.181  10.972   0.989  1.00  0.00     0.014 A 
ATOM     28  C   UNL     1      -3.459  13.192   2.521  1.00  0.00     0.010 A 
ATOM     29  C   UNL     1      -4.129  12.229   0.400  1.00  0.00     0.010 A 
ATOM     30  C   UNL     1      -3.769  13.352   1.159  1.00  0.00    -0.014 A 
BRANCH  30  31
ATOM     31  C   UNL     1      -3.718  14.688   0.512  1.00  0.00     0.031 A 
ATOM     32  C   UNL     1      -4.967  15.289  -0.072  1.00  0.00     0.074 A 
ATOM     33  C   UNL     1      -2.537  15.328   0.396  1.00  0.00     0.049 A 
ATOM     34  N   UNL     1      -5.114  16.414  -0.723  1.00  0.00    -0.248 NA
ATOM     35  C   UNL     1      -6.209  14.512   0.070  1.00  0.00     0.031 C 
ATOM     36  C   UNL     1      -1.249  14.821   0.876  1.00  0.00     0.029 A 
ATOM     37  N   UNL     1      -2.225  16.540  -0.167  1.00  0.00    -0.354 N 
ATOM     38  C   UNL     1      -6.458  16.474  -1.075  1.00  0.00     0.074 A 
ATOM     39  C   UNL     1      -7.069  15.245  -0.621  1.00  0.00     0.031 C 
ATOM     40  C   UNL     1      -0.293  15.726   0.611  1.00  0.00     0.029 A 
ATOM     41  C   UNL     1      -0.888  16.857  -0.094  1.00  0.00     0.049 A 
ATOM     42  H   UNL     1      -2.895  17.128  -0.585  1.00  0.00     0.167 HD
ATOM     43  C   UNL     1      -7.126  17.475  -1.696  1.00  0.00     0.037 A 
ATOM     44  C   UNL     1      -0.217  17.932  -0.550  1.00  0.00     0.037 A 
ATOM     45  C   UNL     1      -6.511  18.703  -2.128  1.00  0.00     0.049 A 
ATOM     46  C   UNL     1      -0.980  19.026  -1.249  1.00  0.00     0.074 A 
ATOM     47  C   UNL     1      -7.110  19.803  -2.716  1.00  0.00     0.029 A 
ATOM     48  N   UNL     1      -5.158  18.993  -2.024  1.00  0.00    -0.354 N 
ATOM     49  N   UNL     1      -2.264  19.099  -1.510  1.00  0.00    -0.248 NA
ATOM     50  C   UNL     1      -0.206  20.187  -1.709  1.00  0.00     0.031 C 
ATOM     51  C   UNL     1      -6.112  20.734  -3.019  1.00  0.00     0.029 A 
ATOM     52  C   UNL     1      -4.899  20.243  -2.562  1.00  0.00     0.049 A 
ATOM     53  H   UNL     1      -4.482  18.398  -1.627  1.00  0.00     0.167 HD
ATOM     54  C   UNL     1      -2.456  20.325  -2.138  1.00  0.00     0.074 A 
ATOM     55  C   UNL     1      -1.158  20.966  -2.204  1.00  0.00     0.031 C 
ATOM     56  C   UNL     1      -3.602  20.872  -2.614  1.00  0.00     0.037 A 
BRANCH  43  57
ATOM     57  C   UNL     1      -8.598  17.284  -1.944  1.00  0.00     0.058 A 
ATOM     58  C   UNL     1      -9.528  17.262  -0.892  1.00  0.00     0.135 A 
ATOM     59  C   UNL     1      -9.091  17.159  -3.254  1.00  0.00     0.135 A 
ATOM     60  F   UNL     1      -9.113  17.360   0.381  1.00  0.00    -0.206 F 
ATOM     61  C   UNL     1     -10.889  17.091  -1.126  1.00  0.00     0.059 A 
ATOM     62  C   UNL     1     -10.451  17.020  -3.514  1.00  0.00     0.059 A 
ATOM     63  F   UNL     1      -8.247  17.172  -4.298  1.00  0.00    -0.206 F 
ATOM     64  C   UNL     1     -11.341  16.973  -2.442  1.00  0.00     0.060 A 
BRANCH  64  65
ATOM     65  S   UNL     1     -13.111  16.762  -2.726  1.00  0.00     0.124 S 
ATOM     66  O   UNL     1     -13.322  15.400  -2.247  1.00  0.00    -0.237 OA
ATOM     67  O   UNL     1     -13.686  17.820  -1.902  1.00  0.00    -0.237 OA
ATOM     68  O   UNL     1     -13.249  16.948  -4.167  1.00  0.00    -0.744 OA
ENDBRANCH  64  65
ENDBRANCH  43  57
BRANCH  44  69
ATOM     69  C   UNL     1       1.254  18.036  -0.345  1.00  0.00     0.058 A 
ATOM     70  C   UNL     1       1.797  18.991   0.528  1.00  0.00     0.135 A 
ATOM     71  C   UNL     1       2.145  17.178  -1.009  1.00  0.00     0.135 A 
ATOM     72  F   UNL     1       0.988  19.838   1.182  1.00  0.00    -0.206 F 
ATOM     73  C   UNL     1       3.170  19.105   0.721  1.00  0.00     0.059 A 
ATOM     74  C   UNL     1       3.520  17.254  -0.810  1.00  0.00     0.059 A 
ATOM     75  F   UNL     1       1.677  16.235  -1.842  1.00  0.00    -0.206 F 
ATOM     76  C   UNL     1       4.024  18.229   0.049  1.00  0.00     0.060 A 
BRANCH  76  77
ATOM     77  S   UNL     1       5.801  18.357   0.342  1.00  0.00     0.124 S 
ATOM     78  O   UNL     1       6.124  19.601  -0.346  1.00  0.00    -0.237 OA
ATOM     79  O   UNL     1       5.868  18.397   1.800  1.00  0.00    -0.237 OA
ATOM     80  O   UNL     1       6.330  17.141  -0.269  1.00  0.00    -0.744 OA
ENDBRANCH  76  77
ENDBRANCH  44  69
BRANCH  56  81
ATOM     81  C   UNL     1      -3.518  22.249  -3.216  1.00  0.00     0.058 A 
ATOM     82  C   UNL     1      -2.901  22.480  -4.455  1.00  0.00     0.135 A 
ATOM     83  C   UNL     1      -4.114  23.343  -2.566  1.00  0.00     0.135 A 
ATOM     84  F   UNL     1      -2.310  21.472  -5.115  1.00  0.00    -0.206 F 
ATOM     85  C   UNL     1      -2.855  23.752  -5.017  1.00  0.00     0.059 A 
ATOM     86  C   UNL     1      -4.108  24.616  -3.125  1.00  0.00     0.059 A 
ATOM     87  F   UNL     1      -4.727  23.175  -1.384  1.00  0.00    -0.206 F 
ATOM     88  C   UNL     1      -3.465  24.814  -4.346  1.00  0.00     0.060 A 
BRANCH  88  89
ATOM     89  S   UNL     1      -3.429  26.451  -5.105  1.00  0.00     0.124 S 
ATOM     90  O   UNL     1      -2.030  26.826  -4.928  1.00  0.00    -0.237 OA
ATOM     91  O   UNL     1      -3.841  26.168  -6.476  1.00  0.00    -0.237 OA
ATOM     92  O   UNL     1      -4.389  27.215  -4.313  1.00  0.00    -0.744 OA
ENDBRANCH  88  89
ENDBRANCH  56  81
ENDBRANCH  30  31
ENDBRANCH  22  25
ENDBRANCH  20  21
ENDBRANCH  19  20
ENDBRANCH  18  19
ENDBRANCH   1  18
TORSDOF 19
