REMARK SMILES O=C(NCCCCNC(=O)c1nn(Cc2ccc(F)cc2)c2c1CN(C(=O)[C@H]1CC1(F)F)CC2)c1ccc(-c2c3nc(c(-c4c(F)cc(S(=O)(=O)[O-])cc4F)c4ccc([nH]4)c(-c4c(F)cc(S(=O)(=O)[O-])cc4F)c4nc(c(-c5c(F)cc(S(=O)(=O)[O-])cc5F)c5ccc2[nH]5)C=C4)C=C3)cc1
REMARK SMILES IDX 5 1 4 2 3 3 1 4 2 5 35 7 36 8 100 9 37 10 99 11 38 12 39 13
REMARK SMILES IDX 40 14 93 15 41 16 98 17 92 18 94 19 42 20 97 21 91 22 90 23
REMARK SMILES IDX 43 25 77 26 56 27 76 28 57 29 60 30 75 31 95 32 58 33 59 34
REMARK SMILES IDX 74 36 96 37 61 38 44 39 45 40 54 41 46 42 47 43 53 44 55 45
REMARK SMILES IDX 48 46 49 47 50 48 51 49 52 50 78 51 79 52 88 53 80 54 81 55
REMARK SMILES IDX 87 56 89 57 82 58 83 59 84 60 85 61 86 62 62 63 63 64 72 65
REMARK SMILES IDX 64 66 65 67 71 68 73 69 66 70 67 71 68 72 69 73 70 74 6 75
REMARK SMILES IDX 7 76 8 77 9 78 10 80 11 81 12 82 23 83 13 84 22 85 24 86
REMARK SMILES IDX 34 87 25 88 33 89 14 90 15 91 16 92 21 93 17 94 20 95 18 96
REMARK SMILES IDX 19 97 26 98 27 99 28 100 29 101 30 102 31 103 32 104
REMARK H PARENT 3 6 94 24 60 35 8 79
REMARK Flexibility Score: inf
ROOT
ATOM      1  C   UNL     1      20.004  -9.825   8.841  1.00  0.00     0.023 C 
ENDROOT
BRANCH   1   2
ATOM      2  C   UNL     1      20.903 -10.965   9.315  1.00  0.00     0.116 C 
BRANCH   2   3
ATOM      3  N   UNL     1      21.438 -11.809   8.266  1.00  0.00    -0.352 N 
ATOM      4  O   UNL     1      22.823 -12.865   6.918  1.00  0.00    -0.269 OA
ATOM      5  C   UNL     1      22.586 -11.814   7.521  1.00  0.00     0.251 C 
ATOM      6  H   UNL     1      20.835 -12.552   8.035  1.00  0.00     0.163 HD
BRANCH   5   7
ATOM      7  C   UNL     1      23.490 -10.650   7.311  1.00  0.00     0.039 A 
ATOM      8  C   UNL     1      23.573  -9.505   8.105  1.00  0.00     0.014 A 
ATOM      9  C   UNL     1      24.307 -10.730   6.164  1.00  0.00     0.014 A 
ATOM     10  C   UNL     1      24.380  -8.432   7.709  1.00  0.00     0.010 A 
ATOM     11  C   UNL     1      25.105  -9.666   5.764  1.00  0.00     0.010 A 
ATOM     12  C   UNL     1      25.112  -8.497   6.517  1.00  0.00    -0.014 A 
BRANCH  12  13
ATOM     13  C   UNL     1      26.031  -7.410   6.170  1.00  0.00     0.031 A 
ATOM     14  C   UNL     1      27.210  -7.311   7.084  1.00  0.00     0.074 A 
ATOM     15  C   UNL     1      25.945  -6.681   5.034  1.00  0.00     0.049 A 
ATOM     16  N   UNL     1      27.525  -6.339   7.877  1.00  0.00    -0.248 NA
ATOM     17  C   UNL     1      28.067  -8.500   7.239  1.00  0.00     0.031 C 
ATOM     18  C   UNL     1      25.016  -6.863   3.915  1.00  0.00     0.029 A 
ATOM     19  N   UNL     1      26.740  -5.661   4.589  1.00  0.00    -0.354 N 
ATOM     20  C   UNL     1      28.737  -6.699   8.465  1.00  0.00     0.074 A 
ATOM     21  C   UNL     1      28.927  -8.096   8.176  1.00  0.00     0.031 C 
ATOM     22  C   UNL     1      25.446  -6.151   2.846  1.00  0.00     0.029 A 
ATOM     23  C   UNL     1      26.600  -5.357   3.233  1.00  0.00     0.049 A 
ATOM     24  H   UNL     1      27.363  -5.179   5.179  1.00  0.00     0.167 HD
ATOM     25  C   UNL     1      29.603  -5.766   8.950  1.00  0.00     0.037 A 
ATOM     26  C   UNL     1      27.398  -4.545   2.483  1.00  0.00     0.037 A 
ATOM     27  C   UNL     1      28.953  -4.494   9.123  1.00  0.00     0.049 A 
ATOM     28  C   UNL     1      28.129  -3.665   3.430  1.00  0.00     0.074 A 
ATOM     29  C   UNL     1      27.905  -4.030   9.892  1.00  0.00     0.029 A 
ATOM     30  N   UNL     1      29.154  -3.548   8.149  1.00  0.00    -0.354 N 
ATOM     31  N   UNL     1      27.555  -2.757   4.170  1.00  0.00    -0.248 NA
ATOM     32  C   UNL     1      29.432  -4.118   3.889  1.00  0.00     0.031 C 
ATOM     33  C   UNL     1      27.225  -3.095   9.059  1.00  0.00     0.029 A 
ATOM     34  C   UNL     1      27.937  -2.987   7.863  1.00  0.00     0.049 A 
ATOM     35  H   UNL     1      30.014  -3.315   7.732  1.00  0.00     0.167 HD
ATOM     36  C   UNL     1      28.197  -2.850   5.396  1.00  0.00     0.074 A 
ATOM     37  C   UNL     1      29.389  -3.658   5.141  1.00  0.00     0.031 C 
ATOM     38  C   UNL     1      27.562  -2.505   6.553  1.00  0.00     0.037 A 
BRANCH  25  39
ATOM     39  C   UNL     1      31.110  -5.893   8.924  1.00  0.00     0.058 A 
ATOM     40  C   UNL     1      31.808  -6.734   8.030  1.00  0.00     0.135 A 
ATOM     41  C   UNL     1      31.900  -4.941   9.604  1.00  0.00     0.135 A 
ATOM     42  F   UNL     1      31.183  -7.619   7.245  1.00  0.00    -0.206 F 
ATOM     43  C   UNL     1      33.179  -6.641   7.823  1.00  0.00     0.059 A 
ATOM     44  C   UNL     1      33.270  -4.796   9.371  1.00  0.00     0.059 A 
ATOM     45  F   UNL     1      31.338  -4.076  10.463  1.00  0.00    -0.206 F 
ATOM     46  C   UNL     1      33.899  -5.652   8.475  1.00  0.00     0.060 A 
BRANCH  46  47
ATOM     47  S   UNL     1      35.642  -5.468   8.060  1.00  0.00     0.124 S 
ATOM     48  O   UNL     1      36.198  -6.711   8.583  1.00  0.00    -0.237 OA
ATOM     49  O   UNL     1      35.594  -5.353   6.607  1.00  0.00    -0.237 OA
ATOM     50  O   UNL     1      36.032  -4.255   8.773  1.00  0.00    -0.744 OA
ENDBRANCH  46  47
ENDBRANCH  25  39
BRANCH  26  51
ATOM     51  C   UNL     1      27.875  -4.733   1.077  1.00  0.00     0.058 A 
ATOM     52  C   UNL     1      27.926  -6.010   0.485  1.00  0.00     0.135 A 
ATOM     53  C   UNL     1      28.589  -3.718   0.402  1.00  0.00     0.135 A 
ATOM     54  F   UNL     1      27.317  -7.059   1.056  1.00  0.00    -0.206 F 
ATOM     55  C   UNL     1      28.682  -6.280  -0.656  1.00  0.00     0.059 A 
ATOM     56  C   UNL     1      29.359  -3.967  -0.745  1.00  0.00     0.059 A 
ATOM     57  F   UNL     1      28.611  -2.469   0.894  1.00  0.00    -0.206 F 
ATOM     58  C   UNL     1      29.425  -5.263  -1.246  1.00  0.00     0.060 A 
BRANCH  58  59
ATOM     59  S   UNL     1      30.532  -5.702  -2.609  1.00  0.00     0.124 S 
ATOM     60  O   UNL     1      31.454  -6.628  -1.959  1.00  0.00    -0.237 OA
ATOM     61  O   UNL     1      29.611  -6.303  -3.569  1.00  0.00    -0.237 OA
ATOM     62  O   UNL     1      31.107  -4.423  -3.013  1.00  0.00    -0.744 OA
ENDBRANCH  58  59
ENDBRANCH  26  51
BRANCH  38  63
ATOM     63  C   UNL     1      26.264  -1.742   6.466  1.00  0.00     0.058 A 
ATOM     64  C   UNL     1      26.192  -0.511   7.135  1.00  0.00     0.135 A 
ATOM     65  C   UNL     1      25.071  -2.244   5.914  1.00  0.00     0.135 A 
ATOM     66  F   UNL     1      27.285  -0.002   7.727  1.00  0.00    -0.206 F 
ATOM     67  C   UNL     1      24.997   0.186   7.268  1.00  0.00     0.059 A 
ATOM     68  C   UNL     1      23.864  -1.543   6.005  1.00  0.00     0.059 A 
ATOM     69  F   UNL     1      25.032  -3.454   5.336  1.00  0.00    -0.206 F 
ATOM     70  C   UNL     1      23.836  -0.335   6.700  1.00  0.00     0.060 A 
BRANCH  70  71
ATOM     71  S   UNL     1      22.301   0.587   6.920  1.00  0.00     0.124 S 
ATOM     72  O   UNL     1      22.090   0.483   8.361  1.00  0.00    -0.237 OA
ATOM     73  O   UNL     1      22.665   1.915   6.433  1.00  0.00    -0.237 OA
ATOM     74  O   UNL     1      21.337  -0.136   6.096  1.00  0.00    -0.744 OA
ENDBRANCH  70  71
ENDBRANCH  38  63
ENDBRANCH  12  13
ENDBRANCH   5   7
ENDBRANCH   2   3
ENDBRANCH   1   2
BRANCH   1  75
ATOM     75  C   UNL     1      18.786 -10.233   8.000  1.00  0.00     0.023 C 
BRANCH  75  76
ATOM     76  C   UNL     1      17.797 -11.213   8.642  1.00  0.00     0.116 C 
BRANCH  76  77
ATOM     77  N   UNL     1      17.082 -10.634   9.771  1.00  0.00    -0.351 N 
ATOM     78  C   UNL     1      15.723 -10.501   9.985  1.00  0.00     0.272 C 
ATOM     79  H   UNL     1      17.654 -10.285  10.492  1.00  0.00     0.163 HD
ATOM     80  O   UNL     1      15.352  -9.823  10.944  1.00  0.00    -0.267 OA
BRANCH  78  81
ATOM     81  C   UNL     1      14.748 -11.127   9.071  1.00  0.00     0.155 A 
ATOM     82  N   UNL     1      14.961 -12.319   8.473  1.00  0.00    -0.167 NA
ATOM     83  C   UNL     1      13.448 -10.638   8.741  1.00  0.00     0.026 A 
ATOM     84  N   UNL     1      13.893 -12.509   7.670  1.00  0.00    -0.264 N 
ATOM     85  C   UNL     1      12.980 -11.507   7.774  1.00  0.00     0.046 A 
ATOM     86  C   UNL     1      12.700  -9.423   9.201  1.00  0.00     0.159 C 
ATOM     87  C   UNL     1      11.709 -11.335   7.026  1.00  0.00     0.078 C 
ATOM     88  N   UNL     1      11.351  -9.430   8.574  1.00  0.00    -0.337 N 
ATOM     89  C   UNL     1      11.290  -9.856   7.162  1.00  0.00     0.126 C 
BRANCH  84  90
ATOM     90  C   UNL     1      13.768 -13.749   6.913  1.00  0.00     0.180 C 
BRANCH  90  91
ATOM     91  C   UNL     1      14.724 -13.815   5.747  1.00  0.00    -0.026 A 
ATOM     92  C   UNL     1      16.086 -14.086   5.969  1.00  0.00     0.008 A 
ATOM     93  C   UNL     1      14.274 -13.619   4.432  1.00  0.00     0.008 A 
ATOM     94  C   UNL     1      16.977 -14.170   4.899  1.00  0.00     0.039 A 
ATOM     95  C   UNL     1      15.167 -13.709   3.363  1.00  0.00     0.039 A 
ATOM     96  C   UNL     1      16.508 -13.987   3.606  1.00  0.00     0.123 A 
ATOM     97  F   UNL     1      17.357 -14.084   2.575  1.00  0.00    -0.207 F 
ENDBRANCH  90  91
ENDBRANCH  84  90
BRANCH  88  98
ATOM     98  C   UNL     1      10.246  -9.069   9.330  1.00  0.00     0.232 C 
ATOM     99  O   UNL     1      10.306  -8.706  10.503  1.00  0.00    -0.274 OA
BRANCH  98 100
ATOM    100  C   UNL     1       8.933  -9.094   8.649  1.00  0.00     0.154 C 
ATOM    101  C   UNL     1       8.230 -10.421   8.402  1.00  0.00     0.097 C 
ATOM    102  C   UNL     1       7.688  -9.441   9.373  1.00  0.00     0.260 C 
ATOM    103  F   UNL     1       7.638  -9.790  10.700  1.00  0.00    -0.206 F 
ATOM    104  F   UNL     1       6.497  -8.816   9.071  1.00  0.00    -0.206 F 
ENDBRANCH  98 100
ENDBRANCH  88  98
ENDBRANCH  78  81
ENDBRANCH  76  77
ENDBRANCH  75  76
ENDBRANCH   1  75
TORSDOF 18
