REMARK SMILES C[C@H](C(=O)Nc1ccc(C(F)(F)F)cc1)n1nc(C(=O)NCCCCNC(=O)c2ccc(-c3c4nc(c(-c5c(F)cc(S(=O)(=O)[O-])cc5F)c5ccc([nH]5)c(-c5c(F)cc(S(=O)(=O)[O-])cc5F)c5nc(c(-c6c(F)cc(S(=O)(=O)[O-])cc6F)c6ccc3[nH]6)C=C5)C=C4)cc2)c2ccccc2c1=O
REMARK SMILES IDX 23 1 22 2 21 3 19 4 20 5 18 7 16 8 17 9 101 10 100 11 102 12
REMARK SMILES IDX 95 13 99 14 96 15 98 16 97 17 2 18 1 19 3 20 4 21 5 22 6 24
REMARK SMILES IDX 7 25 15 26 8 27 14 28 9 29 10 30 11 31 12 32 13 33 24 34
REMARK SMILES IDX 25 35 26 36 27 37 28 39 29 40 30 41 94 42 31 43 93 44 32 45
REMARK SMILES IDX 33 46 34 47 87 48 35 49 92 50 86 51 88 52 36 53 91 54 85 55
REMARK SMILES IDX 84 56 37 58 71 59 50 60 70 61 51 62 54 63 69 64 89 65 52 66
REMARK SMILES IDX 53 67 68 69 90 70 55 71 38 72 39 73 48 74 40 75 41 76 47 77
REMARK SMILES IDX 49 78 42 79 43 80 44 81 45 82 46 83 72 84 73 85 82 86 74 87
REMARK SMILES IDX 75 88 81 89 83 90 76 91 77 92 78 93 79 94 80 95 56 96 57 97
REMARK SMILES IDX 66 98 58 99 59 100 65 101 67 102 60 103 61 104 62 105 63 106
REMARK SMILES IDX 64 107
REMARK H PARENT 21 6 5 23 26 38 88 57 54 68
REMARK Flexibility Score: inf
ROOT
ATOM      1  C   UNL     1      -1.468   3.224   2.450  1.00  0.00     0.023 C 
ENDROOT
BRANCH   1   2
ATOM      2  C   UNL     1      -2.639   2.261   2.229  1.00  0.00     0.116 C 
BRANCH   2   3
ATOM      3  N   UNL     1      -3.786   2.993   1.714  1.00  0.00    -0.351 N 
ATOM      4  C   UNL     1      -3.990   3.417   0.414  1.00  0.00     0.272 C 
ATOM      5  O   UNL     1      -4.880   4.204   0.127  1.00  0.00    -0.267 OA
ATOM      6  H   UNL     1      -4.495   3.211   2.362  1.00  0.00     0.163 HD
BRANCH   4   7
ATOM      7  C   UNL     1      -3.177   2.740  -0.687  1.00  0.00     0.156 A 
ATOM      8  N   UNL     1      -1.343   1.353  -1.104  1.00  0.00    -0.216 N 
ATOM      9  N   UNL     1      -1.878   2.567  -0.531  1.00  0.00    -0.163 NA
ATOM     10  C   UNL     1      -2.360   0.421  -1.227  1.00  0.00     0.275 A 
ATOM     11  C   UNL     1      -3.380   0.859  -2.163  1.00  0.00     0.051 A 
ATOM     12  O   UNL     1      -2.688  -0.361  -0.345  1.00  0.00    -0.267 OA
ATOM     13  C   UNL     1      -3.933   2.069  -1.775  1.00  0.00     0.020 A 
ATOM     14  C   UNL     1      -3.865   0.119  -3.232  1.00  0.00     0.014 A 
ATOM     15  C   UNL     1      -5.067   2.540  -2.426  1.00  0.00     0.011 A 
ATOM     16  C   UNL     1      -4.976   0.609  -3.913  1.00  0.00     0.001 A 
ATOM     17  C   UNL     1      -5.588   1.799  -3.496  1.00  0.00     0.001 A 
BRANCH   8  18
ATOM     18  C   UNL     1      -0.044   0.921  -0.507  1.00  0.00     0.197 C 
ATOM     19  C   UNL     1       0.973   2.064  -0.706  1.00  0.00     0.044 C 
BRANCH  18  20
ATOM     20  C   UNL     1       0.648  -0.402  -1.058  1.00  0.00     0.249 C 
ATOM     21  O   UNL     1       1.534  -0.370  -1.916  1.00  0.00    -0.272 OA
ATOM     22  N   UNL     1       0.423  -1.586  -0.365  1.00  0.00    -0.324 N 
ATOM     23  H   UNL     1       1.156  -1.923   0.200  1.00  0.00     0.170 HD
BRANCH  22  24
ATOM     24  C   UNL     1      -0.761  -2.347  -0.402  1.00  0.00     0.041 A 
ATOM     25  C   UNL     1      -1.251  -2.884   0.794  1.00  0.00     0.027 A 
ATOM     26  C   UNL     1      -1.505  -2.492  -1.577  1.00  0.00     0.027 A 
ATOM     27  C   UNL     1      -2.580  -3.324   0.864  1.00  0.00     0.015 A 
ATOM     28  C   UNL     1      -2.822  -2.972  -1.513  1.00  0.00     0.015 A 
ATOM     29  C   UNL     1      -3.403  -3.287  -0.272  1.00  0.00     0.056 A 
BRANCH  29  30
ATOM     30  C   UNL     1      -4.905  -3.416  -0.157  1.00  0.00     0.416 C 
ATOM     31  F   UNL     1      -5.401  -4.461  -0.877  1.00  0.00    -0.166 F 
ATOM     32  F   UNL     1      -5.349  -3.595   1.118  1.00  0.00    -0.166 F 
ATOM     33  F   UNL     1      -5.560  -2.312  -0.622  1.00  0.00    -0.166 F 
ENDBRANCH  29  30
ENDBRANCH  22  24
ENDBRANCH  18  20
ENDBRANCH   8  18
ENDBRANCH   4   7
ENDBRANCH   2   3
ENDBRANCH   1   2
BRANCH   1  34
ATOM     34  C   UNL     1      -1.553   3.942   3.795  1.00  0.00     0.023 C 
BRANCH  34  35
ATOM     35  C   UNL     1      -1.165   3.055   4.968  1.00  0.00     0.116 C 
BRANCH  35  36
ATOM     36  N   UNL     1       0.247   2.700   4.960  1.00  0.00    -0.352 N 
ATOM     37  C   UNL     1       1.101   2.588   6.039  1.00  0.00     0.251 C 
ATOM     38  H   UNL     1       0.641   2.518   4.076  1.00  0.00     0.163 HD
ATOM     39  O   UNL     1       2.285   2.388   5.883  1.00  0.00    -0.269 OA
BRANCH  37  40
ATOM     40  C   UNL     1       0.524   2.765   7.390  1.00  0.00     0.039 A 
ATOM     41  C   UNL     1       1.067   3.737   8.231  1.00  0.00     0.014 A 
ATOM     42  C   UNL     1      -0.609   2.041   7.768  1.00  0.00     0.014 A 
ATOM     43  C   UNL     1       0.425   4.032   9.434  1.00  0.00     0.010 A 
ATOM     44  C   UNL     1      -1.290   2.394   8.926  1.00  0.00     0.010 A 
ATOM     45  C   UNL     1      -0.779   3.390   9.772  1.00  0.00    -0.014 A 
BRANCH  45  46
ATOM     46  C   UNL     1      -1.516   3.744  11.011  1.00  0.00     0.031 A 
ATOM     47  C   UNL     1      -1.702   2.714  12.091  1.00  0.00     0.074 A 
ATOM     48  C   UNL     1      -2.068   4.967  11.135  1.00  0.00     0.049 A 
ATOM     49  N   UNL     1      -2.343   2.813  13.226  1.00  0.00    -0.248 NA
ATOM     50  C   UNL     1      -1.118   1.385  11.846  1.00  0.00     0.031 C 
ATOM     51  C   UNL     1      -2.008   6.031  10.131  1.00  0.00     0.029 A 
ATOM     52  N   UNL     1      -2.791   5.522  12.161  1.00  0.00    -0.354 N 
ATOM     53  C   UNL     1      -2.257   1.560  13.819  1.00  0.00     0.074 A 
ATOM     54  C   UNL     1      -1.555   0.700  12.892  1.00  0.00     0.031 C 
ATOM     55  C   UNL     1      -2.630   7.122  10.607  1.00  0.00     0.029 A 
ATOM     56  C   UNL     1      -3.161   6.827  11.934  1.00  0.00     0.049 A 
ATOM     57  H   UNL     1      -3.024   5.031  12.982  1.00  0.00     0.167 HD
ATOM     58  C   UNL     1      -2.697   1.167  15.038  1.00  0.00     0.037 A 
ATOM     59  C   UNL     1      -3.842   7.688  12.714  1.00  0.00     0.037 A 
ATOM     60  C   UNL     1      -3.363   2.037  15.970  1.00  0.00     0.049 A 
ATOM     61  C   UNL     1      -4.308   7.235  14.071  1.00  0.00     0.074 A 
ATOM     62  C   UNL     1      -3.783   1.762  17.259  1.00  0.00     0.029 A 
ATOM     63  N   UNL     1      -3.706   3.357  15.711  1.00  0.00    -0.354 N 
ATOM     64  N   UNL     1      -4.152   6.067  14.649  1.00  0.00    -0.248 NA
ATOM     65  C   UNL     1      -5.036   8.217  14.884  1.00  0.00     0.031 C 
ATOM     66  C   UNL     1      -4.414   2.903  17.766  1.00  0.00     0.029 A 
ATOM     67  C   UNL     1      -4.351   3.903  16.808  1.00  0.00     0.049 A 
ATOM     68  H   UNL     1      -3.520   3.834  14.870  1.00  0.00     0.167 HD
ATOM     69  C   UNL     1      -4.736   6.184  15.905  1.00  0.00     0.074 A 
ATOM     70  C   UNL     1      -5.241   7.539  16.005  1.00  0.00     0.031 C 
ATOM     71  C   UNL     1      -4.842   5.256  16.889  1.00  0.00     0.037 A 
BRANCH  58  72
ATOM     72  C   UNL     1      -2.465  -0.269  15.424  1.00  0.00     0.058 A 
ATOM     73  C   UNL     1      -1.177  -0.764  15.685  1.00  0.00     0.135 A 
ATOM     74  C   UNL     1      -3.542  -1.164  15.523  1.00  0.00     0.135 A 
ATOM     75  F   UNL     1      -0.109   0.045  15.588  1.00  0.00    -0.206 F 
ATOM     76  C   UNL     1      -0.959  -2.104  15.984  1.00  0.00     0.059 A 
ATOM     77  C   UNL     1      -3.350  -2.503  15.851  1.00  0.00     0.059 A 
ATOM     78  F   UNL     1      -4.795  -0.745  15.285  1.00  0.00    -0.206 F 
ATOM     79  C   UNL     1      -2.052  -2.969  16.056  1.00  0.00     0.060 A 
BRANCH  79  80
ATOM     80  S   UNL     1      -1.752  -4.712  16.416  1.00  0.00     0.124 S 
ATOM     81  O   UNL     1      -1.237  -5.187  15.136  1.00  0.00    -0.237 OA
ATOM     82  O   UNL     1      -0.781  -4.646  17.504  1.00  0.00    -0.237 OA
ATOM     83  O   UNL     1      -3.072  -5.213  16.787  1.00  0.00    -0.744 OA
ENDBRANCH  79  80
ENDBRANCH  58  72
BRANCH  59  84
ATOM     84  C   UNL     1      -4.077   9.082  12.254  1.00  0.00     0.058 A 
ATOM     85  C   UNL     1      -3.382  10.152  12.838  1.00  0.00     0.135 A 
ATOM     86  C   UNL     1      -4.977   9.375  11.219  1.00  0.00     0.135 A 
ATOM     87  F   UNL     1      -2.514   9.923  13.835  1.00  0.00    -0.206 F 
ATOM     88  C   UNL     1      -3.580  11.465  12.422  1.00  0.00     0.059 A 
ATOM     89  C   UNL     1      -5.177  10.677  10.771  1.00  0.00     0.059 A 
ATOM     90  F   UNL     1      -5.654   8.384  10.617  1.00  0.00    -0.206 F 
ATOM     91  C   UNL     1      -4.479  11.717  11.385  1.00  0.00     0.060 A 
BRANCH  91  92
ATOM     92  S   UNL     1      -4.689  13.419  10.817  1.00  0.00     0.124 S 
ATOM     93  O   UNL     1      -5.469  13.997  11.905  1.00  0.00    -0.237 OA
ATOM     94  O   UNL     1      -3.308  13.878  10.707  1.00  0.00    -0.237 OA
ATOM     95  O   UNL     1      -5.392  13.264   9.547  1.00  0.00    -0.744 OA
ENDBRANCH  91  92
ENDBRANCH  59  84
BRANCH  71  96
ATOM     96  C   UNL     1      -5.501   5.686  18.170  1.00  0.00     0.058 A 
ATOM     97  C   UNL     1      -6.887   5.883  18.256  1.00  0.00     0.135 A 
ATOM     98  C   UNL     1      -4.737   5.863  19.335  1.00  0.00     0.135 A 
ATOM     99  F   UNL     1      -7.660   5.732  17.169  1.00  0.00    -0.206 F 
ATOM    100  C   UNL     1      -7.492   6.268  19.448  1.00  0.00     0.059 A 
ATOM    101  C   UNL     1      -5.324   6.222  20.544  1.00  0.00     0.059 A 
ATOM    102  F   UNL     1      -3.408   5.676  19.308  1.00  0.00    -0.206 F 
ATOM    103  C   UNL     1      -6.702   6.436  20.587  1.00  0.00     0.060 A 
BRANCH 103 104
ATOM    104  S   UNL     1      -7.500   6.912  22.134  1.00  0.00     0.124 S 
ATOM    105  O   UNL     1      -7.755   8.331  21.909  1.00  0.00    -0.237 OA
ATOM    106  O   UNL     1      -8.679   6.051  22.157  1.00  0.00    -0.237 OA
ATOM    107  O   UNL     1      -6.490   6.607  23.144  1.00  0.00    -0.744 OA
ENDBRANCH 103 104
ENDBRANCH  71  96
ENDBRANCH  45  46
ENDBRANCH  37  40
ENDBRANCH  35  36
ENDBRANCH  34  35
ENDBRANCH   1  34
TORSDOF 18
