REMARK SMILES CC1(C)CSC[C@H]([NH2+][C@H](C(=O)NCCCCNC(=O)c2ccc(-c3c4nc(c(-c5c(F)cc(S(=O)(=O)[O-])cc5F)c5ccc([nH]5)c(-c5c(F)cc(S(=O)(=O)[O-])cc5F)c5nc(c(-c6c(F)cc(S(=O)(=O)[O-])cc6F)c6ccc3[nH]6)C=C5)C=C4)cc2)c2ccccc2)C1
REMARK SMILES IDX 15 1 14 2 13 3 12 4 10 5 11 6 9 8 8 9 7 12 1 13 2 14 3 15
REMARK SMILES IDX 4 16 92 17 5 18 6 19 86 20 87 21 91 22 88 23 90 24 89 25
REMARK SMILES IDX 16 26 17 27 18 28 19 30 20 31 21 32 85 33 22 34 84 35 23 36
REMARK SMILES IDX 24 37 25 38 78 39 26 40 83 41 77 42 79 43 27 44 82 45 76 46
REMARK SMILES IDX 75 47 28 49 62 50 41 51 61 52 42 53 45 54 60 55 80 56 43 57
REMARK SMILES IDX 44 58 59 60 81 61 46 62 29 63 30 64 39 65 31 66 32 67 38 68
REMARK SMILES IDX 40 69 33 70 34 71 35 72 36 73 37 74 63 75 64 76 73 77 65 78
REMARK SMILES IDX 66 79 72 80 74 81 67 82 68 83 69 84 70 85 71 86 47 87 48 88
REMARK SMILES IDX 57 89 49 90 50 91 56 92 58 93 51 94 52 95 53 96 54 97 55 98
REMARK H PARENT 12 7 8 10 8 11 17 29 79 48 45 59
REMARK Flexibility Score: inf
ROOT
ATOM      1  C   UNL     1       0.103   1.870   4.596  1.00  0.00     0.023 C 
ENDROOT
BRANCH   1   2
ATOM      2  C   UNL     1       0.699   0.732   3.749  1.00  0.00     0.023 C 
BRANCH   2   3
ATOM      3  C   UNL     1       0.818   1.004   2.245  1.00  0.00     0.116 C 
BRANCH   3   4
ATOM      4  N   UNL     1       1.581   2.206   1.993  1.00  0.00    -0.351 N 
ATOM      5  C   UNL     1       2.226   2.668   0.887  1.00  0.00     0.283 C 
ATOM      6  O   UNL     1       2.904   3.678   1.101  1.00  0.00    -0.268 OA
ATOM      7  H   UNL     1       1.649   2.805   2.771  1.00  0.00     0.163 HD
BRANCH   5   8
ATOM      8  C   UNL     1       2.086   1.966  -0.507  1.00  0.00     0.304 C 
BRANCH   8   9
ATOM      9  N   UNL     1       0.678   1.977  -1.000  1.00  0.00    -0.329 N 
ATOM     10  H   UNL     1       0.695   1.575  -1.938  1.00  0.00     0.347 HD
ATOM     11  H   UNL     1       0.180   1.471  -0.268  1.00  0.00     0.347 HD
BRANCH   9  12
ATOM     12  C   UNL     1      -0.090   3.251  -1.100  1.00  0.00     0.193 C 
ATOM     13  C   UNL     1      -0.653   6.583  -1.837  1.00  0.00     0.012 C 
ATOM     14  C   UNL     1       0.113   5.902  -0.688  1.00  0.00    -0.021 C 
ATOM     15  C   UNL     1       1.277   6.841  -0.284  1.00  0.00     0.012 C 
ATOM     16  C   UNL     1      -0.772   5.727   0.557  1.00  0.00     0.076 C 
ATOM     17  C   UNL     1       0.729   4.566  -1.175  1.00  0.00     0.073 C 
ATOM     18  S   UNL     1      -2.195   4.670   0.214  1.00  0.00    -0.155 SA
ATOM     19  C   UNL     1      -1.259   3.168  -0.095  1.00  0.00     0.134 C 
ENDBRANCH   9  12
ENDBRANCH   8   9
BRANCH   8  20
ATOM     20  C   UNL     1       3.062   2.376  -1.630  1.00  0.00     0.019 A 
ATOM     21  C   UNL     1       4.225   3.133  -1.420  1.00  0.00     0.010 A 
ATOM     22  C   UNL     1       2.806   1.953  -2.953  1.00  0.00     0.010 A 
ATOM     23  C   UNL     1       5.042   3.527  -2.488  1.00  0.00     0.001 A 
ATOM     24  C   UNL     1       3.626   2.336  -4.019  1.00  0.00     0.001 A 
ATOM     25  C   UNL     1       4.737   3.138  -3.787  1.00  0.00     0.000 A 
ENDBRANCH   8  20
ENDBRANCH   5   8
ENDBRANCH   3   4
ENDBRANCH   2   3
ENDBRANCH   1   2
BRANCH   1  26
ATOM     26  C   UNL     1      -1.283   2.352   4.177  1.00  0.00     0.116 C 
BRANCH  26  27
ATOM     27  N   UNL     1      -2.287   1.315   4.341  1.00  0.00    -0.352 N 
ATOM     28  C   UNL     1      -3.262   1.181   5.301  1.00  0.00     0.251 C 
ATOM     29  H   UNL     1      -2.266   0.602   3.663  1.00  0.00     0.163 HD
ATOM     30  O   UNL     1      -3.844   0.106   5.417  1.00  0.00    -0.269 OA
BRANCH  28  31
ATOM     31  C   UNL     1      -3.603   2.308   6.199  1.00  0.00     0.039 A 
ATOM     32  C   UNL     1      -3.791   2.053   7.561  1.00  0.00     0.014 A 
ATOM     33  C   UNL     1      -3.789   3.601   5.702  1.00  0.00     0.014 A 
ATOM     34  C   UNL     1      -4.110   3.101   8.430  1.00  0.00     0.010 A 
ATOM     35  C   UNL     1      -4.043   4.656   6.579  1.00  0.00     0.010 A 
ATOM     36  C   UNL     1      -4.212   4.418   7.952  1.00  0.00    -0.014 A 
BRANCH  36  37
ATOM     37  C   UNL     1      -4.498   5.553   8.872  1.00  0.00     0.031 A 
ATOM     38  C   UNL     1      -5.774   6.341   8.735  1.00  0.00     0.074 A 
ATOM     39  C   UNL     1      -3.585   5.909   9.799  1.00  0.00     0.049 A 
ATOM     40  N   UNL     1      -6.167   7.399   9.398  1.00  0.00    -0.248 NA
ATOM     41  C   UNL     1      -6.721   5.896   7.701  1.00  0.00     0.031 C 
ATOM     42  C   UNL     1      -2.293   5.253  10.010  1.00  0.00     0.029 A 
ATOM     43  N   UNL     1      -3.598   6.919  10.730  1.00  0.00    -0.354 N 
ATOM     44  C   UNL     1      -7.398   7.753   8.855  1.00  0.00     0.074 A 
ATOM     45  C   UNL     1      -7.663   6.826   7.776  1.00  0.00     0.031 C 
ATOM     46  C   UNL     1      -1.648   5.864  11.016  1.00  0.00     0.029 A 
ATOM     47  C   UNL     1      -2.459   6.978  11.499  1.00  0.00     0.049 A 
ATOM     48  H   UNL     1      -4.352   7.543  10.837  1.00  0.00     0.167 HD
ATOM     49  C   UNL     1      -8.241   8.744   9.234  1.00  0.00     0.037 A 
ATOM     50  C   UNL     1      -2.102   7.835  12.475  1.00  0.00     0.037 A 
ATOM     51  C   UNL     1      -7.984   9.652  10.323  1.00  0.00     0.049 A 
ATOM     52  C   UNL     1      -3.052   8.932  12.875  1.00  0.00     0.074 A 
ATOM     53  C   UNL     1      -8.798  10.658  10.815  1.00  0.00     0.029 A 
ATOM     54  N   UNL     1      -6.828   9.665  11.089  1.00  0.00    -0.354 N 
ATOM     55  N   UNL     1      -4.236   9.216  12.386  1.00  0.00    -0.248 NA
ATOM     56  C   UNL     1      -2.622   9.822  13.963  1.00  0.00     0.031 C 
ATOM     57  C   UNL     1      -8.117  11.306  11.851  1.00  0.00     0.029 A 
ATOM     58  C   UNL     1      -6.899  10.672  12.038  1.00  0.00     0.049 A 
ATOM     59  H   UNL     1      -6.068   9.050  10.975  1.00  0.00     0.167 HD
ATOM     60  C   UNL     1      -4.704  10.296  13.128  1.00  0.00     0.074 A 
ATOM     61  C   UNL     1      -3.680  10.608  14.103  1.00  0.00     0.031 C 
ATOM     62  C   UNL     1      -5.878  10.966  13.012  1.00  0.00     0.037 A 
BRANCH  49  63
ATOM     63  C   UNL     1      -9.526   8.899   8.467  1.00  0.00     0.058 A 
ATOM     64  C   UNL     1     -10.564   7.958   8.571  1.00  0.00     0.135 A 
ATOM     65  C   UNL     1      -9.741  10.018   7.646  1.00  0.00     0.135 A 
ATOM     66  F   UNL     1     -10.409   6.862   9.331  1.00  0.00    -0.206 F 
ATOM     67  C   UNL     1     -11.754   8.104   7.866  1.00  0.00     0.059 A 
ATOM     68  C   UNL     1     -10.935  10.200   6.954  1.00  0.00     0.059 A 
ATOM     69  F   UNL     1      -8.785  10.951   7.511  1.00  0.00    -0.206 F 
ATOM     70  C   UNL     1     -11.930   9.229   7.058  1.00  0.00     0.060 A 
BRANCH  70  71
ATOM     71  S   UNL     1     -13.482   9.405   6.153  1.00  0.00     0.124 S 
ATOM     72  O   UNL     1     -13.324   8.399   5.107  1.00  0.00    -0.237 OA
ATOM     73  O   UNL     1     -14.477   9.103   7.176  1.00  0.00    -0.237 OA
ATOM     74  O   UNL     1     -13.456  10.792   5.699  1.00  0.00    -0.744 OA
ENDBRANCH  70  71
ENDBRANCH  49  63
BRANCH  50  75
ATOM     75  C   UNL     1      -0.792   7.678  13.162  1.00  0.00     0.058 A 
ATOM     76  C   UNL     1      -0.723   7.245  14.494  1.00  0.00     0.135 A 
ATOM     77  C   UNL     1       0.416   7.949  12.500  1.00  0.00     0.135 A 
ATOM     78  F   UNL     1      -1.850   6.980  15.172  1.00  0.00    -0.206 F 
ATOM     79  C   UNL     1       0.494   7.105  15.154  1.00  0.00     0.059 A 
ATOM     80  C   UNL     1       1.647   7.791  13.130  1.00  0.00     0.059 A 
ATOM     81  F   UNL     1       0.406   8.350  11.219  1.00  0.00    -0.206 F 
ATOM     82  C   UNL     1       1.675   7.379  14.462  1.00  0.00     0.060 A 
BRANCH  82  83
ATOM     83  S   UNL     1       3.251   7.149  15.313  1.00  0.00     0.124 S 
ATOM     84  O   UNL     1       3.268   8.296  16.213  1.00  0.00    -0.237 OA
ATOM     85  O   UNL     1       3.072   5.845  15.943  1.00  0.00    -0.237 OA
ATOM     86  O   UNL     1       4.226   7.183  14.226  1.00  0.00    -0.744 OA
ENDBRANCH  82  83
ENDBRANCH  50  75
BRANCH  62  87
ATOM     87  C   UNL     1      -6.142  12.077  13.991  1.00  0.00     0.058 A 
ATOM     88  C   UNL     1      -5.472  13.308  13.914  1.00  0.00     0.135 A 
ATOM     89  C   UNL     1      -7.118  11.924  14.990  1.00  0.00     0.135 A 
ATOM     90  F   UNL     1      -4.525  13.504  12.982  1.00  0.00    -0.206 F 
ATOM     91  C   UNL     1      -5.743  14.340  14.806  1.00  0.00     0.059 A 
ATOM     92  C   UNL     1      -7.425  12.953  15.876  1.00  0.00     0.059 A 
ATOM     93  F   UNL     1      -7.796  10.771  15.102  1.00  0.00    -0.206 F 
ATOM     94  C   UNL     1      -6.723  14.153  15.783  1.00  0.00     0.060 A 
BRANCH  94  95
ATOM     95  S   UNL     1      -7.090  15.512  16.914  1.00  0.00     0.124 S 
ATOM     96  O   UNL     1      -5.929  15.482  17.797  1.00  0.00    -0.237 OA
ATOM     97  O   UNL     1      -7.170  16.657  16.012  1.00  0.00    -0.237 OA
ATOM     98  O   UNL     1      -8.354  15.115  17.525  1.00  0.00    -0.744 OA
ENDBRANCH  94  95
ENDBRANCH  62  87
ENDBRANCH  36  37
ENDBRANCH  28  31
ENDBRANCH  26  27
ENDBRANCH   1  26
TORSDOF 17
