REMARK SMILES CC1(C)O[C@](C)([C@H](O)C2CCCCC2)CC[C@H]1C(=O)NCCCCNC(=O)c1ccc(-c2c3nc(c(-c4c(F)cc(S(=O)(=O)[O-])cc4F)c4ccc([nH]4)c(-c4c(F)cc(S(=O)(=O)[O-])cc4F)c4nc(c(-c5c(F)cc(S(=O)(=O)[O-])cc5F)c5ccc2[nH]5)C=C4)C=C3)cc1
REMARK SMILES IDX 23 1 22 2 21 3 20 4 18 5 19 6 17 8 1 9 2 10 3 11 4 12 5 13
REMARK SMILES IDX 16 14 6 15 15 16 7 17 9 18 10 19 14 20 11 21 13 22 12 23
REMARK SMILES IDX 8 24 24 26 25 27 26 28 27 30 28 31 29 32 93 33 30 34 92 35
REMARK SMILES IDX 31 36 32 37 33 38 86 39 34 40 91 41 85 42 87 43 35 44 90 45
REMARK SMILES IDX 84 46 83 47 36 49 70 50 49 51 69 52 50 53 53 54 68 55 88 56
REMARK SMILES IDX 51 57 52 58 67 60 89 61 54 62 37 63 38 64 47 65 39 66 40 67
REMARK SMILES IDX 46 68 48 69 41 70 42 71 43 72 44 73 45 74 71 75 72 76 81 77
REMARK SMILES IDX 73 78 74 79 80 80 82 81 75 82 76 83 77 84 78 85 79 86 55 87
REMARK SMILES IDX 56 88 65 89 57 90 58 91 64 92 66 93 59 94 60 95 61 96 62 97
REMARK SMILES IDX 63 98
REMARK H PARENT 20 7 8 25 25 29 87 48 53 59
REMARK Flexibility Score: inf
ROOT
ATOM      1  C   UNL     1      -7.290  -3.662   4.902  1.00  0.00     0.023 C 
ENDROOT
BRANCH   1   2
ATOM      2  C   UNL     1      -6.513  -2.923   3.828  1.00  0.00     0.023 C 
BRANCH   2   3
ATOM      3  C   UNL     1      -5.945  -3.793   2.704  1.00  0.00     0.116 C 
BRANCH   3   4
ATOM      4  N   UNL     1      -6.919  -4.010   1.655  1.00  0.00    -0.356 N 
ATOM      5  C   UNL     1      -7.029  -3.522   0.393  1.00  0.00     0.226 C 
ATOM      6  O   UNL     1      -8.053  -3.837  -0.224  1.00  0.00    -0.275 OA
ATOM      7  H   UNL     1      -7.641  -4.631   1.906  1.00  0.00     0.163 HD
BRANCH   5   8
ATOM      8  C   UNL     1      -5.971  -2.656  -0.304  1.00  0.00     0.110 C 
ATOM      9  C   UNL     1      -6.099  -0.743   1.546  1.00  0.00     0.043 C 
ATOM     10  C   UNL     1      -5.917  -1.150   0.090  1.00  0.00     0.075 C 
ATOM     11  C   UNL     1      -7.071  -0.435  -0.658  1.00  0.00     0.043 C 
ATOM     12  O   UNL     1      -4.725  -0.480  -0.341  1.00  0.00    -0.366 OA
ATOM     13  C   UNL     1      -3.456  -1.140  -0.294  1.00  0.00     0.092 C 
ATOM     14  C   UNL     1      -4.636  -3.380  -0.519  1.00  0.00     0.019 C 
ATOM     15  C   UNL     1      -2.951  -1.506   1.117  1.00  0.00     0.045 C 
ATOM     16  C   UNL     1      -3.578  -2.443  -1.111  1.00  0.00     0.039 C 
BRANCH  13  17
ATOM     17  C   UNL     1      -2.471  -0.133  -1.000  1.00  0.00     0.149 C 
BRANCH  17  18
ATOM     18  C   UNL     1      -2.448   1.349  -0.463  1.00  0.00     0.021 C 
ATOM     19  C   UNL     1      -2.240   1.609   1.038  1.00  0.00     0.006 C 
ATOM     20  C   UNL     1      -1.435   2.235  -1.220  1.00  0.00     0.006 C 
ATOM     21  C   UNL     1      -0.830   1.296   1.518  1.00  0.00     0.000 C 
ATOM     22  C   UNL     1       0.016   2.069  -0.759  1.00  0.00     0.000 C 
ATOM     23  C   UNL     1       0.191   2.134   0.757  1.00  0.00     0.000 C 
ENDBRANCH  17  18
BRANCH  17  24
ATOM     24  O   UNL     1      -1.173  -0.697  -1.167  1.00  0.00    -0.390 OA
ATOM     25  H   UNL     1      -0.763  -0.828  -0.298  1.00  0.00     0.211 HD
ENDBRANCH  17  24
ENDBRANCH  13  17
ENDBRANCH   5   8
ENDBRANCH   3   4
ENDBRANCH   2   3
ENDBRANCH   1   2
BRANCH   1  26
ATOM     26  C   UNL     1      -6.476  -4.673   5.684  1.00  0.00     0.116 C 
BRANCH  26  27
ATOM     27  N   UNL     1      -5.277  -4.115   6.299  1.00  0.00    -0.352 N 
ATOM     28  C   UNL     1      -4.782  -4.361   7.561  1.00  0.00     0.251 C 
ATOM     29  H   UNL     1      -4.758  -3.488   5.746  1.00  0.00     0.163 HD
ATOM     30  O   UNL     1      -3.802  -3.762   7.982  1.00  0.00    -0.269 OA
BRANCH  28  31
ATOM     31  C   UNL     1      -5.503  -5.335   8.405  1.00  0.00     0.039 A 
ATOM     32  C   UNL     1      -5.965  -4.934   9.658  1.00  0.00     0.014 A 
ATOM     33  C   UNL     1      -5.842  -6.583   7.878  1.00  0.00     0.014 A 
ATOM     34  C   UNL     1      -6.852  -5.760  10.350  1.00  0.00     0.010 A 
ATOM     35  C   UNL     1      -6.804  -7.349   8.518  1.00  0.00     0.010 A 
ATOM     36  C   UNL     1      -7.317  -6.948   9.761  1.00  0.00    -0.014 A 
BRANCH  36  37
ATOM     37  C   UNL     1      -8.326  -7.806  10.428  1.00  0.00     0.031 A 
ATOM     38  C   UNL     1      -7.972  -9.226  10.775  1.00  0.00     0.074 A 
ATOM     39  C   UNL     1      -9.575  -7.344  10.636  1.00  0.00     0.049 A 
ATOM     40  N   UNL     1      -8.734 -10.176  11.249  1.00  0.00    -0.248 NA
ATOM     41  C   UNL     1      -6.585  -9.647  10.510  1.00  0.00     0.031 C 
ATOM     42  C   UNL     1     -10.060  -6.008  10.277  1.00  0.00     0.029 A 
ATOM     43  N   UNL     1     -10.672  -7.953  11.192  1.00  0.00    -0.354 N 
ATOM     44  C   UNL     1      -7.931 -11.309  11.305  1.00  0.00     0.074 A 
ATOM     45  C   UNL     1      -6.642 -10.945  10.762  1.00  0.00     0.031 C 
ATOM     46  C   UNL     1     -11.346  -5.891  10.650  1.00  0.00     0.029 A 
ATOM     47  C   UNL     1     -11.787  -7.149  11.242  1.00  0.00     0.049 A 
ATOM     48  H   UNL     1     -10.662  -8.880  11.523  1.00  0.00     0.167 HD
ATOM     49  C   UNL     1      -8.230 -12.535  11.794  1.00  0.00     0.037 A 
ATOM     50  C   UNL     1     -13.023  -7.402  11.715  1.00  0.00     0.037 A 
ATOM     51  C   UNL     1      -9.493 -12.871  12.390  1.00  0.00     0.049 A 
ATOM     52  C   UNL     1     -13.315  -8.754  12.307  1.00  0.00     0.074 A 
ATOM     53  C   UNL     1      -9.874 -14.059  12.989  1.00  0.00     0.029 A 
ATOM     54  N   UNL     1     -10.578 -12.011  12.477  1.00  0.00    -0.354 N 
ATOM     55  N   UNL     1     -12.525  -9.796  12.408  1.00  0.00    -0.248 NA
ATOM     56  C   UNL     1     -14.662  -8.963  12.855  1.00  0.00     0.031 C 
ATOM     57  C   UNL     1     -11.199 -13.923  13.418  1.00  0.00     0.029 A 
ATOM     58  C   UNL     1     -11.631 -12.642  13.115  1.00  0.00     0.049 A 
ATOM     59  H   UNL     1     -10.596 -11.088  12.135  1.00  0.00     0.167 HD
ATOM     60  C   UNL     1     -13.270 -10.776  13.053  1.00  0.00     0.074 A 
ATOM     61  C   UNL     1     -14.570 -10.199  13.327  1.00  0.00     0.031 C 
ATOM     62  C   UNL     1     -12.911 -12.040  13.389  1.00  0.00     0.037 A 
BRANCH  49  63
ATOM     63  C   UNL     1      -7.161 -13.587  11.720  1.00  0.00     0.058 A 
ATOM     64  C   UNL     1      -6.013 -13.526  12.527  1.00  0.00     0.135 A 
ATOM     65  C   UNL     1      -7.284 -14.671  10.836  1.00  0.00     0.135 A 
ATOM     66  F   UNL     1      -5.837 -12.499  13.374  1.00  0.00    -0.206 F 
ATOM     67  C   UNL     1      -5.009 -14.483  12.436  1.00  0.00     0.059 A 
ATOM     68  C   UNL     1      -6.303 -15.655  10.748  1.00  0.00     0.059 A 
ATOM     69  F   UNL     1      -8.359 -14.775  10.039  1.00  0.00    -0.206 F 
ATOM     70  C   UNL     1      -5.161 -15.541  11.540  1.00  0.00     0.060 A 
BRANCH  70  71
ATOM     71  S   UNL     1      -3.846 -16.773  11.427  1.00  0.00     0.124 S 
ATOM     72  O   UNL     1      -2.842 -16.053  10.649  1.00  0.00    -0.237 OA
ATOM     73  O   UNL     1      -3.512 -17.006  12.829  1.00  0.00    -0.237 OA
ATOM     74  O   UNL     1      -4.488 -17.892  10.745  1.00  0.00    -0.744 OA
ENDBRANCH  70  71
ENDBRANCH  49  63
BRANCH  50  75
ATOM     75  C   UNL     1     -14.063  -6.340  11.688  1.00  0.00     0.058 A 
ATOM     76  C   UNL     1     -14.458  -5.695  12.870  1.00  0.00     0.135 A 
ATOM     77  C   UNL     1     -14.671  -5.939  10.489  1.00  0.00     0.135 A 
ATOM     78  F   UNL     1     -13.908  -6.048  14.041  1.00  0.00    -0.206 F 
ATOM     79  C   UNL     1     -15.431  -4.702  12.868  1.00  0.00     0.059 A 
ATOM     80  C   UNL     1     -15.633  -4.933  10.459  1.00  0.00     0.059 A 
ATOM     81  F   UNL     1     -14.313  -6.512   9.329  1.00  0.00    -0.206 F 
ATOM     82  C   UNL     1     -16.013  -4.327  11.656  1.00  0.00     0.060 A 
BRANCH  82  83
ATOM     83  S   UNL     1     -17.241  -3.001  11.657  1.00  0.00     0.124 S 
ATOM     84  O   UNL     1     -18.413  -3.688  12.185  1.00  0.00    -0.237 OA
ATOM     85  O   UNL     1     -16.627  -2.013  12.540  1.00  0.00    -0.237 OA
ATOM     86  O   UNL     1     -17.312  -2.613  10.251  1.00  0.00    -0.744 OA
ENDBRANCH  82  83
ENDBRANCH  50  75
BRANCH  62  87
ATOM     87  C   UNL     1     -13.924 -12.872  14.119  1.00  0.00     0.058 A 
ATOM     88  C   UNL     1     -15.020 -13.444  13.455  1.00  0.00     0.135 A 
ATOM     89  C   UNL     1     -13.761 -13.150  15.485  1.00  0.00     0.135 A 
ATOM     90  F   UNL     1     -15.220 -13.202  12.150  1.00  0.00    -0.206 F 
ATOM     91  C   UNL     1     -15.931 -14.252  14.126  1.00  0.00     0.059 A 
ATOM     92  C   UNL     1     -14.648 -13.973  16.171  1.00  0.00     0.059 A 
ATOM     93  F   UNL     1     -12.723 -12.634  16.161  1.00  0.00    -0.206 F 
ATOM     94  C   UNL     1     -15.736 -14.512  15.484  1.00  0.00     0.060 A 
BRANCH  94  95
ATOM     95  S   UNL     1     -16.900 -15.596  16.336  1.00  0.00     0.124 S 
ATOM     96  O   UNL     1     -18.039 -14.705  16.533  1.00  0.00    -0.237 OA
ATOM     97  O   UNL     1     -17.096 -16.671  15.368  1.00  0.00    -0.237 OA
ATOM     98  O   UNL     1     -16.182 -15.977  17.549  1.00  0.00    -0.744 OA
ENDBRANCH  94  95
ENDBRANCH  62  87
ENDBRANCH  36  37
ENDBRANCH  28  31
ENDBRANCH  26  27
ENDBRANCH   1  26
TORSDOF 17
