REMARK SMILES O=C(NCCCCNC(=O)[C@H]1[C@@H](C(=O)Nc2ccccc2-c2ccccc2)[C@@H]2C=C[C@H]1O2)c1ccc(-c2c3nc(c(-c4c(F)cc(S(=O)(=O)[O-])cc4F)c4ccc([nH]4)c(-c4c(F)cc(S(=O)(=O)[O-])cc4F)c4nc(c(-c5c(F)cc(S(=O)(=O)[O-])cc5F)c5ccc2[nH]5)C=C4)C=C3)cc1
REMARK SMILES IDX 5 1 4 2 3 3 1 4 2 5 33 7 34 8 98 9 35 10 97 11 36 12 37 13
REMARK SMILES IDX 38 14 91 15 39 16 96 17 90 18 92 19 40 20 95 21 89 22 88 23
REMARK SMILES IDX 41 25 75 26 54 27 74 28 55 29 58 30 73 31 93 32 56 33 57 34
REMARK SMILES IDX 72 36 94 37 59 38 42 39 43 40 52 41 44 42 45 43 51 44 53 45
REMARK SMILES IDX 46 46 47 47 48 48 49 49 50 50 76 51 77 52 86 53 78 54 79 55
REMARK SMILES IDX 85 56 87 57 80 58 81 59 82 60 83 61 84 62 60 63 61 64 70 65
REMARK SMILES IDX 62 66 63 67 69 68 71 69 64 70 65 71 66 72 67 73 68 74 6 75
REMARK SMILES IDX 7 76 8 77 9 78 10 80 11 81 12 82 31 83 28 84 30 85 32 86
REMARK SMILES IDX 29 87 13 88 14 89 15 90 16 92 17 93 21 94 18 95 20 96 19 97
REMARK SMILES IDX 22 98 23 99 27 100 24 101 26 102 25 103
REMARK H PARENT 3 6 92 24 58 35 8 79 15 91
REMARK Flexibility Score: inf
ROOT
ATOM      1  C   UNL     1       2.104   1.453  -6.994  1.00  0.00     0.023 C 
ENDROOT
BRANCH   1   2
ATOM      2  C   UNL     1       1.098   1.751  -5.897  1.00  0.00     0.116 C 
BRANCH   2   3
ATOM      3  N   UNL     1       1.349   3.002  -5.192  1.00  0.00    -0.352 N 
ATOM      4  O   UNL     1       0.746   4.766  -3.894  1.00  0.00    -0.269 OA
ATOM      5  C   UNL     1       0.459   3.691  -4.399  1.00  0.00     0.251 C 
ATOM      6  H   UNL     1       2.247   3.395  -5.294  1.00  0.00     0.163 HD
BRANCH   5   7
ATOM      7  C   UNL     1      -0.881   3.100  -4.244  1.00  0.00     0.039 A 
ATOM      8  C   UNL     1      -0.998   1.794  -3.769  1.00  0.00     0.014 A 
ATOM      9  C   UNL     1      -1.983   3.788  -4.753  1.00  0.00     0.014 A 
ATOM     10  C   UNL     1      -2.190   1.114  -3.956  1.00  0.00     0.010 A 
ATOM     11  C   UNL     1      -3.209   3.131  -4.846  1.00  0.00     0.010 A 
ATOM     12  C   UNL     1      -3.311   1.780  -4.484  1.00  0.00    -0.014 A 
BRANCH  12  13
ATOM     13  C   UNL     1      -4.597   1.051  -4.579  1.00  0.00     0.031 A 
ATOM     14  C   UNL     1      -5.248   0.778  -5.904  1.00  0.00     0.074 A 
ATOM     15  C   UNL     1      -5.151   0.610  -3.433  1.00  0.00     0.049 A 
ATOM     16  N   UNL     1      -6.387   0.183  -6.149  1.00  0.00    -0.248 NA
ATOM     17  C   UNL     1      -4.541   1.237  -7.111  1.00  0.00     0.031 C 
ATOM     18  C   UNL     1      -4.595   0.830  -2.094  1.00  0.00     0.029 A 
ATOM     19  N   UNL     1      -6.279  -0.130  -3.206  1.00  0.00    -0.354 N 
ATOM     20  C   UNL     1      -6.555   0.229  -7.528  1.00  0.00     0.074 A 
ATOM     21  C   UNL     1      -5.399   0.911  -8.070  1.00  0.00     0.031 C 
ATOM     22  C   UNL     1      -5.348   0.186  -1.193  1.00  0.00     0.029 A 
ATOM     23  C   UNL     1      -6.481  -0.420  -1.879  1.00  0.00     0.049 A 
ATOM     24  H   UNL     1      -6.885  -0.425  -3.923  1.00  0.00     0.167 HD
ATOM     25  C   UNL     1      -7.586  -0.251  -8.265  1.00  0.00     0.037 A 
ATOM     26  C   UNL     1      -7.484  -1.080  -1.273  1.00  0.00     0.037 A 
ATOM     27  C   UNL     1      -8.715  -0.951  -7.706  1.00  0.00     0.049 A 
ATOM     28  C   UNL     1      -8.602  -1.613  -2.114  1.00  0.00     0.074 A 
ATOM     29  C   UNL     1      -9.805  -1.496  -8.364  1.00  0.00     0.029 A 
ATOM     30  N   UNL     1      -8.897  -1.209  -6.354  1.00  0.00    -0.354 N 
ATOM     31  N   UNL     1      -8.753  -1.544  -3.415  1.00  0.00    -0.248 NA
ATOM     32  C   UNL     1      -9.692  -2.296  -1.409  1.00  0.00     0.031 C 
ATOM     33  C   UNL     1     -10.658  -2.058  -7.407  1.00  0.00     0.029 A 
ATOM     34  C   UNL     1     -10.085  -1.894  -6.156  1.00  0.00     0.049 A 
ATOM     35  H   UNL     1      -8.274  -0.944  -5.640  1.00  0.00     0.167 HD
ATOM     36  C   UNL     1      -9.962  -2.168  -3.687  1.00  0.00     0.074 A 
ATOM     37  C   UNL     1     -10.485  -2.633  -2.416  1.00  0.00     0.031 C 
ATOM     38  C   UNL     1     -10.587  -2.332  -4.878  1.00  0.00     0.037 A 
BRANCH  25  39
ATOM     39  C   UNL     1      -7.561  -0.013  -9.750  1.00  0.00     0.058 A 
ATOM     40  C   UNL     1      -6.717  -0.739 -10.604  1.00  0.00     0.135 A 
ATOM     41  C   UNL     1      -8.430   0.925 -10.332  1.00  0.00     0.135 A 
ATOM     42  F   UNL     1      -5.855  -1.636 -10.099  1.00  0.00    -0.206 F 
ATOM     43  C   UNL     1      -6.723  -0.533 -11.981  1.00  0.00     0.059 A 
ATOM     44  C   UNL     1      -8.466   1.134 -11.708  1.00  0.00     0.059 A 
ATOM     45  F   UNL     1      -9.258   1.648  -9.562  1.00  0.00    -0.206 F 
ATOM     46  C   UNL     1      -7.599   0.409 -12.524  1.00  0.00     0.060 A 
BRANCH  46  47
ATOM     47  S   UNL     1      -7.599   0.666 -14.312  1.00  0.00     0.124 S 
ATOM     48  O   UNL     1      -6.381   1.451 -14.490  1.00  0.00    -0.237 OA
ATOM     49  O   UNL     1      -7.553  -0.699 -14.826  1.00  0.00    -0.237 OA
ATOM     50  O   UNL     1      -8.848   1.381 -14.552  1.00  0.00    -0.744 OA
ENDBRANCH  46  47
ENDBRANCH  25  39
BRANCH  26  51
ATOM     51  C   UNL     1      -7.461  -1.239   0.201  1.00  0.00     0.058 A 
ATOM     52  C   UNL     1      -7.176  -2.479   0.788  1.00  0.00     0.135 A 
ATOM     53  C   UNL     1      -7.639  -0.134   1.050  1.00  0.00     0.135 A 
ATOM     54  F   UNL     1      -6.998  -3.561   0.016  1.00  0.00    -0.206 F 
ATOM     55  C   UNL     1      -7.063  -2.619   2.167  1.00  0.00     0.059 A 
ATOM     56  C   UNL     1      -7.506  -0.244   2.428  1.00  0.00     0.059 A 
ATOM     57  F   UNL     1      -7.889   1.078   0.531  1.00  0.00    -0.206 F 
ATOM     58  C   UNL     1      -7.221  -1.493   2.978  1.00  0.00     0.060 A 
BRANCH  58  59
ATOM     59  S   UNL     1      -6.979  -1.659   4.760  1.00  0.00     0.124 S 
ATOM     60  O   UNL     1      -8.258  -2.221   5.177  1.00  0.00    -0.237 OA
ATOM     61  O   UNL     1      -5.831  -2.558   4.836  1.00  0.00    -0.237 OA
ATOM     62  O   UNL     1      -6.718  -0.288   5.188  1.00  0.00    -0.744 OA
ENDBRANCH  58  59
ENDBRANCH  26  51
BRANCH  38  63
ATOM     63  C   UNL     1     -11.905  -3.046  -4.848  1.00  0.00     0.058 A 
ATOM     64  C   UNL     1     -13.071  -2.403  -4.406  1.00  0.00     0.135 A 
ATOM     65  C   UNL     1     -12.005  -4.377  -5.279  1.00  0.00     0.135 A 
ATOM     66  F   UNL     1     -13.020  -1.132  -3.975  1.00  0.00    -0.206 F 
ATOM     67  C   UNL     1     -14.292  -3.065  -4.368  1.00  0.00     0.059 A 
ATOM     68  C   UNL     1     -13.220  -5.053  -5.268  1.00  0.00     0.059 A 
ATOM     69  F   UNL     1     -10.917  -5.030  -5.715  1.00  0.00    -0.206 F 
ATOM     70  C   UNL     1     -14.355  -4.393  -4.798  1.00  0.00     0.060 A 
BRANCH  70  71
ATOM     71  S   UNL     1     -15.947  -5.243  -4.758  1.00  0.00     0.124 S 
ATOM     72  O   UNL     1     -16.062  -5.582  -3.344  1.00  0.00    -0.237 OA
ATOM     73  O   UNL     1     -16.866  -4.217  -5.242  1.00  0.00    -0.237 OA
ATOM     74  O   UNL     1     -15.747  -6.372  -5.662  1.00  0.00    -0.744 OA
ENDBRANCH  70  71
ENDBRANCH  38  63
ENDBRANCH  12  13
ENDBRANCH   5   7
ENDBRANCH   2   3
ENDBRANCH   1   2
BRANCH   1  75
ATOM     75  C   UNL     1       3.543   1.407  -6.494  1.00  0.00     0.023 C 
BRANCH  75  76
ATOM     76  C   UNL     1       3.852   0.225  -5.572  1.00  0.00     0.116 C 
BRANCH  76  77
ATOM     77  N   UNL     1       4.451  -0.857  -6.316  1.00  0.00    -0.356 N 
ATOM     78  C   UNL     1       5.706  -1.023  -6.800  1.00  0.00     0.227 C 
ATOM     79  H   UNL     1       3.841  -1.607  -6.504  1.00  0.00     0.163 HD
ATOM     80  O   UNL     1       5.892  -2.071  -7.429  1.00  0.00    -0.275 OA
BRANCH  78  81
ATOM     81  C   UNL     1       6.885  -0.127  -6.446  1.00  0.00     0.127 C 
ATOM     82  C   UNL     1       7.974  -0.034  -7.568  1.00  0.00     0.127 C 
ATOM     83  C   UNL     1       6.749   1.358  -6.082  1.00  0.00     0.155 C 
ATOM     84  C   UNL     1       8.288   1.453  -7.598  1.00  0.00     0.155 C 
ATOM     85  C   UNL     1       7.996   1.827  -5.379  1.00  0.00     0.004 C 
ATOM     86  O   UNL     1       6.970   1.997  -7.356  1.00  0.00    -0.365 OA
ATOM     87  C   UNL     1       8.948   1.881  -6.317  1.00  0.00     0.004 C 
BRANCH  82  88
ATOM     88  C   UNL     1       7.756  -0.641  -8.951  1.00  0.00     0.231 C 
ATOM     89  O   UNL     1       8.624  -1.431  -9.364  1.00  0.00    -0.274 OA
ATOM     90  N   UNL     1       6.676  -0.500  -9.759  1.00  0.00    -0.325 N 
ATOM     91  H   UNL     1       6.609  -1.239 -10.407  1.00  0.00     0.169 HD
BRANCH  90  92
ATOM     92  C   UNL     1       5.627   0.422  -9.917  1.00  0.00     0.049 A 
ATOM     93  C   UNL     1       4.349  -0.168 -10.006  1.00  0.00     0.027 A 
ATOM     94  C   UNL     1       5.777   1.796 -10.222  1.00  0.00     0.005 A 
ATOM     95  C   UNL     1       3.211   0.585 -10.291  1.00  0.00     0.002 A 
ATOM     96  C   UNL     1       4.597   2.537 -10.490  1.00  0.00     0.011 A 
ATOM     97  C   UNL     1       3.333   1.946 -10.518  1.00  0.00     0.001 A 
BRANCH  94  98
ATOM     98  C   UNL     1       7.069   2.490 -10.428  1.00  0.00    -0.016 A 
ATOM     99  C   UNL     1       7.307   3.755  -9.851  1.00  0.00     0.009 A 
ATOM    100  C   UNL     1       8.094   1.933 -11.209  1.00  0.00     0.009 A 
ATOM    101  C   UNL     1       8.536   4.404  -9.996  1.00  0.00     0.001 A 
ATOM    102  C   UNL     1       9.327   2.578 -11.353  1.00  0.00     0.001 A 
ATOM    103  C   UNL     1       9.550   3.808 -10.738  1.00  0.00     0.000 A 
ENDBRANCH  94  98
ENDBRANCH  90  92
ENDBRANCH  82  88
ENDBRANCH  78  81
ENDBRANCH  76  77
ENDBRANCH  75  76
ENDBRANCH   1  75
TORSDOF 17
