REMARK SMILES COc1cc(/C=C2/SC(=S)N(c3ccc(C)cc3C)C2=O)ccc1O[C@@H](C)C(=O)NCCCCNC(=O)c1ccc(-c2c3nc(c(-c4c(F)cc(S(=O)(=O)[O-])cc4F)c4ccc([nH]4)c(-c4c(F)cc(S(=O)(=O)[O-])cc4F)c4nc(c(-c5c(F)cc(S(=O)(=O)[O-])cc5F)c5ccc2[nH]5)C=C4)C=C3)cc1
REMARK SMILES IDX 32 1 31 2 30 3 28 4 29 5 26 7 27 8 25 9 24 10 3 11 4 12 5 13
REMARK SMILES IDX 23 14 22 15 2 16 1 17 6 18 7 19 8 20 20 21 9 22 11 23 21 24
REMARK SMILES IDX 10 25 12 26 13 27 18 28 14 29 17 30 19 31 15 32 16 33 33 34
REMARK SMILES IDX 34 35 35 36 36 37 37 39 38 40 39 41 103 42 40 43 102 44
REMARK SMILES IDX 41 45 42 46 43 47 96 48 44 49 101 50 95 51 97 52 45 53
REMARK SMILES IDX 100 54 94 55 93 56 46 58 80 59 59 60 79 61 60 62 63 63 78 64
REMARK SMILES IDX 98 65 61 66 62 67 77 69 99 70 64 71 47 72 48 73 57 74 49 75
REMARK SMILES IDX 50 76 56 77 58 78 51 79 52 80 53 81 54 82 55 83 81 84 82 85
REMARK SMILES IDX 91 86 83 87 84 88 90 89 92 90 85 91 86 92 87 93 88 94 89 95
REMARK SMILES IDX 65 96 66 97 75 98 67 99 68 100 74 101 76 102 69 103 70 104
REMARK SMILES IDX 71 105 72 106 73 107
REMARK H PARENT 30 6 35 38 97 57 63 68
REMARK Flexibility Score: inf
ROOT
ATOM      1  C   UNL     1       0.942  -2.706  -3.010  1.00  0.00     0.023 C 
ENDROOT
BRANCH   1   2
ATOM      2  C   UNL     1       0.739  -2.278  -1.563  1.00  0.00     0.116 C 
BRANCH   2   3
ATOM      3  N   UNL     1       1.921  -2.430  -0.749  1.00  0.00    -0.353 N 
ATOM      4  C   UNL     1       2.810  -1.597  -0.172  1.00  0.00     0.260 C 
ATOM      5  O   UNL     1       3.496  -2.156   0.705  1.00  0.00    -0.271 OA
ATOM      6  H   UNL     1       2.129  -3.375  -0.571  1.00  0.00     0.163 HD
BRANCH   4   7
ATOM      7  C   UNL     1       3.070  -0.054  -0.430  1.00  0.00     0.259 C 
ATOM      8  C   UNL     1       2.737   0.737   0.848  1.00  0.00     0.064 C 
BRANCH   7   9
ATOM      9  O   UNL     1       3.106   0.873  -1.492  1.00  0.00    -0.477 OA
BRANCH   9  10
ATOM     10  C   UNL     1       2.209   0.820  -2.502  1.00  0.00     0.162 A 
ATOM     11  C   UNL     1       0.836   1.041  -2.378  1.00  0.00     0.161 A 
ATOM     12  C   UNL     1       0.012   0.893  -3.509  1.00  0.00     0.058 A 
ATOM     13  C   UNL     1       0.576   0.585  -4.761  1.00  0.00    -0.020 A 
ATOM     14  C   UNL     1       2.774   0.719  -3.770  1.00  0.00     0.051 A 
ATOM     15  C   UNL     1       1.963   0.656  -4.897  1.00  0.00     0.012 A 
BRANCH  11  16
ATOM     16  O   UNL     1       0.372   1.544  -1.194  1.00  0.00    -0.493 OA
ATOM     17  C   UNL     1      -0.708   0.856  -0.577  1.00  0.00     0.278 C 
ENDBRANCH  11  16
BRANCH  13  18
ATOM     18  C   UNL     1      -0.262   0.152  -5.896  1.00  0.00     0.029 C 
ATOM     19  C   UNL     1      -0.021  -0.901  -6.706  1.00  0.00     0.081 C 
ATOM     20  S   UNL     1      -1.074  -1.331  -8.008  1.00  0.00    -0.054 SA
ATOM     21  C   UNL     1       1.126  -1.869  -6.677  1.00  0.00     0.270 C 
ATOM     22  C   UNL     1      -0.062  -2.680  -8.538  1.00  0.00     0.152 C 
ATOM     23  N   UNL     1       1.079  -2.730  -7.763  1.00  0.00    -0.261 N 
ATOM     24  O   UNL     1       1.988  -1.885  -5.809  1.00  0.00    -0.268 OA
ATOM     25  S   UNL     1      -0.560  -3.710  -9.756  1.00  0.00    -0.051 S 
BRANCH  23  26
ATOM     26  C   UNL     1       2.181  -3.615  -7.974  1.00  0.00     0.054 A 
ATOM     27  C   UNL     1       2.539  -4.499  -6.941  1.00  0.00     0.027 A 
ATOM     28  C   UNL     1       3.008  -3.528  -9.111  1.00  0.00    -0.027 A 
ATOM     29  C   UNL     1       3.671  -5.309  -7.037  1.00  0.00     0.005 A 
ATOM     30  C   UNL     1       4.137  -4.370  -9.202  1.00  0.00     0.009 A 
ATOM     31  C   UNL     1       2.806  -2.539 -10.227  1.00  0.00     0.046 C 
ATOM     32  C   UNL     1       4.480  -5.252  -8.170  1.00  0.00    -0.051 A 
ATOM     33  C   UNL     1       5.710  -6.107  -8.255  1.00  0.00     0.044 C 
ENDBRANCH  23  26
ENDBRANCH  13  18
ENDBRANCH   9  10
ENDBRANCH   7   9
ENDBRANCH   4   7
ENDBRANCH   2   3
ENDBRANCH   1   2
BRANCH   1  34
ATOM     34  C   UNL     1      -0.008  -3.787  -3.531  1.00  0.00     0.023 C 
BRANCH  34  35
ATOM     35  C   UNL     1      -1.504  -3.564  -3.331  1.00  0.00     0.116 C 
BRANCH  35  36
ATOM     36  N   UNL     1      -2.048  -2.395  -4.007  1.00  0.00    -0.352 N 
ATOM     37  C   UNL     1      -3.273  -2.265  -4.632  1.00  0.00     0.251 C 
ATOM     38  H   UNL     1      -1.470  -1.598  -4.020  1.00  0.00     0.163 HD
ATOM     39  O   UNL     1      -3.579  -1.207  -5.176  1.00  0.00    -0.269 OA
BRANCH  37  40
ATOM     40  C   UNL     1      -4.186  -3.434  -4.685  1.00  0.00     0.039 A 
ATOM     41  C   UNL     1      -4.655  -3.880  -5.924  1.00  0.00     0.014 A 
ATOM     42  C   UNL     1      -4.484  -4.152  -3.524  1.00  0.00     0.014 A 
ATOM     43  C   UNL     1      -5.316  -5.111  -6.010  1.00  0.00     0.010 A 
ATOM     44  C   UNL     1      -5.071  -5.411  -3.624  1.00  0.00     0.010 A 
ATOM     45  C   UNL     1      -5.468  -5.920  -4.871  1.00  0.00    -0.014 A 
BRANCH  45  46
ATOM     46  C   UNL     1      -5.973  -7.320  -4.961  1.00  0.00     0.031 A 
ATOM     47  C   UNL     1      -7.210  -7.737  -4.211  1.00  0.00     0.074 A 
ATOM     48  C   UNL     1      -5.254  -8.248  -5.626  1.00  0.00     0.049 A 
ATOM     49  N   UNL     1      -7.725  -8.931  -4.063  1.00  0.00    -0.248 NA
ATOM     50  C   UNL     1      -7.944  -6.675  -3.505  1.00  0.00     0.031 C 
ATOM     51  C   UNL     1      -3.998  -8.001  -6.339  1.00  0.00     0.029 A 
ATOM     52  N   UNL     1      -5.466  -9.595  -5.796  1.00  0.00    -0.354 N 
ATOM     53  C   UNL     1      -8.823  -8.771  -3.226  1.00  0.00     0.074 A 
ATOM     54  C   UNL     1      -8.873  -7.370  -2.864  1.00  0.00     0.031 C 
ATOM     55  C   UNL     1      -3.567  -9.147  -6.889  1.00  0.00     0.029 A 
ATOM     56  C   UNL     1      -4.492 -10.221  -6.540  1.00  0.00     0.049 A 
ATOM     57  H   UNL     1      -6.243 -10.069  -5.421  1.00  0.00     0.167 HD
ATOM     58  C   UNL     1      -9.721  -9.698  -2.813  1.00  0.00     0.037 A 
ATOM     59  C   UNL     1      -4.353 -11.512  -6.899  1.00  0.00     0.037 A 
ATOM     60  C   UNL     1      -9.700 -11.082  -3.208  1.00  0.00     0.049 A 
ATOM     61  C   UNL     1      -5.386 -12.516  -6.466  1.00  0.00     0.074 A 
ATOM     62  C   UNL     1     -10.608 -12.080  -2.899  1.00  0.00     0.029 A 
ATOM     63  N   UNL     1      -8.725 -11.663  -4.006  1.00  0.00    -0.354 N 
ATOM     64  N   UNL     1      -6.449 -12.333  -5.721  1.00  0.00    -0.248 NA
ATOM     65  C   UNL     1      -5.202 -13.901  -6.924  1.00  0.00     0.031 C 
ATOM     66  C   UNL     1     -10.170 -13.271  -3.491  1.00  0.00     0.029 A 
ATOM     67  C   UNL     1      -9.005 -13.007  -4.193  1.00  0.00     0.049 A 
ATOM     68  H   UNL     1      -7.949 -11.190  -4.383  1.00  0.00     0.167 HD
ATOM     69  C   UNL     1      -7.073 -13.573  -5.639  1.00  0.00     0.074 A 
ATOM     70  C   UNL     1      -6.274 -14.496  -6.418  1.00  0.00     0.031 C 
ATOM     71  C   UNL     1      -8.206 -13.914  -4.978  1.00  0.00     0.037 A 
BRANCH  58  72
ATOM     72  C   UNL     1     -10.814  -9.235  -1.891  1.00  0.00     0.058 A 
ATOM     73  C   UNL     1     -11.863  -8.420  -2.348  1.00  0.00     0.135 A 
ATOM     74  C   UNL     1     -10.820  -9.612  -0.539  1.00  0.00     0.135 A 
ATOM     75  F   UNL     1     -11.897  -8.020  -3.629  1.00  0.00    -0.206 F 
ATOM     76  C   UNL     1     -12.855  -7.961  -1.489  1.00  0.00     0.059 A 
ATOM     77  C   UNL     1     -11.817  -9.185   0.334  1.00  0.00     0.059 A 
ATOM     78  F   UNL     1      -9.843 -10.393  -0.050  1.00  0.00    -0.206 F 
ATOM     79  C   UNL     1     -12.818  -8.342  -0.147  1.00  0.00     0.060 A 
BRANCH  79  80
ATOM     80  S   UNL     1     -14.096  -7.718   0.965  1.00  0.00     0.124 S 
ATOM     81  O   UNL     1     -13.632  -6.354   1.201  1.00  0.00    -0.237 OA
ATOM     82  O   UNL     1     -15.306  -7.843   0.158  1.00  0.00    -0.237 OA
ATOM     83  O   UNL     1     -14.015  -8.617   2.111  1.00  0.00    -0.744 OA
ENDBRANCH  79  80
ENDBRANCH  58  72
BRANCH  59  84
ATOM     84  C   UNL     1      -3.205 -11.926  -7.747  1.00  0.00     0.058 A 
ATOM     85  C   UNL     1      -3.393 -12.235  -9.103  1.00  0.00     0.135 A 
ATOM     86  C   UNL     1      -1.903 -12.006  -7.231  1.00  0.00     0.135 A 
ATOM     87  F   UNL     1      -4.622 -12.180  -9.638  1.00  0.00    -0.206 F 
ATOM     88  C   UNL     1      -2.333 -12.621  -9.916  1.00  0.00     0.059 A 
ATOM     89  C   UNL     1      -0.823 -12.371  -8.030  1.00  0.00     0.059 A 
ATOM     90  F   UNL     1      -1.670 -11.705  -5.944  1.00  0.00    -0.206 F 
ATOM     91  C   UNL     1      -1.050 -12.686  -9.370  1.00  0.00     0.060 A 
BRANCH  91  92
ATOM     92  S   UNL     1       0.330 -13.139 -10.444  1.00  0.00     0.124 S 
ATOM     93  O   UNL     1       0.153 -14.582 -10.555  1.00  0.00    -0.237 OA
ATOM     94  O   UNL     1       0.050 -12.367 -11.651  1.00  0.00    -0.237 OA
ATOM     95  O   UNL     1       1.499 -12.701  -9.688  1.00  0.00    -0.744 OA
ENDBRANCH  91  92
ENDBRANCH  59  84
BRANCH  71  96
ATOM     96  C   UNL     1      -8.668 -15.338  -5.088  1.00  0.00     0.058 A 
ATOM     97  C   UNL     1      -8.040 -16.370  -4.373  1.00  0.00     0.135 A 
ATOM     98  C   UNL     1      -9.782 -15.666  -5.876  1.00  0.00     0.135 A 
ATOM     99  F   UNL     1      -6.966 -16.108  -3.612  1.00  0.00    -0.206 F 
ATOM    100  C   UNL     1      -8.493 -17.683  -4.448  1.00  0.00     0.059 A 
ATOM    101  C   UNL     1     -10.264 -16.969  -5.950  1.00  0.00     0.059 A 
ATOM    102  F   UNL     1     -10.421 -14.713  -6.573  1.00  0.00    -0.206 F 
ATOM    103  C   UNL     1      -9.607 -17.973  -5.239  1.00  0.00     0.060 A 
BRANCH 103 104
ATOM    104  S   UNL     1     -10.213 -19.673  -5.298  1.00  0.00     0.124 S 
ATOM    105  O   UNL     1      -9.256 -20.295  -6.206  1.00  0.00    -0.237 OA
ATOM    106  O   UNL     1     -10.124 -20.088  -3.901  1.00  0.00    -0.237 OA
ATOM    107  O   UNL     1     -11.571 -19.530  -5.816  1.00  0.00    -0.744 OA
ENDBRANCH 103 104
ENDBRANCH  71  96
ENDBRANCH  45  46
ENDBRANCH  37  40
ENDBRANCH  35  36
ENDBRANCH  34  35
ENDBRANCH   1  34
TORSDOF 19
