REMARK SMILES Cc1ccc(N2C(=O)C[C@H](Sc3ccccc3C(=O)NCCCCNC(=O)c3ccc(-c4c5nc(c(-c6c(F)cc(S(=O)(=O)[O-])cc6F)c6ccc([nH]6)c(-c6c(F)cc(S(=O)(=O)[O-])cc6F)c6nc(c(-c7c(F)cc(S(=O)(=O)[O-])cc7F)c7ccc4[nH]7)C=C6)C=C5)cc3)C2=O)cc1
REMARK SMILES IDX 22 1 21 2 20 3 18 4 19 5 17 7 12 8 13 9 14 10 16 11 15 12
REMARK SMILES IDX 11 13 10 14 6 15 7 16 94 17 8 18 9 19 95 20 5 21 1 22 2 23
REMARK SMILES IDX 3 24 97 25 4 26 96 27 23 28 24 29 25 30 26 31 27 33 28 34
REMARK SMILES IDX 29 35 93 36 30 37 92 38 31 39 32 40 33 41 86 42 34 43 91 44
REMARK SMILES IDX 85 45 87 46 35 47 90 48 84 49 83 50 36 52 70 53 49 54 69 55
REMARK SMILES IDX 50 56 53 57 68 58 88 59 51 60 52 61 67 63 89 64 54 65 37 66
REMARK SMILES IDX 38 67 47 68 39 69 40 70 46 71 48 72 41 73 42 74 43 75 44 76
REMARK SMILES IDX 45 77 71 78 72 79 81 80 73 81 74 82 80 83 82 84 75 85 76 86
REMARK SMILES IDX 77 87 78 88 79 89 55 90 56 91 65 92 57 93 58 94 64 95 66 96
REMARK SMILES IDX 59 97 60 98 61 99 62 100 63 101
REMARK H PARENT 20 6 25 32 87 51 53 62
REMARK Flexibility Score: inf
ROOT
ATOM      1  C   UNL     1      -3.978   5.039  -1.759  1.00  0.00     0.023 C 
ENDROOT
BRANCH   1   2
ATOM      2  C   UNL     1      -5.203   5.290  -0.875  1.00  0.00     0.116 C 
BRANCH   2   3
ATOM      3  N   UNL     1      -6.207   4.226  -0.871  1.00  0.00    -0.352 N 
ATOM      4  C   UNL     1      -6.667   3.344   0.084  1.00  0.00     0.252 C 
ATOM      5  O   UNL     1      -7.635   2.644  -0.206  1.00  0.00    -0.269 OA
ATOM      6  H   UNL     1      -6.652   4.115  -1.742  1.00  0.00     0.163 HD
BRANCH   4   7
ATOM      7  C   UNL     1      -6.005   3.182   1.408  1.00  0.00     0.053 A 
ATOM      8  C   UNL     1      -5.775   1.917   2.003  1.00  0.00     0.021 A 
ATOM      9  C   UNL     1      -5.094   1.864   3.236  1.00  0.00     0.016 A 
ATOM     10  C   UNL     1      -4.693   3.029   3.894  1.00  0.00     0.001 A 
ATOM     11  C   UNL     1      -5.687   4.340   2.138  1.00  0.00     0.015 A 
ATOM     12  C   UNL     1      -5.016   4.267   3.358  1.00  0.00     0.001 A 
BRANCH   8  13
ATOM     13  S   UNL     1      -6.568   0.366   1.539  1.00  0.00    -0.111 SA
BRANCH  13  14
ATOM     14  C   UNL     1      -5.455  -0.432   0.343  1.00  0.00     0.151 C 
ATOM     15  N   UNL     1      -3.212   0.108   0.001  1.00  0.00    -0.250 N 
ATOM     16  C   UNL     1      -3.906   0.746  -1.003  1.00  0.00     0.235 C 
ATOM     17  C   UNL     1      -4.044  -0.607   0.835  1.00  0.00     0.247 C 
ATOM     18  O   UNL     1      -3.474   1.478  -1.883  1.00  0.00    -0.274 OA
ATOM     19  C   UNL     1      -5.322   0.264  -0.988  1.00  0.00     0.126 C 
ATOM     20  O   UNL     1      -3.739  -1.268   1.820  1.00  0.00    -0.273 OA
BRANCH  15  21
ATOM     21  C   UNL     1      -1.797   0.114   0.094  1.00  0.00     0.052 A 
ATOM     22  C   UNL     1       2.527   0.007   0.032  1.00  0.00     0.044 C 
ATOM     23  C   UNL     1       1.030   0.060   0.098  1.00  0.00    -0.051 A 
ATOM     24  C   UNL     1       0.298  -1.077   0.452  1.00  0.00     0.005 A 
ATOM     25  C   UNL     1       0.342   1.223  -0.254  1.00  0.00     0.005 A 
ATOM     26  C   UNL     1      -1.101  -1.042   0.474  1.00  0.00     0.027 A 
ATOM     27  C   UNL     1      -1.056   1.245  -0.268  1.00  0.00     0.027 A 
ENDBRANCH  15  21
ENDBRANCH  13  14
ENDBRANCH   8  13
ENDBRANCH   4   7
ENDBRANCH   2   3
ENDBRANCH   1   2
BRANCH   1  28
ATOM     28  C   UNL     1      -4.251   4.701  -3.221  1.00  0.00     0.023 C 
BRANCH  28  29
ATOM     29  C   UNL     1      -5.005   5.770  -4.009  1.00  0.00     0.116 C 
BRANCH  29  30
ATOM     30  N   UNL     1      -4.159   6.643  -4.803  1.00  0.00    -0.352 N 
ATOM     31  C   UNL     1      -4.559   7.541  -5.793  1.00  0.00     0.251 C 
ATOM     32  H   UNL     1      -3.193   6.596  -4.622  1.00  0.00     0.163 HD
ATOM     33  O   UNL     1      -3.757   8.096  -6.528  1.00  0.00    -0.269 OA
BRANCH  31  34
ATOM     34  C   UNL     1      -5.997   7.869  -5.861  1.00  0.00     0.039 A 
ATOM     35  C   UNL     1      -6.386   9.156  -5.472  1.00  0.00     0.014 A 
ATOM     36  C   UNL     1      -6.933   6.853  -6.014  1.00  0.00     0.014 A 
ATOM     37  C   UNL     1      -7.687   9.370  -5.024  1.00  0.00     0.010 A 
ATOM     38  C   UNL     1      -8.194   7.039  -5.483  1.00  0.00     0.010 A 
ATOM     39  C   UNL     1      -8.551   8.280  -4.935  1.00  0.00    -0.014 A 
BRANCH  39  40
ATOM     40  C   UNL     1      -9.817   8.308  -4.210  1.00  0.00     0.031 A 
ATOM     41  C   UNL     1     -11.095   8.262  -4.953  1.00  0.00     0.074 A 
ATOM     42  C   UNL     1      -9.812   8.245  -2.860  1.00  0.00     0.049 A 
ATOM     43  N   UNL     1     -12.256   8.508  -4.447  1.00  0.00    -0.248 NA
ATOM     44  C   UNL     1     -11.143   7.998  -6.385  1.00  0.00     0.031 C 
ATOM     45  C   UNL     1     -10.924   7.881  -1.988  1.00  0.00     0.029 A 
ATOM     46  N   UNL     1      -8.822   8.709  -1.988  1.00  0.00    -0.354 N 
ATOM     47  C   UNL     1     -13.210   8.166  -5.383  1.00  0.00     0.074 A 
ATOM     48  C   UNL     1     -12.460   7.956  -6.596  1.00  0.00     0.031 C 
ATOM     49  C   UNL     1     -10.680   8.347  -0.754  1.00  0.00     0.029 A 
ATOM     50  C   UNL     1      -9.485   9.168  -0.833  1.00  0.00     0.049 A 
ATOM     51  H   UNL     1      -7.851   8.714  -2.151  1.00  0.00     0.167 HD
ATOM     52  C   UNL     1     -14.499   7.977  -4.969  1.00  0.00     0.037 A 
ATOM     53  C   UNL     1      -9.432  10.483  -0.468  1.00  0.00     0.037 A 
ATOM     54  C   UNL     1     -14.668   8.460  -3.593  1.00  0.00     0.049 A 
ATOM     55  C   UNL     1     -10.776  11.175  -0.459  1.00  0.00     0.074 A 
ATOM     56  C   UNL     1     -14.712   7.823  -2.363  1.00  0.00     0.029 A 
ATOM     57  N   UNL     1     -14.513   9.819  -3.322  1.00  0.00    -0.354 N 
ATOM     58  N   UNL     1     -11.843  10.708  -1.047  1.00  0.00    -0.248 NA
ATOM     59  C   UNL     1     -11.024  12.450   0.209  1.00  0.00     0.031 C 
ATOM     60  C   UNL     1     -14.486   8.797  -1.355  1.00  0.00     0.029 A 
ATOM     61  C   UNL     1     -14.338  10.031  -1.967  1.00  0.00     0.049 A 
ATOM     62  H   UNL     1     -14.527  10.530  -4.003  1.00  0.00     0.167 HD
ATOM     63  C   UNL     1     -12.883  11.586  -0.883  1.00  0.00     0.074 A 
ATOM     64  C   UNL     1     -12.326  12.647  -0.064  1.00  0.00     0.031 C 
ATOM     65  C   UNL     1     -14.113  11.373  -1.443  1.00  0.00     0.037 A 
BRANCH  52  66
ATOM     66  C   UNL     1     -15.527   7.100  -5.687  1.00  0.00     0.058 A 
ATOM     67  C   UNL     1     -16.628   6.558  -4.981  1.00  0.00     0.135 A 
ATOM     68  C   UNL     1     -15.447   6.662  -7.025  1.00  0.00     0.135 A 
ATOM     69  F   UNL     1     -16.908   6.936  -3.725  1.00  0.00    -0.206 F 
ATOM     70  C   UNL     1     -17.493   5.595  -5.519  1.00  0.00     0.059 A 
ATOM     71  C   UNL     1     -16.274   5.677  -7.575  1.00  0.00     0.059 A 
ATOM     72  F   UNL     1     -14.594   7.194  -7.901  1.00  0.00    -0.206 F 
ATOM     73  C   UNL     1     -17.287   5.133  -6.810  1.00  0.00     0.060 A 
BRANCH  73  74
ATOM     74  S   UNL     1     -18.354   3.846  -7.481  1.00  0.00     0.124 S 
ATOM     75  O   UNL     1     -18.131   2.746  -6.548  1.00  0.00    -0.237 OA
ATOM     76  O   UNL     1     -19.669   4.475  -7.423  1.00  0.00    -0.237 OA
ATOM     77  O   UNL     1     -17.826   3.631  -8.826  1.00  0.00    -0.744 OA
ENDBRANCH  73  74
ENDBRANCH  52  66
BRANCH  53  78
ATOM     78  C   UNL     1      -8.120  11.119  -0.772  1.00  0.00     0.058 A 
ATOM     79  C   UNL     1      -7.000  10.661  -0.051  1.00  0.00     0.135 A 
ATOM     80  C   UNL     1      -7.885  11.772  -1.990  1.00  0.00     0.135 A 
ATOM     81  F   UNL     1      -7.168  10.041   1.129  1.00  0.00    -0.206 F 
ATOM     82  C   UNL     1      -5.721  10.691  -0.592  1.00  0.00     0.059 A 
ATOM     83  C   UNL     1      -6.605  11.821  -2.549  1.00  0.00     0.059 A 
ATOM     84  F   UNL     1      -8.912  12.233  -2.719  1.00  0.00    -0.206 F 
ATOM     85  C   UNL     1      -5.547  11.210  -1.872  1.00  0.00     0.060 A 
BRANCH  85  86
ATOM     86  S   UNL     1      -3.972  10.879  -2.697  1.00  0.00     0.124 S 
ATOM     87  O   UNL     1      -3.022  11.554  -1.819  1.00  0.00    -0.237 OA
ATOM     88  O   UNL     1      -3.930   9.417  -2.665  1.00  0.00    -0.237 OA
ATOM     89  O   UNL     1      -4.151  11.478  -4.014  1.00  0.00    -0.744 OA
ENDBRANCH  85  86
ENDBRANCH  53  78
BRANCH  65  90
ATOM     90  C   UNL     1     -15.248  12.371  -1.476  1.00  0.00     0.058 A 
ATOM     91  C   UNL     1     -15.070  13.765  -1.529  1.00  0.00     0.135 A 
ATOM     92  C   UNL     1     -16.587  11.925  -1.597  1.00  0.00     0.135 A 
ATOM     93  F   UNL     1     -13.845  14.311  -1.541  1.00  0.00    -0.206 F 
ATOM     94  C   UNL     1     -16.142  14.655  -1.622  1.00  0.00     0.059 A 
ATOM     95  C   UNL     1     -17.666  12.793  -1.747  1.00  0.00     0.059 A 
ATOM     96  F   UNL     1     -16.890  10.618  -1.585  1.00  0.00    -0.206 F 
ATOM     97  C   UNL     1     -17.438  14.161  -1.730  1.00  0.00     0.060 A 
BRANCH  97  98
ATOM     98  S   UNL     1     -18.826  15.296  -1.916  1.00  0.00     0.124 S 
ATOM     99  O   UNL     1     -19.249  15.468  -0.530  1.00  0.00    -0.237 OA
ATOM    100  O   UNL     1     -18.210  16.467  -2.535  1.00  0.00    -0.237 OA
ATOM    101  O   UNL     1     -19.746  14.556  -2.773  1.00  0.00    -0.744 OA
ENDBRANCH  97  98
ENDBRANCH  65  90
ENDBRANCH  39  40
ENDBRANCH  31  34
ENDBRANCH  29  30
ENDBRANCH  28  29
ENDBRANCH   1  28
TORSDOF 17
