REMARK SMILES Cc1cscc1-c1noc(SCC(=O)NCCCCNC(=O)c2ccc(-c3c4nc(c(-c5c(F)cc(S(=O)(=O)[O-])cc5F)c5ccc([nH]5)c(-c5c(F)cc(S(=O)(=O)[O-])cc5F)c5nc(c(-c6c(F)cc(S(=O)(=O)[O-])cc6F)c6ccc3[nH]6)C=C5)C=C4)cc2)n1
REMARK SMILES IDX 17 1 16 2 15 3 13 4 14 5 12 7 11 8 10 9 7 10 8 11 89 12 9 13
REMARK SMILES IDX 6 14 1 15 2 16 3 17 4 18 5 19 18 20 19 21 20 22 21 23 22 25
REMARK SMILES IDX 23 26 24 27 88 28 25 29 87 30 26 31 27 32 28 33 81 34 29 35
REMARK SMILES IDX 86 36 80 37 82 38 30 39 85 40 79 41 78 42 31 44 65 45 44 46
REMARK SMILES IDX 64 47 45 48 48 49 63 50 83 51 46 52 47 53 62 55 84 56 49 57
REMARK SMILES IDX 32 58 33 59 42 60 34 61 35 62 41 63 43 64 36 65 37 66 38 67
REMARK SMILES IDX 39 68 40 69 66 70 67 71 76 72 68 73 69 74 75 75 77 76 70 77
REMARK SMILES IDX 71 78 72 79 73 80 74 81 50 82 51 83 60 84 52 85 53 86 59 87
REMARK SMILES IDX 61 88 54 89 55 90 56 91 57 92 58 93
REMARK H PARENT 15 6 20 24 82 43 48 54
REMARK Flexibility Score: inf
ROOT
ATOM      1  C   UNL     1       6.814   3.928   0.039  1.00  0.00     0.023 C 
ENDROOT
BRANCH   1   2
ATOM      2  C   UNL     1       6.829   3.864  -1.489  1.00  0.00     0.116 C 
BRANCH   2   3
ATOM      3  N   UNL     1       6.059   2.735  -1.976  1.00  0.00    -0.355 N 
ATOM      4  C   UNL     1       4.846   2.699  -2.598  1.00  0.00     0.230 C 
ATOM      5  O   UNL     1       4.411   1.593  -2.929  1.00  0.00    -0.274 OA
ATOM      6  H   UNL     1       6.479   1.855  -1.835  1.00  0.00     0.163 HD
BRANCH   4   7
ATOM      7  C   UNL     1       4.125   3.973  -2.990  1.00  0.00     0.179 C 
BRANCH   7   8
ATOM      8  S   UNL     1       3.652   5.038  -1.611  1.00  0.00    -0.055 SA
BRANCH   8   9
ATOM      9  C   UNL     1       2.579   4.037  -0.690  1.00  0.00     0.286 A 
ATOM     10  C   UNL     1       1.326   2.513  -0.006  1.00  0.00     0.204 A 
ATOM     11  N   UNL     1       1.141   3.476   0.904  1.00  0.00    -0.056 NA
ATOM     12  N   UNL     1       2.203   2.823  -1.013  1.00  0.00    -0.181 NA
ATOM     13  O   UNL     1       1.995   4.486   0.464  1.00  0.00    -0.327 OA
BRANCH  10  14
ATOM     14  C   UNL     1       0.580   1.257  -0.014  1.00  0.00     0.036 A 
ATOM     15  C   UNL     1       2.662  -0.313  -0.087  1.00  0.00     0.046 C 
ATOM     16  C   UNL     1       1.192  -0.043  -0.063  1.00  0.00    -0.029 A 
ATOM     17  C   UNL     1       0.224  -1.033  -0.055  1.00  0.00     0.069 A 
ATOM     18  S   UNL     1      -1.368  -0.415   0.013  1.00  0.00    -0.151 S 
ATOM     19  C   UNL     1      -0.797   1.192   0.049  1.00  0.00     0.077 A 
ENDBRANCH  10  14
ENDBRANCH   8   9
ENDBRANCH   7   8
ENDBRANCH   4   7
ENDBRANCH   2   3
ENDBRANCH   1   2
BRANCH   1  20
ATOM     20  C   UNL     1       7.512   2.753   0.732  1.00  0.00     0.023 C 
BRANCH  20  21
ATOM     21  C   UNL     1       8.976   2.547   0.354  1.00  0.00     0.116 C 
BRANCH  21  22
ATOM     22  N   UNL     1       9.803   3.707   0.649  1.00  0.00    -0.352 N 
ATOM     23  C   UNL     1      11.020   3.772   1.281  1.00  0.00     0.251 C 
ATOM     24  H   UNL     1       9.436   4.571   0.353  1.00  0.00     0.163 HD
ATOM     25  O   UNL     1      11.493   4.870   1.569  1.00  0.00    -0.269 OA
BRANCH  23  26
ATOM     26  C   UNL     1      11.745   2.534   1.643  1.00  0.00     0.039 A 
ATOM     27  C   UNL     1      12.333   2.446   2.907  1.00  0.00     0.014 A 
ATOM     28  C   UNL     1      11.847   1.462   0.750  1.00  0.00     0.014 A 
ATOM     29  C   UNL     1      12.960   1.262   3.300  1.00  0.00     0.010 A 
ATOM     30  C   UNL     1      12.406   0.256   1.171  1.00  0.00     0.010 A 
ATOM     31  C   UNL     1      12.965   0.141   2.452  1.00  0.00    -0.014 A 
BRANCH  31  32
ATOM     32  C   UNL     1      13.517  -1.161   2.915  1.00  0.00     0.031 A 
ATOM     33  C   UNL     1      14.705  -1.782   2.231  1.00  0.00     0.074 A 
ATOM     34  C   UNL     1      12.910  -1.809   3.930  1.00  0.00     0.049 A 
ATOM     35  N   UNL     1      15.308  -2.914   2.493  1.00  0.00    -0.248 NA
ATOM     36  C   UNL     1      15.278  -1.049   1.092  1.00  0.00     0.031 C 
ATOM     37  C   UNL     1      11.715  -1.340   4.637  1.00  0.00     0.029 A 
ATOM     38  N   UNL     1      13.210  -2.999   4.545  1.00  0.00    -0.354 N 
ATOM     39  C   UNL     1      16.325  -3.031   1.553  1.00  0.00     0.074 A 
ATOM     40  C   UNL     1      16.222  -1.883   0.678  1.00  0.00     0.031 C 
ATOM     41  C   UNL     1      11.404  -2.215   5.606  1.00  0.00     0.029 A 
ATOM     42  C   UNL     1      12.348  -3.327   5.566  1.00  0.00     0.049 A 
ATOM     43  H   UNL     1      13.970  -3.566   4.279  1.00  0.00     0.167 HD
ATOM     44  C   UNL     1      17.272  -3.995   1.442  1.00  0.00     0.037 A 
ATOM     45  C   UNL     1      12.317  -4.402   6.377  1.00  0.00     0.037 A 
ATOM     46  C   UNL     1      17.376  -5.131   2.324  1.00  0.00     0.049 A 
ATOM     47  C   UNL     1      13.375  -5.461   6.230  1.00  0.00     0.074 A 
ATOM     48  C   UNL     1      18.333  -6.131   2.330  1.00  0.00     0.029 A 
ATOM     49  N   UNL     1      16.488  -5.426   3.349  1.00  0.00    -0.354 N 
ATOM     50  N   UNL     1      14.375  -5.516   5.383  1.00  0.00    -0.248 NA
ATOM     51  C   UNL     1      13.306  -6.601   7.154  1.00  0.00     0.031 C 
ATOM     52  C   UNL     1      17.994  -7.059   3.320  1.00  0.00     0.029 A 
ATOM     53  C   UNL     1      16.859  -6.607   3.974  1.00  0.00     0.049 A 
ATOM     54  H   UNL     1      15.709  -4.877   3.596  1.00  0.00     0.167 HD
ATOM     55  C   UNL     1      15.067  -6.684   5.686  1.00  0.00     0.074 A 
ATOM     56  C   UNL     1      14.384  -7.291   6.811  1.00  0.00     0.031 C 
ATOM     57  C   UNL     1      16.166  -7.207   5.088  1.00  0.00     0.037 A 
BRANCH  44  58
ATOM     58  C   UNL     1      18.278  -3.864   0.328  1.00  0.00     0.058 A 
ATOM     59  C   UNL     1      19.256  -2.856   0.330  1.00  0.00     0.135 A 
ATOM     60  C   UNL     1      18.294  -4.785  -0.732  1.00  0.00     0.135 A 
ATOM     61  F   UNL     1      19.281  -1.939   1.310  1.00  0.00    -0.206 F 
ATOM     62  C   UNL     1      20.193  -2.748  -0.693  1.00  0.00     0.059 A 
ATOM     63  C   UNL     1      19.242  -4.715  -1.750  1.00  0.00     0.059 A 
ATOM     64  F   UNL     1      17.384  -5.771  -0.786  1.00  0.00    -0.206 F 
ATOM     65  C   UNL     1      20.179  -3.683  -1.728  1.00  0.00     0.060 A 
BRANCH  65  66
ATOM     66  S   UNL     1      21.409  -3.532  -3.042  1.00  0.00     0.124 S 
ATOM     67  O   UNL     1      20.936  -2.344  -3.747  1.00  0.00    -0.237 OA
ATOM     68  O   UNL     1      22.649  -3.370  -2.290  1.00  0.00    -0.237 OA
ATOM     69  O   UNL     1      21.281  -4.788  -3.775  1.00  0.00    -0.744 OA
ENDBRANCH  65  66
ENDBRANCH  44  58
BRANCH  45  70
ATOM     70  C   UNL     1      11.256  -4.521   7.414  1.00  0.00     0.058 A 
ATOM     71  C   UNL     1      11.563  -4.422   8.780  1.00  0.00     0.135 A 
ATOM     72  C   UNL     1       9.913  -4.725   7.061  1.00  0.00     0.135 A 
ATOM     73  F   UNL     1      12.833  -4.233   9.169  1.00  0.00    -0.206 F 
ATOM     74  C   UNL     1      10.582  -4.541   9.759  1.00  0.00     0.059 A 
ATOM     75  C   UNL     1       8.909  -4.817   8.021  1.00  0.00     0.059 A 
ATOM     76  F   UNL     1       9.562  -4.810   5.768  1.00  0.00    -0.206 F 
ATOM     77  C   UNL     1       9.256  -4.735   9.368  1.00  0.00     0.060 A 
BRANCH  77  78
ATOM     78  S   UNL     1       7.984  -4.839  10.646  1.00  0.00     0.124 S 
ATOM     79  O   UNL     1       8.259  -6.147  11.228  1.00  0.00    -0.237 OA
ATOM     80  O   UNL     1       8.299  -3.687  11.484  1.00  0.00    -0.237 OA
ATOM     81  O   UNL     1       6.740  -4.733   9.889  1.00  0.00    -0.744 OA
ENDBRANCH  77  78
ENDBRANCH  45  70
BRANCH  57  82
ATOM     82  C   UNL     1      16.712  -8.491   5.655  1.00  0.00     0.058 A 
ATOM     83  C   UNL     1      16.026  -9.710   5.522  1.00  0.00     0.135 A 
ATOM     84  C   UNL     1      17.947  -8.507   6.324  1.00  0.00     0.135 A 
ATOM     85  F   UNL     1      14.839  -9.752   4.895  1.00  0.00    -0.206 F 
ATOM     86  C   UNL     1      16.524 -10.889   6.068  1.00  0.00     0.059 A 
ATOM     87  C   UNL     1      18.480  -9.681   6.848  1.00  0.00     0.059 A 
ATOM     88  F   UNL     1      18.653  -7.375   6.469  1.00  0.00    -0.206 F 
ATOM     89  C   UNL     1      17.751 -10.863   6.732  1.00  0.00     0.060 A 
BRANCH  89  90
ATOM     90  S   UNL     1      18.388 -12.400   7.432  1.00  0.00     0.124 S 
ATOM     91  O   UNL     1      17.511 -12.584   8.584  1.00  0.00    -0.237 OA
ATOM     92  O   UNL     1      18.199 -13.345   6.335  1.00  0.00    -0.237 OA
ATOM     93  O   UNL     1      19.777 -12.082   7.746  1.00  0.00    -0.744 OA
ENDBRANCH  89  90
ENDBRANCH  57  82
ENDBRANCH  31  32
ENDBRANCH  23  26
ENDBRANCH  21  22
ENDBRANCH  20  21
ENDBRANCH   1  20
TORSDOF 17
