REMARK SMILES COC(=O)CNC(=O)N1[C@@H](C(=O)NCCCCNC(=O)c2ccc(-c3c4nc(c(-c5c(F)cc(S(=O)(=O)[O-])cc5F)c5ccc([nH]5)c(-c5c(F)cc(S(=O)(=O)[O-])cc5F)c5nc(c(-c6c(F)cc(S(=O)(=O)[O-])cc6F)c6ccc3[nH]6)C=C5)C=C4)cc2)CC[C@@H]2CCCC[C@H]21
REMARK SMILES IDX 15 1 14 2 13 3 11 4 12 5 10 7 9 8 94 9 87 10 89 11 93 12
REMARK SMILES IDX 88 13 90 14 92 15 91 16 7 17 6 18 8 20 5 21 3 22 4 23 2 24
REMARK SMILES IDX 1 25 16 26 17 27 18 28 19 29 20 31 21 32 22 33 86 34 23 35
REMARK SMILES IDX 85 36 24 37 25 38 26 39 79 40 27 41 84 42 78 43 80 44 28 45
REMARK SMILES IDX 83 46 77 47 76 48 29 50 63 51 42 52 62 53 43 54 46 55 61 56
REMARK SMILES IDX 81 57 44 58 45 59 60 61 82 62 47 63 30 64 31 65 40 66 32 67
REMARK SMILES IDX 33 68 39 69 41 70 34 71 35 72 36 73 37 74 38 75 64 76 65 77
REMARK SMILES IDX 74 78 66 79 67 80 73 81 75 82 68 83 69 84 70 85 71 86 72 87
REMARK SMILES IDX 48 88 49 89 58 90 50 91 51 92 57 93 59 94 52 95 53 96 54 97
REMARK SMILES IDX 55 98 56 99
REMARK H PARENT 13 6 6 19 18 30 80 49 46 60
REMARK Flexibility Score: inf
ROOT
ATOM      1  C   UNL     1      -1.086  -3.064   8.514  1.00  0.00     0.023 C 
ENDROOT
BRANCH   1   2
ATOM      2  C   UNL     1      -0.608  -2.344   7.255  1.00  0.00     0.116 C 
BRANCH   2   3
ATOM      3  N   UNL     1      -0.632  -3.244   6.118  1.00  0.00    -0.354 N 
ATOM      4  C   UNL     1      -1.343  -3.163   4.962  1.00  0.00     0.242 C 
ATOM      5  O   UNL     1      -1.353  -4.155   4.225  1.00  0.00    -0.273 OA
ATOM      6  H   UNL     1      -0.046  -4.031   6.195  1.00  0.00     0.163 HD
BRANCH   4   7
ATOM      7  C   UNL     1      -2.217  -1.933   4.615  1.00  0.00     0.176 C 
ATOM      8  N   UNL     1      -1.582  -0.600   4.774  1.00  0.00    -0.310 N 
ATOM      9  C   UNL     1      -2.514   0.567   4.769  1.00  0.00     0.091 C 
ATOM     10  C   UNL     1      -3.494  -2.111   5.465  1.00  0.00     0.036 C 
ATOM     11  C   UNL     1      -3.683   0.364   5.760  1.00  0.00     0.012 C 
ATOM     12  C   UNL     1      -1.886   1.965   4.968  1.00  0.00     0.025 C 
ATOM     13  C   UNL     1      -4.432  -0.924   5.419  1.00  0.00     0.008 C 
ATOM     14  C   UNL     1      -4.681   1.534   5.758  1.00  0.00     0.006 C 
ATOM     15  C   UNL     1      -2.916   3.088   4.908  1.00  0.00     0.002 C 
ATOM     16  C   UNL     1      -4.002   2.882   5.950  1.00  0.00     0.000 C 
BRANCH   8  17
ATOM     17  C   UNL     1      -0.232  -0.377   4.654  1.00  0.00     0.318 C 
ATOM     18  N   UNL     1       0.573  -1.134   3.893  1.00  0.00    -0.327 N 
ATOM     19  H   UNL     1       1.518  -1.052   4.153  1.00  0.00     0.166 HD
ATOM     20  O   UNL     1       0.345   0.511   5.287  1.00  0.00    -0.249 OA
BRANCH  18  21
ATOM     21  C   UNL     1       0.385  -2.050   2.772  1.00  0.00     0.240 C 
BRANCH  21  22
ATOM     22  C   UNL     1       0.931  -1.557   1.438  1.00  0.00     0.325 C 
ATOM     23  O   UNL     1       1.180  -2.304   0.498  1.00  0.00    -0.250 OA
BRANCH  22  24
ATOM     24  O   UNL     1       0.950  -0.197   1.368  1.00  0.00    -0.468 OA
ATOM     25  C   UNL     1       1.246   0.315   0.068  1.00  0.00     0.282 C 
ENDBRANCH  22  24
ENDBRANCH  21  22
ENDBRANCH  18  21
ENDBRANCH   8  17
ENDBRANCH   4   7
ENDBRANCH   2   3
ENDBRANCH   1   2
BRANCH   1  26
ATOM     26  C   UNL     1      -0.159  -4.185   8.988  1.00  0.00     0.023 C 
BRANCH  26  27
ATOM     27  C   UNL     1       1.280  -3.756   9.252  1.00  0.00     0.116 C 
BRANCH  27  28
ATOM     28  N   UNL     1       1.371  -2.702  10.251  1.00  0.00    -0.352 N 
ATOM     29  C   UNL     1       2.216  -2.618  11.331  1.00  0.00     0.251 C 
ATOM     30  H   UNL     1       0.746  -1.950  10.138  1.00  0.00     0.163 HD
ATOM     31  O   UNL     1       2.055  -1.743  12.176  1.00  0.00    -0.269 OA
BRANCH  29  32
ATOM     32  C   UNL     1       3.300  -3.610  11.475  1.00  0.00     0.039 A 
ATOM     33  C   UNL     1       3.461  -4.265  12.696  1.00  0.00     0.014 A 
ATOM     34  C   UNL     1       4.127  -3.915  10.390  1.00  0.00     0.014 A 
ATOM     35  C   UNL     1       4.415  -5.277  12.812  1.00  0.00     0.010 A 
ATOM     36  C   UNL     1       5.027  -4.971  10.487  1.00  0.00     0.010 A 
ATOM     37  C   UNL     1       5.181  -5.662  11.698  1.00  0.00    -0.014 A 
BRANCH  37  38
ATOM     38  C   UNL     1       6.146  -6.787  11.779  1.00  0.00     0.031 A 
ATOM     39  C   UNL     1       7.615  -6.533  11.584  1.00  0.00     0.074 A 
ATOM     40  C   UNL     1       5.691  -8.043  11.958  1.00  0.00     0.049 A 
ATOM     41  N   UNL     1       8.602  -7.390  11.545  1.00  0.00    -0.248 NA
ATOM     42  C   UNL     1       8.025  -5.135  11.377  1.00  0.00     0.031 C 
ATOM     43  C   UNL     1       4.283  -8.421  12.104  1.00  0.00     0.029 A 
ATOM     44  N   UNL     1       6.363  -9.237  12.034  1.00  0.00    -0.354 N 
ATOM     45  C   UNL     1       9.745  -6.640  11.293  1.00  0.00     0.074 A 
ATOM     46  C   UNL     1       9.322  -5.265  11.138  1.00  0.00     0.031 C 
ATOM     47  C   UNL     1       4.199  -9.751  12.271  1.00  0.00     0.029 A 
ATOM     48  C   UNL     1       5.540 -10.325  12.209  1.00  0.00     0.049 A 
ATOM     49  H   UNL     1       7.343  -9.308  11.969  1.00  0.00     0.167 HD
ATOM     50  C   UNL     1      11.032  -7.056  11.222  1.00  0.00     0.037 A 
ATOM     51  C   UNL     1       5.832 -11.636  12.303  1.00  0.00     0.037 A 
ATOM     52  C   UNL     1      11.448  -8.421  11.408  1.00  0.00     0.049 A 
ATOM     53  C   UNL     1       7.271 -12.073  12.235  1.00  0.00     0.074 A 
ATOM     54  C   UNL     1      12.732  -8.935  11.419  1.00  0.00     0.029 A 
ATOM     55  N   UNL     1      10.588  -9.489  11.617  1.00  0.00    -0.354 N 
ATOM     56  N   UNL     1       8.346 -11.341  12.063  1.00  0.00    -0.248 NA
ATOM     57  C   UNL     1       7.538 -13.510  12.382  1.00  0.00     0.031 C 
ATOM     58  C   UNL     1      12.647 -10.320  11.596  1.00  0.00     0.029 A 
ATOM     59  C   UNL     1      11.312 -10.663  11.741  1.00  0.00     0.049 A 
ATOM     60  H   UNL     1       9.607  -9.423  11.669  1.00  0.00     0.167 HD
ATOM     61  C   UNL     1       9.418 -12.224  12.107  1.00  0.00     0.074 A 
ATOM     62  C   UNL     1       8.863 -13.543  12.333  1.00  0.00     0.031 C 
ATOM     63  C   UNL     1      10.743 -11.967  11.975  1.00  0.00     0.037 A 
BRANCH  50  64
ATOM     64  C   UNL     1      12.084  -6.019  10.938  1.00  0.00     0.058 A 
ATOM     65  C   UNL     1      12.435  -5.048  11.889  1.00  0.00     0.135 A 
ATOM     66  C   UNL     1      12.771  -6.014   9.713  1.00  0.00     0.135 A 
ATOM     67  F   UNL     1      11.800  -4.996  13.070  1.00  0.00    -0.206 F 
ATOM     68  C   UNL     1      13.409  -4.090  11.625  1.00  0.00     0.059 A 
ATOM     69  C   UNL     1      13.768  -5.082   9.438  1.00  0.00     0.059 A 
ATOM     70  F   UNL     1      12.474  -6.920   8.768  1.00  0.00    -0.206 F 
ATOM     71  C   UNL     1      14.069  -4.114  10.396  1.00  0.00     0.060 A 
BRANCH  71  72
ATOM     72  S   UNL     1      15.332  -2.867  10.070  1.00  0.00     0.124 S 
ATOM     73  O   UNL     1      14.516  -1.678   9.845  1.00  0.00    -0.237 OA
ATOM     74  O   UNL     1      16.108  -2.878  11.306  1.00  0.00    -0.237 OA
ATOM     75  O   UNL     1      16.026  -3.384   8.895  1.00  0.00    -0.744 OA
ENDBRANCH  71  72
ENDBRANCH  50  64
BRANCH  51  76
ATOM     76  C   UNL     1       4.741 -12.628  12.497  1.00  0.00     0.058 A 
ATOM     77  C   UNL     1       4.576 -13.287  13.725  1.00  0.00     0.135 A 
ATOM     78  C   UNL     1       3.834 -12.925  11.469  1.00  0.00     0.135 A 
ATOM     79  F   UNL     1       5.422 -13.040  14.737  1.00  0.00    -0.206 F 
ATOM     80  C   UNL     1       3.562 -14.217  13.922  1.00  0.00     0.059 A 
ATOM     81  C   UNL     1       2.796 -13.834  11.650  1.00  0.00     0.059 A 
ATOM     82  F   UNL     1       3.937 -12.309  10.281  1.00  0.00    -0.206 F 
ATOM     83  C   UNL     1       2.674 -14.483  12.878  1.00  0.00     0.060 A 
BRANCH  83  84
ATOM     84  S   UNL     1       1.330 -15.656  13.160  1.00  0.00     0.124 S 
ATOM     85  O   UNL     1       2.041 -16.929  13.138  1.00  0.00    -0.237 OA
ATOM     86  O   UNL     1       0.820 -15.232  14.460  1.00  0.00    -0.237 OA
ATOM     87  O   UNL     1       0.432 -15.413  12.035  1.00  0.00    -0.744 OA
ENDBRANCH  83  84
ENDBRANCH  51  76
BRANCH  63  88
ATOM     88  C   UNL     1      11.690 -13.127  12.104  1.00  0.00     0.058 A 
ATOM     89  C   UNL     1      11.820 -14.089  11.091  1.00  0.00     0.135 A 
ATOM     90  C   UNL     1      12.516 -13.246  13.233  1.00  0.00     0.135 A 
ATOM     91  F   UNL     1      11.049 -14.025   9.994  1.00  0.00    -0.206 F 
ATOM     92  C   UNL     1      12.724 -15.141  11.201  1.00  0.00     0.059 A 
ATOM     93  C   UNL     1      13.445 -14.274  13.353  1.00  0.00     0.059 A 
ATOM     94  F   UNL     1      12.437 -12.346  14.227  1.00  0.00    -0.206 F 
ATOM     95  C   UNL     1      13.534 -15.224  12.336  1.00  0.00     0.060 A 
BRANCH  95  96
ATOM     96  S   UNL     1      14.729 -16.572  12.451  1.00  0.00     0.124 S 
ATOM     97  O   UNL     1      13.865 -17.705  12.763  1.00  0.00    -0.237 OA
ATOM     98  O   UNL     1      15.326 -16.576  11.119  1.00  0.00    -0.237 OA
ATOM     99  O   UNL     1      15.619 -16.145  13.527  1.00  0.00    -0.744 OA
ENDBRANCH  95  96
ENDBRANCH  63  88
ENDBRANCH  37  38
ENDBRANCH  29  32
ENDBRANCH  27  28
ENDBRANCH  26  27
ENDBRANCH   1  26
TORSDOF 18
