REMARK SMILES C[C@@H](C(=O)NCCCCNC(=O)c1ccc(-c2c3nc(c(-c4c(F)cc(S(=O)(=O)[O-])cc4F)c4ccc([nH]4)c(-c4c(F)cc(S(=O)(=O)[O-])cc4F)c4nc(c(-c5c(F)cc(S(=O)(=O)[O-])cc5F)c5ccc2[nH]5)C=C4)C=C3)cc1)c1ccc(-c2cccc(OC(=O)NCCC3CCCCC3)c2)c(F)c1
REMARK SMILES IDX 3 1 4 2 5 3 2 5 1 6 79 7 80 8 103 9 81 10 101 11 82 12
REMARK SMILES IDX 102 13 83 14 84 15 100 16 85 17 87 18 86 19 88 20 89 21
REMARK SMILES IDX 90 22 91 23 92 25 93 26 94 27 95 28 99 29 96 30 98 31 97 32
REMARK SMILES IDX 6 33 7 34 8 35 9 36 10 37 11 38 12 40 13 41 14 42 78 43
REMARK SMILES IDX 15 44 77 45 16 46 17 47 18 48 71 49 19 50 76 51 70 52 72 53
REMARK SMILES IDX 20 54 75 55 69 56 68 57 21 59 55 60 34 61 54 62 35 63 38 64
REMARK SMILES IDX 53 65 73 66 36 67 37 68 52 70 74 71 39 72 22 73 23 74 32 75
REMARK SMILES IDX 24 76 25 77 31 78 33 79 26 80 27 81 28 82 29 83 30 84 56 85
REMARK SMILES IDX 57 86 66 87 58 88 59 89 65 90 67 91 60 92 61 93 62 94 63 95
REMARK SMILES IDX 64 96 40 97 41 98 50 99 42 100 43 101 49 102 51 103 44 104
REMARK SMILES IDX 45 105 46 106 47 107 48 108
REMARK H PARENT 5 4 91 24 10 39 72 58 38 69
REMARK Flexibility Score: inf
ROOT
ATOM      1  C   UNL     1       1.083   2.299  -0.545  1.00  0.00     0.227 C 
ATOM      2  O   UNL     1       0.442   2.930  -1.387  1.00  0.00    -0.274 OA
ATOM      3  N   UNL     1       2.401   2.629  -0.401  1.00  0.00    -0.356 N 
ATOM      4  H   UNL     1       2.674   3.468  -0.837  1.00  0.00     0.163 HD
ENDROOT
BRANCH   1   5
ATOM      5  C   UNL     1       0.462   1.218   0.362  1.00  0.00     0.105 C 
ATOM      6  C   UNL     1       0.948  -0.173  -0.071  1.00  0.00     0.023 C 
BRANCH   5   7
ATOM      7  C   UNL     1      -1.067   1.298   0.437  1.00  0.00    -0.033 A 
ATOM      8  C   UNL     1      -1.723   2.535   0.576  1.00  0.00     0.005 A 
ATOM      9  C   UNL     1      -1.864   0.145   0.409  1.00  0.00     0.044 A 
ATOM     10  C   UNL     1      -3.121   2.618   0.624  1.00  0.00     0.012 A 
ATOM     11  C   UNL     1      -3.247   0.232   0.466  1.00  0.00     0.131 A 
ATOM     12  C   UNL     1      -3.906   1.461   0.572  1.00  0.00     0.018 A 
ATOM     13  F   UNL     1      -3.946  -0.915   0.437  1.00  0.00    -0.206 F 
BRANCH  12  14
ATOM     14  C   UNL     1      -5.360   1.504   0.725  1.00  0.00    -0.012 A 
ATOM     15  C   UNL     1      -6.197   2.181  -0.171  1.00  0.00     0.009 A 
ATOM     16  C   UNL     1      -5.940   0.822   1.805  1.00  0.00     0.056 A 
ATOM     17  C   UNL     1      -7.583   2.162   0.009  1.00  0.00     0.004 A 
ATOM     18  C   UNL     1      -7.314   0.819   1.998  1.00  0.00     0.133 A 
ATOM     19  C   UNL     1      -8.143   1.480   1.093  1.00  0.00     0.047 A 
BRANCH  18  20
ATOM     20  O   UNL     1      -7.953   0.171   3.084  1.00  0.00    -0.410 OA
BRANCH  20  21
ATOM     21  C   UNL     1      -7.287  -0.352   4.191  1.00  0.00     0.412 C 
ATOM     22  O   UNL     1      -6.075  -0.408   4.372  1.00  0.00    -0.224 OA
ATOM     23  N   UNL     1      -8.116  -0.818   5.165  1.00  0.00    -0.321 N 
ATOM     24  H   UNL     1      -7.679  -1.151   5.982  1.00  0.00     0.167 HD
BRANCH  23  25
ATOM     25  C   UNL     1      -9.558  -0.885   5.148  1.00  0.00     0.119 C 
BRANCH  25  26
ATOM     26  C   UNL     1     -10.040  -2.336   5.159  1.00  0.00     0.025 C 
BRANCH  26  27
ATOM     27  C   UNL     1      -9.598  -3.147   6.398  1.00  0.00    -0.009 C 
ATOM     28  C   UNL     1     -10.238  -2.618   7.692  1.00  0.00     0.003 C 
ATOM     29  C   UNL     1      -9.929  -4.634   6.193  1.00  0.00     0.003 C 
ATOM     30  C   UNL     1      -9.880  -3.474   8.904  1.00  0.00     0.000 C 
ATOM     31  C   UNL     1      -9.549  -5.472   7.411  1.00  0.00     0.000 C 
ATOM     32  C   UNL     1     -10.213  -4.944   8.677  1.00  0.00     0.000 C 
ENDBRANCH  26  27
ENDBRANCH  25  26
ENDBRANCH  23  25
ENDBRANCH  20  21
ENDBRANCH  18  20
ENDBRANCH  12  14
ENDBRANCH   5   7
ENDBRANCH   1   5
BRANCH   3  33
ATOM     33  C   UNL     1       3.455   1.925   0.300  1.00  0.00     0.116 C 
BRANCH  33  34
ATOM     34  C   UNL     1       4.272   1.071  -0.675  1.00  0.00     0.023 C 
BRANCH  34  35
ATOM     35  C   UNL     1       5.063   1.872  -1.706  1.00  0.00     0.023 C 
BRANCH  35  36
ATOM     36  C   UNL     1       6.053   2.855  -1.108  1.00  0.00     0.116 C 
BRANCH  36  37
ATOM     37  N   UNL     1       7.058   2.203  -0.278  1.00  0.00    -0.352 N 
ATOM     38  C   UNL     1       8.414   2.432  -0.262  1.00  0.00     0.251 C 
ATOM     39  H   UNL     1       6.726   1.517   0.346  1.00  0.00     0.163 HD
ATOM     40  O   UNL     1       9.166   1.710   0.381  1.00  0.00    -0.269 OA
BRANCH  38  41
ATOM     41  C   UNL     1       8.938   3.550  -1.069  1.00  0.00     0.039 A 
ATOM     42  C   UNL     1       9.941   3.305  -2.008  1.00  0.00     0.014 A 
ATOM     43  C   UNL     1       8.346   4.811  -0.963  1.00  0.00     0.014 A 
ATOM     44  C   UNL     1      10.302   4.315  -2.901  1.00  0.00     0.010 A 
ATOM     45  C   UNL     1       8.644   5.782  -1.908  1.00  0.00     0.010 A 
ATOM     46  C   UNL     1       9.625   5.545  -2.885  1.00  0.00    -0.014 A 
BRANCH  46  47
ATOM     47  C   UNL     1       9.913   6.619  -3.869  1.00  0.00     0.031 A 
ATOM     48  C   UNL     1      10.398   7.954  -3.380  1.00  0.00     0.074 A 
ATOM     49  C   UNL     1       9.622   6.437  -5.172  1.00  0.00     0.049 A 
ATOM     50  N   UNL     1      10.540   9.075  -4.036  1.00  0.00    -0.248 NA
ATOM     51  C   UNL     1      10.728   8.047  -1.949  1.00  0.00     0.031 C 
ATOM     52  C   UNL     1       9.104   5.201  -5.760  1.00  0.00     0.029 A 
ATOM     53  N   UNL     1       9.690   7.307  -6.232  1.00  0.00    -0.354 N 
ATOM     54  C   UNL     1      10.941  10.014  -3.094  1.00  0.00     0.074 A 
ATOM     55  C   UNL     1      10.968   9.342  -1.813  1.00  0.00     0.031 C 
ATOM     56  C   UNL     1       8.900   5.392  -7.073  1.00  0.00     0.029 A 
ATOM     57  C   UNL     1       9.223   6.775  -7.411  1.00  0.00     0.049 A 
ATOM     58  H   UNL     1      10.039   8.224  -6.155  1.00  0.00     0.167 HD
ATOM     59  C   UNL     1      11.272  11.314  -3.282  1.00  0.00     0.037 A 
ATOM     60  C   UNL     1       9.046   7.343  -8.621  1.00  0.00     0.037 A 
ATOM     61  C   UNL     1      11.256  11.964  -4.565  1.00  0.00     0.049 A 
ATOM     62  C   UNL     1       9.419   8.787  -8.815  1.00  0.00     0.074 A 
ATOM     63  C   UNL     1      11.637  13.256  -4.878  1.00  0.00     0.029 A 
ATOM     64  N   UNL     1      10.823  11.377  -5.747  1.00  0.00    -0.354 N 
ATOM     65  N   UNL     1       9.861   9.648  -7.929  1.00  0.00    -0.248 NA
ATOM     66  C   UNL     1       9.277   9.338 -10.169  1.00  0.00     0.031 C 
ATOM     67  C   UNL     1      11.378  13.469  -6.236  1.00  0.00     0.029 A 
ATOM     68  C   UNL     1      10.902  12.288  -6.786  1.00  0.00     0.049 A 
ATOM     69  H   UNL     1      10.507  10.448  -5.833  1.00  0.00     0.167 HD
ATOM     70  C   UNL     1      10.081  10.833  -8.624  1.00  0.00     0.074 A 
ATOM     71  C   UNL     1       9.720  10.578 -10.004  1.00  0.00     0.031 C 
ATOM     72  C   UNL     1      10.549  12.019  -8.160  1.00  0.00     0.037 A 
BRANCH  59  73
ATOM     73  C   UNL     1      11.650  12.113  -2.063  1.00  0.00     0.058 A 
ATOM     74  C   UNL     1      12.813  11.841  -1.324  1.00  0.00     0.135 A 
ATOM     75  C   UNL     1      10.825  13.158  -1.616  1.00  0.00     0.135 A 
ATOM     76  F   UNL     1      13.635  10.846  -1.696  1.00  0.00    -0.206 F 
ATOM     77  C   UNL     1      13.111  12.531  -0.153  1.00  0.00     0.059 A 
ATOM     78  C   UNL     1      11.123  13.888  -0.469  1.00  0.00     0.059 A 
ATOM     79  F   UNL     1       9.703  13.469  -2.285  1.00  0.00    -0.206 F 
ATOM     80  C   UNL     1      12.254  13.547   0.271  1.00  0.00     0.060 A 
BRANCH  80  81
ATOM     81  S   UNL     1      12.628  14.401   1.815  1.00  0.00     0.124 S 
ATOM     82  O   UNL     1      12.288  13.379   2.801  1.00  0.00    -0.237 OA
ATOM     83  O   UNL     1      14.050  14.695   1.674  1.00  0.00    -0.237 OA
ATOM     84  O   UNL     1      11.744  15.562   1.785  1.00  0.00    -0.744 OA
ENDBRANCH  80  81
ENDBRANCH  59  73
BRANCH  60  85
ATOM     85  C   UNL     1       8.501   6.523  -9.735  1.00  0.00     0.058 A 
ATOM     86  C   UNL     1       9.324   6.089 -10.784  1.00  0.00     0.135 A 
ATOM     87  C   UNL     1       7.164   6.093  -9.732  1.00  0.00     0.135 A 
ATOM     88  F   UNL     1      10.606   6.481 -10.836  1.00  0.00    -0.206 F 
ATOM     89  C   UNL     1       8.846   5.250 -11.785  1.00  0.00     0.059 A 
ATOM     90  C   UNL     1       6.669   5.234 -10.709  1.00  0.00     0.059 A 
ATOM     91  F   UNL     1       6.339   6.469  -8.742  1.00  0.00    -0.206 F 
ATOM     92  C   UNL     1       7.520   4.816 -11.731  1.00  0.00     0.060 A 
BRANCH  92  93
ATOM     93  S   UNL     1       6.943   3.642 -12.977  1.00  0.00     0.124 S 
ATOM     94  O   UNL     1       6.894   4.478 -14.170  1.00  0.00    -0.237 OA
ATOM     95  O   UNL     1       7.994   2.629 -12.948  1.00  0.00    -0.237 OA
ATOM     96  O   UNL     1       5.651   3.207 -12.456  1.00  0.00    -0.744 OA
ENDBRANCH  92  93
ENDBRANCH  60  85
BRANCH  72  97
ATOM     97  C   UNL     1      10.753  13.132  -9.152  1.00  0.00     0.058 A 
ATOM     98  C   UNL     1       9.678  13.839  -9.711  1.00  0.00     0.135 A 
ATOM     99  C   UNL     1      12.054  13.558  -9.469  1.00  0.00     0.135 A 
ATOM    100  F   UNL     1       8.415  13.469  -9.448  1.00  0.00    -0.206 F 
ATOM    101  C   UNL     1       9.885  14.927 -10.554  1.00  0.00     0.059 A 
ATOM    102  C   UNL     1      12.284  14.660 -10.286  1.00  0.00     0.059 A 
ATOM    103  F   UNL     1      13.118  12.921  -8.955  1.00  0.00    -0.206 F 
ATOM    104  C   UNL     1      11.193  15.336 -10.827  1.00  0.00     0.060 A 
BRANCH 104 105
ATOM    105  S   UNL     1      11.446  16.792 -11.865  1.00  0.00     0.124 S 
ATOM    106  O   UNL     1      11.069  16.285 -13.180  1.00  0.00    -0.237 OA
ATOM    107  O   UNL     1      10.530  17.761 -11.271  1.00  0.00    -0.237 OA
ATOM    108  O   UNL     1      12.864  17.092 -11.692  1.00  0.00    -0.744 OA
ENDBRANCH 104 105
ENDBRANCH  72  97
ENDBRANCH  46  47
ENDBRANCH  38  41
ENDBRANCH  36  37
ENDBRANCH  35  36
ENDBRANCH  34  35
ENDBRANCH  33  34
ENDBRANCH   3  33
TORSDOF 21
