REMARK SMILES CCOc1ccccc1[C@@H](O)[C@@H](C)[C@@H](C)C(=O)NCCCCNC(=O)c1ccc(-c2c3nc(c(-c4c(F)cc(S(=O)(=O)[O-])cc4F)c4ccc([nH]4)c(-c4c(F)cc(S(=O)(=O)[O-])cc4F)c4nc(c(-c5c(F)cc(S(=O)(=O)[O-])cc5F)c5ccc2[nH]5)C=C4)C=C3)cc1
REMARK SMILES IDX 19 1 18 2 16 3 17 4 14 6 15 7 12 8 13 9 10 10 9 11 4 12 5 13
REMARK SMILES IDX 6 14 8 15 7 16 3 17 2 18 1 19 11 20 20 22 21 23 22 24 23 25
REMARK SMILES IDX 24 26 25 28 26 29 27 30 91 31 28 32 90 33 29 34 30 35 31 36
REMARK SMILES IDX 84 37 32 38 89 39 83 40 85 41 33 42 88 43 82 44 81 45 34 47
REMARK SMILES IDX 68 48 47 49 67 50 48 51 51 52 66 53 86 54 49 55 50 56 65 58
REMARK SMILES IDX 87 59 52 60 35 61 36 62 45 63 37 64 38 65 44 66 46 67 39 68
REMARK SMILES IDX 40 69 41 70 42 71 43 72 69 73 70 74 79 75 71 76 72 77 78 78
REMARK SMILES IDX 80 79 73 80 74 81 75 82 76 83 77 84 53 85 54 86 63 87 55 88
REMARK SMILES IDX 56 89 62 90 64 91 57 92 58 93 59 94 60 95 61 96
REMARK H PARENT 18 5 11 21 23 27 85 46 51 57
REMARK Flexibility Score: inf
ROOT
ATOM      1  C   UNL     1       5.969   0.810   2.559  1.00  0.00     0.116 C 
ENDROOT
BRANCH   1   2
ATOM      2  N   UNL     1       5.040   1.889   2.835  1.00  0.00    -0.356 N 
ATOM      3  C   UNL     1       3.709   1.996   2.574  1.00  0.00     0.223 C 
ATOM      4  O   UNL     1       3.149   3.059   2.856  1.00  0.00    -0.275 OA
ATOM      5  H   UNL     1       5.436   2.670   3.284  1.00  0.00     0.163 HD
BRANCH   3   6
ATOM      6  C   UNL     1       2.906   0.841   1.973  1.00  0.00     0.081 C 
ATOM      7  C   UNL     1       2.723  -0.247   3.031  1.00  0.00     0.018 C 
BRANCH   6   8
ATOM      8  C   UNL     1       3.426   0.416   0.570  1.00  0.00     0.031 C 
ATOM      9  C   UNL     1       3.204   1.587  -0.409  1.00  0.00     0.011 C 
BRANCH   8  10
ATOM     10  C   UNL     1       2.888  -0.951   0.080  1.00  0.00     0.152 C 
BRANCH  10  11
ATOM     11  C   UNL     1       3.222  -1.235  -1.369  1.00  0.00     0.023 A 
ATOM     12  C   UNL     1       2.225  -1.269  -2.352  1.00  0.00     0.125 A 
ATOM     13  C   UNL     1       2.554  -1.456  -3.695  1.00  0.00     0.047 A 
ATOM     14  C   UNL     1       3.890  -1.606  -4.072  1.00  0.00     0.004 A 
ATOM     15  C   UNL     1       4.562  -1.410  -1.764  1.00  0.00     0.010 A 
ATOM     16  C   UNL     1       4.894  -1.595  -3.106  1.00  0.00     0.001 A 
BRANCH  12  17
ATOM     17  O   UNL     1       0.907  -1.256  -1.985  1.00  0.00    -0.493 OA
BRANCH  17  18
ATOM     18  C   UNL     1       0.312   0.043  -2.071  1.00  0.00     0.226 C 
ATOM     19  C   UNL     1      -0.409   0.325  -0.759  1.00  0.00     0.049 C 
ENDBRANCH  17  18
ENDBRANCH  12  17
ENDBRANCH  10  11
BRANCH  10  20
ATOM     20  O   UNL     1       3.485  -1.990   0.868  1.00  0.00    -0.388 OA
ATOM     21  H   UNL     1       4.447  -1.978   0.744  1.00  0.00     0.211 HD
ENDBRANCH  10  20
ENDBRANCH   8  10
ENDBRANCH   6   8
ENDBRANCH   3   6
ENDBRANCH   1   2
BRANCH   1  22
ATOM     22  C   UNL     1       6.824   1.105   1.321  1.00  0.00     0.023 C 
BRANCH  22  23
ATOM     23  C   UNL     1       7.868   2.200   1.513  1.00  0.00     0.023 C 
BRANCH  23  24
ATOM     24  C   UNL     1       8.794   1.984   2.697  1.00  0.00     0.116 C 
BRANCH  24  25
ATOM     25  N   UNL     1       9.457   0.689   2.674  1.00  0.00    -0.352 N 
ATOM     26  C   UNL     1      10.725   0.384   3.102  1.00  0.00     0.251 C 
ATOM     27  H   UNL     1       8.933  -0.059   2.306  1.00  0.00     0.163 HD
ATOM     28  O   UNL     1      11.198  -0.731   2.907  1.00  0.00    -0.269 OA
BRANCH  26  29
ATOM     29  C   UNL     1      11.517   1.436   3.767  1.00  0.00     0.039 A 
ATOM     30  C   UNL     1      12.818   1.684   3.328  1.00  0.00     0.014 A 
ATOM     31  C   UNL     1      10.947   2.209   4.782  1.00  0.00     0.014 A 
ATOM     32  C   UNL     1      13.535   2.744   3.882  1.00  0.00     0.010 A 
ATOM     33  C   UNL     1      11.628   3.317   5.266  1.00  0.00     0.010 A 
ATOM     34  C   UNL     1      12.937   3.582   4.837  1.00  0.00    -0.014 A 
BRANCH  34  35
ATOM     35  C   UNL     1      13.681   4.710   5.445  1.00  0.00     0.031 A 
ATOM     36  C   UNL     1      13.970   4.695   6.922  1.00  0.00     0.074 A 
ATOM     37  C   UNL     1      14.043   5.763   4.688  1.00  0.00     0.049 A 
ATOM     38  N   UNL     1      14.548   5.606   7.660  1.00  0.00    -0.248 NA
ATOM     39  C   UNL     1      13.515   3.514   7.674  1.00  0.00     0.031 C 
ATOM     40  C   UNL     1      13.763   5.916   3.259  1.00  0.00     0.029 A 
ATOM     41  N   UNL     1      14.717   6.910   5.019  1.00  0.00    -0.354 N 
ATOM     42  C   UNL     1      14.511   5.115   8.960  1.00  0.00     0.074 A 
ATOM     43  C   UNL     1      13.791   3.862   8.920  1.00  0.00     0.031 C 
ATOM     44  C   UNL     1      14.279   7.080   2.833  1.00  0.00     0.029 A 
ATOM     45  C   UNL     1      14.901   7.767   3.961  1.00  0.00     0.049 A 
ATOM     46  H   UNL     1      15.039   7.102   5.930  1.00  0.00     0.167 HD
ATOM     47  C   UNL     1      15.058   5.642  10.081  1.00  0.00     0.037 A 
ATOM     48  C   UNL     1      15.505   8.970   3.909  1.00  0.00     0.037 A 
ATOM     49  C   UNL     1      15.796   6.876  10.106  1.00  0.00     0.049 A 
ATOM     50  C   UNL     1      16.135   9.524   5.157  1.00  0.00     0.074 A 
ATOM     51  C   UNL     1      16.426   7.484  11.177  1.00  0.00     0.029 A 
ATOM     52  N   UNL     1      16.009   7.690   9.001  1.00  0.00    -0.354 N 
ATOM     53  N   UNL     1      16.139   9.023   6.370  1.00  0.00    -0.248 NA
ATOM     54  C   UNL     1      16.860  10.794   5.029  1.00  0.00     0.031 C 
ATOM     55  C   UNL     1      16.993   8.682  10.726  1.00  0.00     0.029 A 
ATOM     56  C   UNL     1      16.758   8.796   9.364  1.00  0.00     0.049 A 
ATOM     57  H   UNL     1      15.676   7.507   8.093  1.00  0.00     0.167 HD
ATOM     58  C   UNL     1      16.893   9.900   7.143  1.00  0.00     0.074 A 
ATOM     59  C   UNL     1      17.334  10.958   6.256  1.00  0.00     0.031 C 
ATOM     60  C   UNL     1      17.197   9.833   8.463  1.00  0.00     0.037 A 
BRANCH  47  61
ATOM     61  C   UNL     1      14.879   4.872  11.361  1.00  0.00     0.058 A 
ATOM     62  C   UNL     1      15.506   3.630  11.566  1.00  0.00     0.135 A 
ATOM     63  C   UNL     1      14.065   5.370  12.391  1.00  0.00     0.135 A 
ATOM     64  F   UNL     1      16.281   3.097  10.608  1.00  0.00    -0.206 F 
ATOM     65  C   UNL     1      15.294   2.890  12.724  1.00  0.00     0.059 A 
ATOM     66  C   UNL     1      13.865   4.660  13.572  1.00  0.00     0.059 A 
ATOM     67  F   UNL     1      13.442   6.550  12.250  1.00  0.00    -0.206 F 
ATOM     68  C   UNL     1      14.467   3.411  13.719  1.00  0.00     0.060 A 
BRANCH  68  69
ATOM     69  S   UNL     1      14.184   2.428  15.207  1.00  0.00     0.124 S 
ATOM     70  O   UNL     1      13.271   1.404  14.708  1.00  0.00    -0.237 OA
ATOM     71  O   UNL     1      15.528   1.970  15.540  1.00  0.00    -0.237 OA
ATOM     72  O   UNL     1      13.602   3.387  16.141  1.00  0.00    -0.744 OA
ENDBRANCH  68  69
ENDBRANCH  47  61
BRANCH  48  73
ATOM     73  C   UNL     1      15.576   9.703   2.617  1.00  0.00     0.058 A 
ATOM     74  C   UNL     1      16.784   9.808   1.912  1.00  0.00     0.135 A 
ATOM     75  C   UNL     1      14.431  10.277   2.042  1.00  0.00     0.135 A 
ATOM     76  F   UNL     1      17.906   9.278   2.422  1.00  0.00    -0.206 F 
ATOM     77  C   UNL     1      16.859  10.465   0.688  1.00  0.00     0.059 A 
ATOM     78  C   UNL     1      14.476  10.918   0.808  1.00  0.00     0.059 A 
ATOM     79  F   UNL     1      13.248  10.186   2.668  1.00  0.00    -0.206 F 
ATOM     80  C   UNL     1      15.697  11.013   0.141  1.00  0.00     0.060 A 
BRANCH  80  81
ATOM     81  S   UNL     1      15.793  11.804  -1.480  1.00  0.00     0.124 S 
ATOM     82  O   UNL     1      16.481  13.049  -1.160  1.00  0.00    -0.237 OA
ATOM     83  O   UNL     1      16.558  10.830  -2.251  1.00  0.00    -0.237 OA
ATOM     84  O   UNL     1      14.392  11.939  -1.870  1.00  0.00    -0.744 OA
ENDBRANCH  80  81
ENDBRANCH  48  73
BRANCH  60  85
ATOM     85  C   UNL     1      18.089  10.906   9.021  1.00  0.00     0.058 A 
ATOM     86  C   UNL     1      17.634  12.218   9.225  1.00  0.00     0.135 A 
ATOM     87  C   UNL     1      19.407  10.602   9.400  1.00  0.00     0.135 A 
ATOM     88  F   UNL     1      16.383  12.561   8.877  1.00  0.00    -0.206 F 
ATOM     89  C   UNL     1      18.464  13.199   9.758  1.00  0.00     0.059 A 
ATOM     90  C   UNL     1      20.245  11.560   9.960  1.00  0.00     0.059 A 
ATOM     91  F   UNL     1      19.887   9.359   9.238  1.00  0.00    -0.206 F 
ATOM     92  C   UNL     1      19.769  12.860  10.121  1.00  0.00     0.060 A 
BRANCH  92  93
ATOM     93  S   UNL     1      20.831  14.136  10.831  1.00  0.00     0.124 S 
ATOM     94  O   UNL     1      21.172  14.922   9.651  1.00  0.00    -0.237 OA
ATOM     95  O   UNL     1      19.942  14.785  11.791  1.00  0.00    -0.237 OA
ATOM     96  O   UNL     1      21.929  13.374  11.419  1.00  0.00    -0.744 OA
ENDBRANCH  92  93
ENDBRANCH  60  85
ENDBRANCH  34  35
ENDBRANCH  26  29
ENDBRANCH  24  25
ENDBRANCH  23  24
ENDBRANCH  22  23
ENDBRANCH   1  22
TORSDOF 20
