REMARK SMILES O=C(NCCCCNC(=O)c1ccccc1NC(=O)c1ccc(N2C(=O)[C@H]3CC=CC[C@H]3C2=O)cc1)c1ccc(-c2c3nc(c(-c4c(F)cc(S(=O)(=O)[O-])cc4F)c4ccc([nH]4)c(-c4c(F)cc(S(=O)(=O)[O-])cc4F)c4nc(c(-c5c(F)cc(S(=O)(=O)[O-])cc5F)c5ccc2[nH]5)C=C4)C=C3)cc1
REMARK SMILES IDX 5 1 4 2 3 3 1 4 2 5 37 7 38 8 102 9 39 10 101 11 40 12 41 13
REMARK SMILES IDX 42 14 95 15 43 16 100 17 94 18 96 19 44 20 99 21 93 22 92 23
REMARK SMILES IDX 45 25 79 26 58 27 78 28 59 29 62 30 77 31 97 32 60 33 61 34
REMARK SMILES IDX 76 36 98 37 63 38 46 39 47 40 56 41 48 42 49 43 55 44 57 45
REMARK SMILES IDX 50 46 51 47 52 48 53 49 54 50 80 51 81 52 90 53 82 54 83 55
REMARK SMILES IDX 89 56 91 57 84 58 85 59 86 60 87 61 88 62 64 63 65 64 74 65
REMARK SMILES IDX 66 66 67 67 73 68 75 69 68 70 69 71 70 72 71 73 72 74 6 75
REMARK SMILES IDX 7 76 8 77 9 78 10 80 11 81 12 82 16 83 13 84 15 85 14 86
REMARK SMILES IDX 17 87 18 88 19 90 20 91 21 92 36 93 22 94 35 95 23 96 24 97
REMARK SMILES IDX 25 98 33 99 26 100 27 101 32 102 34 103 28 104 31 105 29 106
REMARK SMILES IDX 30 107
REMARK H PARENT 3 6 96 24 62 35 8 79 17 89
REMARK Flexibility Score: inf
ROOT
ATOM      1  C   UNL     1       4.820   0.147  -2.678  1.00  0.00     0.023 C 
ENDROOT
BRANCH   1   2
ATOM      2  C   UNL     1       4.525   0.536  -1.236  1.00  0.00     0.116 C 
BRANCH   2   3
ATOM      3  N   UNL     1       3.103   0.578  -0.930  1.00  0.00    -0.352 N 
ATOM      4  O   UNL     1       1.180  -0.037   0.080  1.00  0.00    -0.269 OA
ATOM      5  C   UNL     1       2.407  -0.092   0.051  1.00  0.00     0.251 C 
ATOM      6  H   UNL     1       2.563   1.167  -1.506  1.00  0.00     0.163 HD
BRANCH   5   7
ATOM      7  C   UNL     1       3.141  -0.906   1.045  1.00  0.00     0.039 A 
ATOM      8  C   UNL     1       4.295  -0.409   1.652  1.00  0.00     0.014 A 
ATOM      9  C   UNL     1       2.689  -2.194   1.351  1.00  0.00     0.014 A 
ATOM     10  C   UNL     1       5.089  -1.255   2.414  1.00  0.00     0.010 A 
ATOM     11  C   UNL     1       3.439  -3.010   2.206  1.00  0.00     0.010 A 
ATOM     12  C   UNL     1       4.667  -2.563   2.713  1.00  0.00    -0.014 A 
BRANCH  12  13
ATOM     13  C   UNL     1       5.517  -3.397   3.604  1.00  0.00     0.031 A 
ATOM     14  C   UNL     1       6.168  -4.664   3.118  1.00  0.00     0.074 A 
ATOM     15  C   UNL     1       5.760  -2.948   4.852  1.00  0.00     0.049 A 
ATOM     16  N   UNL     1       7.003  -5.452   3.749  1.00  0.00    -0.248 NA
ATOM     17  C   UNL     1       5.838  -5.115   1.757  1.00  0.00     0.031 C 
ATOM     18  C   UNL     1       5.158  -1.749   5.444  1.00  0.00     0.029 A 
ATOM     19  N   UNL     1       6.596  -3.415   5.832  1.00  0.00    -0.354 N 
ATOM     20  C   UNL     1       7.290  -6.492   2.873  1.00  0.00     0.074 A 
ATOM     21  C   UNL     1       6.517  -6.252   1.673  1.00  0.00     0.031 C 
ATOM     22  C   UNL     1       5.695  -1.538   6.654  1.00  0.00     0.029 A 
ATOM     23  C   UNL     1       6.631  -2.615   6.950  1.00  0.00     0.049 A 
ATOM     24  H   UNL     1       7.121  -4.243   5.744  1.00  0.00     0.167 HD
ATOM     25  C   UNL     1       8.129  -7.543   3.051  1.00  0.00     0.037 A 
ATOM     26  C   UNL     1       7.332  -2.734   8.092  1.00  0.00     0.037 A 
ATOM     27  C   UNL     1       8.905  -7.767   4.245  1.00  0.00     0.049 A 
ATOM     28  C   UNL     1       8.272  -3.892   8.250  1.00  0.00     0.074 A 
ATOM     29  C   UNL     1       9.785  -8.801   4.520  1.00  0.00     0.029 A 
ATOM     30  N   UNL     1       8.903  -6.942   5.361  1.00  0.00    -0.354 N 
ATOM     31  N   UNL     1       8.532  -4.860   7.404  1.00  0.00    -0.248 NA
ATOM     32  C   UNL     1       9.012  -3.976   9.515  1.00  0.00     0.031 C 
ATOM     33  C   UNL     1      10.294  -8.616   5.811  1.00  0.00     0.029 A 
ATOM     34  C   UNL     1       9.761  -7.446   6.327  1.00  0.00     0.049 A 
ATOM     35  H   UNL     1       8.371  -6.119   5.452  1.00  0.00     0.167 HD
ATOM     36  C   UNL     1       9.462  -5.674   8.038  1.00  0.00     0.074 A 
ATOM     37  C   UNL     1       9.747  -5.062   9.320  1.00  0.00     0.031 C 
ATOM     38  C   UNL     1      10.019  -6.831   7.604  1.00  0.00     0.037 A 
BRANCH  25  39
ATOM     39  C   UNL     1       8.256  -8.538   1.929  1.00  0.00     0.058 A 
ATOM     40  C   UNL     1       8.968  -8.237   0.757  1.00  0.00     0.135 A 
ATOM     41  C   UNL     1       7.716  -9.829   2.052  1.00  0.00     0.135 A 
ATOM     42  F   UNL     1       9.492  -7.014   0.581  1.00  0.00    -0.206 F 
ATOM     43  C   UNL     1       9.129  -9.175  -0.259  1.00  0.00     0.059 A 
ATOM     44  C   UNL     1       7.882 -10.790   1.057  1.00  0.00     0.059 A 
ATOM     45  F   UNL     1       7.026 -10.171   3.151  1.00  0.00    -0.206 F 
ATOM     46  C   UNL     1       8.582 -10.450  -0.099  1.00  0.00     0.060 A 
BRANCH  46  47
ATOM     47  S   UNL     1       8.817 -11.662  -1.418  1.00  0.00     0.124 S 
ATOM     48  O   UNL     1       7.892 -11.169  -2.434  1.00  0.00    -0.237 OA
ATOM     49  O   UNL     1      10.235 -11.516  -1.730  1.00  0.00    -0.237 OA
ATOM     50  O   UNL     1       8.444 -12.925  -0.789  1.00  0.00    -0.744 OA
ENDBRANCH  46  47
ENDBRANCH  25  39
BRANCH  26  51
ATOM     51  C   UNL     1       7.152  -1.732   9.173  1.00  0.00     0.058 A 
ATOM     52  C   UNL     1       8.164  -0.816   9.494  1.00  0.00     0.135 A 
ATOM     53  C   UNL     1       5.946  -1.655   9.887  1.00  0.00     0.135 A 
ATOM     54  F   UNL     1       9.335  -0.852   8.839  1.00  0.00    -0.206 F 
ATOM     55  C   UNL     1       7.994   0.133  10.498  1.00  0.00     0.059 A 
ATOM     56  C   UNL     1       5.742  -0.698  10.875  1.00  0.00     0.059 A 
ATOM     57  F   UNL     1       4.940  -2.495   9.601  1.00  0.00    -0.206 F 
ATOM     58  C   UNL     1       6.778   0.183  11.182  1.00  0.00     0.060 A 
BRANCH  58  59
ATOM     59  S   UNL     1       6.539   1.445  12.451  1.00  0.00     0.124 S 
ATOM     60  O   UNL     1       7.246   0.857  13.583  1.00  0.00    -0.237 OA
ATOM     61  O   UNL     1       7.165   2.618  11.847  1.00  0.00    -0.237 OA
ATOM     62  O   UNL     1       5.087   1.517  12.579  1.00  0.00    -0.744 OA
ENDBRANCH  58  59
ENDBRANCH  26  51
BRANCH  38  63
ATOM     63  C   UNL     1      10.989  -7.502   8.534  1.00  0.00     0.058 A 
ATOM     64  C   UNL     1      10.550  -8.171   9.687  1.00  0.00     0.135 A 
ATOM     65  C   UNL     1      12.368  -7.473   8.273  1.00  0.00     0.135 A 
ATOM     66  F   UNL     1       9.242  -8.220   9.983  1.00  0.00    -0.206 F 
ATOM     67  C   UNL     1      11.449  -8.757  10.572  1.00  0.00     0.059 A 
ATOM     68  C   UNL     1      13.283  -8.073   9.132  1.00  0.00     0.059 A 
ATOM     69  F   UNL     1      12.837  -6.854   7.178  1.00  0.00    -0.206 F 
ATOM     70  C   UNL     1      12.815  -8.695  10.289  1.00  0.00     0.060 A 
BRANCH  70  71
ATOM     71  S   UNL     1      13.975  -9.453  11.446  1.00  0.00     0.124 S 
ATOM     72  O   UNL     1      14.026  -8.452  12.506  1.00  0.00    -0.237 OA
ATOM     73  O   UNL     1      13.309 -10.706  11.788  1.00  0.00    -0.237 OA
ATOM     74  O   UNL     1      15.195  -9.595  10.656  1.00  0.00    -0.744 OA
ENDBRANCH  70  71
ENDBRANCH  38  63
ENDBRANCH  12  13
ENDBRANCH   5   7
ENDBRANCH   2   3
ENDBRANCH   1   2
BRANCH   1  75
ATOM     75  C   UNL     1       4.323   1.124  -3.740  1.00  0.00     0.023 C 
BRANCH  75  76
ATOM     76  C   UNL     1       4.692   2.585  -3.506  1.00  0.00     0.116 C 
BRANCH  76  77
ATOM     77  N   UNL     1       6.122   2.782  -3.326  1.00  0.00    -0.352 N 
ATOM     78  C   UNL     1       6.987   3.581  -4.023  1.00  0.00     0.253 C 
ATOM     79  H   UNL     1       6.527   2.264  -2.594  1.00  0.00     0.163 HD
ATOM     80  O   UNL     1       8.194   3.522  -3.807  1.00  0.00    -0.269 OA
BRANCH  78  81
ATOM     81  C   UNL     1       6.484   4.524  -5.041  1.00  0.00     0.063 A 
ATOM     82  C   UNL     1       7.015   4.363  -6.332  1.00  0.00     0.016 A 
ATOM     83  C   UNL     1       5.572   5.559  -4.745  1.00  0.00     0.054 A 
ATOM     84  C   UNL     1       6.635   5.225  -7.353  1.00  0.00     0.001 A 
ATOM     85  C   UNL     1       5.261   6.450  -5.777  1.00  0.00     0.027 A 
ATOM     86  C   UNL     1       5.768   6.274  -7.072  1.00  0.00     0.002 A 
BRANCH  83  87
ATOM     87  N   UNL     1       5.035   5.651  -3.435  1.00  0.00    -0.321 N 
ATOM     88  C   UNL     1       3.952   6.299  -2.889  1.00  0.00     0.255 C 
ATOM     89  H   UNL     1       5.551   5.139  -2.772  1.00  0.00     0.170 HD
ATOM     90  O   UNL     1       3.725   6.218  -1.684  1.00  0.00    -0.269 OA
BRANCH  88  91
ATOM     91  C   UNL     1       3.028   7.086  -3.713  1.00  0.00     0.040 A 
ATOM     92  C   UNL     1       3.004   8.463  -3.520  1.00  0.00     0.016 A 
ATOM     93  C   UNL     1       2.247   6.495  -4.707  1.00  0.00     0.016 A 
ATOM     94  C   UNL     1       2.313   9.269  -4.425  1.00  0.00     0.027 A 
ATOM     95  C   UNL     1       1.548   7.313  -5.604  1.00  0.00     0.027 A 
ATOM     96  C   UNL     1       1.627   8.716  -5.519  1.00  0.00     0.052 A 
BRANCH  96  97
ATOM     97  N   UNL     1       1.123   9.546  -6.565  1.00  0.00    -0.250 N 
ATOM     98  C   UNL     1       1.618  10.799  -6.852  1.00  0.00     0.238 C 
ATOM     99  C   UNL     1       0.147   9.170  -7.455  1.00  0.00     0.238 C 
ATOM    100  O   UNL     1       2.471  11.442  -6.252  1.00  0.00    -0.274 OA
ATOM    101  C   UNL     1       0.980  11.320  -8.116  1.00  0.00     0.096 C 
ATOM    102  C   UNL     1       0.012  10.217  -8.534  1.00  0.00     0.096 C 
ATOM    103  O   UNL     1      -0.573   8.179  -7.421  1.00  0.00    -0.274 OA
ATOM    104  C   UNL     1       2.071  11.680  -9.132  1.00  0.00     0.041 C 
ATOM    105  C   UNL     1       0.262   9.573  -9.902  1.00  0.00     0.041 C 
ATOM    106  C   UNL     1       2.552  10.500  -9.920  1.00  0.00    -0.030 C 
ATOM    107  C   UNL     1       1.712   9.520 -10.275  1.00  0.00    -0.030 C 
ENDBRANCH  96  97
ENDBRANCH  88  91
ENDBRANCH  83  87
ENDBRANCH  78  81
ENDBRANCH  76  77
ENDBRANCH  75  76
ENDBRANCH   1  75
TORSDOF 17
