REMARK SMILES CC[C@@H]1CCCN1c1cc(C)c(N)c(C(=O)NCCCCNC(=O)c2ccc(-c3c4nc(c(-c5c(F)cc(S(=O)(=O)[O-])cc5F)c5ccc([nH]5)c(-c5c(F)cc(S(=O)(=O)[O-])cc5F)c5nc(c(-c6c(F)cc(S(=O)(=O)[O-])cc6F)c6ccc3[nH]6)C=C5)C=C4)cc2)c1
REMARK SMILES IDX 20 1 19 2 18 3 17 4 15 5 16 6 14 8 8 9 9 10 91 11 10 12
REMARK SMILES IDX 11 13 12 14 7 15 3 16 4 17 5 18 6 19 2 20 1 21 13 22 21 25
REMARK SMILES IDX 22 26 23 27 24 29 25 30 26 31 90 32 27 33 89 34 28 35 29 36
REMARK SMILES IDX 30 37 83 38 31 39 88 40 82 41 84 42 32 43 87 44 81 45 80 46
REMARK SMILES IDX 33 48 67 49 46 50 66 51 47 52 50 53 65 54 85 55 48 56 49 57
REMARK SMILES IDX 64 59 86 60 51 61 34 62 35 63 44 64 36 65 37 66 43 67 45 68
REMARK SMILES IDX 38 69 39 70 40 71 41 72 42 73 68 74 69 75 78 76 70 77 71 78
REMARK SMILES IDX 77 79 79 80 72 81 73 82 74 83 75 84 76 85 52 86 53 87 62 88
REMARK SMILES IDX 54 89 55 90 61 91 63 92 56 93 57 94 58 95 59 96 60 97
REMARK H PARENT 17 7 13 23 13 24 22 28 84 47 50 58
REMARK Flexibility Score: inf
ROOT
ATOM      1  C   UNL     1       3.711  -2.437   6.203  1.00  0.00     0.023 C 
ENDROOT
BRANCH   1   2
ATOM      2  C   UNL     1       2.676  -2.596   5.082  1.00  0.00     0.023 C 
BRANCH   2   3
ATOM      3  C   UNL     1       1.284  -3.009   5.571  1.00  0.00     0.116 C 
BRANCH   3   4
ATOM      4  N   UNL     1       0.576  -1.858   6.091  1.00  0.00    -0.352 N 
ATOM      5  C   UNL     1      -0.267  -0.931   5.527  1.00  0.00     0.253 C 
ATOM      6  O   UNL     1      -0.630  -0.021   6.279  1.00  0.00    -0.269 OA
ATOM      7  H   UNL     1       0.730  -1.708   7.051  1.00  0.00     0.163 HD
BRANCH   5   8
ATOM      8  C   UNL     1      -0.783  -0.981   4.113  1.00  0.00     0.065 A 
ATOM      9  C   UNL     1      -0.655  -1.812   1.809  1.00  0.00     0.038 A 
ATOM     10  C   UNL     1      -1.831  -1.126   1.518  1.00  0.00     0.031 A 
ATOM     11  C   UNL     1      -0.122  -1.681   3.092  1.00  0.00     0.042 A 
ATOM     12  C   UNL     1      -2.481  -0.333   2.476  1.00  0.00    -0.025 A 
ATOM     13  C   UNL     1      -3.733   0.399   2.075  1.00  0.00     0.046 C 
ATOM     14  C   UNL     1      -1.965  -0.258   3.787  1.00  0.00     0.047 A 
BRANCH   9  15
ATOM     15  N   UNL     1      -0.095  -2.646   0.877  1.00  0.00    -0.369 N 
ATOM     16  C   UNL     1       0.835  -2.276  -0.189  1.00  0.00     0.082 C 
ATOM     17  C   UNL     1       0.766  -3.536  -1.067  1.00  0.00     0.027 C 
ATOM     18  C   UNL     1       0.729  -4.664  -0.043  1.00  0.00     0.024 C 
ATOM     19  C   UNL     1      -0.069  -4.088   1.128  1.00  0.00     0.117 C 
BRANCH  16  20
ATOM     20  C   UNL     1       0.473  -1.024  -0.988  1.00  0.00     0.021 C 
ATOM     21  C   UNL     1       0.990   0.253  -0.336  1.00  0.00     0.006 C 
ENDBRANCH  16  20
ENDBRANCH   9  15
BRANCH  14  22
ATOM     22  N   UNL     1      -2.717   0.395   4.773  1.00  0.00    -0.398 N 
ATOM     23  H   UNL     1      -3.531   0.889   4.525  1.00  0.00     0.156 HD
ATOM     24  H   UNL     1      -2.431   0.359   5.715  1.00  0.00     0.156 HD
ENDBRANCH  14  22
ENDBRANCH   5   8
ENDBRANCH   3   4
ENDBRANCH   2   3
ENDBRANCH   1   2
BRANCH   1  25
ATOM     25  C   UNL     1       4.047  -3.725   6.948  1.00  0.00     0.116 C 
BRANCH  25  26
ATOM     26  N   UNL     1       4.540  -4.779   6.074  1.00  0.00    -0.352 N 
ATOM     27  C   UNL     1       5.364  -5.834   6.389  1.00  0.00     0.251 C 
ATOM     28  H   UNL     1       4.246  -4.730   5.136  1.00  0.00     0.163 HD
ATOM     29  O   UNL     1       5.773  -6.580   5.516  1.00  0.00    -0.269 OA
BRANCH  27  30
ATOM     30  C   UNL     1       5.784  -6.016   7.796  1.00  0.00     0.039 A 
ATOM     31  C   UNL     1       7.146  -6.146   8.075  1.00  0.00     0.014 A 
ATOM     32  C   UNL     1       4.843  -6.020   8.829  1.00  0.00     0.014 A 
ATOM     33  C   UNL     1       7.572  -6.212   9.403  1.00  0.00     0.010 A 
ATOM     34  C   UNL     1       5.274  -6.026  10.152  1.00  0.00     0.010 A 
ATOM     35  C   UNL     1       6.642  -6.118  10.451  1.00  0.00    -0.014 A 
BRANCH  35  36
ATOM     36  C   UNL     1       7.082  -6.103  11.867  1.00  0.00     0.031 A 
ATOM     37  C   UNL     1       6.706  -7.231  12.785  1.00  0.00     0.074 A 
ATOM     38  C   UNL     1       7.756  -5.036  12.341  1.00  0.00     0.049 A 
ATOM     39  N   UNL     1       6.931  -7.362  14.067  1.00  0.00    -0.248 NA
ATOM     40  C   UNL     1       5.954  -8.347  12.189  1.00  0.00     0.031 C 
ATOM     41  C   UNL     1       8.128  -3.854  11.559  1.00  0.00     0.029 A 
ATOM     42  N   UNL     1       8.235  -4.766  13.597  1.00  0.00    -0.354 N 
ATOM     43  C   UNL     1       6.334  -8.562  14.435  1.00  0.00     0.074 A 
ATOM     44  C   UNL     1       5.699  -9.099  13.250  1.00  0.00     0.031 C 
ATOM     45  C   UNL     1       8.791  -2.995  12.349  1.00  0.00     0.029 A 
ATOM     46  C   UNL     1       8.865  -3.548  13.698  1.00  0.00     0.049 A 
ATOM     47  H   UNL     1       8.137  -5.386  14.356  1.00  0.00     0.167 HD
ATOM     48  C   UNL     1       6.334  -9.170  15.645  1.00  0.00     0.037 A 
ATOM     49  C   UNL     1       9.434  -2.944  14.759  1.00  0.00     0.037 A 
ATOM     50  C   UNL     1       6.995  -8.646  16.811  1.00  0.00     0.049 A 
ATOM     51  C   UNL     1       9.445  -3.652  16.086  1.00  0.00     0.074 A 
ATOM     52  C   UNL     1       7.108  -9.216  18.066  1.00  0.00     0.029 A 
ATOM     53  N   UNL     1       7.657  -7.428  16.863  1.00  0.00    -0.354 N 
ATOM     54  N   UNL     1       8.931  -4.817  16.401  1.00  0.00    -0.248 NA
ATOM     55  C   UNL     1      10.118  -2.969  17.199  1.00  0.00     0.031 C 
ATOM     56  C   UNL     1       7.814  -8.330  18.887  1.00  0.00     0.029 A 
ATOM     57  C   UNL     1       8.172  -7.224  18.133  1.00  0.00     0.049 A 
ATOM     58  H   UNL     1       7.749  -6.802  16.109  1.00  0.00     0.167 HD
ATOM     59  C   UNL     1       9.239  -5.017  17.742  1.00  0.00     0.074 A 
ATOM     60  C   UNL     1       9.993  -3.857  18.175  1.00  0.00     0.031 C 
ATOM     61  C   UNL     1       8.927  -6.066  18.542  1.00  0.00     0.037 A 
BRANCH  48  62
ATOM     62  C   UNL     1       5.601 -10.477  15.762  1.00  0.00     0.058 A 
ATOM     63  C   UNL     1       6.097 -11.652  15.174  1.00  0.00     0.135 A 
ATOM     64  C   UNL     1       4.402 -10.563  16.488  1.00  0.00     0.135 A 
ATOM     65  F   UNL     1       7.231 -11.622  14.456  1.00  0.00    -0.206 F 
ATOM     66  C   UNL     1       5.413 -12.859  15.273  1.00  0.00     0.059 A 
ATOM     67  C   UNL     1       3.714 -11.766  16.621  1.00  0.00     0.059 A 
ATOM     68  F   UNL     1       3.884  -9.470  17.070  1.00  0.00    -0.206 F 
ATOM     69  C   UNL     1       4.220 -12.905  15.995  1.00  0.00     0.060 A 
BRANCH  69  70
ATOM     70  S   UNL     1       3.341 -14.477  16.111  1.00  0.00     0.124 S 
ATOM     71  O   UNL     1       2.739 -14.571  14.784  1.00  0.00    -0.237 OA
ATOM     72  O   UNL     1       4.419 -15.422  16.384  1.00  0.00    -0.237 OA
ATOM     73  O   UNL     1       2.406 -14.263  17.211  1.00  0.00    -0.744 OA
ENDBRANCH  69  70
ENDBRANCH  48  62
BRANCH  49  74
ATOM     74  C   UNL     1      10.068  -1.609  14.600  1.00  0.00     0.058 A 
ATOM     75  C   UNL     1      11.463  -1.471  14.610  1.00  0.00     0.135 A 
ATOM     76  C   UNL     1       9.295  -0.453  14.415  1.00  0.00     0.135 A 
ATOM     77  F   UNL     1      12.242  -2.549  14.788  1.00  0.00    -0.206 F 
ATOM     78  C   UNL     1      12.073  -0.231  14.456  1.00  0.00     0.059 A 
ATOM     79  C   UNL     1       9.883   0.796  14.237  1.00  0.00     0.059 A 
ATOM     80  F   UNL     1       7.956  -0.536  14.379  1.00  0.00    -0.206 F 
ATOM     81  C   UNL     1      11.273   0.898  14.268  1.00  0.00     0.060 A 
BRANCH  81  82
ATOM     82  S   UNL     1      12.075   2.497  14.015  1.00  0.00     0.124 S 
ATOM     83  O   UNL     1      12.499   2.830  15.370  1.00  0.00    -0.237 OA
ATOM     84  O   UNL     1      13.141   2.162  13.075  1.00  0.00    -0.237 OA
ATOM     85  O   UNL     1      11.004   3.323  13.465  1.00  0.00    -0.744 OA
ENDBRANCH  81  82
ENDBRANCH  49  74
BRANCH  61  86
ATOM     86  C   UNL     1       9.424  -6.024  19.959  1.00  0.00     0.058 A 
ATOM     87  C   UNL     1       8.826  -5.198  20.923  1.00  0.00     0.135 A 
ATOM     88  C   UNL     1      10.476  -6.858  20.367  1.00  0.00     0.135 A 
ATOM     89  F   UNL     1       7.822  -4.376  20.579  1.00  0.00    -0.206 F 
ATOM     90  C   UNL     1       9.267  -5.187  22.242  1.00  0.00     0.059 A 
ATOM     91  C   UNL     1      10.918  -6.881  21.686  1.00  0.00     0.059 A 
ATOM     92  F   UNL     1      11.075  -7.673  19.485  1.00  0.00    -0.206 F 
ATOM     93  C   UNL     1      10.314  -6.033  22.614  1.00  0.00     0.060 A 
BRANCH  93  94
ATOM     94  S   UNL     1      10.854  -6.040  24.337  1.00  0.00     0.124 S 
ATOM     95  O   UNL     1      11.637  -4.811  24.403  1.00  0.00    -0.237 OA
ATOM     96  O   UNL     1       9.588  -6.025  25.064  1.00  0.00    -0.237 OA
ATOM     97  O   UNL     1      11.617  -7.279  24.447  1.00  0.00    -0.744 OA
ENDBRANCH  93  94
ENDBRANCH  61  86
ENDBRANCH  35  36
ENDBRANCH  27  30
ENDBRANCH  25  26
ENDBRANCH   1  25
TORSDOF 17
