REMARK SMILES COc1cc(Cl)c2c(c1)C=C(C(=O)NCCCCNC(=O)c1ccc(-c3c4nc(c(-c5c(F)cc(S(=O)(=O)[O-])cc5F)c5ccc([nH]5)c(-c5c(F)cc(S(=O)(=O)[O-])cc5F)c5nc(c(-c6c(F)cc(S(=O)(=O)[O-])cc6F)c6ccc3[nH]6)C=C5)C=C4)cc1)[C@@H](C(F)(F)F)O2
REMARK SMILES IDX 17 1 16 2 15 3 14 4 12 5 13 6 11 8 3 9 4 10 9 11 5 12 8 13
REMARK SMILES IDX 6 14 7 15 10 16 93 17 88 18 2 19 1 20 89 21 90 22 91 23
REMARK SMILES IDX 92 24 18 25 19 26 20 27 21 29 22 30 23 31 87 32 24 33 86 34
REMARK SMILES IDX 25 35 26 36 27 37 80 38 28 39 85 40 79 41 81 42 29 43 84 44
REMARK SMILES IDX 78 45 77 46 30 48 64 49 43 50 63 51 44 52 47 53 62 54 82 55
REMARK SMILES IDX 45 56 46 57 61 59 83 60 48 61 31 62 32 63 41 64 33 65 34 66
REMARK SMILES IDX 40 67 42 68 35 69 36 70 37 71 38 72 39 73 65 74 66 75 75 76
REMARK SMILES IDX 67 77 68 78 74 79 76 80 69 81 70 82 71 83 72 84 73 85 49 86
REMARK SMILES IDX 50 87 59 88 51 89 52 90 58 91 60 92 53 93 54 94 55 95 56 96
REMARK SMILES IDX 57 97
REMARK H PARENT 14 7 19 28 81 47 47 58
REMARK Flexibility Score: inf
ROOT
ATOM      1  C   UNL     1       0.637   8.259   8.837  1.00  0.00     0.023 C 
ENDROOT
BRANCH   1   2
ATOM      2  C   UNL     1       1.255   7.120   8.020  1.00  0.00     0.023 C 
BRANCH   2   3
ATOM      3  C   UNL     1       0.558   5.775   8.200  1.00  0.00     0.116 C 
BRANCH   3   4
ATOM      4  N   UNL     1      -0.587   5.634   7.319  1.00  0.00    -0.352 N 
ATOM      5  C   UNL     1      -0.856   5.029   6.140  1.00  0.00     0.251 C 
ATOM      6  O   UNL     1      -2.007   5.180   5.720  1.00  0.00    -0.270 OA
ATOM      7  H   UNL     1      -1.377   6.103   7.674  1.00  0.00     0.163 HD
BRANCH   5   8
ATOM      8  C   UNL     1       0.112   4.214   5.346  1.00  0.00     0.067 C 
ATOM      9  C   UNL     1       0.856   1.526   1.389  1.00  0.00     0.121 A 
ATOM     10  C   UNL     1       2.192   1.351   1.747  1.00  0.00     0.070 A 
ATOM     11  C   UNL     1       0.037   2.355   2.163  1.00  0.00     0.058 A 
ATOM     12  C   UNL     1       2.695   1.983   2.888  1.00  0.00     0.087 A 
ATOM     13  C   UNL     1       0.532   2.974   3.314  1.00  0.00     0.022 A 
ATOM     14  Cl  UNL     1       4.356   1.738   3.297  1.00  0.00    -0.080 Cl
ATOM     15  C   UNL     1       1.864   2.780   3.682  1.00  0.00     0.146 A 
ATOM     16  C   UNL     1      -0.319   3.833   4.128  1.00  0.00     0.025 C 
ATOM     17  O   UNL     1       2.395   3.394   4.784  1.00  0.00    -0.474 OA
ATOM     18  C   UNL     1       1.458   3.761   5.836  1.00  0.00     0.314 C 
BRANCH   9  19
ATOM     19  O   UNL     1       0.246   0.967   0.300  1.00  0.00    -0.497 OA
ATOM     20  C   UNL     1       0.883  -0.177  -0.258  1.00  0.00     0.278 C 
ENDBRANCH   9  19
BRANCH  18  21
ATOM     21  C   UNL     1       1.364   2.612   6.858  1.00  0.00     0.429 C 
ATOM     22  F   UNL     1       2.553   2.436   7.487  1.00  0.00    -0.167 F 
ATOM     23  F   UNL     1       0.448   2.848   7.825  1.00  0.00    -0.167 F 
ATOM     24  F   UNL     1       1.034   1.433   6.281  1.00  0.00    -0.167 F 
ENDBRANCH  18  21
ENDBRANCH   5   8
ENDBRANCH   3   4
ENDBRANCH   2   3
ENDBRANCH   1   2
BRANCH   1  25
ATOM     25  C   UNL     1       0.556   8.020  10.344  1.00  0.00     0.116 C 
BRANCH  25  26
ATOM     26  N   UNL     1       1.824   7.631  10.945  1.00  0.00    -0.352 N 
ATOM     27  C   UNL     1       2.241   7.864  12.235  1.00  0.00     0.251 C 
ATOM     28  H   UNL     1       2.453   7.147  10.363  1.00  0.00     0.163 HD
ATOM     29  O   UNL     1       3.358   7.530  12.611  1.00  0.00    -0.269 OA
BRANCH  27  30
ATOM     30  C   UNL     1       1.317   8.572  13.138  1.00  0.00     0.039 A 
ATOM     31  C   UNL     1       1.664   9.848  13.584  1.00  0.00     0.014 A 
ATOM     32  C   UNL     1       0.069   8.015  13.431  1.00  0.00     0.014 A 
ATOM     33  C   UNL     1       0.719  10.606  14.273  1.00  0.00     0.010 A 
ATOM     34  C   UNL     1      -0.884   8.789  14.085  1.00  0.00     0.010 A 
ATOM     35  C   UNL     1      -0.570  10.095  14.495  1.00  0.00    -0.014 A 
BRANCH  35  36
ATOM     36  C   UNL     1      -1.610  10.926  15.142  1.00  0.00     0.031 A 
ATOM     37  C   UNL     1      -2.052  10.614  16.540  1.00  0.00     0.074 A 
ATOM     38  C   UNL     1      -2.180  11.931  14.449  1.00  0.00     0.049 A 
ATOM     39  N   UNL     1      -2.965  11.205  17.265  1.00  0.00    -0.248 NA
ATOM     40  C   UNL     1      -1.393   9.478  17.206  1.00  0.00     0.031 C 
ATOM     41  C   UNL     1      -1.856  12.299  13.068  1.00  0.00     0.029 A 
ATOM     42  N   UNL     1      -3.156  12.825  14.809  1.00  0.00    -0.354 N 
ATOM     43  C   UNL     1      -2.990  10.519  18.471  1.00  0.00     0.074 A 
ATOM     44  C   UNL     1      -2.034   9.437  18.366  1.00  0.00     0.031 C 
ATOM     45  C   UNL     1      -2.607  13.353  12.706  1.00  0.00     0.029 A 
ATOM     46  C   UNL     1      -3.476  13.724  13.819  1.00  0.00     0.049 A 
ATOM     47  H   UNL     1      -3.587  12.823  15.695  1.00  0.00     0.167 HD
ATOM     48  C   UNL     1      -3.725  10.784  19.575  1.00  0.00     0.037 A 
ATOM     49  C   UNL     1      -4.366  14.735  13.816  1.00  0.00     0.037 A 
ATOM     50  C   UNL     1      -4.659  11.872  19.681  1.00  0.00     0.049 A 
ATOM     51  C   UNL     1      -5.171  15.008  15.056  1.00  0.00     0.074 A 
ATOM     52  C   UNL     1      -5.430  12.241  20.769  1.00  0.00     0.029 A 
ATOM     53  N   UNL     1      -4.942  12.770  18.663  1.00  0.00    -0.354 N 
ATOM     54  N   UNL     1      -5.150  14.375  16.204  1.00  0.00    -0.248 NA
ATOM     55  C   UNL     1      -6.115  16.134  15.005  1.00  0.00     0.031 C 
ATOM     56  C   UNL     1      -6.194  13.354  20.403  1.00  0.00     0.029 A 
ATOM     57  C   UNL     1      -5.879  13.692  19.096  1.00  0.00     0.049 A 
ATOM     58  H   UNL     1      -4.537  12.755  17.767  1.00  0.00     0.167 HD
ATOM     59  C   UNL     1      -6.058  15.040  17.020  1.00  0.00     0.074 A 
ATOM     60  C   UNL     1      -6.611  16.125  16.235  1.00  0.00     0.031 C 
ATOM     61  C   UNL     1      -6.401  14.775  18.303  1.00  0.00     0.037 A 
BRANCH  48  62
ATOM     62  C   UNL     1      -3.529   9.894  20.765  1.00  0.00     0.058 A 
ATOM     63  C   UNL     1      -2.388  10.010  21.575  1.00  0.00     0.135 A 
ATOM     64  C   UNL     1      -4.499   8.946  21.124  1.00  0.00     0.135 A 
ATOM     65  F   UNL     1      -1.423  10.889  21.260  1.00  0.00    -0.206 F 
ATOM     66  C   UNL     1      -2.208   9.205  22.693  1.00  0.00     0.059 A 
ATOM     67  C   UNL     1      -4.348   8.142  22.250  1.00  0.00     0.059 A 
ATOM     68  F   UNL     1      -5.604   8.793  20.377  1.00  0.00    -0.206 F 
ATOM     69  C   UNL     1      -3.194   8.273  23.022  1.00  0.00     0.060 A 
BRANCH  69  70
ATOM     70  S   UNL     1      -2.952   7.244  24.486  1.00  0.00     0.124 S 
ATOM     71  O   UNL     1      -1.955   6.291  24.009  1.00  0.00    -0.237 OA
ATOM     72  O   UNL     1      -2.483   8.210  25.475  1.00  0.00    -0.237 OA
ATOM     73  O   UNL     1      -4.280   6.692  24.735  1.00  0.00    -0.744 OA
ENDBRANCH  69  70
ENDBRANCH  48  62
BRANCH  49  74
ATOM     74  C   UNL     1      -4.514  15.590  12.611  1.00  0.00     0.058 A 
ATOM     75  C   UNL     1      -3.984  16.888  12.586  1.00  0.00     0.135 A 
ATOM     76  C   UNL     1      -5.177  15.129  11.465  1.00  0.00     0.135 A 
ATOM     77  F   UNL     1      -3.345  17.372  13.662  1.00  0.00    -0.206 F 
ATOM     78  C   UNL     1      -4.118  17.707  11.470  1.00  0.00     0.059 A 
ATOM     79  C   UNL     1      -5.310  15.923  10.331  1.00  0.00     0.059 A 
ATOM     80  F   UNL     1      -5.687  13.887  11.437  1.00  0.00    -0.206 F 
ATOM     81  C   UNL     1      -4.785  17.215  10.347  1.00  0.00     0.060 A 
BRANCH  81  82
ATOM     82  S   UNL     1      -4.916  18.270   8.886  1.00  0.00     0.124 S 
ATOM     83  O   UNL     1      -5.971  19.194   9.285  1.00  0.00    -0.237 OA
ATOM     84  O   UNL     1      -3.574  18.835   8.790  1.00  0.00    -0.237 OA
ATOM     85  O   UNL     1      -5.266  17.328   7.826  1.00  0.00    -0.744 OA
ENDBRANCH  81  82
ENDBRANCH  49  74
BRANCH  61  86
ATOM     86  C   UNL     1      -7.398  15.684  18.958  1.00  0.00     0.058 A 
ATOM     87  C   UNL     1      -8.773  15.543  18.725  1.00  0.00     0.135 A 
ATOM     88  C   UNL     1      -6.979  16.634  19.901  1.00  0.00     0.135 A 
ATOM     89  F   UNL     1      -9.219  14.651  17.827  1.00  0.00    -0.206 F 
ATOM     90  C   UNL     1      -9.704  16.314  19.412  1.00  0.00     0.059 A 
ATOM     91  C   UNL     1      -7.893  17.405  20.610  1.00  0.00     0.059 A 
ATOM     92  F   UNL     1      -5.672  16.799  20.160  1.00  0.00    -0.206 F 
ATOM     93  C   UNL     1      -9.255  17.238  20.358  1.00  0.00     0.060 A 
BRANCH  93  94
ATOM     94  S   UNL     1     -10.476  18.178  21.299  1.00  0.00     0.124 S 
ATOM     95  O   UNL     1     -10.892  19.179  20.322  1.00  0.00    -0.237 OA
ATOM     96  O   UNL     1     -11.470  17.162  21.629  1.00  0.00    -0.237 OA
ATOM     97  O   UNL     1      -9.710  18.687  22.433  1.00  0.00    -0.744 OA
ENDBRANCH  93  94
ENDBRANCH  61  86
ENDBRANCH  35  36
ENDBRANCH  27  30
ENDBRANCH  25  26
ENDBRANCH   1  25
TORSDOF 16
