REMARK SMILES CC(C)(C(=O)NCCCCNC(=O)c1ccc(-c2c3nc(c(-c4c(F)cc(S(=O)(=O)[O-])cc4F)c4ccc([nH]4)c(-c4c(F)cc(S(=O)(=O)[O-])cc4F)c4nc(c(-c5c(F)cc(S(=O)(=O)[O-])cc5F)c5ccc2[nH]5)C=C4)C=C3)cc1)c1ccc(NS(=O)(=O)c2c(F)cc(F)cc2F)cc1
REMARK SMILES IDX 8 1 7 2 6 3 4 4 5 5 2 7 1 8 3 9 80 10 81 11 98 12 82 13
REMARK SMILES IDX 97 14 83 15 84 16 85 18 86 19 87 20 88 21 89 22 95 23 90 24
REMARK SMILES IDX 91 25 94 26 96 27 92 28 93 29 9 30 10 31 11 32 12 33 13 35
REMARK SMILES IDX 14 36 15 37 79 38 16 39 78 40 17 41 18 42 19 43 72 44 20 45
REMARK SMILES IDX 77 46 71 47 73 48 21 49 76 50 70 51 69 52 22 54 56 55 35 56
REMARK SMILES IDX 55 57 36 58 39 59 54 60 74 61 37 62 38 63 53 65 75 66 40 67
REMARK SMILES IDX 23 68 24 69 33 70 25 71 26 72 32 73 34 74 27 75 28 76 29 77
REMARK SMILES IDX 30 78 31 79 57 80 58 81 67 82 59 83 60 84 66 85 68 86 61 87
REMARK SMILES IDX 62 88 63 89 64 90 65 91 41 92 42 93 51 94 43 95 44 96 50 97
REMARK SMILES IDX 52 98 45 99 46 100 47 101 48 102 49 103
REMARK H PARENT 6 6 84 17 11 34 73 53 39 64
REMARK Flexibility Score: inf
ROOT
ATOM      1  C   UNL     1      -1.307   2.606  -0.954  1.00  0.00     0.023 C 
ENDROOT
BRANCH   1   2
ATOM      2  C   UNL     1      -0.860   2.460   0.497  1.00  0.00     0.116 C 
BRANCH   2   3
ATOM      3  N   UNL     1      -1.470   1.314   1.141  1.00  0.00    -0.355 N 
ATOM      4  C   UNL     1      -0.967   0.227   1.783  1.00  0.00     0.230 C 
ATOM      5  O   UNL     1      -1.812  -0.415   2.418  1.00  0.00    -0.274 OA
ATOM      6  H   UNL     1      -2.453   1.325   1.106  1.00  0.00     0.163 HD
BRANCH   4   7
ATOM      7  C   UNL     1       0.548  -0.157   1.781  1.00  0.00     0.068 C 
ATOM      8  C   UNL     1       1.147  -0.169   0.359  1.00  0.00     0.026 C 
ATOM      9  C   UNL     1       1.260   0.887   2.667  1.00  0.00     0.026 C 
BRANCH   7  10
ATOM     10  C   UNL     1       0.786  -1.607   2.308  1.00  0.00    -0.033 A 
ATOM     11  C   UNL     1      -0.123  -2.633   1.994  1.00  0.00     0.007 A 
ATOM     12  C   UNL     1       1.932  -1.973   3.039  1.00  0.00     0.007 A 
ATOM     13  C   UNL     1       0.068  -3.942   2.439  1.00  0.00     0.027 A 
ATOM     14  C   UNL     1       2.166  -3.308   3.411  1.00  0.00     0.027 A 
ATOM     15  C   UNL     1       1.243  -4.301   3.085  1.00  0.00     0.049 A 
BRANCH  15  16
ATOM     16  N   UNL     1       1.460  -5.666   3.470  1.00  0.00    -0.279 N 
ATOM     17  H   UNL     1       1.434  -5.915   4.423  1.00  0.00     0.180 HD
BRANCH  16  18
ATOM     18  S   UNL     1       1.764  -6.865   2.286  1.00  0.00     0.267 S 
ATOM     19  O   UNL     1       3.143  -6.713   1.880  1.00  0.00    -0.201 OA
ATOM     20  O   UNL     1       1.359  -8.114   2.905  1.00  0.00    -0.201 OA
BRANCH  18  21
ATOM     21  C   UNL     1       0.749  -6.563   0.889  1.00  0.00     0.159 A 
ATOM     22  C   UNL     1       1.090  -5.543   0.004  1.00  0.00     0.149 A 
ATOM     23  C   UNL     1      -0.379  -7.334   0.626  1.00  0.00     0.149 A 
ATOM     24  F   UNL     1       2.186  -4.797   0.194  1.00  0.00    -0.205 F 
ATOM     25  C   UNL     1       0.259  -5.215  -1.063  1.00  0.00     0.080 A 
ATOM     26  C   UNL     1      -1.203  -7.038  -0.460  1.00  0.00     0.080 A 
ATOM     27  F   UNL     1      -0.726  -8.372   1.396  1.00  0.00    -0.205 F 
ATOM     28  C   UNL     1      -0.889  -5.963  -1.280  1.00  0.00     0.129 A 
ATOM     29  F   UNL     1      -1.701  -5.645  -2.295  1.00  0.00    -0.207 F 
ENDBRANCH  18  21
ENDBRANCH  16  18
ENDBRANCH  15  16
ENDBRANCH   7  10
ENDBRANCH   4   7
ENDBRANCH   2   3
ENDBRANCH   1   2
BRANCH   1  30
ATOM     30  C   UNL     1      -2.810   2.825  -1.146  1.00  0.00     0.023 C 
BRANCH  30  31
ATOM     31  C   UNL     1      -3.426   3.926  -0.289  1.00  0.00     0.116 C 
BRANCH  31  32
ATOM     32  N   UNL     1      -2.766   5.212  -0.454  1.00  0.00    -0.352 N 
ATOM     33  C   UNL     1      -3.325   6.453  -0.640  1.00  0.00     0.251 C 
ATOM     34  H   UNL     1      -1.782   5.189  -0.428  1.00  0.00     0.163 HD
ATOM     35  O   UNL     1      -2.608   7.418  -0.887  1.00  0.00    -0.269 OA
BRANCH  33  36
ATOM     36  C   UNL     1      -4.792   6.606  -0.576  1.00  0.00     0.039 A 
ATOM     37  C   UNL     1      -5.444   7.294  -1.601  1.00  0.00     0.014 A 
ATOM     38  C   UNL     1      -5.523   6.040   0.472  1.00  0.00     0.014 A 
ATOM     39  C   UNL     1      -6.839   7.352  -1.612  1.00  0.00     0.010 A 
ATOM     40  C   UNL     1      -6.913   6.033   0.418  1.00  0.00     0.010 A 
ATOM     41  C   UNL     1      -7.586   6.689  -0.625  1.00  0.00    -0.014 A 
BRANCH  41  42
ATOM     42  C   UNL     1      -9.070   6.662  -0.670  1.00  0.00     0.031 A 
ATOM     43  C   UNL     1      -9.870   7.296   0.436  1.00  0.00     0.074 A 
ATOM     44  C   UNL     1      -9.695   6.010  -1.671  1.00  0.00     0.049 A 
ATOM     45  N   UNL     1     -11.167   7.322   0.607  1.00  0.00    -0.248 NA
ATOM     46  C   UNL     1      -9.112   7.966   1.505  1.00  0.00     0.031 C 
ATOM     47  C   UNL     1      -9.028   5.313  -2.773  1.00  0.00     0.029 A 
ATOM     48  N   UNL     1     -11.031   5.818  -1.920  1.00  0.00    -0.354 N 
ATOM     49  C   UNL     1     -11.378   7.992   1.806  1.00  0.00     0.074 A 
ATOM     50  C   UNL     1     -10.075   8.309   2.347  1.00  0.00     0.031 C 
ATOM     51  C   UNL     1      -9.957   4.795  -3.593  1.00  0.00     0.029 A 
ATOM     52  C   UNL     1     -11.282   5.085  -3.056  1.00  0.00     0.049 A 
ATOM     53  H   UNL     1     -11.743   6.172  -1.340  1.00  0.00     0.167 HD
ATOM     54  C   UNL     1     -12.552   8.331   2.391  1.00  0.00     0.037 A 
ATOM     55  C   UNL     1     -12.449   4.685  -3.600  1.00  0.00     0.037 A 
ATOM     56  C   UNL     1     -13.845   8.034   1.831  1.00  0.00     0.049 A 
ATOM     57  C   UNL     1     -13.739   5.073  -2.930  1.00  0.00     0.074 A 
ATOM     58  C   UNL     1     -15.092   8.394   2.310  1.00  0.00     0.029 A 
ATOM     59  N   UNL     1     -14.058   7.303   0.671  1.00  0.00    -0.354 N 
ATOM     60  N   UNL     1     -13.922   5.770  -1.834  1.00  0.00    -0.248 NA
ATOM     61  C   UNL     1     -14.983   4.626  -3.573  1.00  0.00     0.031 C 
ATOM     62  C   UNL     1     -16.060   7.838   1.468  1.00  0.00     0.029 A 
ATOM     63  C   UNL     1     -15.417   7.179   0.432  1.00  0.00     0.049 A 
ATOM     64  H   UNL     1     -13.348   6.928   0.101  1.00  0.00     0.167 HD
ATOM     65  C   UNL     1     -15.300   5.870  -1.672  1.00  0.00     0.074 A 
ATOM     66  C   UNL     1     -15.902   5.172  -2.789  1.00  0.00     0.031 C 
ATOM     67  C   UNL     1     -16.002   6.487  -0.690  1.00  0.00     0.037 A 
BRANCH  54  68
ATOM     68  C   UNL     1     -12.492   9.062   3.704  1.00  0.00     0.058 A 
ATOM     69  C   UNL     1     -12.035  10.387   3.793  1.00  0.00     0.135 A 
ATOM     70  C   UNL     1     -12.931   8.443   4.886  1.00  0.00     0.135 A 
ATOM     71  F   UNL     1     -11.589  11.024   2.698  1.00  0.00    -0.206 F 
ATOM     72  C   UNL     1     -11.985  11.061   5.009  1.00  0.00     0.059 A 
ATOM     73  C   UNL     1     -12.918   9.107   6.109  1.00  0.00     0.059 A 
ATOM     74  F   UNL     1     -13.377   7.177   4.861  1.00  0.00    -0.206 F 
ATOM     75  C   UNL     1     -12.429  10.412   6.162  1.00  0.00     0.060 A 
BRANCH  75  76
ATOM     76  S   UNL     1     -12.362  11.302   7.731  1.00  0.00     0.124 S 
ATOM     77  O   UNL     1     -10.927  11.313   7.997  1.00  0.00    -0.237 OA
ATOM     78  O   UNL     1     -12.951  12.591   7.383  1.00  0.00    -0.237 OA
ATOM     79  O   UNL     1     -13.160  10.473   8.628  1.00  0.00    -0.744 OA
ENDBRANCH  75  76
ENDBRANCH  54  68
BRANCH  55  80
ATOM     80  C   UNL     1     -12.451   3.896  -4.862  1.00  0.00     0.058 A 
ATOM     81  C   UNL     1     -12.909   4.458  -6.062  1.00  0.00     0.135 A 
ATOM     82  C   UNL     1     -11.986   2.572  -4.897  1.00  0.00     0.135 A 
ATOM     83  F   UNL     1     -13.369   5.719  -6.079  1.00  0.00    -0.206 F 
ATOM     84  C   UNL     1     -12.924   3.733  -7.249  1.00  0.00     0.059 A 
ATOM     85  C   UNL     1     -11.966   1.835  -6.077  1.00  0.00     0.059 A 
ATOM     86  F   UNL     1     -11.521   1.992  -3.780  1.00  0.00    -0.206 F 
ATOM     87  C   UNL     1     -12.447   2.421  -7.247  1.00  0.00     0.060 A 
BRANCH  87  88
ATOM     88  S   UNL     1     -12.426   1.506  -8.803  1.00  0.00     0.124 S 
ATOM     89  O   UNL     1     -13.845   1.234  -9.004  1.00  0.00    -0.237 OA
ATOM     90  O   UNL     1     -11.824   2.471  -9.718  1.00  0.00    -0.237 OA
ATOM     91  O   UNL     1     -11.598   0.343  -8.497  1.00  0.00    -0.744 OA
ENDBRANCH  87  88
ENDBRANCH  55  80
BRANCH  67  92
ATOM     92  C   UNL     1     -17.502   6.471  -0.794  1.00  0.00     0.058 A 
ATOM     93  C   UNL     1     -18.248   5.305  -0.563  1.00  0.00     0.135 A 
ATOM     94  C   UNL     1     -18.206   7.654  -1.076  1.00  0.00     0.135 A 
ATOM     95  F   UNL     1     -17.625   4.146  -0.296  1.00  0.00    -0.206 F 
ATOM     96  C   UNL     1     -19.637   5.306  -0.630  1.00  0.00     0.059 A 
ATOM     97  C   UNL     1     -19.596   7.685  -1.119  1.00  0.00     0.059 A 
ATOM     98  F   UNL     1     -17.542   8.800  -1.294  1.00  0.00    -0.206 F 
ATOM     99  C   UNL     1     -20.303   6.502  -0.906  1.00  0.00     0.060 A 
BRANCH  99 100
ATOM    100  S   UNL     1     -22.107   6.498  -0.955  1.00  0.00     0.124 S 
ATOM    101  O   UNL     1     -22.365   5.814  -2.218  1.00  0.00    -0.237 OA
ATOM    102  O   UNL     1     -22.450   5.752   0.252  1.00  0.00    -0.237 OA
ATOM    103  O   UNL     1     -22.452   7.916  -0.927  1.00  0.00    -0.744 OA
ENDBRANCH  99 100
ENDBRANCH  67  92
ENDBRANCH  41  42
ENDBRANCH  33  36
ENDBRANCH  31  32
ENDBRANCH  30  31
ENDBRANCH   1  30
TORSDOF 18
