REMARK SMILES O=C(NCCCCNC(=O)c1cncc(OCCCc2ccccc2)n1)c1ccc(-c2c3nc(c(-c4c(F)cc(S(=O)(=O)[O-])cc4F)c4ccc([nH]4)c(-c4c(F)cc(S(=O)(=O)[O-])cc4F)c4nc(c(-c5c(F)cc(S(=O)(=O)[O-])cc5F)c5ccc2[nH]5)C=C4)C=C3)cc1
REMARK SMILES IDX 6 1 5 2 4 3 3 4 1 5 2 6 27 8 28 9 92 10 29 11 91 12 30 13
REMARK SMILES IDX 31 14 32 15 85 16 33 17 90 18 84 19 86 20 34 21 89 22 83 23
REMARK SMILES IDX 82 24 35 26 69 27 48 28 68 29 49 30 52 31 67 32 87 33 50 34
REMARK SMILES IDX 51 35 66 37 88 38 53 39 36 40 37 41 46 42 38 43 39 44 45 45
REMARK SMILES IDX 47 46 40 47 41 48 42 49 43 50 44 51 70 52 71 53 80 54 72 55
REMARK SMILES IDX 73 56 79 57 81 58 74 59 75 60 76 61 77 62 78 63 54 64 55 65
REMARK SMILES IDX 64 66 56 67 57 68 63 69 65 70 58 71 59 72 60 73 61 74 62 75
REMARK SMILES IDX 7 76 8 77 9 78 10 80 11 81 12 82 26 83 13 84 15 85 14 86
REMARK SMILES IDX 16 87 17 88 18 89 19 90 20 91 21 92 25 93 22 94 24 95 23 96
REMARK H PARENT 3 7 86 25 52 36 8 79
REMARK Flexibility Score: inf
ROOT
ATOM      1  C   UNL     1       4.327   3.874  -0.836  1.00  0.00     0.023 C 
ENDROOT
BRANCH   1   2
ATOM      2  C   UNL     1       4.894   2.474  -1.067  1.00  0.00     0.023 C 
BRANCH   2   3
ATOM      3  C   UNL     1       4.530   1.427  -0.022  1.00  0.00     0.116 C 
BRANCH   3   4
ATOM      4  N   UNL     1       3.097   1.220   0.113  1.00  0.00    -0.352 N 
ATOM      5  O   UNL     1       1.139   0.114   0.041  1.00  0.00    -0.269 OA
ATOM      6  C   UNL     1       2.361   0.062   0.006  1.00  0.00     0.251 C 
ATOM      7  H   UNL     1       2.575   2.031   0.311  1.00  0.00     0.163 HD
BRANCH   6   8
ATOM      8  C   UNL     1       3.048  -1.237  -0.181  1.00  0.00     0.039 A 
ATOM      9  C   UNL     1       4.166  -1.575   0.583  1.00  0.00     0.014 A 
ATOM     10  C   UNL     1       2.558  -2.133  -1.138  1.00  0.00     0.014 A 
ATOM     11  C   UNL     1       4.881  -2.730   0.289  1.00  0.00     0.010 A 
ATOM     12  C   UNL     1       3.230  -3.338  -1.371  1.00  0.00     0.010 A 
ATOM     13  C   UNL     1       4.415  -3.633  -0.681  1.00  0.00    -0.014 A 
BRANCH  13  14
ATOM     14  C   UNL     1       5.147  -4.908  -0.899  1.00  0.00     0.031 A 
ATOM     15  C   UNL     1       5.815  -5.213  -2.212  1.00  0.00     0.074 A 
ATOM     16  C   UNL     1       5.223  -5.785   0.122  1.00  0.00     0.049 A 
ATOM     17  N   UNL     1       6.501  -6.274  -2.557  1.00  0.00    -0.248 NA
ATOM     18  C   UNL     1       5.696  -4.207  -3.279  1.00  0.00     0.031 C 
ATOM     19  C   UNL     1       4.598  -5.603   1.435  1.00  0.00     0.029 A 
ATOM     20  N   UNL     1       5.864  -6.992   0.227  1.00  0.00    -0.354 N 
ATOM     21  C   UNL     1       6.880  -6.075  -3.880  1.00  0.00     0.074 A 
ATOM     22  C   UNL     1       6.331  -4.798  -4.285  1.00  0.00     0.031 C 
ATOM     23  C   UNL     1       4.918  -6.638   2.225  1.00  0.00     0.029 A 
ATOM     24  C   UNL     1       5.718  -7.586   1.458  1.00  0.00     0.049 A 
ATOM     25  H   UNL     1       6.380  -7.395  -0.508  1.00  0.00     0.167 HD
ATOM     26  C   UNL     1       7.622  -6.882  -4.676  1.00  0.00     0.037 A 
ATOM     27  C   UNL     1       6.157  -8.773   1.917  1.00  0.00     0.037 A 
ATOM     28  C   UNL     1       8.182  -8.142  -4.255  1.00  0.00     0.049 A 
ATOM     29  C   UNL     1       6.967  -9.650   1.007  1.00  0.00     0.074 A 
ATOM     30  C   UNL     1       8.985  -9.010  -4.976  1.00  0.00     0.029 A 
ATOM     31  N   UNL     1       7.997  -8.717  -3.006  1.00  0.00    -0.354 N 
ATOM     32  N   UNL     1       7.346  -9.425  -0.228  1.00  0.00    -0.248 NA
ATOM     33  C   UNL     1       7.407 -10.942   1.549  1.00  0.00     0.031 C 
ATOM     34  C   UNL     1       9.249 -10.129  -4.179  1.00  0.00     0.029 A 
ATOM     35  C   UNL     1       8.651  -9.938  -2.944  1.00  0.00     0.049 A 
ATOM     36  H   UNL     1       7.479  -8.317  -2.271  1.00  0.00     0.167 HD
ATOM     37  C   UNL     1       8.081 -10.541  -0.607  1.00  0.00     0.074 A 
ATOM     38  C   UNL     1       8.112 -11.430   0.537  1.00  0.00     0.031 C 
ATOM     39  C   UNL     1       8.674 -10.808  -1.796  1.00  0.00     0.037 A 
BRANCH  26  40
ATOM     40  C   UNL     1       7.874  -6.444  -6.094  1.00  0.00     0.058 A 
ATOM     41  C   UNL     1       8.776  -5.414  -6.400  1.00  0.00     0.135 A 
ATOM     42  C   UNL     1       7.269  -7.123  -7.165  1.00  0.00     0.135 A 
ATOM     43  F   UNL     1       9.373  -4.723  -5.416  1.00  0.00    -0.206 F 
ATOM     44  C   UNL     1       9.063  -5.066  -7.717  1.00  0.00     0.059 A 
ATOM     45  C   UNL     1       7.557  -6.806  -8.490  1.00  0.00     0.059 A 
ATOM     46  F   UNL     1       6.397  -8.116  -6.929  1.00  0.00    -0.206 F 
ATOM     47  C   UNL     1       8.452  -5.771  -8.756  1.00  0.00     0.060 A 
BRANCH  47  48
ATOM     48  S   UNL     1       8.860  -5.327 -10.458  1.00  0.00     0.124 S 
ATOM     49  O   UNL     1       8.166  -4.051 -10.600  1.00  0.00    -0.237 OA
ATOM     50  O   UNL     1      10.317  -5.255 -10.422  1.00  0.00    -0.237 OA
ATOM     51  O   UNL     1       8.309  -6.430 -11.240  1.00  0.00    -0.744 OA
ENDBRANCH  47  48
ENDBRANCH  26  40
BRANCH  27  52
ATOM     52  C   UNL     1       5.820  -9.203   3.299  1.00  0.00     0.058 A 
ATOM     53  C   UNL     1       6.806  -9.298   4.292  1.00  0.00     0.135 A 
ATOM     54  C   UNL     1       4.499  -9.518   3.656  1.00  0.00     0.135 A 
ATOM     55  F   UNL     1       8.083  -9.009   3.998  1.00  0.00    -0.206 F 
ATOM     56  C   UNL     1       6.500  -9.711   5.584  1.00  0.00     0.059 A 
ATOM     57  C   UNL     1       4.163  -9.906   4.948  1.00  0.00     0.059 A 
ATOM     58  F   UNL     1       3.516  -9.424   2.747  1.00  0.00    -0.206 F 
ATOM     59  C   UNL     1       5.174 -10.014   5.902  1.00  0.00     0.060 A 
BRANCH  59  60
ATOM     60  S   UNL     1       4.777 -10.520   7.588  1.00  0.00     0.124 S 
ATOM     61  O   UNL     1       5.260 -11.896   7.601  1.00  0.00    -0.237 OA
ATOM     62  O   UNL     1       5.543  -9.567   8.385  1.00  0.00    -0.237 OA
ATOM     63  O   UNL     1       3.328 -10.357   7.654  1.00  0.00    -0.744 OA
ENDBRANCH  59  60
ENDBRANCH  27  52
BRANCH  39  64
ATOM     64  C   UNL     1       9.429 -12.102  -1.909  1.00  0.00     0.058 A 
ATOM     65  C   UNL     1       8.766 -13.336  -2.000  1.00  0.00     0.135 A 
ATOM     66  C   UNL     1      10.832 -12.105  -1.959  1.00  0.00     0.135 A 
ATOM     67  F   UNL     1       7.426 -13.387  -1.946  1.00  0.00    -0.206 F 
ATOM     68  C   UNL     1       9.469 -14.530  -2.111  1.00  0.00     0.059 A 
ATOM     69  C   UNL     1      11.555 -13.285  -2.097  1.00  0.00     0.059 A 
ATOM     70  F   UNL     1      11.514 -10.950  -1.885  1.00  0.00    -0.206 F 
ATOM     71  C   UNL     1      10.864 -14.495  -2.159  1.00  0.00     0.060 A 
BRANCH  71  72
ATOM     72  S   UNL     1      11.764 -16.050  -2.331  1.00  0.00     0.124 S 
ATOM     73  O   UNL     1      11.651 -16.604  -0.986  1.00  0.00    -0.237 OA
ATOM     74  O   UNL     1      11.004 -16.740  -3.368  1.00  0.00    -0.237 OA
ATOM     75  O   UNL     1      13.104 -15.624  -2.724  1.00  0.00    -0.744 OA
ENDBRANCH  71  72
ENDBRANCH  39  64
ENDBRANCH  13  14
ENDBRANCH   6   8
ENDBRANCH   3   4
ENDBRANCH   2   3
ENDBRANCH   1   2
BRANCH   1  76
ATOM     76  C   UNL     1       4.511   4.446   0.566  1.00  0.00     0.116 C 
BRANCH  76  77
ATOM     77  N   UNL     1       5.896   4.504   0.990  1.00  0.00    -0.351 N 
ATOM     78  C   UNL     1       6.573   5.541   1.587  1.00  0.00     0.271 C 
ATOM     79  H   UNL     1       6.425   3.689   0.828  1.00  0.00     0.163 HD
ATOM     80  O   UNL     1       7.729   5.379   1.971  1.00  0.00    -0.267 OA
BRANCH  78  81
ATOM     81  C   UNL     1       5.905   6.843   1.799  1.00  0.00     0.150 A 
ATOM     82  C   UNL     1       4.863   6.961   2.704  1.00  0.00     0.145 A 
ATOM     83  N   UNL     1       6.440   7.912   1.162  1.00  0.00    -0.205 NA
ATOM     84  N   UNL     1       4.291   8.158   2.994  1.00  0.00    -0.257 NA
ATOM     85  C   UNL     1       5.917   9.105   1.485  1.00  0.00     0.233 A 
ATOM     86  C   UNL     1       4.862   9.227   2.380  1.00  0.00     0.179 A 
BRANCH  85  87
ATOM     87  O   UNL     1       6.532  10.247   1.028  1.00  0.00    -0.477 OA
BRANCH  87  88
ATOM     88  C   UNL     1       7.119  10.100  -0.270  1.00  0.00     0.232 C 
BRANCH  88  89
ATOM     89  C   UNL     1       8.637   9.870  -0.254  1.00  0.00     0.046 C 
BRANCH  89  90
ATOM     90  C   UNL     1       9.154   8.442  -0.011  1.00  0.00     0.039 C 
BRANCH  90  91
ATOM     91  C   UNL     1       8.839   7.341  -1.005  1.00  0.00    -0.048 A 
ATOM     92  C   UNL     1       8.071   7.506  -2.163  1.00  0.00     0.004 A 
ATOM     93  C   UNL     1       9.345   6.056  -0.734  1.00  0.00     0.004 A 
ATOM     94  C   UNL     1       7.762   6.415  -2.983  1.00  0.00     0.000 A 
ATOM     95  C   UNL     1       9.060   4.971  -1.566  1.00  0.00     0.000 A 
ATOM     96  C   UNL     1       8.254   5.148  -2.685  1.00  0.00     0.000 A 
ENDBRANCH  90  91
ENDBRANCH  89  90
ENDBRANCH  88  89
ENDBRANCH  87  88
ENDBRANCH  85  87
ENDBRANCH  78  81
ENDBRANCH  76  77
ENDBRANCH   1  76
TORSDOF 19
