REMARK SMILES C[C@@H](C(=O)NCCCCNC(=O)c1ccc(-c2c3nc(c(-c4c(F)cc(S(=O)(=O)[O-])cc4F)c4ccc([nH]4)c(-c4c(F)cc(S(=O)(=O)[O-])cc4F)c4nc(c(-c5c(F)cc(S(=O)(=O)[O-])cc5F)c5ccc2[nH]5)C=C4)C=C3)cc1)c1ccc(C[C@@H]2CCC[C@@H]2O)cc1
REMARK SMILES IDX 7 1 6 2 5 3 3 4 4 5 2 7 1 8 79 9 80 10 91 11 81 12 90 13
REMARK SMILES IDX 82 14 83 15 84 16 85 17 88 18 86 19 87 20 89 21 8 23 9 24
REMARK SMILES IDX 10 25 11 26 12 28 13 29 14 30 78 31 15 32 77 33 16 34 17 35
REMARK SMILES IDX 18 36 71 37 19 38 76 39 70 40 72 41 20 42 75 43 69 44 68 45
REMARK SMILES IDX 21 47 55 48 34 49 54 50 35 51 38 52 53 53 73 54 36 55 37 56
REMARK SMILES IDX 52 58 74 59 39 60 22 61 23 62 32 63 24 64 25 65 31 66 33 67
REMARK SMILES IDX 26 68 27 69 28 70 29 71 30 72 56 73 57 74 66 75 58 76 59 77
REMARK SMILES IDX 65 78 67 79 60 80 61 81 62 82 63 83 64 84 40 85 41 86 50 87
REMARK SMILES IDX 42 88 43 89 49 90 51 91 44 92 45 93 46 94 47 95 48 96
REMARK H PARENT 5 6 89 22 10 27 72 46 38 57
REMARK Flexibility Score: inf
ROOT
ATOM      1  C   UNL     1     -12.342   5.617   9.357  1.00  0.00     0.023 C 
ENDROOT
BRANCH   1   2
ATOM      2  C   UNL     1     -10.921   5.064   9.214  1.00  0.00     0.116 C 
BRANCH   2   3
ATOM      3  N   UNL     1     -10.933   3.738   8.625  1.00  0.00    -0.356 N 
ATOM      4  C   UNL     1     -10.715   3.344   7.334  1.00  0.00     0.227 C 
ATOM      5  O   UNL     1     -11.011   2.181   7.055  1.00  0.00    -0.274 OA
ATOM      6  H   UNL     1     -11.129   3.007   9.255  1.00  0.00     0.163 HD
BRANCH   4   7
ATOM      7  C   UNL     1     -10.102   4.332   6.321  1.00  0.00     0.105 C 
ATOM      8  C   UNL     1     -11.188   5.314   5.864  1.00  0.00     0.023 C 
BRANCH   7   9
ATOM      9  C   UNL     1      -9.377   3.654   5.149  1.00  0.00    -0.036 A 
ATOM     10  C   UNL     1      -8.601   2.502   5.355  1.00  0.00     0.005 A 
ATOM     11  C   UNL     1      -9.397   4.192   3.852  1.00  0.00     0.005 A 
ATOM     12  C   UNL     1      -7.914   1.889   4.301  1.00  0.00     0.004 A 
ATOM     13  C   UNL     1      -8.688   3.597   2.807  1.00  0.00     0.004 A 
ATOM     14  C   UNL     1      -7.930   2.443   3.019  1.00  0.00    -0.048 A 
BRANCH  14  15
ATOM     15  C   UNL     1      -7.151   1.836   1.883  1.00  0.00     0.041 C 
BRANCH  15  16
ATOM     16  C   UNL     1      -5.630   2.094   1.818  1.00  0.00     0.022 C 
ATOM     17  C   UNL     1      -4.826   1.450   2.952  1.00  0.00     0.007 C 
ATOM     18  C   UNL     1      -5.148   3.549   1.853  1.00  0.00     0.117 C 
ATOM     19  C   UNL     1      -4.537   2.557   3.970  1.00  0.00     0.003 C 
ATOM     20  C   UNL     1      -4.983   3.869   3.332  1.00  0.00     0.032 C 
BRANCH  18  21
ATOM     21  O   UNL     1      -6.001   4.465   1.200  1.00  0.00    -0.393 OA
ATOM     22  H   UNL     1      -6.873   4.454   1.624  1.00  0.00     0.210 HD
ENDBRANCH  18  21
ENDBRANCH  15  16
ENDBRANCH  14  15
ENDBRANCH   7   9
ENDBRANCH   4   7
ENDBRANCH   2   3
ENDBRANCH   1   2
BRANCH   1  23
ATOM     23  C   UNL     1     -13.245   4.834  10.311  1.00  0.00     0.023 C 
BRANCH  23  24
ATOM     24  C   UNL     1     -12.771   4.800  11.756  1.00  0.00     0.116 C 
BRANCH  24  25
ATOM     25  N   UNL     1     -12.699   6.124  12.357  1.00  0.00    -0.352 N 
ATOM     26  C   UNL     1     -13.069   6.498  13.627  1.00  0.00     0.251 C 
ATOM     27  H   UNL     1     -12.341   6.840  11.783  1.00  0.00     0.163 HD
ATOM     28  O   UNL     1     -13.068   7.680  13.956  1.00  0.00    -0.269 OA
BRANCH  26  29
ATOM     29  C   UNL     1     -13.502   5.453  14.575  1.00  0.00     0.039 A 
ATOM     30  C   UNL     1     -14.742   5.577  15.206  1.00  0.00     0.014 A 
ATOM     31  C   UNL     1     -12.709   4.319  14.774  1.00  0.00     0.014 A 
ATOM     32  C   UNL     1     -15.227   4.521  15.980  1.00  0.00     0.010 A 
ATOM     33  C   UNL     1     -13.221   3.246  15.492  1.00  0.00     0.010 A 
ATOM     34  C   UNL     1     -14.487   3.333  16.094  1.00  0.00    -0.014 A 
BRANCH  34  35
ATOM     35  C   UNL     1     -15.003   2.151  16.827  1.00  0.00     0.031 A 
ATOM     36  C   UNL     1     -14.272   1.657  18.041  1.00  0.00     0.074 A 
ATOM     37  C   UNL     1     -16.038   1.451  16.325  1.00  0.00     0.049 A 
ATOM     38  N   UNL     1     -14.431   0.543  18.707  1.00  0.00    -0.248 NA
ATOM     39  C   UNL     1     -13.190   2.515  18.548  1.00  0.00     0.031 C 
ATOM     40  C   UNL     1     -16.794   1.803  15.121  1.00  0.00     0.029 A 
ATOM     41  N   UNL     1     -16.608   0.276  16.744  1.00  0.00    -0.354 N 
ATOM     42  C   UNL     1     -13.442   0.544  19.682  1.00  0.00     0.074 A 
ATOM     43  C   UNL     1     -12.672   1.757  19.502  1.00  0.00     0.031 C 
ATOM     44  C   UNL     1     -17.723   0.860  14.895  1.00  0.00     0.029 A 
ATOM     45  C   UNL     1     -17.603  -0.181  15.913  1.00  0.00     0.049 A 
ATOM     46  H   UNL     1     -16.330  -0.196  17.563  1.00  0.00     0.167 HD
ATOM     47  C   UNL     1     -13.203  -0.379  20.643  1.00  0.00     0.037 A 
ATOM     48  C   UNL     1     -18.322  -1.319  15.951  1.00  0.00     0.037 A 
ATOM     49  C   UNL     1     -13.998  -1.561  20.839  1.00  0.00     0.049 A 
ATOM     50  C   UNL     1     -18.079  -2.306  17.058  1.00  0.00     0.074 A 
ATOM     51  C   UNL     1     -13.890  -2.518  21.832  1.00  0.00     0.029 A 
ATOM     52  N   UNL     1     -15.053  -1.946  20.024  1.00  0.00    -0.354 N 
ATOM     53  N   UNL     1     -17.179  -2.264  18.012  1.00  0.00    -0.248 NA
ATOM     54  C   UNL     1     -18.949  -3.489  17.101  1.00  0.00     0.031 C 
ATOM     55  C   UNL     1     -14.863  -3.497  21.602  1.00  0.00     0.029 A 
ATOM     56  C   UNL     1     -15.599  -3.132  20.485  1.00  0.00     0.049 A 
ATOM     57  H   UNL     1     -15.367  -1.450  19.234  1.00  0.00     0.167 HD
ATOM     58  C   UNL     1     -17.386  -3.403  18.781  1.00  0.00     0.074 A 
ATOM     59  C   UNL     1     -18.499  -4.113  18.183  1.00  0.00     0.031 C 
ATOM     60  C   UNL     1     -16.716  -3.819  19.883  1.00  0.00     0.037 A 
BRANCH  47  61
ATOM     61  C   UNL     1     -12.021  -0.141  21.539  1.00  0.00     0.058 A 
ATOM     62  C   UNL     1     -12.019   0.880  22.503  1.00  0.00     0.135 A 
ATOM     63  C   UNL     1     -10.863  -0.925  21.412  1.00  0.00     0.135 A 
ATOM     64  F   UNL     1     -13.095   1.669  22.654  1.00  0.00    -0.206 F 
ATOM     65  C   UNL     1     -10.892   1.151  23.272  1.00  0.00     0.059 A 
ATOM     66  C   UNL     1      -9.733  -0.689  22.189  1.00  0.00     0.059 A 
ATOM     67  F   UNL     1     -10.813  -1.915  20.508  1.00  0.00    -0.206 F 
ATOM     68  C   UNL     1      -9.749   0.370  23.098  1.00  0.00     0.060 A 
BRANCH  68  69
ATOM     69  S   UNL     1      -8.274   0.760  24.062  1.00  0.00     0.124 S 
ATOM     70  O   UNL     1      -7.732   1.890  23.314  1.00  0.00    -0.237 OA
ATOM     71  O   UNL     1      -8.826   1.077  25.375  1.00  0.00    -0.237 OA
ATOM     72  O   UNL     1      -7.492  -0.471  23.995  1.00  0.00    -0.744 OA
ENDBRANCH  68  69
ENDBRANCH  47  61
BRANCH  48  73
ATOM     73  C   UNL     1     -19.351  -1.562  14.909  1.00  0.00     0.058 A 
ATOM     74  C   UNL     1     -20.712  -1.380  15.190  1.00  0.00     0.135 A 
ATOM     75  C   UNL     1     -18.991  -1.901  13.596  1.00  0.00     0.135 A 
ATOM     76  F   UNL     1     -21.104  -1.061  16.433  1.00  0.00    -0.206 F 
ATOM     77  C   UNL     1     -21.683  -1.516  14.203  1.00  0.00     0.059 A 
ATOM     78  C   UNL     1     -19.942  -2.025  12.587  1.00  0.00     0.059 A 
ATOM     79  F   UNL     1     -17.698  -2.068  13.276  1.00  0.00    -0.206 F 
ATOM     80  C   UNL     1     -21.286  -1.829  12.901  1.00  0.00     0.060 A 
BRANCH  80  81
ATOM     81  S   UNL     1     -22.544  -1.899  11.606  1.00  0.00     0.124 S 
ATOM     82  O   UNL     1     -23.180  -3.182  11.882  1.00  0.00    -0.237 OA
ATOM     83  O   UNL     1     -23.347  -0.714  11.892  1.00  0.00    -0.237 OA
ATOM     84  O   UNL     1     -21.760  -1.832  10.376  1.00  0.00    -0.744 OA
ENDBRANCH  80  81
ENDBRANCH  48  73
BRANCH  60  85
ATOM     85  C   UNL     1     -17.182  -5.084  20.544  1.00  0.00     0.058 A 
ATOM     86  C   UNL     1     -16.862  -6.346  20.021  1.00  0.00     0.135 A 
ATOM     87  C   UNL     1     -17.881  -5.031  21.760  1.00  0.00     0.135 A 
ATOM     88  F   UNL     1     -16.201  -6.448  18.858  1.00  0.00    -0.206 F 
ATOM     89  C   UNL     1     -17.221  -7.516  20.683  1.00  0.00     0.059 A 
ATOM     90  C   UNL     1     -18.234  -6.188  22.448  1.00  0.00     0.059 A 
ATOM     91  F   UNL     1     -18.204  -3.847  22.303  1.00  0.00    -0.206 F 
ATOM     92  C   UNL     1     -17.902  -7.426  21.899  1.00  0.00     0.060 A 
BRANCH  92  93
ATOM     93  S   UNL     1     -18.305  -8.948  22.784  1.00  0.00     0.124 S 
ATOM     94  O   UNL     1     -19.455  -9.432  22.028  1.00  0.00    -0.237 OA
ATOM     95  O   UNL     1     -17.079  -9.728  22.644  1.00  0.00    -0.237 OA
ATOM     96  O   UNL     1     -18.593  -8.485  24.139  1.00  0.00    -0.744 OA
ENDBRANCH  92  93
ENDBRANCH  60  85
ENDBRANCH  34  35
ENDBRANCH  26  29
ENDBRANCH  24  25
ENDBRANCH  23  24
ENDBRANCH   1  23
TORSDOF 18
