REMARK SMILES O=C(NCCCCNC(=O)[C@H]1CCCN(C(=O)c2ccc(NC(=O)c3ccccc3)cc2)C1)c1ccc(-c2c3nc(c(-c4c(F)cc(S(=O)(=O)[O-])cc4F)c4ccc([nH]4)c(-c4c(F)cc(S(=O)(=O)[O-])cc4F)c4nc(c(-c5c(F)cc(S(=O)(=O)[O-])cc5F)c5ccc2[nH]5)C=C4)C=C3)cc1
REMARK SMILES IDX 6 1 5 2 4 3 3 4 1 5 2 6 34 8 35 9 99 10 36 11 98 12 37 13
REMARK SMILES IDX 38 14 39 15 92 16 40 17 97 18 91 19 93 20 41 21 96 22 90 23
REMARK SMILES IDX 89 24 42 26 76 27 55 28 75 29 56 30 59 31 74 32 94 33 57 34
REMARK SMILES IDX 58 35 73 37 95 38 60 39 43 40 44 41 53 42 45 43 46 44 52 45
REMARK SMILES IDX 54 46 47 47 48 48 49 49 50 50 51 51 77 52 78 53 87 54 79 55
REMARK SMILES IDX 80 56 86 57 88 58 81 59 82 60 83 61 84 62 85 63 61 64 62 65
REMARK SMILES IDX 71 66 63 67 64 68 70 69 72 70 65 71 66 72 67 73 68 74 69 75
REMARK SMILES IDX 7 76 8 77 9 78 10 80 11 81 12 82 33 83 13 84 15 85 14 86
REMARK SMILES IDX 16 87 17 88 18 89 19 90 32 91 20 92 31 93 21 94 22 95 23 96
REMARK SMILES IDX 24 98 25 99 26 100 30 101 27 102 29 103 28 104
REMARK H PARENT 3 7 93 25 59 36 8 79 22 97
REMARK Flexibility Score: inf
ROOT
ATOM      1  C   UNL     1       3.441  -5.034   3.442  1.00  0.00     0.023 C 
ENDROOT
BRANCH   1   2
ATOM      2  C   UNL     1       3.168  -5.324   4.921  1.00  0.00     0.023 C 
BRANCH   2   3
ATOM      3  C   UNL     1       3.640  -4.260   5.907  1.00  0.00     0.116 C 
BRANCH   3   4
ATOM      4  N   UNL     1       3.042  -2.957   5.670  1.00  0.00    -0.352 N 
ATOM      5  O   UNL     1       1.881  -1.087   6.146  1.00  0.00    -0.269 OA
ATOM      6  C   UNL     1       2.438  -2.101   6.560  1.00  0.00     0.251 C 
ATOM      7  H   UNL     1       3.075  -2.641   4.738  1.00  0.00     0.163 HD
BRANCH   6   8
ATOM      8  C   UNL     1       2.428  -2.416   8.006  1.00  0.00     0.039 A 
ATOM      9  C   UNL     1       3.584  -2.849   8.659  1.00  0.00     0.014 A 
ATOM     10  C   UNL     1       1.236  -2.263   8.722  1.00  0.00     0.014 A 
ATOM     11  C   UNL     1       3.519  -3.252   9.991  1.00  0.00     0.010 A 
ATOM     12  C   UNL     1       1.189  -2.602  10.077  1.00  0.00     0.010 A 
ATOM     13  C   UNL     1       2.322  -3.128  10.716  1.00  0.00    -0.014 A 
BRANCH  13  14
ATOM     14  C   UNL     1       2.288  -3.508  12.151  1.00  0.00     0.031 A 
ATOM     15  C   UNL     1       1.458  -4.669  12.627  1.00  0.00     0.074 A 
ATOM     16  C   UNL     1       3.028  -2.802  13.028  1.00  0.00     0.049 A 
ATOM     17  N   UNL     1       1.313  -5.133  13.842  1.00  0.00    -0.248 NA
ATOM     18  C   UNL     1       0.685  -5.399  11.611  1.00  0.00     0.031 C 
ATOM     19  C   UNL     1       3.862  -1.647  12.686  1.00  0.00     0.029 A 
ATOM     20  N   UNL     1       3.207  -2.951  14.379  1.00  0.00    -0.354 N 
ATOM     21  C   UNL     1       0.422  -6.196  13.743  1.00  0.00     0.074 A 
ATOM     22  C   UNL     1       0.042  -6.294  12.350  1.00  0.00     0.031 C 
ATOM     23  C   UNL     1       4.489  -1.214  13.790  1.00  0.00     0.029 A 
ATOM     24  C   UNL     1       4.063  -2.025  14.926  1.00  0.00     0.049 A 
ATOM     25  H   UNL     1       2.766  -3.655  14.907  1.00  0.00     0.167 HD
ATOM     26  C   UNL     1      -0.028  -7.018  14.723  1.00  0.00     0.037 A 
ATOM     27  C   UNL     1       4.451  -1.835  16.201  1.00  0.00     0.037 A 
ATOM     28  C   UNL     1       0.367  -6.923  16.105  1.00  0.00     0.049 A 
ATOM     29  C   UNL     1       3.928  -2.752  17.269  1.00  0.00     0.074 A 
ATOM     30  C   UNL     1      -0.008  -7.730  17.166  1.00  0.00     0.029 A 
ATOM     31  N   UNL     1       1.225  -5.962  16.622  1.00  0.00    -0.354 N 
ATOM     32  N   UNL     1       3.108  -3.769  17.150  1.00  0.00    -0.248 NA
ATOM     33  C   UNL     1       4.379  -2.495  18.643  1.00  0.00     0.031 C 
ATOM     34  C   UNL     1       0.592  -7.235  18.329  1.00  0.00     0.029 A 
ATOM     35  C   UNL     1       1.376  -6.144  17.987  1.00  0.00     0.049 A 
ATOM     36  H   UNL     1       1.662  -5.254  16.095  1.00  0.00     0.167 HD
ATOM     37  C   UNL     1       2.955  -4.282  18.432  1.00  0.00     0.074 A 
ATOM     38  C   UNL     1       3.779  -3.473  19.308  1.00  0.00     0.031 C 
ATOM     39  C   UNL     1       2.199  -5.329  18.846  1.00  0.00     0.037 A 
BRANCH  26  40
ATOM     40  C   UNL     1      -1.016  -8.086  14.338  1.00  0.00     0.058 A 
ATOM     41  C   UNL     1      -0.628  -9.223  13.613  1.00  0.00     0.135 A 
ATOM     42  C   UNL     1      -2.360  -7.989  14.733  1.00  0.00     0.135 A 
ATOM     43  F   UNL     1       0.642  -9.361  13.199  1.00  0.00    -0.206 F 
ATOM     44  C   UNL     1      -1.543 -10.214  13.269  1.00  0.00     0.059 A 
ATOM     45  C   UNL     1      -3.288  -8.979  14.419  1.00  0.00     0.059 A 
ATOM     46  F   UNL     1      -2.785  -6.923  15.430  1.00  0.00    -0.206 F 
ATOM     47  C   UNL     1      -2.873 -10.080  13.673  1.00  0.00     0.060 A 
BRANCH  47  48
ATOM     48  S   UNL     1      -4.051 -11.369  13.213  1.00  0.00     0.124 S 
ATOM     49  O   UNL     1      -4.254 -11.083  11.796  1.00  0.00    -0.237 OA
ATOM     50  O   UNL     1      -3.312 -12.592  13.511  1.00  0.00    -0.237 OA
ATOM     51  O   UNL     1      -5.197 -11.107  14.076  1.00  0.00    -0.744 OA
ENDBRANCH  47  48
ENDBRANCH  26  40
BRANCH  27  52
ATOM     52  C   UNL     1       5.386  -0.728  16.524  1.00  0.00     0.058 A 
ATOM     53  C   UNL     1       6.718  -0.986  16.873  1.00  0.00     0.135 A 
ATOM     54  C   UNL     1       4.976   0.612  16.445  1.00  0.00     0.135 A 
ATOM     55  F   UNL     1       7.154  -2.252  16.966  1.00  0.00    -0.206 F 
ATOM     56  C   UNL     1       7.613   0.045  17.138  1.00  0.00     0.059 A 
ATOM     57  C   UNL     1       5.858   1.661  16.680  1.00  0.00     0.059 A 
ATOM     58  F   UNL     1       3.714   0.910  16.096  1.00  0.00    -0.206 F 
ATOM     59  C   UNL     1       7.174   1.367  17.034  1.00  0.00     0.060 A 
BRANCH  59  60
ATOM     60  S   UNL     1       8.359   2.701  17.310  1.00  0.00     0.124 S 
ATOM     61  O   UNL     1       8.470   2.697  18.764  1.00  0.00    -0.237 OA
ATOM     62  O   UNL     1       9.531   2.229  16.579  1.00  0.00    -0.237 OA
ATOM     63  O   UNL     1       7.694   3.863  16.729  1.00  0.00    -0.744 OA
ENDBRANCH  59  60
ENDBRANCH  27  52
BRANCH  39  64
ATOM     64  C   UNL     1       2.244  -5.671  20.308  1.00  0.00     0.058 A 
ATOM     65  C   UNL     1       1.584  -4.888  21.266  1.00  0.00     0.135 A 
ATOM     66  C   UNL     1       2.925  -6.817  20.749  1.00  0.00     0.135 A 
ATOM     67  F   UNL     1       0.927  -3.778  20.896  1.00  0.00    -0.206 F 
ATOM     68  C   UNL     1       1.614  -5.218  22.617  1.00  0.00     0.059 A 
ATOM     69  C   UNL     1       2.949  -7.178  22.092  1.00  0.00     0.059 A 
ATOM     70  F   UNL     1       3.566  -7.604  19.870  1.00  0.00    -0.206 F 
ATOM     71  C   UNL     1       2.300  -6.365  23.021  1.00  0.00     0.060 A 
BRANCH  71  72
ATOM     72  S   UNL     1       2.307  -6.802  24.773  1.00  0.00     0.124 S 
ATOM     73  O   UNL     1       3.279  -5.854  25.307  1.00  0.00    -0.237 OA
ATOM     74  O   UNL     1       0.918  -6.572  25.160  1.00  0.00    -0.237 OA
ATOM     75  O   UNL     1       2.727  -8.200  24.771  1.00  0.00    -0.744 OA
ENDBRANCH  71  72
ENDBRANCH  39  64
ENDBRANCH  13  14
ENDBRANCH   6   8
ENDBRANCH   3   4
ENDBRANCH   2   3
ENDBRANCH   1   2
BRANCH   1  76
ATOM     76  C   UNL     1       4.878  -4.630   3.114  1.00  0.00     0.116 C 
BRANCH  76  77
ATOM     77  N   UNL     1       5.835  -5.638   3.526  1.00  0.00    -0.356 N 
ATOM     78  C   UNL     1       6.593  -6.569   2.917  1.00  0.00     0.224 C 
ATOM     79  H   UNL     1       5.963  -5.644   4.503  1.00  0.00     0.163 HD
ATOM     80  O   UNL     1       7.276  -7.254   3.693  1.00  0.00    -0.275 OA
BRANCH  78  81
ATOM     81  C   UNL     1       6.735  -6.805   1.414  1.00  0.00     0.098 C 
ATOM     82  C   UNL     1       6.714  -8.333   1.178  1.00  0.00     0.017 C 
ATOM     83  C   UNL     1       5.781  -6.122   0.438  1.00  0.00     0.133 C 
ATOM     84  C   UNL     1       6.999  -8.680  -0.276  1.00  0.00     0.022 C 
ATOM     85  N   UNL     1       6.053  -6.511  -0.956  1.00  0.00    -0.338 N 
ATOM     86  C   UNL     1       6.043  -7.952  -1.208  1.00  0.00     0.120 C 
BRANCH  85  87
ATOM     87  C   UNL     1       6.347  -5.502  -1.878  1.00  0.00     0.253 C 
ATOM     88  O   UNL     1       6.294  -4.303  -1.607  1.00  0.00    -0.269 OA
BRANCH  87  89
ATOM     89  C   UNL     1       6.862  -5.850  -3.221  1.00  0.00     0.040 A 
ATOM     90  C   UNL     1       8.091  -5.303  -3.595  1.00  0.00     0.016 A 
ATOM     91  C   UNL     1       6.175  -6.672  -4.113  1.00  0.00     0.016 A 
ATOM     92  C   UNL     1       8.691  -5.683  -4.796  1.00  0.00     0.027 A 
ATOM     93  C   UNL     1       6.803  -7.085  -5.294  1.00  0.00     0.027 A 
ATOM     94  C   UNL     1       8.099  -6.650  -5.608  1.00  0.00     0.041 A 
BRANCH  94  95
ATOM     95  N   UNL     1       8.714  -7.228  -6.734  1.00  0.00    -0.322 N 
ATOM     96  C   UNL     1      10.020  -7.249  -7.175  1.00  0.00     0.255 C 
ATOM     97  H   UNL     1       8.089  -7.712  -7.321  1.00  0.00     0.170 HD
ATOM     98  O   UNL     1      10.276  -7.701  -8.292  1.00  0.00    -0.269 OA
BRANCH  96  99
ATOM     99  C   UNL     1      11.142  -6.786  -6.335  1.00  0.00     0.040 A 
ATOM    100  C   UNL     1      12.008  -5.822  -6.861  1.00  0.00     0.014 A 
ATOM    101  C   UNL     1      11.348  -7.292  -5.045  1.00  0.00     0.014 A 
ATOM    102  C   UNL     1      13.033  -5.306  -6.067  1.00  0.00     0.001 A 
ATOM    103  C   UNL     1      12.368  -6.764  -4.252  1.00  0.00     0.001 A 
ATOM    104  C   UNL     1      13.201  -5.765  -4.760  1.00  0.00     0.000 A 
ENDBRANCH  96  99
ENDBRANCH  94  95
ENDBRANCH  87  89
ENDBRANCH  85  87
ENDBRANCH  78  81
ENDBRANCH  76  77
ENDBRANCH   1  76
TORSDOF 18
