REMARK SMILES CC(C)[NH2+][C@]1(C(=O)NCCCCNC(=O)c2ccc(-c3c4nc(c(-c5c(F)cc(S(=O)(=O)[O-])cc5F)c5ccc([nH]5)c(-c5c(F)cc(S(=O)(=O)[O-])cc5F)c5nc(c(-c6c(F)cc(S(=O)(=O)[O-])cc6F)c6ccc3[nH]6)C=C5)C=C4)cc2)CC[C@H]([N@H+](C)C2CCCC2)C1
REMARK SMILES IDX 11 1 10 2 9 3 8 4 6 5 7 6 5 8 82 9 92 10 83 11 84 12 4 13
REMARK SMILES IDX 2 16 1 17 3 18 85 19 86 20 87 22 88 23 91 24 89 25 90 26
REMARK SMILES IDX 12 27 13 28 14 29 15 31 16 32 17 33 81 34 18 35 80 36 19 37
REMARK SMILES IDX 20 38 21 39 74 40 22 41 79 42 73 43 75 44 23 45 78 46 72 47
REMARK SMILES IDX 71 48 24 50 58 51 37 52 57 53 38 54 41 55 56 56 76 57 39 58
REMARK SMILES IDX 40 59 55 61 77 62 42 63 25 64 26 65 35 66 27 67 28 68 34 69
REMARK SMILES IDX 36 70 29 71 30 72 31 73 32 74 33 75 59 76 60 77 69 78 61 79
REMARK SMILES IDX 62 80 68 81 70 82 63 83 64 84 65 85 66 86 67 87 43 88 44 89
REMARK SMILES IDX 53 90 45 91 46 92 52 93 54 94 47 95 48 96 49 97 50 98 51 99
REMARK H PARENT 8 7 4 14 4 15 85 21 13 30 75 49 41 60
REMARK Flexibility Score: inf
ROOT
ATOM      1  C   UNL     1       0.886  -0.450   4.056  1.00  0.00     0.023 C 
ENDROOT
BRANCH   1   2
ATOM      2  C   UNL     1      -0.235   0.486   3.621  1.00  0.00     0.023 C 
BRANCH   2   3
ATOM      3  C   UNL     1       0.176   1.592   2.645  1.00  0.00     0.116 C 
BRANCH   3   4
ATOM      4  N   UNL     1       0.179   1.122   1.270  1.00  0.00    -0.351 N 
ATOM      5  C   UNL     1      -0.647   1.455   0.229  1.00  0.00     0.281 C 
ATOM      6  O   UNL     1      -0.532   0.797  -0.811  1.00  0.00    -0.268 OA
ATOM      7  H   UNL     1       0.881   0.466   1.054  1.00  0.00     0.163 HD
BRANCH   5   8
ATOM      8  C   UNL     1      -1.661   2.633   0.336  1.00  0.00     0.181 C 
ATOM      9  C   UNL     1      -0.861   3.946   0.480  1.00  0.00     0.085 C 
ATOM     10  C   UNL     1      -2.355   2.932  -1.010  1.00  0.00     0.144 C 
ATOM     11  C   UNL     1      -1.768   5.062  -0.028  1.00  0.00     0.072 C 
ATOM     12  C   UNL     1      -2.793   4.420  -0.990  1.00  0.00     0.191 C 
BRANCH   8  13
ATOM     13  N   UNL     1      -2.636   2.495   1.444  1.00  0.00    -0.331 N 
ATOM     14  H   UNL     1      -2.190   2.861   2.285  1.00  0.00     0.347 HD
ATOM     15  H   UNL     1      -3.460   2.999   1.116  1.00  0.00     0.347 HD
BRANCH  13  16
ATOM     16  C   UNL     1      -3.142   1.159   1.771  1.00  0.00     0.176 C 
ATOM     17  C   UNL     1      -3.740   1.249   3.179  1.00  0.00     0.075 C 
ATOM     18  C   UNL     1      -4.165   0.543   0.824  1.00  0.00     0.075 C 
ENDBRANCH  13  16
ENDBRANCH   8  13
BRANCH  12  19
ATOM     19  N   UNL     1      -4.165   4.783  -0.536  1.00  0.00    -0.332 N 
ATOM     20  C   UNL     1      -5.160   3.751  -0.838  1.00  0.00     0.333 C 
ATOM     21  H   UNL     1      -4.086   4.875   0.477  1.00  0.00     0.348 HD
BRANCH  19  22
ATOM     22  C   UNL     1      -4.628   6.068  -1.118  1.00  0.00     0.184 C 
ATOM     23  C   UNL     1      -5.893   6.624  -0.442  1.00  0.00     0.065 C 
ATOM     24  C   UNL     1      -3.699   7.284  -0.999  1.00  0.00     0.065 C 
ATOM     25  C   UNL     1      -6.012   8.045  -0.983  1.00  0.00     0.006 C 
ATOM     26  C   UNL     1      -4.592   8.475  -1.338  1.00  0.00     0.006 C 
ENDBRANCH  19  22
ENDBRANCH  12  19
ENDBRANCH   5   8
ENDBRANCH   3   4
ENDBRANCH   2   3
ENDBRANCH   1   2
BRANCH   1  27
ATOM     27  C   UNL     1       2.032   0.231   4.782  1.00  0.00     0.116 C 
BRANCH  27  28
ATOM     28  N   UNL     1       1.616   1.033   5.926  1.00  0.00    -0.352 N 
ATOM     29  C   UNL     1       2.356   1.328   7.048  1.00  0.00     0.251 C 
ATOM     30  H   UNL     1       0.705   1.405   5.892  1.00  0.00     0.163 HD
ATOM     31  O   UNL     1       1.876   1.960   7.979  1.00  0.00    -0.269 OA
BRANCH  29  32
ATOM     32  C   UNL     1       3.735   0.808   7.112  1.00  0.00     0.039 A 
ATOM     33  C   UNL     1       4.082  -0.052   8.154  1.00  0.00     0.014 A 
ATOM     34  C   UNL     1       4.618   1.060   6.059  1.00  0.00     0.014 A 
ATOM     35  C   UNL     1       5.301  -0.727   8.099  1.00  0.00     0.010 A 
ATOM     36  C   UNL     1       5.790   0.325   5.966  1.00  0.00     0.010 A 
ATOM     37  C   UNL     1       6.142  -0.575   6.984  1.00  0.00    -0.014 A 
BRANCH  37  38
ATOM     38  C   UNL     1       7.406  -1.339   6.860  1.00  0.00     0.031 A 
ATOM     39  C   UNL     1       8.713  -0.599   6.824  1.00  0.00     0.074 A 
ATOM     40  C   UNL     1       7.369  -2.675   6.692  1.00  0.00     0.049 A 
ATOM     41  N   UNL     1       9.918  -1.061   6.620  1.00  0.00    -0.248 NA
ATOM     42  C   UNL     1       8.651   0.862   6.997  1.00  0.00     0.031 C 
ATOM     43  C   UNL     1       6.153  -3.491   6.633  1.00  0.00     0.029 A 
ATOM     44  N   UNL     1       8.383  -3.582   6.524  1.00  0.00    -0.354 N 
ATOM     45  C   UNL     1      10.749   0.052   6.604  1.00  0.00     0.074 A 
ATOM     46  C   UNL     1       9.906   1.215   6.771  1.00  0.00     0.031 C 
ATOM     47  C   UNL     1       6.495  -4.780   6.466  1.00  0.00     0.029 A 
ATOM     48  C   UNL     1       7.949  -4.878   6.381  1.00  0.00     0.049 A 
ATOM     49  H   UNL     1       9.335  -3.328   6.508  1.00  0.00     0.167 HD
ATOM     50  C   UNL     1      12.097   0.098   6.488  1.00  0.00     0.037 A 
ATOM     51  C   UNL     1       8.648  -6.016   6.205  1.00  0.00     0.037 A 
ATOM     52  C   UNL     1      12.931  -1.068   6.385  1.00  0.00     0.049 A 
ATOM     53  C   UNL     1      10.149  -5.949   6.160  1.00  0.00     0.074 A 
ATOM     54  C   UNL     1      14.311  -1.140   6.346  1.00  0.00     0.029 A 
ATOM     55  N   UNL     1      12.458  -2.370   6.319  1.00  0.00    -0.354 N 
ATOM     56  N   UNL     1      10.926  -4.893   6.214  1.00  0.00    -0.248 NA
ATOM     57  C   UNL     1      10.870  -7.223   6.042  1.00  0.00     0.031 C 
ATOM     58  C   UNL     1      14.674  -2.488   6.239  1.00  0.00     0.029 A 
ATOM     59  C   UNL     1      13.519  -3.255   6.238  1.00  0.00     0.049 A 
ATOM     60  H   UNL     1      11.508  -2.627   6.327  1.00  0.00     0.167 HD
ATOM     61  C   UNL     1      12.228  -5.376   6.157  1.00  0.00     0.074 A 
ATOM     62  C   UNL     1      12.133  -6.820   6.075  1.00  0.00     0.031 C 
ATOM     63  C   UNL     1      13.396  -4.689   6.169  1.00  0.00     0.037 A 
BRANCH  50  64
ATOM     64  C   UNL     1      12.740   1.455   6.484  1.00  0.00     0.058 A 
ATOM     65  C   UNL     1      12.806   2.239   7.647  1.00  0.00     0.135 A 
ATOM     66  C   UNL     1      13.287   1.983   5.304  1.00  0.00     0.135 A 
ATOM     67  F   UNL     1      12.279   1.789   8.797  1.00  0.00    -0.206 F 
ATOM     68  C   UNL     1      13.357   3.516   7.632  1.00  0.00     0.059 A 
ATOM     69  C   UNL     1      13.866   3.248   5.272  1.00  0.00     0.059 A 
ATOM     70  F   UNL     1      13.246   1.276   4.164  1.00  0.00    -0.206 F 
ATOM     71  C   UNL     1      13.878   4.015   6.437  1.00  0.00     0.060 A 
BRANCH  71  72
ATOM     72  S   UNL     1      14.574   5.680   6.425  1.00  0.00     0.124 S 
ATOM     73  O   UNL     1      13.367   6.498   6.374  1.00  0.00    -0.237 OA
ATOM     74  O   UNL     1      15.315   5.723   7.682  1.00  0.00    -0.237 OA
ATOM     75  O   UNL     1      15.395   5.694   5.218  1.00  0.00    -0.744 OA
ENDBRANCH  71  72
ENDBRANCH  50  64
BRANCH  51  76
ATOM     76  C   UNL     1       7.935  -7.316   6.106  1.00  0.00     0.058 A 
ATOM     77  C   UNL     1       7.937  -8.217   7.181  1.00  0.00     0.135 A 
ATOM     78  C   UNL     1       7.218  -7.671   4.954  1.00  0.00     0.135 A 
ATOM     79  F   UNL     1       8.612  -7.921   8.302  1.00  0.00    -0.206 F 
ATOM     80  C   UNL     1       7.263  -9.431   7.115  1.00  0.00     0.059 A 
ATOM     81  C   UNL     1       6.520  -8.873   4.871  1.00  0.00     0.059 A 
ATOM     82  F   UNL     1       7.171  -6.834   3.906  1.00  0.00    -0.206 F 
ATOM     83  C   UNL     1       6.555  -9.750   5.955  1.00  0.00     0.060 A 
BRANCH  83  84
ATOM     84  S   UNL     1       5.631 -11.302   5.900  1.00  0.00     0.124 S 
ATOM     85  O   UNL     1       6.697 -12.270   5.669  1.00  0.00    -0.237 OA
ATOM     86  O   UNL     1       5.009 -11.339   7.220  1.00  0.00    -0.237 OA
ATOM     87  O   UNL     1       4.707 -11.100   4.787  1.00  0.00    -0.744 OA
ENDBRANCH  83  84
ENDBRANCH  51  76
BRANCH  63  88
ATOM     88  C   UNL     1      14.664  -5.489   6.120  1.00  0.00     0.058 A 
ATOM     89  C   UNL     1      15.124  -6.057   4.922  1.00  0.00     0.135 A 
ATOM     90  C   UNL     1      15.456  -5.636   7.269  1.00  0.00     0.135 A 
ATOM     91  F   UNL     1      14.396  -5.947   3.799  1.00  0.00    -0.206 F 
ATOM     92  C   UNL     1      16.323  -6.757   4.868  1.00  0.00     0.059 A 
ATOM     93  C   UNL     1      16.669  -6.316   7.233  1.00  0.00     0.059 A 
ATOM     94  F   UNL     1      15.061  -5.102   8.435  1.00  0.00    -0.206 F 
ATOM     95  C   UNL     1      17.089  -6.881   6.029  1.00  0.00     0.060 A 
BRANCH  95  96
ATOM     96  S   UNL     1      18.667  -7.754   5.941  1.00  0.00     0.124 S 
ATOM     97  O   UNL     1      18.232  -9.147   5.957  1.00  0.00    -0.237 OA
ATOM     98  O   UNL     1      19.222  -7.278   4.677  1.00  0.00    -0.237 OA
ATOM     99  O   UNL     1      19.371  -7.301   7.136  1.00  0.00    -0.744 OA
ENDBRANCH  95  96
ENDBRANCH  63  88
ENDBRANCH  37  38
ENDBRANCH  29  32
ENDBRANCH  27  28
ENDBRANCH   1  27
TORSDOF 18
