REMARK SMILES CCc1cc(C(=O)c2[nH]c3cc(Cl)ccc3c2CC(=O)NCCCCNC(=O)c2ccc(-c3c4nc(c(-c5c(F)cc(S(=O)(=O)[O-])cc5F)c5ccc([nH]5)c(-c5c(F)cc(S(=O)(=O)[O-])cc5F)c5nc(c(-c6c(F)cc(S(=O)(=O)[O-])cc6F)c6ccc3[nH]6)C=C5)C=C4)cc2)ncc1Cl
REMARK SMILES IDX 23 1 22 2 21 3 19 4 20 5 18 7 17 8 8 9 9 10 10 11 16 13
REMARK SMILES IDX 11 14 15 15 12 16 14 17 13 18 6 19 7 20 5 21 3 22 4 23 97 24
REMARK SMILES IDX 96 25 98 26 95 27 2 28 1 29 24 30 25 31 26 32 27 33 28 35
REMARK SMILES IDX 29 36 30 37 94 38 31 39 93 40 32 41 33 42 34 43 87 44 35 45
REMARK SMILES IDX 92 46 86 47 88 48 36 49 91 50 85 51 84 52 37 54 71 55 50 56
REMARK SMILES IDX 70 57 51 58 54 59 69 60 89 61 52 62 53 63 68 65 90 66 55 67
REMARK SMILES IDX 38 68 39 69 48 70 40 71 41 72 47 73 49 74 42 75 43 76 44 77
REMARK SMILES IDX 45 78 46 79 72 80 73 81 82 82 74 83 75 84 81 85 83 86 76 87
REMARK SMILES IDX 77 88 78 89 79 90 80 91 56 92 57 93 66 94 58 95 59 96 65 97
REMARK SMILES IDX 67 98 60 99 61 100 62 101 63 102 64 103
REMARK H PARENT 21 6 9 12 26 34 88 53 54 64
REMARK Flexibility Score: inf
ROOT
ATOM      1  C   UNL     1       5.005  -2.595   6.859  1.00  0.00     0.023 C 
ENDROOT
BRANCH   1   2
ATOM      2  C   UNL     1       6.348  -2.885   6.195  1.00  0.00     0.116 C 
BRANCH   2   3
ATOM      3  N   UNL     1       6.307  -4.013   5.290  1.00  0.00    -0.356 N 
ATOM      4  C   UNL     1       6.265  -4.026   3.925  1.00  0.00     0.224 C 
ATOM      5  O   UNL     1       6.473  -5.097   3.349  1.00  0.00    -0.275 OA
ATOM      6  H   UNL     1       6.309  -4.899   5.720  1.00  0.00     0.163 HD
BRANCH   4   7
ATOM      7  C   UNL     1       6.113  -2.738   3.131  1.00  0.00     0.138 C 
BRANCH   7   8
ATOM      8  C   UNL     1       4.857  -1.948   3.386  1.00  0.00    -0.002 A 
ATOM      9  C   UNL     1       3.540  -2.352   3.175  1.00  0.00     0.093 A 
ATOM     10  N   UNL     1       2.726  -1.329   3.609  1.00  0.00    -0.351 N 
ATOM     11  C   UNL     1       3.466  -0.229   3.960  1.00  0.00     0.048 A 
ATOM     12  H   UNL     1       1.744  -1.380   3.660  1.00  0.00     0.167 HD
ATOM     13  C   UNL     1       4.808  -0.579   3.824  1.00  0.00     0.004 A 
ATOM     14  C   UNL     1       3.048   1.034   4.401  1.00  0.00     0.047 A 
ATOM     15  C   UNL     1       5.786   0.390   4.135  1.00  0.00     0.012 A 
ATOM     16  C   UNL     1       4.040   1.970   4.700  1.00  0.00     0.043 A 
ATOM     17  C   UNL     1       5.390   1.661   4.571  1.00  0.00     0.021 A 
ATOM     18  Cl  UNL     1       3.578   3.541   5.236  1.00  0.00    -0.084 Cl
BRANCH   9  19
ATOM     19  C   UNL     1       3.028  -3.619   2.674  1.00  0.00     0.227 C 
ATOM     20  O   UNL     1       3.406  -4.694   3.127  1.00  0.00    -0.285 OA
BRANCH  19  21
ATOM     21  C   UNL     1       2.000  -3.591   1.570  1.00  0.00     0.113 A 
ATOM     22  C   UNL     1       0.888  -2.492  -0.289  1.00  0.00    -0.026 A 
ATOM     23  C   UNL     1       1.871  -2.491   0.718  1.00  0.00     0.037 A 
ATOM     24  C   UNL     1       0.116  -3.656  -0.435  1.00  0.00     0.062 A 
ATOM     25  C   UNL     1       0.322  -4.711   0.445  1.00  0.00     0.132 A 
ATOM     26  Cl  UNL     1      -1.068  -3.837  -1.675  1.00  0.00    -0.082 Cl
ATOM     27  N   UNL     1       1.228  -4.697   1.449  1.00  0.00    -0.251 NA
BRANCH  22  28
ATOM     28  C   UNL     1       0.702  -1.313  -1.221  1.00  0.00     0.034 C 
ATOM     29  C   UNL     1       1.216   0.033  -0.719  1.00  0.00     0.009 C 
ENDBRANCH  22  28
ENDBRANCH  19  21
ENDBRANCH   9  19
ENDBRANCH   7   8
ENDBRANCH   4   7
ENDBRANCH   2   3
ENDBRANCH   1   2
BRANCH   1  30
ATOM     30  C   UNL     1       4.510  -3.655   7.848  1.00  0.00     0.023 C 
BRANCH  30  31
ATOM     31  C   UNL     1       5.472  -4.032   8.973  1.00  0.00     0.116 C 
BRANCH  31  32
ATOM     32  N   UNL     1       5.965  -2.884   9.714  1.00  0.00    -0.352 N 
ATOM     33  C   UNL     1       6.273  -2.759  11.045  1.00  0.00     0.251 C 
ATOM     34  H   UNL     1       6.098  -2.069   9.178  1.00  0.00     0.163 HD
ATOM     35  O   UNL     1       6.598  -1.657  11.480  1.00  0.00    -0.269 OA
BRANCH  33  36
ATOM     36  C   UNL     1       6.187  -3.917  11.965  1.00  0.00     0.039 A 
ATOM     37  C   UNL     1       5.612  -3.712  13.225  1.00  0.00     0.014 A 
ATOM     38  C   UNL     1       6.699  -5.175  11.631  1.00  0.00     0.014 A 
ATOM     39  C   UNL     1       5.496  -4.773  14.125  1.00  0.00     0.010 A 
ATOM     40  C   UNL     1       6.561  -6.242  12.521  1.00  0.00     0.010 A 
ATOM     41  C   UNL     1       5.953  -6.050  13.770  1.00  0.00    -0.014 A 
BRANCH  41  42
ATOM     42  C   UNL     1       5.788  -7.196  14.694  1.00  0.00     0.031 A 
ATOM     43  C   UNL     1       6.960  -7.731  15.460  1.00  0.00     0.074 A 
ATOM     44  C   UNL     1       4.584  -7.783  14.814  1.00  0.00     0.049 A 
ATOM     45  N   UNL     1       7.029  -8.789  16.226  1.00  0.00    -0.248 NA
ATOM     46  C   UNL     1       8.222  -6.987  15.337  1.00  0.00     0.031 C 
ATOM     47  C   UNL     1       3.370  -7.372  14.107  1.00  0.00     0.029 A 
ATOM     48  N   UNL     1       4.186  -8.855  15.569  1.00  0.00    -0.354 N 
ATOM     49  C   UNL     1       8.350  -8.867  16.642  1.00  0.00     0.074 A 
ATOM     50  C   UNL     1       9.042  -7.731  16.066  1.00  0.00     0.031 C 
ATOM     51  C   UNL     1       2.359  -8.176  14.472  1.00  0.00     0.029 A 
ATOM     52  C   UNL     1       2.858  -9.166  15.423  1.00  0.00     0.049 A 
ATOM     53  H   UNL     1       4.796  -9.355  16.159  1.00  0.00     0.167 HD
ATOM     54  C   UNL     1       8.938  -9.807  17.420  1.00  0.00     0.037 A 
ATOM     55  C   UNL     1       2.125 -10.143  15.988  1.00  0.00     0.037 A 
ATOM     56  C   UNL     1       8.252 -10.916  18.025  1.00  0.00     0.049 A 
ATOM     57  C   UNL     1       2.771 -11.103  16.940  1.00  0.00     0.074 A 
ATOM     58  C   UNL     1       8.769 -11.934  18.807  1.00  0.00     0.029 A 
ATOM     59  N   UNL     1       6.886 -11.139  17.932  1.00  0.00    -0.354 N 
ATOM     60  N   UNL     1       4.030 -11.185  17.294  1.00  0.00    -0.248 NA
ATOM     61  C   UNL     1       1.897 -12.103  17.569  1.00  0.00     0.031 C 
ATOM     62  C   UNL     1       7.711 -12.766  19.200  1.00  0.00     0.029 A 
ATOM     63  C   UNL     1       6.538 -12.264  18.660  1.00  0.00     0.049 A 
ATOM     64  H   UNL     1       6.256 -10.579  17.423  1.00  0.00     0.167 HD
ATOM     65  C   UNL     1       4.105 -12.253  18.178  1.00  0.00     0.074 A 
ATOM     66  C   UNL     1       2.760 -12.777  18.319  1.00  0.00     0.031 C 
ATOM     67  C   UNL     1       5.194 -12.761  18.804  1.00  0.00     0.037 A 
BRANCH  54  68
ATOM     68  C   UNL     1      10.415  -9.667  17.627  1.00  0.00     0.058 A 
ATOM     69  C   UNL     1      10.934  -8.883  18.668  1.00  0.00     0.135 A 
ATOM     70  C   UNL     1      11.316 -10.281  16.745  1.00  0.00     0.135 A 
ATOM     71  F   UNL     1      10.107  -8.261  19.522  1.00  0.00    -0.206 F 
ATOM     72  C   UNL     1      12.304  -8.688  18.812  1.00  0.00     0.059 A 
ATOM     73  C   UNL     1      12.689 -10.102  16.872  1.00  0.00     0.059 A 
ATOM     74  F   UNL     1      10.863 -11.029  15.727  1.00  0.00    -0.206 F 
ATOM     75  C   UNL     1      13.172  -9.287  17.897  1.00  0.00     0.060 A 
BRANCH  75  76
ATOM     76  S   UNL     1      14.951  -9.002  18.021  1.00  0.00     0.124 S 
ATOM     77  O   UNL     1      15.138  -7.922  17.057  1.00  0.00    -0.237 OA
ATOM     78  O   UNL     1      15.133  -8.634  19.422  1.00  0.00    -0.237 OA
ATOM     79  O   UNL     1      15.512 -10.294  17.640  1.00  0.00    -0.744 OA
ENDBRANCH  75  76
ENDBRANCH  54  68
BRANCH  55  80
ATOM     80  C   UNL     1       0.684 -10.241  15.664  1.00  0.00     0.058 A 
ATOM     81  C   UNL     1      -0.268  -9.564  16.437  1.00  0.00     0.135 A 
ATOM     82  C   UNL     1       0.244 -10.951  14.540  1.00  0.00     0.135 A 
ATOM     83  F   UNL     1       0.118  -8.869  17.519  1.00  0.00    -0.206 F 
ATOM     84  C   UNL     1      -1.616  -9.577  16.101  1.00  0.00     0.059 A 
ATOM     85  C   UNL     1      -1.099 -10.976  14.181  1.00  0.00     0.059 A 
ATOM     86  F   UNL     1       1.126 -11.605  13.769  1.00  0.00    -0.206 F 
ATOM     87  C   UNL     1      -2.022 -10.284  14.968  1.00  0.00     0.060 A 
BRANCH  87  88
ATOM     88  S   UNL     1      -3.754 -10.232  14.455  1.00  0.00     0.124 S 
ATOM     89  O   UNL     1      -4.276 -11.449  15.065  1.00  0.00    -0.237 OA
ATOM     90  O   UNL     1      -4.228  -8.978  15.032  1.00  0.00    -0.237 OA
ATOM     91  O   UNL     1      -3.654 -10.241  12.998  1.00  0.00    -0.744 OA
ENDBRANCH  87  88
ENDBRANCH  55  80
BRANCH  67  92
ATOM     92  C   UNL     1       4.966 -13.938  19.702  1.00  0.00     0.058 A 
ATOM     93  C   UNL     1       5.033 -15.248  19.204  1.00  0.00     0.135 A 
ATOM     94  C   UNL     1       4.688 -13.760  21.064  1.00  0.00     0.135 A 
ATOM     95  F   UNL     1       5.292 -15.464  17.904  1.00  0.00    -0.206 F 
ATOM     96  C   UNL     1       4.820 -16.347  20.028  1.00  0.00     0.059 A 
ATOM     97  C   UNL     1       4.470 -14.845  21.906  1.00  0.00     0.059 A 
ATOM     98  F   UNL     1       4.609 -12.524  21.581  1.00  0.00    -0.206 F 
ATOM     99  C   UNL     1       4.529 -16.136  21.377  1.00  0.00     0.060 A 
BRANCH  99 100
ATOM    100  S   UNL     1       4.258 -17.553  22.463  1.00  0.00     0.124 S 
ATOM    101  O   UNL     1       2.808 -17.702  22.393  1.00  0.00    -0.237 OA
ATOM    102  O   UNL     1       5.033 -18.612  21.824  1.00  0.00    -0.237 OA
ATOM    103  O   UNL     1       4.785 -17.088  23.743  1.00  0.00    -0.744 OA
ENDBRANCH  99 100
ENDBRANCH  67  92
ENDBRANCH  41  42
ENDBRANCH  33  36
ENDBRANCH  31  32
ENDBRANCH  30  31
ENDBRANCH   1  30
TORSDOF 18
