REMARK SMILES COC[C@H](C)[C@H](CC(C)C)C(=O)NCCCCNC(=O)c1ccc(-c2c3nc(c(-c4c(F)cc(S(=O)(=O)[O-])cc4F)c4ccc([nH]4)c(-c4c(F)cc(S(=O)(=O)[O-])cc4F)c4nc(c(-c5c(F)cc(S(=O)(=O)[O-])cc5F)c5ccc2[nH]5)C=C4)C=C3)cc1
REMARK SMILES IDX 15 1 14 2 13 3 11 4 12 5 6 7 4 8 5 9 3 10 2 11 1 12 7 13
REMARK SMILES IDX 8 14 9 15 10 16 16 17 17 18 18 19 19 20 20 22 21 23 22 24
REMARK SMILES IDX 86 25 23 26 85 27 24 28 25 29 26 30 79 31 27 32 84 33 78 34
REMARK SMILES IDX 80 35 28 36 83 37 77 38 76 39 29 41 63 42 42 43 62 44 43 45
REMARK SMILES IDX 46 46 61 47 81 48 44 49 45 50 60 52 82 53 47 54 30 55 31 56
REMARK SMILES IDX 40 57 32 58 33 59 39 60 41 61 34 62 35 63 36 64 37 65 38 66
REMARK SMILES IDX 64 67 65 68 74 69 66 70 67 71 73 72 75 73 68 74 69 75 70 76
REMARK SMILES IDX 71 77 72 78 48 79 49 80 58 81 50 82 51 83 57 84 59 85 52 86
REMARK SMILES IDX 53 87 54 88 55 89 56 90
REMARK H PARENT 13 6 18 21 80 40 46 51
REMARK Flexibility Score: inf
ROOT
ATOM      1  C   UNL     1      -3.049  -1.168   3.193  1.00  0.00     0.023 C 
ENDROOT
BRANCH   1   2
ATOM      2  C   UNL     1      -2.216  -0.246   4.073  1.00  0.00     0.116 C 
BRANCH   2   3
ATOM      3  N   UNL     1      -1.214  -0.934   4.853  1.00  0.00    -0.356 N 
ATOM      4  C   UNL     1       0.125  -0.757   4.972  1.00  0.00     0.223 C 
ATOM      5  O   UNL     1       0.714  -1.528   5.736  1.00  0.00    -0.275 OA
ATOM      6  H   UNL     1      -1.570  -1.670   5.402  1.00  0.00     0.163 HD
BRANCH   4   7
ATOM      7  C   UNL     1       0.903   0.287   4.174  1.00  0.00     0.084 C 
BRANCH   7   8
ATOM      8  C   UNL     1       0.747   1.767   4.687  1.00  0.00     0.024 C 
ATOM      9  C   UNL     1      -0.624   2.437   4.554  1.00  0.00     0.011 C 
BRANCH   8  10
ATOM     10  C   UNL     1       1.302   2.027   6.111  1.00  0.00     0.163 C 
BRANCH  10  11
ATOM     11  O   UNL     1       1.083   1.001   7.062  1.00  0.00    -0.384 OA
ATOM     12  C   UNL     1      -0.175   1.029   7.715  1.00  0.00     0.194 C 
ENDBRANCH  10  11
ENDBRANCH   8  10
ENDBRANCH   7   8
BRANCH   7  13
ATOM     13  C   UNL     1       0.744   0.144   2.637  1.00  0.00     0.017 C 
BRANCH  13  14
ATOM     14  C   UNL     1       1.036  -1.219   1.941  1.00  0.00    -0.017 C 
ATOM     15  C   UNL     1       0.561  -2.506   2.616  1.00  0.00     0.007 C 
ATOM     16  C   UNL     1       0.439  -1.179   0.525  1.00  0.00     0.007 C 
ENDBRANCH  13  14
ENDBRANCH   7  13
ENDBRANCH   4   7
ENDBRANCH   2   3
ENDBRANCH   1   2
BRANCH   1  17
ATOM     17  C   UNL     1      -3.808  -2.237   3.967  1.00  0.00     0.023 C 
BRANCH  17  18
ATOM     18  C   UNL     1      -4.595  -1.690   5.147  1.00  0.00     0.116 C 
BRANCH  18  19
ATOM     19  N   UNL     1      -5.501  -0.619   4.753  1.00  0.00    -0.352 N 
ATOM     20  C   UNL     1      -6.851  -0.522   4.962  1.00  0.00     0.251 C 
ATOM     21  H   UNL     1      -5.088   0.135   4.272  1.00  0.00     0.163 HD
ATOM     22  O   UNL     1      -7.508   0.341   4.385  1.00  0.00    -0.269 OA
BRANCH  20  23
ATOM     23  C   UNL     1      -7.493  -1.479   5.878  1.00  0.00     0.039 A 
ATOM     24  C   UNL     1      -8.682  -2.099   5.497  1.00  0.00     0.014 A 
ATOM     25  C   UNL     1      -6.886  -1.785   7.100  1.00  0.00     0.014 A 
ATOM     26  C   UNL     1      -9.250  -3.052   6.339  1.00  0.00     0.010 A 
ATOM     27  C   UNL     1      -7.391  -2.814   7.878  1.00  0.00     0.010 A 
ATOM     28  C   UNL     1      -8.600  -3.428   7.527  1.00  0.00    -0.014 A 
BRANCH  28  29
ATOM     29  C   UNL     1      -9.212  -4.405   8.458  1.00  0.00     0.031 A 
ATOM     30  C   UNL     1      -9.592  -3.963   9.848  1.00  0.00     0.074 A 
ATOM     31  C   UNL     1      -9.394  -5.680   8.067  1.00  0.00     0.049 A 
ATOM     32  N   UNL     1     -10.130  -4.657  10.816  1.00  0.00    -0.248 NA
ATOM     33  C   UNL     1      -9.294  -2.567  10.211  1.00  0.00     0.031 C 
ATOM     34  C   UNL     1      -9.009  -6.232   6.766  1.00  0.00     0.029 A 
ATOM     35  N   UNL     1      -9.955  -6.744   8.725  1.00  0.00    -0.354 N 
ATOM     36  C   UNL     1     -10.216  -3.790  11.899  1.00  0.00     0.074 A 
ATOM     37  C   UNL     1      -9.607  -2.544  11.497  1.00  0.00     0.031 C 
ATOM     38  C   UNL     1      -9.386  -7.520   6.706  1.00  0.00     0.029 A 
ATOM     39  C   UNL     1     -10.006  -7.893   7.973  1.00  0.00     0.049 A 
ATOM     40  H   UNL     1     -10.289  -6.690   9.649  1.00  0.00     0.167 HD
ATOM     41  C   UNL     1     -10.783  -4.001  13.110  1.00  0.00     0.037 A 
ATOM     42  C   UNL     1     -10.508  -9.107   8.273  1.00  0.00     0.037 A 
ATOM     43  C   UNL     1     -11.420  -5.234  13.484  1.00  0.00     0.049 A 
ATOM     44  C   UNL     1     -11.154  -9.311   9.617  1.00  0.00     0.074 A 
ATOM     45  C   UNL     1     -12.083  -5.539  14.659  1.00  0.00     0.029 A 
ATOM     46  N   UNL     1     -11.473  -6.369  12.686  1.00  0.00    -0.354 N 
ATOM     47  N   UNL     1     -11.293  -8.458  10.606  1.00  0.00    -0.248 NA
ATOM     48  C   UNL     1     -11.728 -10.636   9.881  1.00  0.00     0.031 C 
ATOM     49  C   UNL     1     -12.492  -6.875  14.593  1.00  0.00     0.029 A 
ATOM     50  C   UNL     1     -12.143  -7.382  13.350  1.00  0.00     0.049 A 
ATOM     51  H   UNL     1     -11.092  -6.442  11.782  1.00  0.00     0.167 HD
ATOM     52  C   UNL     1     -12.008  -9.131  11.591  1.00  0.00     0.074 A 
ATOM     53  C   UNL     1     -12.277 -10.457  11.074  1.00  0.00     0.031 C 
ATOM     54  C   UNL     1     -12.412  -8.691  12.810  1.00  0.00     0.037 A 
BRANCH  41  55
ATOM     55  C   UNL     1     -10.739  -2.875  14.108  1.00  0.00     0.058 A 
ATOM     56  C   UNL     1     -11.459  -1.683  13.918  1.00  0.00     0.135 A 
ATOM     57  C   UNL     1      -9.979  -2.995  15.283  1.00  0.00     0.135 A 
ATOM     58  F   UNL     1     -12.187  -1.502  12.804  1.00  0.00    -0.206 F 
ATOM     59  C   UNL     1     -11.400  -0.641  14.837  1.00  0.00     0.059 A 
ATOM     60  C   UNL     1      -9.933  -1.979  16.233  1.00  0.00     0.059 A 
ATOM     61  F   UNL     1      -9.267  -4.109  15.517  1.00  0.00    -0.206 F 
ATOM     62  C   UNL     1     -10.634  -0.799  15.993  1.00  0.00     0.060 A 
BRANCH  62  63
ATOM     63  S   UNL     1     -10.574   0.561  17.178  1.00  0.00     0.124 S 
ATOM     64  O   UNL     1      -9.754   1.534  16.463  1.00  0.00    -0.237 OA
ATOM     65  O   UNL     1     -11.984   0.907  17.326  1.00  0.00    -0.237 OA
ATOM     66  O   UNL     1      -9.953  -0.040  18.354  1.00  0.00    -0.744 OA
ENDBRANCH  62  63
ENDBRANCH  41  55
BRANCH  42  67
ATOM     67  C   UNL     1     -10.469 -10.201   7.266  1.00  0.00     0.058 A 
ATOM     68  C   UNL     1     -11.645 -10.668   6.660  1.00  0.00     0.135 A 
ATOM     69  C   UNL     1      -9.258 -10.799   6.883  1.00  0.00     0.135 A 
ATOM     70  F   UNL     1     -12.829 -10.130   6.993  1.00  0.00    -0.206 F 
ATOM     71  C   UNL     1     -11.628 -11.703   5.731  1.00  0.00     0.059 A 
ATOM     72  C   UNL     1      -9.211 -11.816   5.934  1.00  0.00     0.059 A 
ATOM     73  F   UNL     1      -8.101 -10.376   7.416  1.00  0.00    -0.206 F 
ATOM     74  C   UNL     1     -10.404 -12.271   5.374  1.00  0.00     0.060 A 
BRANCH  74  75
ATOM     75  S   UNL     1     -10.390 -13.588   4.139  1.00  0.00     0.124 S 
ATOM     76  O   UNL     1     -10.974 -14.697   4.885  1.00  0.00    -0.237 OA
ATOM     77  O   UNL     1     -11.220 -13.023   3.079  1.00  0.00    -0.237 OA
ATOM     78  O   UNL     1      -8.974 -13.725   3.810  1.00  0.00    -0.744 OA
ENDBRANCH  74  75
ENDBRANCH  42  67
BRANCH  54  79
ATOM     79  C   UNL     1     -13.245  -9.629  13.640  1.00  0.00     0.058 A 
ATOM     80  C   UNL     1     -12.709 -10.786  14.225  1.00  0.00     0.135 A 
ATOM     81  C   UNL     1     -14.600  -9.342  13.879  1.00  0.00     0.135 A 
ATOM     82  F   UNL     1     -11.420 -11.108  14.029  1.00  0.00    -0.206 F 
ATOM     83  C   UNL     1     -13.496 -11.649  14.980  1.00  0.00     0.059 A 
ATOM     84  C   UNL     1     -15.396 -10.171  14.659  1.00  0.00     0.059 A 
ATOM     85  F   UNL     1     -15.160  -8.238  13.358  1.00  0.00    -0.206 F 
ATOM     86  C   UNL     1     -14.840 -11.334  15.189  1.00  0.00     0.060 A 
BRANCH  86  87
ATOM     87  S   UNL     1     -15.851 -12.460  16.172  1.00  0.00     0.124 S 
ATOM     88  O   UNL     1     -16.034 -13.573  15.246  1.00  0.00    -0.237 OA
ATOM     89  O   UNL     1     -14.994 -12.726  17.323  1.00  0.00    -0.237 OA
ATOM     90  O   UNL     1     -17.050 -11.678  16.458  1.00  0.00    -0.744 OA
ENDBRANCH  86  87
ENDBRANCH  54  79
ENDBRANCH  28  29
ENDBRANCH  20  23
ENDBRANCH  18  19
ENDBRANCH  17  18
ENDBRANCH   1  17
TORSDOF 19
