REMARK SMILES Cc1cc(OCC(=O)NCCCCNC(=O)c2ccc(-c3c4nc(c(-c5c(F)cc(S(=O)(=O)[O-])cc5F)c5ccc([nH]5)c(-c5c(F)cc(S(=O)(=O)[O-])cc5F)c5nc(c(-c6c(F)cc(S(=O)(=O)[O-])cc6F)c6ccc3[nH]6)C=C5)C=C4)cc2)ccc1NC(=O)c1ccc(N2C(=O)[C@@H]3[C@H](C2=O)[C@H]2C=C[C@@H]3C2)cc1
REMARK SMILES IDX 10 1 9 2 7 3 8 4 6 6 5 7 4 8 1 9 2 10 3 11 85 12 84 13 83 14
REMARK SMILES IDX 86 15 87 16 88 18 89 19 90 20 106 21 91 22 105 23 92 24
REMARK SMILES IDX 93 25 94 26 98 27 95 28 96 29 97 30 99 31 103 32 100 33
REMARK SMILES IDX 102 34 104 35 101 36 11 37 12 38 13 39 14 40 15 41 16 43
REMARK SMILES IDX 17 44 18 45 82 46 19 47 81 48 20 49 21 50 22 51 75 52 23 53
REMARK SMILES IDX 80 54 74 55 76 56 24 57 79 58 73 59 72 60 25 62 59 63 38 64
REMARK SMILES IDX 58 65 39 66 42 67 57 68 77 69 40 70 41 71 56 73 78 74 43 75
REMARK SMILES IDX 26 76 27 77 36 78 28 79 29 80 35 81 37 82 30 83 31 84 32 85
REMARK SMILES IDX 33 86 34 87 60 88 61 89 70 90 62 91 63 92 69 93 71 94 64 95
REMARK SMILES IDX 65 96 66 97 67 98 68 99 44 100 45 101 54 102 46 103 47 104
REMARK SMILES IDX 53 105 55 106 48 107 49 108 50 109 51 110 52 111
REMARK H PARENT 9 5 86 17 14 42 76 61 42 72
REMARK Flexibility Score: inf
ROOT
ATOM      1  C   UNL     1      -2.230  -3.602   2.664  1.00  0.00     0.116 C 
ENDROOT
BRANCH   1   2
ATOM      2  N   UNL     1      -3.165  -2.505   2.469  1.00  0.00    -0.353 N 
ATOM      3  C   UNL     1      -3.631  -1.969   1.303  1.00  0.00     0.257 C 
ATOM      4  O   UNL     1      -4.473  -1.069   1.356  1.00  0.00    -0.271 OA
ATOM      5  H   UNL     1      -3.510  -2.092   3.293  1.00  0.00     0.163 HD
BRANCH   3   6
ATOM      6  C   UNL     1      -3.122  -2.502  -0.042  1.00  0.00     0.329 C 
BRANCH   6   7
ATOM      7  O   UNL     1      -1.727  -2.395  -0.280  1.00  0.00    -0.484 OA
BRANCH   7   8
ATOM      8  C   UNL     1      -1.189  -1.139  -0.316  1.00  0.00     0.120 A 
ATOM      9  C   UNL     1       2.396   0.042   0.014  1.00  0.00     0.047 C 
ATOM     10  C   UNL     1       0.904   0.126  -0.161  1.00  0.00    -0.024 A 
ATOM     11  C   UNL     1       0.202  -1.094  -0.210  1.00  0.00     0.052 A 
ATOM     12  C   UNL     1       0.178   1.328  -0.233  1.00  0.00     0.044 A 
ATOM     13  C   UNL     1      -1.211   1.272  -0.406  1.00  0.00     0.030 A 
ATOM     14  C   UNL     1      -1.891   0.051  -0.445  1.00  0.00     0.048 A 
BRANCH  12  15
ATOM     15  N   UNL     1       0.853   2.565  -0.193  1.00  0.00    -0.322 N 
ATOM     16  C   UNL     1       0.394   3.816   0.159  1.00  0.00     0.255 C 
ATOM     17  H   UNL     1       1.800   2.529  -0.457  1.00  0.00     0.170 HD
ATOM     18  O   UNL     1       1.002   4.824  -0.200  1.00  0.00    -0.269 OA
BRANCH  16  19
ATOM     19  C   UNL     1      -0.765   3.969   1.070  1.00  0.00     0.040 A 
ATOM     20  C   UNL     1      -1.733   4.935   0.790  1.00  0.00     0.016 A 
ATOM     21  C   UNL     1      -0.870   3.204   2.234  1.00  0.00     0.016 A 
ATOM     22  C   UNL     1      -2.831   5.095   1.646  1.00  0.00     0.027 A 
ATOM     23  C   UNL     1      -1.955   3.388   3.098  1.00  0.00     0.027 A 
ATOM     24  C   UNL     1      -2.957   4.331   2.818  1.00  0.00     0.052 A 
BRANCH  24  25
ATOM     25  N   UNL     1      -4.060   4.507   3.703  1.00  0.00    -0.250 N 
ATOM     26  C   UNL     1      -5.314   4.922   3.301  1.00  0.00     0.238 C 
ATOM     27  C   UNL     1      -3.994   4.272   5.063  1.00  0.00     0.238 C 
ATOM     28  O   UNL     1      -5.704   5.202   2.174  1.00  0.00    -0.274 OA
ATOM     29  C   UNL     1      -6.232   4.943   4.491  1.00  0.00     0.099 C 
ATOM     30  C   UNL     1      -5.333   4.558   5.679  1.00  0.00     0.099 C 
ATOM     31  O   UNL     1      -3.031   3.929   5.736  1.00  0.00    -0.274 OA
ATOM     32  C   UNL     1      -7.296   3.822   4.490  1.00  0.00     0.025 C 
ATOM     33  C   UNL     1      -6.009   3.293   6.244  1.00  0.00     0.025 C 
ATOM     34  C   UNL     1      -8.132   4.026   5.738  1.00  0.00    -0.027 C 
ATOM     35  C   UNL     1      -6.501   2.599   4.967  1.00  0.00     0.017 C 
ATOM     36  C   UNL     1      -7.356   3.716   6.790  1.00  0.00    -0.027 C 
ENDBRANCH  24  25
ENDBRANCH  16  19
ENDBRANCH  12  15
ENDBRANCH   7   8
ENDBRANCH   6   7
ENDBRANCH   3   6
ENDBRANCH   1   2
BRANCH   1  37
ATOM     37  C   UNL     1      -0.829  -3.150   3.097  1.00  0.00     0.023 C 
BRANCH  37  38
ATOM     38  C   UNL     1      -0.754  -2.212   4.307  1.00  0.00     0.023 C 
BRANCH  38  39
ATOM     39  C   UNL     1      -1.380  -2.751   5.584  1.00  0.00     0.116 C 
BRANCH  39  40
ATOM     40  N   UNL     1      -0.559  -3.658   6.362  1.00  0.00    -0.352 N 
ATOM     41  C   UNL     1      -0.821  -3.817   7.738  1.00  0.00     0.251 C 
ATOM     42  H   UNL     1       0.174  -4.158   5.934  1.00  0.00     0.163 HD
ATOM     43  O   UNL     1      -0.143  -3.365   8.620  1.00  0.00    -0.269 OA
BRANCH  41  44
ATOM     44  C   UNL     1      -2.092  -4.537   8.012  1.00  0.00     0.039 A 
ATOM     45  C   UNL     1      -2.099  -5.861   8.449  1.00  0.00     0.014 A 
ATOM     46  C   UNL     1      -3.276  -3.904   7.641  1.00  0.00     0.014 A 
ATOM     47  C   UNL     1      -3.289  -6.601   8.374  1.00  0.00     0.010 A 
ATOM     48  C   UNL     1      -4.416  -4.657   7.470  1.00  0.00     0.010 A 
ATOM     49  C   UNL     1      -4.426  -6.014   7.812  1.00  0.00    -0.014 A 
BRANCH  49  50
ATOM     50  C   UNL     1      -5.661  -6.710   7.453  1.00  0.00     0.031 A 
ATOM     51  C   UNL     1      -6.942  -6.391   8.160  1.00  0.00     0.074 A 
ATOM     52  C   UNL     1      -5.700  -7.456   6.322  1.00  0.00     0.049 A 
ATOM     53  N   UNL     1      -8.014  -7.109   8.081  1.00  0.00    -0.248 NA
ATOM     54  C   UNL     1      -7.118  -5.221   9.024  1.00  0.00     0.031 C 
ATOM     55  C   UNL     1      -6.911  -7.816   5.582  1.00  0.00     0.029 A 
ATOM     56  N   UNL     1      -4.703  -8.150   5.631  1.00  0.00    -0.354 N 
ATOM     57  C   UNL     1      -9.059  -6.381   8.610  1.00  0.00     0.074 A 
ATOM     58  C   UNL     1      -8.440  -5.233   9.230  1.00  0.00     0.031 C 
ATOM     59  C   UNL     1      -6.642  -8.865   4.792  1.00  0.00     0.029 A 
ATOM     60  C   UNL     1      -5.312  -9.320   5.146  1.00  0.00     0.049 A 
ATOM     61  H   UNL     1      -3.766  -7.875   5.509  1.00  0.00     0.167 HD
ATOM     62  C   UNL     1     -10.348  -6.754   8.361  1.00  0.00     0.037 A 
ATOM     63  C   UNL     1      -5.019 -10.602   5.526  1.00  0.00     0.037 A 
ATOM     64  C   UNL     1     -10.408  -7.948   7.527  1.00  0.00     0.049 A 
ATOM     65  C   UNL     1      -6.220 -11.390   6.020  1.00  0.00     0.074 A 
ATOM     66  C   UNL     1     -10.568  -8.127   6.162  1.00  0.00     0.029 A 
ATOM     67  N   UNL     1     -10.008  -9.173   8.043  1.00  0.00    -0.354 N 
ATOM     68  N   UNL     1      -7.349 -10.839   6.371  1.00  0.00    -0.248 NA
ATOM     69  C   UNL     1      -6.248 -12.842   6.193  1.00  0.00     0.031 C 
ATOM     70  C   UNL     1     -10.226  -9.464   5.851  1.00  0.00     0.029 A 
ATOM     71  C   UNL     1      -9.866 -10.098   7.027  1.00  0.00     0.049 A 
ATOM     72  H   UNL     1      -9.848  -9.356   8.997  1.00  0.00     0.167 HD
ATOM     73  C   UNL     1      -8.219 -11.794   6.831  1.00  0.00     0.074 A 
ATOM     74  C   UNL     1      -7.491 -13.038   6.672  1.00  0.00     0.031 C 
ATOM     75  C   UNL     1      -9.454 -11.463   7.314  1.00  0.00     0.037 A 
BRANCH  62  76
ATOM     76  C   UNL     1     -11.553  -5.886   8.652  1.00  0.00     0.058 A 
ATOM     77  C   UNL     1     -12.675  -5.882   7.793  1.00  0.00     0.135 A 
ATOM     78  C   UNL     1     -11.654  -5.019   9.758  1.00  0.00     0.135 A 
ATOM     79  F   UNL     1     -12.758  -6.705   6.739  1.00  0.00    -0.206 F 
ATOM     80  C   UNL     1     -13.760  -5.020   7.959  1.00  0.00     0.059 A 
ATOM     81  C   UNL     1     -12.706  -4.110   9.919  1.00  0.00     0.059 A 
ATOM     82  F   UNL     1     -10.742  -5.048  10.741  1.00  0.00    -0.206 F 
ATOM     83  C   UNL     1     -13.753  -4.111   9.006  1.00  0.00     0.060 A 
BRANCH  83  84
ATOM     84  S   UNL     1     -15.113  -2.934   9.136  1.00  0.00     0.124 S 
ATOM     85  O   UNL     1     -15.154  -2.361   7.794  1.00  0.00    -0.237 OA
ATOM     86  O   UNL     1     -16.232  -3.800   9.491  1.00  0.00    -0.237 OA
ATOM     87  O   UNL     1     -14.669  -2.019  10.184  1.00  0.00    -0.744 OA
ENDBRANCH  83  84
ENDBRANCH  62  76
BRANCH  63  88
ATOM     88  C   UNL     1      -3.623 -10.797   5.988  1.00  0.00     0.058 A 
ATOM     89  C   UNL     1      -2.611 -10.717   5.016  1.00  0.00     0.135 A 
ATOM     90  C   UNL     1      -3.276 -10.549   7.323  1.00  0.00     0.135 A 
ATOM     91  F   UNL     1      -2.888 -10.996   3.732  1.00  0.00    -0.206 F 
ATOM     92  C   UNL     1      -1.365 -10.182   5.317  1.00  0.00     0.059 A 
ATOM     93  C   UNL     1      -2.027 -10.021   7.650  1.00  0.00     0.059 A 
ATOM     94  F   UNL     1      -4.198 -10.643   8.291  1.00  0.00    -0.206 F 
ATOM     95  C   UNL     1      -1.122  -9.753   6.621  1.00  0.00     0.060 A 
BRANCH  95  96
ATOM     96  S   UNL     1       0.278  -8.639   6.891  1.00  0.00     0.124 S 
ATOM     97  O   UNL     1       1.381  -9.378   6.290  1.00  0.00    -0.237 OA
ATOM     98  O   UNL     1      -0.162  -7.447   6.163  1.00  0.00    -0.237 OA
ATOM     99  O   UNL     1       0.318  -8.501   8.341  1.00  0.00    -0.744 OA
ENDBRANCH  95  96
ENDBRANCH  63  88
BRANCH  75 100
ATOM    100  C   UNL     1     -10.431 -12.375   8.023  1.00  0.00     0.058 A 
ATOM    101  C   UNL     1     -10.058 -13.494   8.784  1.00  0.00     0.135 A 
ATOM    102  C   UNL     1     -11.811 -12.043   8.070  1.00  0.00     0.135 A 
ATOM    103  F   UNL     1      -8.773 -13.852   8.913  1.00  0.00    -0.206 F 
ATOM    104  C   UNL     1     -10.987 -14.264   9.491  1.00  0.00     0.059 A 
ATOM    105  C   UNL     1     -12.744 -12.764   8.812  1.00  0.00     0.059 A 
ATOM    106  F   UNL     1     -12.302 -10.988   7.402  1.00  0.00    -0.206 F 
ATOM    107  C   UNL     1     -12.327 -13.892   9.501  1.00  0.00     0.060 A 
BRANCH 107 108
ATOM    108  S   UNL     1     -13.524 -14.835  10.465  1.00  0.00     0.124 S 
ATOM    109  O   UNL     1     -14.046 -15.755   9.460  1.00  0.00    -0.237 OA
ATOM    110  O   UNL     1     -12.699 -15.442  11.506  1.00  0.00    -0.237 OA
ATOM    111  O   UNL     1     -14.452 -13.810  10.931  1.00  0.00    -0.744 OA
ENDBRANCH 107 108
ENDBRANCH  75 100
ENDBRANCH  49  50
ENDBRANCH  41  44
ENDBRANCH  39  40
ENDBRANCH  38  39
ENDBRANCH  37  38
ENDBRANCH   1  37
TORSDOF 19
