REMARK SMILES COc1ccc(C[N@@H+]2C[C@@H](C(=O)NCCCCNC(=O)c3ccc(-c4c5nc(c(-c6c(F)cc(S(=O)(=O)[O-])cc6F)c6ccc([nH]6)c(-c6c(F)cc(S(=O)(=O)[O-])cc6F)c6nc(c(-c7c(F)cc(S(=O)(=O)[O-])cc7F)c7ccc4[nH]7)C=C6)C=C5)cc3)[C@H](c3ccccc3OC)C2)c(OC)c1
REMARK SMILES IDX 15 1 14 2 13 3 11 4 12 5 10 7 8 8 9 9 96 10 87 12 7 13 6 14
REMARK SMILES IDX 3 15 4 16 100 17 5 18 97 19 2 20 1 21 98 22 99 23 88 24
REMARK SMILES IDX 89 25 93 26 90 27 92 28 91 29 94 30 95 31 16 32 17 33 18 34
REMARK SMILES IDX 19 35 20 37 21 38 22 39 86 40 23 41 85 42 24 43 25 44 26 45
REMARK SMILES IDX 79 46 27 47 84 48 78 49 80 50 28 51 83 52 77 53 76 54 29 56
REMARK SMILES IDX 63 57 42 58 62 59 43 60 46 61 61 62 81 63 44 64 45 65 60 67
REMARK SMILES IDX 82 68 47 69 30 70 31 71 40 72 32 73 33 74 39 75 41 76 34 77
REMARK SMILES IDX 35 78 36 79 37 80 38 81 64 82 65 83 74 84 66 85 67 86 73 87
REMARK SMILES IDX 75 88 68 89 69 90 70 91 71 92 72 93 48 94 49 95 58 96 50 97
REMARK SMILES IDX 51 98 57 99 59 100 52 101 53 102 54 103 55 104 56 105
REMARK H PARENT 13 6 8 11 18 36 80 55 46 66
REMARK Flexibility Score: inf
ROOT
ATOM      1  C   UNL     1      -0.175   1.758  10.326  1.00  0.00     0.023 C 
ENDROOT
BRANCH   1   2
ATOM      2  C   UNL     1      -0.137   0.449   9.539  1.00  0.00     0.116 C 
BRANCH   2   3
ATOM      3  N   UNL     1      -1.012   0.492   8.384  1.00  0.00    -0.356 N 
ATOM      4  C   UNL     1      -0.828   0.207   7.074  1.00  0.00     0.229 C 
ATOM      5  O   UNL     1      -1.841   0.259   6.368  1.00  0.00    -0.275 OA
ATOM      6  H   UNL     1      -1.926   0.788   8.596  1.00  0.00     0.163 HD
BRANCH   4   7
ATOM      7  C   UNL     1       0.475  -0.294   6.490  1.00  0.00     0.146 C 
ATOM      8  N   UNL     1       2.077  -2.035   6.828  1.00  0.00    -0.330 N 
ATOM      9  C   UNL     1       0.682  -1.700   7.057  1.00  0.00     0.276 C 
ATOM     10  C   UNL     1       2.797  -0.761   6.956  1.00  0.00     0.272 C 
ATOM     11  H   UNL     1       2.426  -2.700   7.518  1.00  0.00     0.348 HD
ATOM     12  C   UNL     1       1.824   0.431   6.666  1.00  0.00     0.096 C 
BRANCH   8  13
ATOM     13  C   UNL     1       2.339  -2.830   5.610  1.00  0.00     0.303 C 
BRANCH  13  14
ATOM     14  C   UNL     1       1.912  -2.262   4.269  1.00  0.00     0.048 A 
ATOM     15  C   UNL     1       0.990  -0.860   2.011  1.00  0.00     0.122 A 
ATOM     16  C   UNL     1       0.092  -1.550   2.815  1.00  0.00     0.047 A 
ATOM     17  C   UNL     1       2.358  -0.945   2.273  1.00  0.00     0.093 A 
ATOM     18  C   UNL     1       0.553  -2.284   3.906  1.00  0.00     0.017 A 
ATOM     19  C   UNL     1       2.826  -1.665   3.385  1.00  0.00     0.131 A 
BRANCH  15  20
ATOM     20  O   UNL     1       0.423  -0.059   1.060  1.00  0.00    -0.497 OA
ATOM     21  C   UNL     1       1.097  -0.031  -0.189  1.00  0.00     0.278 C 
ENDBRANCH  15  20
BRANCH  19  22
ATOM     22  O   UNL     1       4.154  -1.779   3.712  1.00  0.00    -0.496 OA
ATOM     23  C   UNL     1       5.078  -1.654   2.638  1.00  0.00     0.278 C 
ENDBRANCH  19  22
ENDBRANCH  13  14
ENDBRANCH   8  13
BRANCH  12  24
ATOM     24  C   UNL     1       2.246   1.416   5.555  1.00  0.00     0.004 A 
ATOM     25  C   UNL     1       3.494   1.294   4.904  1.00  0.00     0.008 A 
ATOM     26  C   UNL     1       1.458   2.517   5.155  1.00  0.00     0.122 A 
ATOM     27  C   UNL     1       3.916   2.160   3.888  1.00  0.00     0.001 A 
ATOM     28  C   UNL     1       1.892   3.404   4.150  1.00  0.00     0.047 A 
ATOM     29  C   UNL     1       3.117   3.224   3.512  1.00  0.00     0.004 A 
BRANCH  26  30
ATOM     30  O   UNL     1       0.165   2.695   5.564  1.00  0.00    -0.496 OA
ATOM     31  C   UNL     1       0.025   3.267   6.859  1.00  0.00     0.278 C 
ENDBRANCH  26  30
ENDBRANCH  12  24
ENDBRANCH   4   7
ENDBRANCH   2   3
ENDBRANCH   1   2
BRANCH   1  32
ATOM     32  C   UNL     1      -1.574   2.233  10.729  1.00  0.00     0.023 C 
BRANCH  32  33
ATOM     33  C   UNL     1      -2.427   1.195  11.448  1.00  0.00     0.116 C 
BRANCH  33  34
ATOM     34  N   UNL     1      -1.804   0.708  12.668  1.00  0.00    -0.352 N 
ATOM     35  C   UNL     1      -2.333   0.627  13.933  1.00  0.00     0.251 C 
ATOM     36  H   UNL     1      -0.875   0.393  12.575  1.00  0.00     0.163 HD
ATOM     37  O   UNL     1      -1.615   0.328  14.884  1.00  0.00    -0.269 OA
BRANCH  35  38
ATOM     38  C   UNL     1      -3.761   0.938  14.141  1.00  0.00     0.039 A 
ATOM     39  C   UNL     1      -4.120   1.838  15.146  1.00  0.00     0.014 A 
ATOM     40  C   UNL     1      -4.736   0.374  13.313  1.00  0.00     0.014 A 
ATOM     41  C   UNL     1      -5.454   2.232  15.273  1.00  0.00     0.010 A 
ATOM     42  C   UNL     1      -6.049   0.824  13.393  1.00  0.00     0.010 A 
ATOM     43  C   UNL     1      -6.421   1.760  14.371  1.00  0.00    -0.014 A 
BRANCH  43  44
ATOM     44  C   UNL     1      -7.828   2.232  14.421  1.00  0.00     0.031 A 
ATOM     45  C   UNL     1      -8.935   1.252  14.701  1.00  0.00     0.074 A 
ATOM     46  C   UNL     1      -8.115   3.515  14.123  1.00  0.00     0.049 A 
ATOM     47  N   UNL     1     -10.229   1.434  14.660  1.00  0.00    -0.248 NA
ATOM     48  C   UNL     1      -8.532  -0.122  15.043  1.00  0.00     0.031 C 
ATOM     49  C   UNL     1      -7.131   4.548  13.787  1.00  0.00     0.029 A 
ATOM     50  N   UNL     1      -9.320   4.165  14.030  1.00  0.00    -0.354 N 
ATOM     51  C   UNL     1     -10.793   0.196  14.942  1.00  0.00     0.074 A 
ATOM     52  C   UNL     1      -9.703  -0.739  15.111  1.00  0.00     0.031 C 
ATOM     53  C   UNL     1      -7.771   5.701  13.535  1.00  0.00     0.029 A 
ATOM     54  C   UNL     1      -9.210   5.483  13.649  1.00  0.00     0.049 A 
ATOM     55  H   UNL     1     -10.183   3.730  14.219  1.00  0.00     0.167 HD
ATOM     56  C   UNL     1     -12.102  -0.126  15.069  1.00  0.00     0.037 A 
ATOM     57  C   UNL     1     -10.161   6.405  13.400  1.00  0.00     0.037 A 
ATOM     58  C   UNL     1     -13.179   0.819  14.935  1.00  0.00     0.049 A 
ATOM     59  C   UNL     1     -11.608   6.025  13.556  1.00  0.00     0.074 A 
ATOM     60  C   UNL     1     -14.535   0.608  15.116  1.00  0.00     0.029 A 
ATOM     61  N   UNL     1     -13.024   2.153  14.587  1.00  0.00    -0.354 N 
ATOM     62  N   UNL     1     -12.123   4.865  13.889  1.00  0.00    -0.248 NA
ATOM     63  C   UNL     1     -12.605   7.075  13.306  1.00  0.00     0.031 C 
ATOM     64  C   UNL     1     -15.204   1.804  14.836  1.00  0.00     0.029 A 
ATOM     65  C   UNL     1     -14.261   2.772  14.529  1.00  0.00     0.049 A 
ATOM     66  H   UNL     1     -12.163   2.594  14.409  1.00  0.00     0.167 HD
ATOM     67  C   UNL     1     -13.501   5.054  13.916  1.00  0.00     0.074 A 
ATOM     68  C   UNL     1     -13.739   6.441  13.574  1.00  0.00     0.031 C 
ATOM     69  C   UNL     1     -14.479   4.159  14.201  1.00  0.00     0.037 A 
BRANCH  56  70
ATOM     70  C   UNL     1     -12.444  -1.559  15.371  1.00  0.00     0.058 A 
ATOM     71  C   UNL     1     -12.173  -2.134  16.623  1.00  0.00     0.135 A 
ATOM     72  C   UNL     1     -13.085  -2.357  14.410  1.00  0.00     0.135 A 
ATOM     73  F   UNL     1     -11.548  -1.421  17.573  1.00  0.00    -0.206 F 
ATOM     74  C   UNL     1     -12.501  -3.456  16.903  1.00  0.00     0.059 A 
ATOM     75  C   UNL     1     -13.448  -3.674  14.677  1.00  0.00     0.059 A 
ATOM     76  F   UNL     1     -13.366  -1.859  13.195  1.00  0.00    -0.206 F 
ATOM     77  C   UNL     1     -13.139  -4.219  15.923  1.00  0.00     0.060 A 
BRANCH  77  78
ATOM     78  S   UNL     1     -13.566  -5.930  16.306  1.00  0.00     0.124 S 
ATOM     79  O   UNL     1     -12.256  -6.572  16.268  1.00  0.00    -0.237 OA
ATOM     80  O   UNL     1     -14.175  -5.811  17.628  1.00  0.00    -0.237 OA
ATOM     81  O   UNL     1     -14.479  -6.302  15.230  1.00  0.00    -0.744 OA
ENDBRANCH  77  78
ENDBRANCH  56  70
BRANCH  57  82
ATOM     82  C   UNL     1      -9.773   7.780  12.988  1.00  0.00     0.058 A 
ATOM     83  C   UNL     1      -9.941   8.868  13.857  1.00  0.00     0.135 A 
ATOM     84  C   UNL     1      -9.214   8.034  11.725  1.00  0.00     0.135 A 
ATOM     85  F   UNL     1     -10.476   8.678  15.073  1.00  0.00    -0.206 F 
ATOM     86  C   UNL     1      -9.587  10.161  13.485  1.00  0.00     0.059 A 
ATOM     87  C   UNL     1      -8.829   9.314  11.339  1.00  0.00     0.059 A 
ATOM     88  F   UNL     1      -9.016   7.025  10.863  1.00  0.00    -0.206 F 
ATOM     89  C   UNL     1      -9.029  10.374  12.223  1.00  0.00     0.060 A 
BRANCH  89  90
ATOM     90  S   UNL     1      -8.528  12.048  11.768  1.00  0.00     0.124 S 
ATOM     91  O   UNL     1      -9.817  12.686  11.530  1.00  0.00    -0.237 OA
ATOM     92  O   UNL     1      -7.808  12.488  12.960  1.00  0.00    -0.237 OA
ATOM     93  O   UNL     1      -7.697  11.840  10.586  1.00  0.00    -0.744 OA
ENDBRANCH  89  90
ENDBRANCH  57  82
BRANCH  69  94
ATOM     94  C   UNL     1     -15.898   4.654  14.195  1.00  0.00     0.058 A 
ATOM     95  C   UNL     1     -16.581   4.924  13.000  1.00  0.00     0.135 A 
ATOM     96  C   UNL     1     -16.608   4.782  15.401  1.00  0.00     0.135 A 
ATOM     97  F   UNL     1     -15.945   4.824  11.822  1.00  0.00    -0.206 F 
ATOM     98  C   UNL     1     -17.916   5.313  12.999  1.00  0.00     0.059 A 
ATOM     99  C   UNL     1     -17.950   5.145  15.423  1.00  0.00     0.059 A 
ATOM    100  F   UNL     1     -16.002   4.526  16.572  1.00  0.00    -0.206 F 
ATOM    101  C   UNL     1     -18.594   5.415  14.216  1.00  0.00     0.060 A 
BRANCH 101 102
ATOM    102  S   UNL     1     -20.342   5.865  14.198  1.00  0.00     0.124 S 
ATOM    103  O   UNL     1     -20.276   7.290  13.888  1.00  0.00    -0.237 OA
ATOM    104  O   UNL     1     -20.874   5.010  13.141  1.00  0.00    -0.237 OA
ATOM    105  O   UNL     1     -20.792   5.536  15.547  1.00  0.00    -0.744 OA
ENDBRANCH 101 102
ENDBRANCH  69  94
ENDBRANCH  43  44
ENDBRANCH  35  38
ENDBRANCH  33  34
ENDBRANCH  32  33
ENDBRANCH   1  32
TORSDOF 20
