REMARK SMILES CN(C(=O)N[C@@H]1C=C[C@@H](C(=O)NCCCCNC(=O)c2ccc(-c3c4nc(c(-c5c(F)cc(S(=O)(=O)[O-])cc5F)c5ccc([nH]5)c(-c5c(F)cc(S(=O)(=O)[O-])cc5F)c5nc(c(-c6c(F)cc(S(=O)(=O)[O-])cc6F)c6ccc3[nH]6)C=C5)C=C4)cc2)C1)[C@H]1CCS(=O)(=O)C1
REMARK SMILES IDX 14 1 13 2 12 3 10 4 11 5 9 7 6 8 7 9 86 10 8 11 5 12 3 13
REMARK SMILES IDX 4 14 2 16 1 17 87 18 88 19 93 20 89 21 90 22 91 23 92 24
REMARK SMILES IDX 15 25 16 26 17 27 18 28 19 30 20 31 21 32 85 33 22 34 84 35
REMARK SMILES IDX 23 36 24 37 25 38 78 39 26 40 83 41 77 42 79 43 27 44 82 45
REMARK SMILES IDX 76 46 75 47 28 49 62 50 41 51 61 52 42 53 45 54 60 55 80 56
REMARK SMILES IDX 43 57 44 58 59 60 81 61 46 62 29 63 30 64 39 65 31 66 32 67
REMARK SMILES IDX 38 68 40 69 33 70 34 71 35 72 36 73 37 74 63 75 64 76 73 77
REMARK SMILES IDX 65 78 66 79 72 80 74 81 67 82 68 83 69 84 70 85 71 86 47 87
REMARK SMILES IDX 48 88 57 89 49 90 50 91 56 92 58 93 51 94 52 95 53 96 54 97
REMARK SMILES IDX 55 98
REMARK H PARENT 12 6 5 15 17 29 79 48 45 59
REMARK Flexibility Score: inf
ROOT
ATOM      1  C   UNL     1      -3.961   3.707   4.681  1.00  0.00     0.023 C 
ENDROOT
BRANCH   1   2
ATOM      2  C   UNL     1      -5.477   3.842   4.812  1.00  0.00     0.116 C 
BRANCH   2   3
ATOM      3  N   UNL     1      -6.021   4.823   3.898  1.00  0.00    -0.356 N 
ATOM      4  C   UNL     1      -6.842   4.694   2.822  1.00  0.00     0.227 C 
ATOM      5  O   UNL     1      -7.233   5.739   2.292  1.00  0.00    -0.274 OA
ATOM      6  H   UNL     1      -5.749   5.749   4.090  1.00  0.00     0.163 HD
BRANCH   4   7
ATOM      7  C   UNL     1      -7.289   3.342   2.253  1.00  0.00     0.103 C 
ATOM      8  C   UNL     1      -6.376   1.115   2.776  1.00  0.00     0.107 C 
ATOM      9  C   UNL     1      -7.744   1.316   3.352  1.00  0.00    -0.006 C 
ATOM     10  C   UNL     1      -6.161   2.365   1.909  1.00  0.00     0.047 C 
ATOM     11  C   UNL     1      -8.212   2.548   3.123  1.00  0.00    -0.016 C 
BRANCH   8  12
ATOM     12  N   UNL     1      -6.322  -0.115   2.033  1.00  0.00    -0.332 N 
ATOM     13  C   UNL     1      -5.353  -0.836   1.443  1.00  0.00     0.317 C 
ATOM     14  O   UNL     1      -5.757  -1.871   0.905  1.00  0.00    -0.249 OA
ATOM     15  H   UNL     1      -7.209  -0.529   1.932  1.00  0.00     0.165 HD
BRANCH  13  16
ATOM     16  N   UNL     1      -4.034  -0.464   1.397  1.00  0.00    -0.324 N 
ATOM     17  C   UNL     1      -3.377   0.593   2.162  1.00  0.00     0.149 C 
BRANCH  16  18
ATOM     18  C   UNL     1      -3.066  -1.249   0.597  1.00  0.00     0.102 C 
ATOM     19  C   UNL     1      -2.362  -2.338   1.421  1.00  0.00     0.042 C 
ATOM     20  C   UNL     1      -3.526  -1.953  -0.687  1.00  0.00     0.162 C 
ATOM     21  C   UNL     1      -1.368  -3.009   0.479  1.00  0.00     0.139 C 
ATOM     22  S   UNL     1      -2.093  -2.912  -1.151  1.00  0.00     0.152 S 
ATOM     23  O   UNL     1      -1.236  -2.083  -1.978  1.00  0.00    -0.229 OA
ATOM     24  O   UNL     1      -2.505  -4.236  -1.562  1.00  0.00    -0.229 OA
ENDBRANCH  16  18
ENDBRANCH  13  16
ENDBRANCH   8  12
ENDBRANCH   4   7
ENDBRANCH   2   3
ENDBRANCH   1   2
BRANCH   1  25
ATOM     25  C   UNL     1      -3.173   4.921   5.174  1.00  0.00     0.023 C 
BRANCH  25  26
ATOM     26  C   UNL     1      -3.464   5.339   6.611  1.00  0.00     0.116 C 
BRANCH  26  27
ATOM     27  N   UNL     1      -3.203   4.279   7.574  1.00  0.00    -0.352 N 
ATOM     28  C   UNL     1      -2.557   4.359   8.785  1.00  0.00     0.251 C 
ATOM     29  H   UNL     1      -3.533   3.385   7.324  1.00  0.00     0.163 HD
ATOM     30  O   UNL     1      -2.295   3.335   9.408  1.00  0.00    -0.269 OA
BRANCH  28  31
ATOM     31  C   UNL     1      -2.154   5.682   9.307  1.00  0.00     0.039 A 
ATOM     32  C   UNL     1      -0.857   5.852   9.796  1.00  0.00     0.014 A 
ATOM     33  C   UNL     1      -3.043   6.761   9.277  1.00  0.00     0.014 A 
ATOM     34  C   UNL     1      -0.429   7.122  10.186  1.00  0.00     0.010 A 
ATOM     35  C   UNL     1      -2.588   8.039   9.586  1.00  0.00     0.010 A 
ATOM     36  C   UNL     1      -1.277   8.234  10.044  1.00  0.00    -0.014 A 
BRANCH  36  37
ATOM     37  C   UNL     1      -0.807   9.608  10.363  1.00  0.00     0.031 A 
ATOM     38  C   UNL     1      -1.470  10.399  11.458  1.00  0.00     0.074 A 
ATOM     39  C   UNL     1       0.176  10.164   9.626  1.00  0.00     0.049 A 
ATOM     40  N   UNL     1      -1.240  11.628  11.843  1.00  0.00    -0.248 NA
ATOM     41  C   UNL     1      -2.550   9.731  12.201  1.00  0.00     0.031 C 
ATOM     42  C   UNL     1       0.865   9.516   8.507  1.00  0.00     0.029 A 
ATOM     43  N   UNL     1       0.763  11.402   9.702  1.00  0.00    -0.354 N 
ATOM     44  C   UNL     1      -2.147  11.882  12.865  1.00  0.00     0.074 A 
ATOM     45  C   UNL     1      -2.974  10.702  12.997  1.00  0.00     0.031 C 
ATOM     46  C   UNL     1       1.799  10.349   8.023  1.00  0.00     0.029 A 
ATOM     47  C   UNL     1       1.749  11.605   8.764  1.00  0.00     0.049 A 
ATOM     48  H   UNL     1       0.504  12.081  10.366  1.00  0.00     0.167 HD
ATOM     49  C   UNL     1      -2.263  12.985  13.642  1.00  0.00     0.037 A 
ATOM     50  C   UNL     1       2.520  12.684   8.523  1.00  0.00     0.037 A 
ATOM     51  C   UNL     1      -1.427  14.151  13.514  1.00  0.00     0.049 A 
ATOM     52  C   UNL     1       2.357  13.907   9.385  1.00  0.00     0.074 A 
ATOM     53  C   UNL     1      -1.434  15.302  14.281  1.00  0.00     0.029 A 
ATOM     54  N   UNL     1      -0.437  14.316  12.556  1.00  0.00    -0.354 N 
ATOM     55  N   UNL     1       1.534  14.106  10.387  1.00  0.00    -0.248 NA
ATOM     56  C   UNL     1       3.231  15.050   9.088  1.00  0.00     0.031 C 
ATOM     57  C   UNL     1      -0.486  16.185  13.755  1.00  0.00     0.029 A 
ATOM     58  C   UNL     1       0.156  15.560  12.698  1.00  0.00     0.049 A 
ATOM     59  H   UNL     1      -0.192  13.648  11.875  1.00  0.00     0.167 HD
ATOM     60  C   UNL     1       1.813  15.384  10.860  1.00  0.00     0.074 A 
ATOM     61  C   UNL     1       2.889  15.905  10.041  1.00  0.00     0.031 C 
ATOM     62  C   UNL     1       1.233  16.064  11.880  1.00  0.00     0.037 A 
BRANCH  49  63
ATOM     63  C   UNL     1      -3.330  12.983  14.704  1.00  0.00     0.058 A 
ATOM     64  C   UNL     1      -3.245  12.149  15.832  1.00  0.00     0.135 A 
ATOM     65  C   UNL     1      -4.431  13.850  14.616  1.00  0.00     0.135 A 
ATOM     66  F   UNL     1      -2.223  11.287  15.961  1.00  0.00    -0.206 F 
ATOM     67  C   UNL     1      -4.228  12.153  16.816  1.00  0.00     0.059 A 
ATOM     68  C   UNL     1      -5.409  13.894  15.605  1.00  0.00     0.059 A 
ATOM     69  F   UNL     1      -4.564  14.669  13.560  1.00  0.00    -0.206 F 
ATOM     70  C   UNL     1      -5.306  13.030  16.695  1.00  0.00     0.060 A 
BRANCH  70  71
ATOM     71  S   UNL     1      -6.567  13.025  17.986  1.00  0.00     0.124 S 
ATOM     72  O   UNL     1      -7.230  11.748  17.739  1.00  0.00    -0.237 OA
ATOM     73  O   UNL     1      -5.766  13.098  19.203  1.00  0.00    -0.237 OA
ATOM     74  O   UNL     1      -7.363  14.212  17.689  1.00  0.00    -0.744 OA
ENDBRANCH  70  71
ENDBRANCH  49  63
BRANCH  50  75
ATOM     75  C   UNL     1       3.534  12.647   7.434  1.00  0.00     0.058 A 
ATOM     76  C   UNL     1       4.906  12.646   7.725  1.00  0.00     0.135 A 
ATOM     77  C   UNL     1       3.154  12.604   6.083  1.00  0.00     0.135 A 
ATOM     78  F   UNL     1       5.321  12.693   9.000  1.00  0.00    -0.206 F 
ATOM     79  C   UNL     1       5.866  12.621   6.718  1.00  0.00     0.059 A 
ATOM     80  C   UNL     1       4.095  12.549   5.059  1.00  0.00     0.059 A 
ATOM     81  F   UNL     1       1.854  12.586   5.750  1.00  0.00    -0.206 F 
ATOM     82  C   UNL     1       5.449  12.568   5.387  1.00  0.00     0.060 A 
BRANCH  82  83
ATOM     83  S   UNL     1       6.704  12.486   4.091  1.00  0.00     0.124 S 
ATOM     84  O   UNL     1       7.256  13.835   4.130  1.00  0.00    -0.237 OA
ATOM     85  O   UNL     1       7.577  11.424   4.579  1.00  0.00    -0.237 OA
ATOM     86  O   UNL     1       5.932  12.153   2.897  1.00  0.00    -0.744 OA
ENDBRANCH  82  83
ENDBRANCH  50  75
BRANCH  62  87
ATOM     87  C   UNL     1       1.773  17.432  12.200  1.00  0.00     0.058 A 
ATOM     88  C   UNL     1       1.558  18.531  11.353  1.00  0.00     0.135 A 
ATOM     89  C   UNL     1       2.472  17.655  13.398  1.00  0.00     0.135 A 
ATOM     90  F   UNL     1       0.901  18.372  10.193  1.00  0.00    -0.206 F 
ATOM     91  C   UNL     1       2.040  19.797  11.670  1.00  0.00     0.059 A 
ATOM     92  C   UNL     1       2.934  18.919  13.750  1.00  0.00     0.059 A 
ATOM     93  F   UNL     1       2.696  16.642  14.249  1.00  0.00    -0.206 F 
ATOM     94  C   UNL     1       2.725  19.982  12.873  1.00  0.00     0.060 A 
BRANCH  94  95
ATOM     95  S   UNL     1       3.315  21.637  13.286  1.00  0.00     0.124 S 
ATOM     96  O   UNL     1       4.426  21.794  12.352  1.00  0.00    -0.237 OA
ATOM     97  O   UNL     1       2.141  22.462  13.019  1.00  0.00    -0.237 OA
ATOM     98  O   UNL     1       3.689  21.524  14.692  1.00  0.00    -0.744 OA
ENDBRANCH  94  95
ENDBRANCH  62  87
ENDBRANCH  36  37
ENDBRANCH  28  31
ENDBRANCH  26  27
ENDBRANCH  25  26
ENDBRANCH   1  25
TORSDOF 17
