REMARK SMILES C[C@H](CNS(=O)(=O)c1ccc(C(=O)NCCCCNC(=O)c2ccc(-c3c4nc(c(-c5c(F)cc(S(=O)(=O)[O-])cc5F)c5ccc([nH]5)c(-c5c(F)cc(S(=O)(=O)[O-])cc5F)c5nc(c(-c6c(F)cc(S(=O)(=O)[O-])cc6F)c6ccc3[nH]6)C=C5)C=C4)cc2)o1)c1ccccc1
REMARK SMILES IDX 15 1 14 2 12 3 13 4 11 6 8 7 9 8 88 9 10 10 5 11 6 12 7 13
REMARK SMILES IDX 4 14 3 16 2 17 1 18 89 19 90 20 94 21 91 22 93 23 92 24
REMARK SMILES IDX 16 25 17 26 18 27 19 28 20 29 21 31 22 32 23 33 87 34 24 35
REMARK SMILES IDX 86 36 25 37 26 38 27 39 80 40 28 41 85 42 79 43 81 44 29 45
REMARK SMILES IDX 84 46 78 47 77 48 30 50 64 51 43 52 63 53 44 54 47 55 62 56
REMARK SMILES IDX 82 57 45 58 46 59 61 61 83 62 48 63 31 64 32 65 41 66 33 67
REMARK SMILES IDX 34 68 40 69 42 70 35 71 36 72 37 73 38 74 39 75 65 76 66 77
REMARK SMILES IDX 75 78 67 79 68 80 74 81 76 82 69 83 70 84 71 85 72 86 73 87
REMARK SMILES IDX 49 88 50 89 59 90 51 91 52 92 58 93 60 94 53 95 54 96 55 97
REMARK SMILES IDX 56 98 57 99
REMARK H PARENT 14 5 4 15 19 30 81 49 47 60
REMARK Flexibility Score: inf
ROOT
ATOM      1  C   UNL     1       7.448  -1.034  -3.230  1.00  0.00     0.116 C 
ENDROOT
BRANCH   1   2
ATOM      2  N   UNL     1       7.472   0.411  -3.321  1.00  0.00    -0.349 N 
ATOM      3  C   UNL     1       6.486   1.338  -3.062  1.00  0.00     0.287 C 
ATOM      4  O   UNL     1       6.840   2.519  -3.068  1.00  0.00    -0.266 OA
ATOM      5  H   UNL     1       8.331   0.792  -3.615  1.00  0.00     0.163 HD
BRANCH   3   6
ATOM      6  C   UNL     1       5.115   0.927  -2.803  1.00  0.00     0.193 A 
ATOM      7  C   UNL     1       3.023   1.308  -2.085  1.00  0.00     0.234 A 
ATOM      8  C   UNL     1       3.062   0.030  -2.623  1.00  0.00     0.065 A 
ATOM      9  O   UNL     1       4.287   1.845  -2.199  1.00  0.00    -0.438 OA
ATOM     10  C   UNL     1       4.378  -0.211  -3.067  1.00  0.00     0.058 A 
BRANCH   7  11
ATOM     11  S   UNL     1       1.642   2.200  -1.372  1.00  0.00     0.274 S 
ATOM     12  O   UNL     1       0.530   1.936  -2.264  1.00  0.00    -0.204 OA
ATOM     13  O   UNL     1       2.086   3.541  -1.088  1.00  0.00    -0.204 OA
BRANCH  11  14
ATOM     14  N   UNL     1       1.235   1.484   0.116  1.00  0.00    -0.208 NA
ATOM     15  H   UNL     1       1.987   1.686   0.774  1.00  0.00     0.141 HD
BRANCH  14  16
ATOM     16  C   UNL     1       1.027   0.018   0.106  1.00  0.00     0.107 C 
BRANCH  16  17
ATOM     17  C   UNL     1       0.442  -0.535   1.423  1.00  0.00     0.031 C 
ATOM     18  C   UNL     1       1.023   0.111   2.683  1.00  0.00     0.014 C 
BRANCH  17  19
ATOM     19  C   UNL     1      -1.079  -0.558   1.429  1.00  0.00    -0.044 A 
ATOM     20  C   UNL     1      -1.852   0.607   1.517  1.00  0.00     0.004 A 
ATOM     21  C   UNL     1      -1.742  -1.795   1.345  1.00  0.00     0.004 A 
ATOM     22  C   UNL     1      -3.248   0.536   1.510  1.00  0.00     0.000 A 
ATOM     23  C   UNL     1      -3.136  -1.865   1.349  1.00  0.00     0.000 A 
ATOM     24  C   UNL     1      -3.889  -0.699   1.428  1.00  0.00     0.000 A 
ENDBRANCH  17  19
ENDBRANCH  16  17
ENDBRANCH  14  16
ENDBRANCH  11  14
ENDBRANCH   7  11
ENDBRANCH   3   6
ENDBRANCH   1   2
BRANCH   1  25
ATOM     25  C   UNL     1       7.168  -1.690  -4.583  1.00  0.00     0.023 C 
BRANCH  25  26
ATOM     26  C   UNL     1       8.381  -1.797  -5.509  1.00  0.00     0.023 C 
BRANCH  26  27
ATOM     27  C   UNL     1       9.555  -2.601  -4.959  1.00  0.00     0.116 C 
BRANCH  27  28
ATOM     28  N   UNL     1       9.197  -3.951  -4.552  1.00  0.00    -0.352 N 
ATOM     29  C   UNL     1       9.973  -5.085  -4.579  1.00  0.00     0.251 C 
ATOM     30  H   UNL     1       8.279  -4.067  -4.213  1.00  0.00     0.163 HD
ATOM     31  O   UNL     1       9.483  -6.173  -4.290  1.00  0.00    -0.269 OA
BRANCH  29  32
ATOM     32  C   UNL     1      11.387  -4.986  -5.001  1.00  0.00     0.039 A 
ATOM     33  C   UNL     1      11.862  -5.867  -5.976  1.00  0.00     0.014 A 
ATOM     34  C   UNL     1      12.225  -4.005  -4.467  1.00  0.00     0.014 A 
ATOM     35  C   UNL     1      13.161  -5.717  -6.465  1.00  0.00     0.010 A 
ATOM     36  C   UNL     1      13.494  -3.813  -5.005  1.00  0.00     0.010 A 
ATOM     37  C   UNL     1      13.974  -4.665  -6.011  1.00  0.00    -0.014 A 
BRANCH  37  38
ATOM     38  C   UNL     1      15.325  -4.436  -6.584  1.00  0.00     0.031 A 
ATOM     39  C   UNL     1      16.547  -4.569  -5.717  1.00  0.00     0.074 A 
ATOM     40  C   UNL     1      15.444  -4.045  -7.869  1.00  0.00     0.049 A 
ATOM     41  N   UNL     1      17.801  -4.354  -6.021  1.00  0.00    -0.248 NA
ATOM     42  C   UNL     1      16.329  -4.966  -4.317  1.00  0.00     0.031 C 
ATOM     43  C   UNL     1      14.329  -3.823  -8.793  1.00  0.00     0.029 A 
ATOM     44  N   UNL     1      16.557  -3.752  -8.617  1.00  0.00    -0.354 N 
ATOM     45  C   UNL     1      18.518  -4.576  -4.851  1.00  0.00     0.074 A 
ATOM     46  C   UNL     1      17.554  -4.889  -3.818  1.00  0.00     0.031 C 
ATOM     47  C   UNL     1      14.815  -3.451  -9.988  1.00  0.00     0.029 A 
ATOM     48  C   UNL     1      16.271  -3.376  -9.909  1.00  0.00     0.049 A 
ATOM     49  H   UNL     1      17.474  -3.807  -8.263  1.00  0.00     0.167 HD
ATOM     50  C   UNL     1      19.859  -4.546  -4.660  1.00  0.00     0.037 A 
ATOM     51  C   UNL     1      17.088  -3.007 -10.914  1.00  0.00     0.037 A 
ATOM     52  C   UNL     1      20.814  -4.263  -5.700  1.00  0.00     0.049 A 
ATOM     53  C   UNL     1      18.575  -2.999 -10.683  1.00  0.00     0.074 A 
ATOM     54  C   UNL     1      22.195  -4.272  -5.624  1.00  0.00     0.029 A 
ATOM     55  N   UNL     1      20.487  -3.918  -7.003  1.00  0.00    -0.354 N 
ATOM     56  N   UNL     1      19.240  -3.283  -9.588  1.00  0.00    -0.248 NA
ATOM     57  C   UNL     1      19.424  -2.630 -11.824  1.00  0.00     0.031 C 
ATOM     58  C   UNL     1      22.704  -3.894  -6.871  1.00  0.00     0.029 A 
ATOM     59  C   UNL     1      21.641  -3.695  -7.737  1.00  0.00     0.049 A 
ATOM     60  H   UNL     1      19.571  -3.842  -7.355  1.00  0.00     0.167 HD
ATOM     61  C   UNL     1      20.585  -3.152  -9.916  1.00  0.00     0.074 A 
ATOM     62  C   UNL     1      20.639  -2.777 -11.314  1.00  0.00     0.031 C 
ATOM     63  C   UNL     1      21.677  -3.328  -9.131  1.00  0.00     0.037 A 
BRANCH  50  64
ATOM     64  C   UNL     1      20.373  -4.837  -3.277  1.00  0.00     0.058 A 
ATOM     65  C   UNL     1      20.307  -6.125  -2.723  1.00  0.00     0.135 A 
ATOM     66  C   UNL     1      20.971  -3.824  -2.509  1.00  0.00     0.135 A 
ATOM     67  F   UNL     1      19.731  -7.127  -3.407  1.00  0.00    -0.206 F 
ATOM     68  C   UNL     1      20.787  -6.394  -1.445  1.00  0.00     0.059 A 
ATOM     69  C   UNL     1      21.484  -4.077  -1.239  1.00  0.00     0.059 A 
ATOM     70  F   UNL     1      21.060  -2.574  -2.989  1.00  0.00    -0.206 F 
ATOM     71  C   UNL     1      21.373  -5.362  -0.711  1.00  0.00     0.060 A 
BRANCH  71  72
ATOM     72  S   UNL     1      21.997  -5.729   0.943  1.00  0.00     0.124 S 
ATOM     73  O   UNL     1      20.754  -5.857   1.699  1.00  0.00    -0.237 OA
ATOM     74  O   UNL     1      22.739  -6.967   0.730  1.00  0.00    -0.237 OA
ATOM     75  O   UNL     1      22.810  -4.561   1.267  1.00  0.00    -0.744 OA
ENDBRANCH  71  72
ENDBRANCH  50  64
BRANCH  51  76
ATOM     76  C   UNL     1      16.520  -2.644 -12.240  1.00  0.00     0.058 A 
ATOM     77  C   UNL     1      16.683  -3.485 -13.350  1.00  0.00     0.135 A 
ATOM     78  C   UNL     1      15.793  -1.457 -12.420  1.00  0.00     0.135 A 
ATOM     79  F   UNL     1      17.374  -4.629 -13.229  1.00  0.00    -0.206 F 
ATOM     80  C   UNL     1      16.163  -3.156 -14.597  1.00  0.00     0.059 A 
ATOM     81  C   UNL     1      15.241  -1.117 -13.652  1.00  0.00     0.059 A 
ATOM     82  F   UNL     1      15.593  -0.626 -11.385  1.00  0.00    -0.206 F 
ATOM     83  C   UNL     1      15.441  -1.969 -14.738  1.00  0.00     0.060 A 
BRANCH  83  84
ATOM     84  S   UNL     1      14.728  -1.575 -16.349  1.00  0.00     0.124 S 
ATOM     85  O   UNL     1      15.911  -1.177 -17.104  1.00  0.00    -0.237 OA
ATOM     86  O   UNL     1      14.120  -2.844 -16.735  1.00  0.00    -0.237 OA
ATOM     87  O   UNL     1      13.783  -0.504 -16.044  1.00  0.00    -0.744 OA
ENDBRANCH  83  84
ENDBRANCH  51  76
BRANCH  63  88
ATOM     88  C   UNL     1      23.025  -3.150  -9.772  1.00  0.00     0.058 A 
ATOM     89  C   UNL     1      23.517  -1.882 -10.116  1.00  0.00     0.135 A 
ATOM     90  C   UNL     1      23.855  -4.261 -10.000  1.00  0.00     0.135 A 
ATOM     91  F   UNL     1      22.762  -0.789  -9.925  1.00  0.00    -0.206 F 
ATOM     92  C   UNL     1      24.776  -1.722 -10.687  1.00  0.00     0.059 A 
ATOM     93  C   UNL     1      25.127  -4.122 -10.544  1.00  0.00     0.059 A 
ATOM     94  F   UNL     1      23.436  -5.495  -9.678  1.00  0.00    -0.206 F 
ATOM     95  C   UNL     1      25.574  -2.849 -10.897  1.00  0.00     0.060 A 
BRANCH  95  96
ATOM     96  S   UNL     1      27.217  -2.626 -11.611  1.00  0.00     0.124 S 
ATOM     97  O   UNL     1      26.896  -2.366 -13.010  1.00  0.00    -0.237 OA
ATOM     98  O   UNL     1      27.735  -1.489 -10.857  1.00  0.00    -0.237 OA
ATOM     99  O   UNL     1      27.878  -3.900 -11.344  1.00  0.00    -0.744 OA
ENDBRANCH  95  96
ENDBRANCH  63  88
ENDBRANCH  37  38
ENDBRANCH  29  32
ENDBRANCH  27  28
ENDBRANCH  26  27
ENDBRANCH  25  26
ENDBRANCH   1  25
TORSDOF 19
