REMARK SMILES [NH3+][C@H](C(=O)NCCCCNC(=O)c1ccc(-c2c3nc(c(-c4c(F)cc(S(=O)(=O)[O-])cc4F)c4ccc([nH]4)c(-c4c(F)cc(S(=O)(=O)[O-])cc4F)c4nc(c(-c5c(F)cc(S(=O)(=O)[O-])cc5F)c5ccc2[nH]5)C=C4)C=C3)cc1)c1ccc(OCC(=O)N2CCCC2)cc1
REMARK SMILES IDX 7 1 6 2 5 3 3 4 4 5 2 7 1 8 79 12 80 13 93 14 81 15 92 16
REMARK SMILES IDX 82 17 83 18 84 19 85 20 86 21 87 22 88 23 91 24 89 25 90 26
REMARK SMILES IDX 8 27 9 28 10 29 11 30 12 32 13 33 14 34 78 35 15 36 77 37
REMARK SMILES IDX 16 38 17 39 18 40 71 41 19 42 76 43 70 44 72 45 20 46 75 47
REMARK SMILES IDX 69 48 68 49 21 51 55 52 34 53 54 54 35 55 38 56 53 57 73 58
REMARK SMILES IDX 36 59 37 60 52 62 74 63 39 64 22 65 23 66 32 67 24 68 25 69
REMARK SMILES IDX 31 70 33 71 26 72 27 73 28 74 29 75 30 76 56 77 57 78 66 79
REMARK SMILES IDX 58 80 59 81 65 82 67 83 60 84 61 85 62 86 63 87 64 88 40 89
REMARK SMILES IDX 41 90 50 91 42 92 43 93 49 94 51 95 44 96 45 97 46 98 47 99
REMARK SMILES IDX 48 100
REMARK H PARENT 5 6 1 9 1 10 1 11 10 31 72 50 38 61
REMARK Flexibility Score: inf
ROOT
ATOM      1  C   UNL     1      -0.657  -3.008   0.554  1.00  0.00     0.023 C 
ENDROOT
BRANCH   1   2
ATOM      2  C   UNL     1       0.684  -2.331   0.840  1.00  0.00     0.116 C 
BRANCH   2   3
ATOM      3  N   UNL     1       0.941  -1.242  -0.082  1.00  0.00    -0.351 N 
ATOM      4  C   UNL     1       0.773   0.103   0.094  1.00  0.00     0.283 C 
ATOM      5  O   UNL     1       1.004   0.844  -0.869  1.00  0.00    -0.268 OA
ATOM      6  H   UNL     1       1.287  -1.511  -0.963  1.00  0.00     0.163 HD
BRANCH   4   7
ATOM      7  C   UNL     1       0.368   0.690   1.482  1.00  0.00     0.302 C 
BRANCH   7   8
ATOM      8  N   UNL     1       1.027   2.015   1.628  1.00  0.00    -0.343 N 
ATOM      9  H   UNL     1       0.778   2.421   2.530  1.00  0.00     0.345 HD
ATOM     10  H   UNL     1       0.717   2.634   0.879  1.00  0.00     0.345 HD
ATOM     11  H   UNL     1       2.039   1.899   1.576  1.00  0.00     0.345 HD
ENDBRANCH   7   8
BRANCH   7  12
ATOM     12  C   UNL     1      -1.144   0.774   1.628  1.00  0.00     0.019 A 
ATOM     13  C   UNL     1      -1.887   1.867   1.162  1.00  0.00     0.014 A 
ATOM     14  C   UNL     1      -1.851  -0.305   2.181  1.00  0.00     0.014 A 
ATOM     15  C   UNL     1      -3.283   1.847   1.198  1.00  0.00     0.047 A 
ATOM     16  C   UNL     1      -3.249  -0.351   2.165  1.00  0.00     0.047 A 
ATOM     17  C   UNL     1      -3.968   0.720   1.651  1.00  0.00     0.120 A 
BRANCH  17  18
ATOM     18  O   UNL     1      -5.326   0.799   1.566  1.00  0.00    -0.484 OA
BRANCH  18  19
ATOM     19  C   UNL     1      -6.040  -0.418   1.454  1.00  0.00     0.329 C 
BRANCH  19  20
ATOM     20  C   UNL     1      -5.896  -1.285   0.188  1.00  0.00     0.260 C 
ATOM     21  O   UNL     1      -5.780  -2.509   0.292  1.00  0.00    -0.271 OA
ATOM     22  N   UNL     1      -6.042  -0.671  -1.038  1.00  0.00    -0.340 N 
ATOM     23  C   UNL     1      -6.000   0.748  -1.329  1.00  0.00     0.119 C 
ATOM     24  C   UNL     1      -6.239  -1.448  -2.251  1.00  0.00     0.119 C 
ATOM     25  C   UNL     1      -6.756   0.873  -2.639  1.00  0.00     0.023 C 
ATOM     26  C   UNL     1      -6.419  -0.423  -3.366  1.00  0.00     0.023 C 
ENDBRANCH  19  20
ENDBRANCH  18  19
ENDBRANCH  17  18
ENDBRANCH   7  12
ENDBRANCH   4   7
ENDBRANCH   2   3
ENDBRANCH   1   2
BRANCH   1  27
ATOM     27  C   UNL     1      -0.666  -3.938  -0.656  1.00  0.00     0.023 C 
BRANCH  27  28
ATOM     28  C   UNL     1       0.280  -5.128  -0.566  1.00  0.00     0.116 C 
BRANCH  28  29
ATOM     29  N   UNL     1       0.029  -5.984   0.585  1.00  0.00    -0.352 N 
ATOM     30  C   UNL     1       0.051  -7.358   0.651  1.00  0.00     0.251 C 
ATOM     31  H   UNL     1      -0.185  -5.519   1.425  1.00  0.00     0.163 HD
ATOM     32  O   UNL     1      -0.282  -7.931   1.685  1.00  0.00    -0.269 OA
BRANCH  30  33
ATOM     33  C   UNL     1       0.441  -8.135  -0.544  1.00  0.00     0.039 A 
ATOM     34  C   UNL     1      -0.372  -9.192  -0.959  1.00  0.00     0.014 A 
ATOM     35  C   UNL     1       1.577  -7.786  -1.279  1.00  0.00     0.014 A 
ATOM     36  C   UNL     1      -0.087  -9.851  -2.157  1.00  0.00     0.010 A 
ATOM     37  C   UNL     1       1.812  -8.389  -2.510  1.00  0.00     0.010 A 
ATOM     38  C   UNL     1       0.983  -9.427  -2.962  1.00  0.00    -0.014 A 
BRANCH  38  39
ATOM     39  C   UNL     1       1.257 -10.053  -4.280  1.00  0.00     0.031 A 
ATOM     40  C   UNL     1       2.557 -10.773  -4.513  1.00  0.00     0.074 A 
ATOM     41  C   UNL     1       0.375  -9.903  -5.288  1.00  0.00     0.049 A 
ATOM     42  N   UNL     1       3.022 -11.303  -5.615  1.00  0.00    -0.248 NA
ATOM     43  C   UNL     1       3.469 -10.882  -3.363  1.00  0.00     0.031 C 
ATOM     44  C   UNL     1      -0.894  -9.176  -5.203  1.00  0.00     0.029 A 
ATOM     45  N   UNL     1       0.416 -10.343  -6.587  1.00  0.00    -0.354 N 
ATOM     46  C   UNL     1       4.285 -11.787  -5.297  1.00  0.00     0.074 A 
ATOM     47  C   UNL     1       4.535 -11.441  -3.915  1.00  0.00     0.031 C 
ATOM     48  C   UNL     1      -1.519  -9.240  -6.390  1.00  0.00     0.029 A 
ATOM     49  C   UNL     1      -0.683  -9.980  -7.330  1.00  0.00     0.049 A 
ATOM     50  H   UNL     1       1.163 -10.869  -6.954  1.00  0.00     0.167 HD
ATOM     51  C   UNL     1       5.148 -12.480  -6.078  1.00  0.00     0.037 A 
ATOM     52  C   UNL     1      -0.981 -10.214  -8.623  1.00  0.00     0.037 A 
ATOM     53  C   UNL     1       4.877 -12.854  -7.441  1.00  0.00     0.049 A 
ATOM     54  C   UNL     1      -0.017 -11.004  -9.465  1.00  0.00     0.074 A 
ATOM     55  C   UNL     1       5.655 -13.614  -8.296  1.00  0.00     0.029 A 
ATOM     56  N   UNL     1       3.737 -12.498  -8.147  1.00  0.00    -0.354 N 
ATOM     57  N   UNL     1       1.146 -11.509  -9.130  1.00  0.00    -0.248 NA
ATOM     58  C   UNL     1      -0.408 -11.262 -10.858  1.00  0.00     0.031 C 
ATOM     59  C   UNL     1       5.001 -13.689  -9.531  1.00  0.00     0.029 A 
ATOM     60  C   UNL     1       3.797 -13.009  -9.432  1.00  0.00     0.049 A 
ATOM     61  H   UNL     1       2.995 -11.960  -7.787  1.00  0.00     0.167 HD
ATOM     62  C   UNL     1       1.616 -12.164 -10.264  1.00  0.00     0.074 A 
ATOM     63  C   UNL     1       0.606 -12.000 -11.289  1.00  0.00     0.031 C 
ATOM     64  C   UNL     1       2.779 -12.840 -10.439  1.00  0.00     0.037 A 
BRANCH  51  65
ATOM     65  C   UNL     1       6.463 -12.882  -5.468  1.00  0.00     0.058 A 
ATOM     66  C   UNL     1       6.540 -13.870  -4.473  1.00  0.00     0.135 A 
ATOM     67  C   UNL     1       7.660 -12.283  -5.890  1.00  0.00     0.135 A 
ATOM     68  F   UNL     1       5.423 -14.463  -4.021  1.00  0.00    -0.206 F 
ATOM     69  C   UNL     1       7.752 -14.221  -3.889  1.00  0.00     0.059 A 
ATOM     70  C   UNL     1       8.888 -12.640  -5.340  1.00  0.00     0.059 A 
ATOM     71  F   UNL     1       7.644 -11.334  -6.839  1.00  0.00    -0.206 F 
ATOM     72  C   UNL     1       8.921 -13.597  -4.326  1.00  0.00     0.060 A 
BRANCH  72  73
ATOM     73  S   UNL     1      10.486 -14.054  -3.551  1.00  0.00     0.124 S 
ATOM     74  O   UNL     1      10.383 -13.369  -2.266  1.00  0.00    -0.237 OA
ATOM     75  O   UNL     1      10.398 -15.510  -3.501  1.00  0.00    -0.237 OA
ATOM     76  O   UNL     1      11.488 -13.521  -4.469  1.00  0.00    -0.744 OA
ENDBRANCH  72  73
ENDBRANCH  51  65
BRANCH  52  77
ATOM     77  C   UNL     1      -2.264  -9.720  -9.188  1.00  0.00     0.058 A 
ATOM     78  C   UNL     1      -3.309 -10.609  -9.480  1.00  0.00     0.135 A 
ATOM     79  C   UNL     1      -2.482  -8.354  -9.424  1.00  0.00     0.135 A 
ATOM     80  F   UNL     1      -3.146 -11.925  -9.277  1.00  0.00    -0.206 F 
ATOM     81  C   UNL     1      -4.522 -10.164  -9.996  1.00  0.00     0.059 A 
ATOM     82  C   UNL     1      -3.694  -7.882  -9.919  1.00  0.00     0.059 A 
ATOM     83  F   UNL     1      -1.519  -7.462  -9.145  1.00  0.00    -0.206 F 
ATOM     84  C   UNL     1      -4.706  -8.797 -10.210  1.00  0.00     0.060 A 
BRANCH  84  85
ATOM     85  S   UNL     1      -6.304  -8.223 -10.824  1.00  0.00     0.124 S 
ATOM     86  O   UNL     1      -6.239  -8.617 -12.226  1.00  0.00    -0.237 OA
ATOM     87  O   UNL     1      -7.241  -8.973  -9.993  1.00  0.00    -0.237 OA
ATOM     88  O   UNL     1      -6.264  -6.786 -10.568  1.00  0.00    -0.744 OA
ENDBRANCH  84  85
ENDBRANCH  52  77
BRANCH  64  89
ATOM     89  C   UNL     1       3.012 -13.476 -11.780  1.00  0.00     0.058 A 
ATOM     90  C   UNL     1       3.351 -12.713 -12.907  1.00  0.00     0.135 A 
ATOM     91  C   UNL     1       2.949 -14.872 -11.924  1.00  0.00     0.135 A 
ATOM     92  F   UNL     1       3.418 -11.375 -12.822  1.00  0.00    -0.206 F 
ATOM     93  C   UNL     1       3.602 -13.310 -14.138  1.00  0.00     0.059 A 
ATOM     94  C   UNL     1       3.219 -15.491 -13.140  1.00  0.00     0.059 A 
ATOM     95  F   UNL     1       2.638 -15.647 -10.873  1.00  0.00    -0.206 F 
ATOM     96  C   UNL     1       3.535 -14.701 -14.244  1.00  0.00     0.060 A 
BRANCH  96  97
ATOM     97  S   UNL     1       3.901 -15.467 -15.837  1.00  0.00     0.124 S 
ATOM     98  O   UNL     1       2.679 -15.187 -16.584  1.00  0.00    -0.237 OA
ATOM     99  O   UNL     1       5.090 -14.739 -16.270  1.00  0.00    -0.237 OA
ATOM    100  O   UNL     1       4.122 -16.869 -15.496  1.00  0.00    -0.744 OA
ENDBRANCH  96  97
ENDBRANCH  64  89
ENDBRANCH  38  39
ENDBRANCH  30  33
ENDBRANCH  28  29
ENDBRANCH  27  28
ENDBRANCH   1  27
TORSDOF 19
