REMARK SMILES Cn1c(=O)[nH]c(=O)c2c1nc(NC1CCCC1)n2CC(=O)NCCCCNC(=O)c1ccc(-c2c3nc(c(-c4c(F)cc(S(=O)(=O)[O-])cc4F)c4ccc([nH]4)c(-c4c(F)cc(S(=O)(=O)[O-])cc4F)c4nc(c(-c5c(F)cc(S(=O)(=O)[O-])cc5F)c5ccc2[nH]5)C=C4)C=C3)cc1
REMARK SMILES IDX 24 1 23 2 22 3 20 4 21 5 19 7 18 8 1 9 2 10 3 11 9 12 4 13
REMARK SMILES IDX 5 14 8 15 10 16 6 17 11 19 7 20 12 21 13 23 14 24 17 25
REMARK SMILES IDX 15 26 16 27 25 28 26 29 27 30 28 31 29 33 30 34 31 35 95 36
REMARK SMILES IDX 32 37 94 38 33 39 34 40 35 41 88 42 36 43 93 44 87 45 89 46
REMARK SMILES IDX 37 47 92 48 86 49 85 50 38 52 72 53 51 54 71 55 52 56 55 57
REMARK SMILES IDX 70 58 90 59 53 60 54 61 69 63 91 64 56 65 39 66 40 67 49 68
REMARK SMILES IDX 41 69 42 70 48 71 50 72 43 73 44 74 45 75 46 76 47 77 73 78
REMARK SMILES IDX 74 79 83 80 75 81 76 82 82 83 84 84 77 85 78 86 79 87 80 88
REMARK SMILES IDX 81 89 57 90 58 91 67 92 59 93 60 94 66 95 68 96 61 97 62 98
REMARK SMILES IDX 63 99 64 100 65 101
REMARK H PARENT 22 6 5 18 12 22 27 32 89 51 55 62
REMARK Flexibility Score: inf
ROOT
ATOM      1  C   UNL     1       2.346   4.128   3.155  1.00  0.00     0.023 C 
ENDROOT
BRANCH   1   2
ATOM      2  C   UNL     1       1.767   5.494   2.761  1.00  0.00     0.116 C 
BRANCH   2   3
ATOM      3  N   UNL     1       2.741   6.316   2.070  1.00  0.00    -0.355 N 
ATOM      4  C   UNL     1       2.876   6.532   0.727  1.00  0.00     0.240 C 
ATOM      5  O   UNL     1       3.874   7.132   0.319  1.00  0.00    -0.273 OA
ATOM      6  H   UNL     1       3.393   6.780   2.644  1.00  0.00     0.163 HD
BRANCH   4   7
ATOM      7  C   UNL     1       1.820   6.045  -0.244  1.00  0.00     0.226 C 
BRANCH   7   8
ATOM      8  N   UNL     1       1.786   4.600  -0.354  1.00  0.00    -0.295 N 
ATOM      9  C   UNL     1       1.015   0.071   0.060  1.00  0.00     0.157 C 
ATOM     10  N   UNL     1       0.469   1.407   0.157  1.00  0.00    -0.279 N 
ATOM     11  C   UNL     1      -0.839   1.590   0.590  1.00  0.00     0.329 A 
ATOM     12  C   UNL     1       1.216   2.516  -0.178  1.00  0.00     0.170 A 
ATOM     13  O   UNL     1      -1.589   0.665   0.907  1.00  0.00    -0.248 OA
ATOM     14  N   UNL     1      -1.304   2.887   0.659  1.00  0.00    -0.272 N 
ATOM     15  C   UNL     1       0.720   3.779  -0.080  1.00  0.00     0.154 A 
ATOM     16  N   UNL     1       2.509   2.512  -0.579  1.00  0.00    -0.194 NA
ATOM     17  C   UNL     1      -0.622   4.045   0.333  1.00  0.00     0.279 A 
ATOM     18  H   UNL     1      -2.228   3.001   0.978  1.00  0.00     0.175 HD
ATOM     19  C   UNL     1       2.858   3.779  -0.668  1.00  0.00     0.206 A 
ATOM     20  O   UNL     1      -1.132   5.138   0.425  1.00  0.00    -0.267 OA
BRANCH  19  21
ATOM     21  N   UNL     1       4.075   4.275  -0.974  1.00  0.00    -0.353 N 
ATOM     22  H   UNL     1       4.204   5.251  -0.955  1.00  0.00     0.163 HD
BRANCH  21  23
ATOM     23  C   UNL     1       5.205   3.432  -1.328  1.00  0.00     0.082 C 
ATOM     24  C   UNL     1       5.621   2.440  -0.247  1.00  0.00     0.025 C 
ATOM     25  C   UNL     1       4.963   2.576  -2.568  1.00  0.00     0.025 C 
ATOM     26  C   UNL     1       6.453   1.412  -1.002  1.00  0.00     0.002 C 
ATOM     27  C   UNL     1       5.915   1.391  -2.432  1.00  0.00     0.002 C 
ENDBRANCH  21  23
ENDBRANCH  19  21
ENDBRANCH   7   8
ENDBRANCH   4   7
ENDBRANCH   2   3
ENDBRANCH   1   2
BRANCH   1  28
ATOM     28  C   UNL     1       3.407   4.160   4.264  1.00  0.00     0.023 C 
BRANCH  28  29
ATOM     29  C   UNL     1       2.913   4.754   5.572  1.00  0.00     0.116 C 
BRANCH  29  30
ATOM     30  N   UNL     1       1.873   3.950   6.222  1.00  0.00    -0.352 N 
ATOM     31  C   UNL     1       1.340   4.138   7.491  1.00  0.00     0.251 C 
ATOM     32  H   UNL     1       1.514   3.194   5.703  1.00  0.00     0.163 HD
ATOM     33  O   UNL     1       0.809   3.217   8.099  1.00  0.00    -0.269 OA
BRANCH  31  34
ATOM     34  C   UNL     1       1.388   5.500   8.061  1.00  0.00     0.039 A 
ATOM     35  C   UNL     1       1.653   5.781   9.403  1.00  0.00     0.014 A 
ATOM     36  C   UNL     1       1.223   6.532   7.147  1.00  0.00     0.014 A 
ATOM     37  C   UNL     1       1.724   7.123   9.794  1.00  0.00     0.010 A 
ATOM     38  C   UNL     1       1.652   7.780   7.475  1.00  0.00     0.010 A 
ATOM     39  C   UNL     1       1.696   8.125   8.807  1.00  0.00    -0.014 A 
BRANCH  39  40
ATOM     40  C   UNL     1       1.923   9.542   9.065  1.00  0.00     0.031 A 
ATOM     41  C   UNL     1       3.248   9.757   9.693  1.00  0.00     0.074 A 
ATOM     42  C   UNL     1       1.123  10.531   8.583  1.00  0.00     0.049 A 
ATOM     43  N   UNL     1       3.468   9.981  10.944  1.00  0.00    -0.248 NA
ATOM     44  C   UNL     1       4.470   9.415   8.938  1.00  0.00     0.031 C 
ATOM     45  C   UNL     1      -0.076  10.434   7.736  1.00  0.00     0.029 A 
ATOM     46  N   UNL     1       1.251  11.889   8.725  1.00  0.00    -0.354 N 
ATOM     47  C   UNL     1       4.843  10.136  11.058  1.00  0.00     0.074 A 
ATOM     48  C   UNL     1       5.407   9.527   9.885  1.00  0.00     0.031 C 
ATOM     49  C   UNL     1      -0.420  11.658   7.261  1.00  0.00     0.029 A 
ATOM     50  C   UNL     1       0.426  12.660   7.881  1.00  0.00     0.049 A 
ATOM     51  H   UNL     1       1.875  12.296   9.369  1.00  0.00     0.167 HD
ATOM     52  C   UNL     1       5.352  11.025  11.954  1.00  0.00     0.037 A 
ATOM     53  C   UNL     1       0.432  14.024   7.755  1.00  0.00     0.037 A 
ATOM     54  C   UNL     1       4.328  11.433  12.888  1.00  0.00     0.049 A 
ATOM     55  C   UNL     1       1.061  14.546   9.002  1.00  0.00     0.074 A 
ATOM     56  C   UNL     1       3.543  10.771  13.812  1.00  0.00     0.029 A 
ATOM     57  N   UNL     1       3.681  12.616  12.615  1.00  0.00    -0.354 N 
ATOM     58  N   UNL     1       0.514  14.402  10.182  1.00  0.00    -0.248 NA
ATOM     59  C   UNL     1       2.511  14.674   8.988  1.00  0.00     0.031 C 
ATOM     60  C   UNL     1       2.249  11.356  13.681  1.00  0.00     0.029 A 
ATOM     61  C   UNL     1       2.334  12.422  12.785  1.00  0.00     0.049 A 
ATOM     62  H   UNL     1       4.113  13.458  12.344  1.00  0.00     0.167 HD
ATOM     63  C   UNL     1       1.551  13.973  10.998  1.00  0.00     0.074 A 
ATOM     64  C   UNL     1       2.766  14.170  10.200  1.00  0.00     0.031 C 
ATOM     65  C   UNL     1       1.321  13.199  12.102  1.00  0.00     0.037 A 
BRANCH  52  66
ATOM     66  C   UNL     1       6.603  11.844  11.741  1.00  0.00     0.058 A 
ATOM     67  C   UNL     1       7.078  12.639  12.805  1.00  0.00     0.135 A 
ATOM     68  C   UNL     1       7.187  12.103  10.481  1.00  0.00     0.135 A 
ATOM     69  F   UNL     1       6.589  12.482  14.046  1.00  0.00    -0.206 F 
ATOM     70  C   UNL     1       8.008  13.660  12.619  1.00  0.00     0.059 A 
ATOM     71  C   UNL     1       8.151  13.085  10.283  1.00  0.00     0.059 A 
ATOM     72  F   UNL     1       6.791  11.484   9.363  1.00  0.00    -0.206 F 
ATOM     73  C   UNL     1       8.534  13.880  11.350  1.00  0.00     0.060 A 
BRANCH  73  74
ATOM     74  S   UNL     1       9.695  15.233  11.104  1.00  0.00     0.124 S 
ATOM     75  O   UNL     1       8.863  16.393  11.400  1.00  0.00    -0.237 OA
ATOM     76  O   UNL     1      10.727  14.918  12.086  1.00  0.00    -0.237 OA
ATOM     77  O   UNL     1      10.097  15.082   9.709  1.00  0.00    -0.744 OA
ENDBRANCH  73  74
ENDBRANCH  52  66
BRANCH  53  78
ATOM     78  C   UNL     1       0.332  14.865   6.513  1.00  0.00     0.058 A 
ATOM     79  C   UNL     1       0.177  16.271   6.546  1.00  0.00     0.135 A 
ATOM     80  C   UNL     1       0.694  14.332   5.262  1.00  0.00     0.135 A 
ATOM     81  F   UNL     1      -0.137  16.887   7.697  1.00  0.00    -0.206 F 
ATOM     82  C   UNL     1       0.397  17.090   5.420  1.00  0.00     0.059 A 
ATOM     83  C   UNL     1       0.921  15.124   4.131  1.00  0.00     0.059 A 
ATOM     84  F   UNL     1       0.925  13.018   5.123  1.00  0.00    -0.206 F 
ATOM     85  C   UNL     1       0.790  16.506   4.217  1.00  0.00     0.060 A 
BRANCH  85  86
ATOM     86  S   UNL     1       1.218  17.545   2.790  1.00  0.00     0.124 S 
ATOM     87  O   UNL     1      -0.061  18.172   2.472  1.00  0.00    -0.237 OA
ATOM     88  O   UNL     1       2.239  18.429   3.342  1.00  0.00    -0.237 OA
ATOM     89  O   UNL     1       1.700  16.583   1.802  1.00  0.00    -0.744 OA
ENDBRANCH  85  86
ENDBRANCH  53  78
BRANCH  65  90
ATOM     90  C   UNL     1      -0.102  13.002  12.572  1.00  0.00     0.058 A 
ATOM     91  C   UNL     1      -1.099  12.291  11.876  1.00  0.00     0.135 A 
ATOM     92  C   UNL     1      -0.405  13.397  13.883  1.00  0.00     0.135 A 
ATOM     93  F   UNL     1      -0.863  11.792  10.655  1.00  0.00    -0.206 F 
ATOM     94  C   UNL     1      -2.347  12.015  12.450  1.00  0.00     0.059 A 
ATOM     95  C   UNL     1      -1.625  13.108  14.484  1.00  0.00     0.059 A 
ATOM     96  F   UNL     1       0.524  14.022  14.624  1.00  0.00    -0.206 F 
ATOM     97  C   UNL     1      -2.599  12.429  13.758  1.00  0.00     0.060 A 
BRANCH  97  98
ATOM     98  S   UNL     1      -4.192  12.050  14.523  1.00  0.00     0.124 S 
ATOM     99  O   UNL     1      -5.115  12.846  13.721  1.00  0.00    -0.237 OA
ATOM    100  O   UNL     1      -4.289  10.604  14.354  1.00  0.00    -0.237 OA
ATOM    101  O   UNL     1      -4.024  12.498  15.904  1.00  0.00    -0.744 OA
ENDBRANCH  97  98
ENDBRANCH  65  90
ENDBRANCH  39  40
ENDBRANCH  31  34
ENDBRANCH  29  30
ENDBRANCH  28  29
ENDBRANCH   1  28
TORSDOF 17
