REMARK SMILES Cc1ccccc1C(=O)Nc1ccc(OCC(=O)NCCCCNC(=O)c2ccc(-c3c4nc(c(-c5c(F)cc(S(=O)(=O)[O-])cc5F)c5ccc([nH]5)c(-c5c(F)cc(S(=O)(=O)[O-])cc5F)c5nc(c(-c6c(F)cc(S(=O)(=O)[O-])cc6F)c6ccc3[nH]6)C=C5)C=C4)cc2)c(-c2nc3ccccc3s2)c1
REMARK SMILES IDX 21 1 20 2 19 3 17 4 18 5 16 7 15 8 14 9 11 10 12 11 103 12
REMARK SMILES IDX 13 13 93 14 10 15 8 16 9 17 7 19 1 20 2 21 3 22 4 23 6 24
REMARK SMILES IDX 5 25 94 26 95 27 102 28 96 29 101 30 97 31 100 32 98 33
REMARK SMILES IDX 99 34 22 35 23 36 24 37 25 38 26 40 27 41 28 42 92 43 29 44
REMARK SMILES IDX 91 45 30 46 31 47 32 48 85 49 33 50 90 51 84 52 86 53 34 54
REMARK SMILES IDX 89 55 83 56 82 57 35 59 69 60 48 61 68 62 49 63 52 64 67 65
REMARK SMILES IDX 87 66 50 67 51 68 66 70 88 71 53 72 36 73 37 74 46 75 38 76
REMARK SMILES IDX 39 77 45 78 47 79 40 80 41 81 42 82 43 83 44 84 70 85 71 86
REMARK SMILES IDX 80 87 72 88 73 89 79 90 81 91 74 92 75 93 76 94 77 95 78 96
REMARK SMILES IDX 54 97 55 98 64 99 56 100 57 101 63 102 65 103 58 104 59 105
REMARK SMILES IDX 60 106 61 107 62 108
REMARK H PARENT 19 6 10 18 24 39 86 58 52 69
REMARK Flexibility Score: inf
ROOT
ATOM      1  C   UNL     1       4.083  -3.202   3.114  1.00  0.00     0.023 C 
ENDROOT
BRANCH   1   2
ATOM      2  C   UNL     1       4.537  -4.381   2.253  1.00  0.00     0.116 C 
BRANCH   2   3
ATOM      3  N   UNL     1       3.700  -4.480   1.068  1.00  0.00    -0.353 N 
ATOM      4  C   UNL     1       3.837  -3.808  -0.114  1.00  0.00     0.257 C 
ATOM      5  O   UNL     1       2.817  -3.663  -0.789  1.00  0.00    -0.271 OA
ATOM      6  H   UNL     1       2.942  -5.106   1.124  1.00  0.00     0.163 HD
BRANCH   4   7
ATOM      7  C   UNL     1       5.257  -3.377  -0.593  1.00  0.00     0.329 C 
BRANCH   7   8
ATOM      8  O   UNL     1       5.664  -2.165  -1.220  1.00  0.00    -0.483 OA
BRANCH   8   9
ATOM      9  C   UNL     1       4.870  -1.069  -1.046  1.00  0.00     0.130 A 
ATOM     10  C   UNL     1       3.384   1.246  -0.528  1.00  0.00     0.042 A 
ATOM     11  C   UNL     1       4.580   1.032   0.154  1.00  0.00     0.030 A 
ATOM     12  C   UNL     1       3.033   0.399  -1.579  1.00  0.00     0.041 A 
ATOM     13  C   UNL     1       5.293  -0.148  -0.071  1.00  0.00     0.049 A 
ATOM     14  C   UNL     1       3.794  -0.751  -1.898  1.00  0.00     0.055 A 
BRANCH  10  15
ATOM     15  N   UNL     1       2.543   2.265  -0.063  1.00  0.00    -0.322 N 
ATOM     16  C   UNL     1       1.171   2.289   0.103  1.00  0.00     0.255 C 
ATOM     17  O   UNL     1       0.644   3.378   0.352  1.00  0.00    -0.269 OA
ATOM     18  H   UNL     1       3.003   3.099   0.185  1.00  0.00     0.170 HD
BRANCH  16  19
ATOM     19  C   UNL     1       0.297   1.067   0.070  1.00  0.00     0.043 A 
ATOM     20  C   UNL     1       1.842  -0.554   1.361  1.00  0.00     0.045 C 
ATOM     21  C   UNL     1       0.626  -0.215   0.553  1.00  0.00    -0.038 A 
ATOM     22  C   UNL     1      -0.282  -1.278   0.361  1.00  0.00     0.004 A 
ATOM     23  C   UNL     1      -1.563  -1.052  -0.130  1.00  0.00     0.000 A 
ATOM     24  C   UNL     1      -1.020   1.283  -0.382  1.00  0.00     0.014 A 
ATOM     25  C   UNL     1      -1.949   0.240  -0.457  1.00  0.00     0.001 A 
ENDBRANCH  16  19
ENDBRANCH  10  15
BRANCH  14  26
ATOM     26  C   UNL     1       3.336  -1.530  -3.072  1.00  0.00     0.128 A 
ATOM     27  N   UNL     1       2.354  -1.137  -3.869  1.00  0.00    -0.236 NA
ATOM     28  S   UNL     1       4.020  -3.030  -3.567  1.00  0.00    -0.114 S 
ATOM     29  C   UNL     1       1.878  -2.218  -4.590  1.00  0.00     0.082 A 
ATOM     30  C   UNL     1       2.573  -3.408  -4.393  1.00  0.00     0.055 A 
ATOM     31  C   UNL     1       0.758  -2.228  -5.439  1.00  0.00     0.030 A 
ATOM     32  C   UNL     1       2.107  -4.641  -4.866  1.00  0.00     0.021 A 
ATOM     33  C   UNL     1       0.310  -3.443  -5.968  1.00  0.00     0.002 A 
ATOM     34  C   UNL     1       0.950  -4.638  -5.646  1.00  0.00     0.002 A 
ENDBRANCH  14  26
ENDBRANCH   8   9
ENDBRANCH   7   8
ENDBRANCH   4   7
ENDBRANCH   2   3
ENDBRANCH   1   2
BRANCH   1  35
ATOM     35  C   UNL     1       2.659  -3.298   3.654  1.00  0.00     0.023 C 
BRANCH  35  36
ATOM     36  C   UNL     1       2.322  -4.561   4.425  1.00  0.00     0.116 C 
BRANCH  36  37
ATOM     37  N   UNL     1       2.675  -4.571   5.835  1.00  0.00    -0.352 N 
ATOM     38  C   UNL     1       2.212  -5.423   6.828  1.00  0.00     0.251 C 
ATOM     39  H   UNL     1       3.324  -3.888   6.122  1.00  0.00     0.163 HD
ATOM     40  O   UNL     1       2.295  -5.159   8.025  1.00  0.00    -0.269 OA
BRANCH  38  41
ATOM     41  C   UNL     1       1.794  -6.787   6.436  1.00  0.00     0.039 A 
ATOM     42  C   UNL     1       2.512  -7.834   7.035  1.00  0.00     0.014 A 
ATOM     43  C   UNL     1       1.090  -6.982   5.256  1.00  0.00     0.014 A 
ATOM     44  C   UNL     1       2.770  -8.968   6.292  1.00  0.00     0.010 A 
ATOM     45  C   UNL     1       1.493  -8.005   4.446  1.00  0.00     0.010 A 
ATOM     46  C   UNL     1       2.359  -8.965   4.963  1.00  0.00    -0.014 A 
BRANCH  46  47
ATOM     47  C   UNL     1       2.649 -10.037   4.050  1.00  0.00     0.031 A 
ATOM     48  C   UNL     1       1.685 -11.139   4.105  1.00  0.00     0.074 A 
ATOM     49  C   UNL     1       3.709  -9.916   3.229  1.00  0.00     0.049 A 
ATOM     50  N   UNL     1       1.993 -12.379   4.035  1.00  0.00    -0.248 NA
ATOM     51  C   UNL     1       0.262 -10.914   4.385  1.00  0.00     0.031 C 
ATOM     52  C   UNL     1       4.135 -10.795   2.151  1.00  0.00     0.029 A 
ATOM     53  N   UNL     1       4.774  -9.018   3.390  1.00  0.00    -0.354 N 
ATOM     54  C   UNL     1       0.804 -13.058   3.879  1.00  0.00     0.074 A 
ATOM     55  C   UNL     1      -0.233 -12.148   4.282  1.00  0.00     0.031 C 
ATOM     56  C   UNL     1       5.458 -10.625   1.966  1.00  0.00     0.029 A 
ATOM     57  C   UNL     1       5.932  -9.704   2.992  1.00  0.00     0.049 A 
ATOM     58  H   UNL     1       4.720  -8.091   3.717  1.00  0.00     0.167 HD
ATOM     59  C   UNL     1       0.809 -14.227   3.185  1.00  0.00     0.037 A 
ATOM     60  C   UNL     1       6.870 -10.008   3.934  1.00  0.00     0.037 A 
ATOM     61  C   UNL     1       2.169 -14.509   2.735  1.00  0.00     0.049 A 
ATOM     62  C   UNL     1       6.953 -11.497   4.181  1.00  0.00     0.074 A 
ATOM     63  C   UNL     1       2.826 -14.193   1.555  1.00  0.00     0.029 A 
ATOM     64  N   UNL     1       3.160 -14.742   3.683  1.00  0.00    -0.354 N 
ATOM     65  N   UNL     1       5.951 -12.325   4.023  1.00  0.00    -0.248 NA
ATOM     66  C   UNL     1       8.204 -12.183   4.484  1.00  0.00     0.031 C 
ATOM     67  C   UNL     1       4.220 -14.186   1.815  1.00  0.00     0.029 A 
ATOM     68  C   UNL     1       4.412 -14.495   3.151  1.00  0.00     0.049 A 
ATOM     69  H   UNL     1       2.992 -15.042   4.605  1.00  0.00     0.167 HD
ATOM     70  C   UNL     1       6.404 -13.620   4.141  1.00  0.00     0.074 A 
ATOM     71  C   UNL     1       7.820 -13.470   4.429  1.00  0.00     0.031 C 
ATOM     72  C   UNL     1       5.610 -14.720   3.945  1.00  0.00     0.037 A 
BRANCH  59  73
ATOM     73  C   UNL     1      -0.444 -14.847   2.625  1.00  0.00     0.058 A 
ATOM     74  C   UNL     1      -0.437 -15.452   1.352  1.00  0.00     0.135 A 
ATOM     75  C   UNL     1      -1.689 -14.860   3.289  1.00  0.00     0.135 A 
ATOM     76  F   UNL     1       0.681 -15.537   0.621  1.00  0.00    -0.206 F 
ATOM     77  C   UNL     1      -1.579 -15.989   0.763  1.00  0.00     0.059 A 
ATOM     78  C   UNL     1      -2.859 -15.351   2.699  1.00  0.00     0.059 A 
ATOM     79  F   UNL     1      -1.804 -14.420   4.552  1.00  0.00    -0.206 F 
ATOM     80  C   UNL     1      -2.791 -15.925   1.437  1.00  0.00     0.060 A 
BRANCH  80  81
ATOM     81  S   UNL     1      -4.245 -16.637   0.646  1.00  0.00     0.124 S 
ATOM     82  O   UNL     1      -4.260 -15.954  -0.644  1.00  0.00    -0.237 OA
ATOM     83  O   UNL     1      -3.902 -18.055   0.609  1.00  0.00    -0.237 OA
ATOM     84  O   UNL     1      -5.334 -16.278   1.549  1.00  0.00    -0.744 OA
ENDBRANCH  80  81
ENDBRANCH  59  73
BRANCH  60  85
ATOM     85  C   UNL     1       7.154  -8.872   4.863  1.00  0.00     0.058 A 
ATOM     86  C   UNL     1       7.828  -7.766   4.305  1.00  0.00     0.135 A 
ATOM     87  C   UNL     1       6.457  -8.641   6.062  1.00  0.00     0.135 A 
ATOM     88  F   UNL     1       8.503  -7.907   3.152  1.00  0.00    -0.206 F 
ATOM     89  C   UNL     1       7.730  -6.483   4.835  1.00  0.00     0.059 A 
ATOM     90  C   UNL     1       6.330  -7.349   6.608  1.00  0.00     0.059 A 
ATOM     91  F   UNL     1       5.810  -9.649   6.664  1.00  0.00    -0.206 F 
ATOM     92  C   UNL     1       6.949  -6.272   5.968  1.00  0.00     0.060 A 
BRANCH  92  93
ATOM     93  S   UNL     1       6.657  -4.554   6.462  1.00  0.00     0.124 S 
ATOM     94  O   UNL     1       7.808  -4.278   7.306  1.00  0.00    -0.237 OA
ATOM     95  O   UNL     1       6.635  -3.862   5.176  1.00  0.00    -0.237 OA
ATOM     96  O   UNL     1       5.357  -4.602   7.127  1.00  0.00    -0.744 OA
ENDBRANCH  92  93
ENDBRANCH  60  85
BRANCH  72  97
ATOM     97  C   UNL     1       5.907 -16.151   4.368  1.00  0.00     0.058 A 
ATOM     98  C   UNL     1       6.864 -16.511   5.329  1.00  0.00     0.135 A 
ATOM     99  C   UNL     1       5.088 -17.224   3.914  1.00  0.00     0.135 A 
ATOM    100  F   UNL     1       7.631 -15.599   5.939  1.00  0.00    -0.206 F 
ATOM    101  C   UNL     1       7.046 -17.829   5.751  1.00  0.00     0.059 A 
ATOM    102  C   UNL     1       5.193 -18.527   4.388  1.00  0.00     0.059 A 
ATOM    103  F   UNL     1       4.127 -17.053   2.995  1.00  0.00    -0.206 F 
ATOM    104  C   UNL     1       6.201 -18.829   5.281  1.00  0.00     0.060 A 
BRANCH 104 105
ATOM    105  S   UNL     1       6.405 -20.513   5.873  1.00  0.00     0.124 S 
ATOM    106  O   UNL     1       7.505 -20.980   5.034  1.00  0.00    -0.237 OA
ATOM    107  O   UNL     1       6.725 -20.315   7.283  1.00  0.00    -0.237 OA
ATOM    108  O   UNL     1       5.107 -21.125   5.612  1.00  0.00    -0.744 OA
ENDBRANCH 104 105
ENDBRANCH  72  97
ENDBRANCH  46  47
ENDBRANCH  38  41
ENDBRANCH  36  37
ENDBRANCH  35  36
ENDBRANCH   1  35
TORSDOF 19
