REMARK SMILES O=C(C[C@H](C(=O)NCCCCNC(=O)c1ccc(-c2c3nc(c(-c4c(F)cc(S(=O)(=O)[O-])cc4F)c4ccc([nH]4)c(-c4c(F)cc(S(=O)(=O)[O-])cc4F)c4nc(c(-c5c(F)cc(S(=O)(=O)[O-])cc5F)c5ccc2[nH]5)C=C4)C=C3)cc1)c1ccccc1)Nc1ccc(Cl)cc1Cl
REMARK SMILES IDX 9 1 8 2 7 3 5 4 6 5 4 7 3 8 2 9 1 10 87 11 88 13 89 14 94 15
REMARK SMILES IDX 90 16 93 17 95 18 91 19 92 20 81 21 82 22 86 23 83 24 85 25
REMARK SMILES IDX 84 26 10 27 11 28 12 29 13 30 14 32 15 33 16 34 80 35 17 36
REMARK SMILES IDX 79 37 18 38 19 39 20 40 73 41 21 42 78 43 72 44 74 45 22 46
REMARK SMILES IDX 77 47 71 48 70 49 23 51 57 52 36 53 56 54 37 55 40 56 55 57
REMARK SMILES IDX 75 58 38 59 39 60 54 62 76 63 41 64 24 65 25 66 34 67 26 68
REMARK SMILES IDX 27 69 33 70 35 71 28 72 29 73 30 74 31 75 32 76 58 77 59 78
REMARK SMILES IDX 68 79 60 80 61 81 67 82 69 83 62 84 63 85 64 86 65 87 66 88
REMARK SMILES IDX 42 89 43 90 52 91 44 92 45 93 51 94 53 95 46 96 47 97 48 98
REMARK SMILES IDX 49 99 50 100
REMARK H PARENT 7 6 87 12 12 31 74 50 40 61
REMARK Flexibility Score: inf
ROOT
ATOM      1  C   UNL     1       4.331  -2.764   1.763  1.00  0.00     0.023 C 
ENDROOT
BRANCH   1   2
ATOM      2  C   UNL     1       3.912  -2.779   0.293  1.00  0.00     0.116 C 
BRANCH   2   3
ATOM      3  N   UNL     1       3.109  -1.618  -0.036  1.00  0.00    -0.356 N 
ATOM      4  C   UNL     1       3.125  -0.750  -1.080  1.00  0.00     0.228 C 
ATOM      5  O   UNL     1       2.120  -0.039  -1.201  1.00  0.00    -0.274 OA
ATOM      6  H   UNL     1       2.413  -1.419   0.631  1.00  0.00     0.163 HD
BRANCH   4   7
ATOM      7  C   UNL     1       4.328  -0.528  -2.003  1.00  0.00     0.118 C 
BRANCH   7   8
ATOM      8  C   UNL     1       5.321   0.440  -1.303  1.00  0.00     0.118 C 
BRANCH   8   9
ATOM      9  C   UNL     1       6.736  -0.026  -0.987  1.00  0.00     0.225 C 
ATOM     10  O   UNL     1       7.697   0.365  -1.642  1.00  0.00    -0.275 OA
ATOM     11  N   UNL     1       6.796  -0.921   0.051  1.00  0.00    -0.325 N 
ATOM     12  H   UNL     1       5.937  -1.193   0.447  1.00  0.00     0.169 HD
BRANCH  11  13
ATOM     13  C   UNL     1       7.957  -1.494   0.612  1.00  0.00     0.060 A 
ATOM     14  C   UNL     1       7.895  -2.873   0.859  1.00  0.00     0.029 A 
ATOM     15  C   UNL     1       9.092  -0.787   1.039  1.00  0.00     0.066 A 
ATOM     16  C   UNL     1       8.919  -3.542   1.527  1.00  0.00     0.023 A 
ATOM     17  C   UNL     1      10.122  -1.460   1.714  1.00  0.00     0.043 A 
ATOM     18  Cl  UNL     1       9.216   0.935   0.957  1.00  0.00    -0.082 Cl
ATOM     19  C   UNL     1      10.027  -2.828   1.961  1.00  0.00     0.042 A 
ATOM     20  Cl  UNL     1      11.270  -3.634   2.835  1.00  0.00    -0.084 Cl
ENDBRANCH  11  13
ENDBRANCH   8   9
ENDBRANCH   7   8
BRANCH   7  21
ATOM     21  C   UNL     1       4.835  -1.716  -2.811  1.00  0.00    -0.035 A 
ATOM     22  C   UNL     1       4.104  -2.910  -2.939  1.00  0.00     0.004 A 
ATOM     23  C   UNL     1       6.013  -1.604  -3.569  1.00  0.00     0.004 A 
ATOM     24  C   UNL     1       4.602  -3.993  -3.670  1.00  0.00     0.000 A 
ATOM     25  C   UNL     1       6.508  -2.680  -4.309  1.00  0.00     0.000 A 
ATOM     26  C   UNL     1       5.815  -3.884  -4.340  1.00  0.00     0.000 A 
ENDBRANCH   7  21
ENDBRANCH   4   7
ENDBRANCH   2   3
ENDBRANCH   1   2
BRANCH   1  27
ATOM     27  C   UNL     1       4.065  -4.037   2.555  1.00  0.00     0.023 C 
BRANCH  27  28
ATOM     28  C   UNL     1       4.196  -5.368   1.827  1.00  0.00     0.116 C 
BRANCH  28  29
ATOM     29  N   UNL     1       5.551  -5.739   1.446  1.00  0.00    -0.352 N 
ATOM     30  C   UNL     1       6.379  -6.723   1.959  1.00  0.00     0.251 C 
ATOM     31  H   UNL     1       5.938  -5.209   0.711  1.00  0.00     0.163 HD
ATOM     32  O   UNL     1       7.524  -6.831   1.561  1.00  0.00    -0.269 OA
BRANCH  30  33
ATOM     33  C   UNL     1       5.858  -7.620   3.015  1.00  0.00     0.039 A 
ATOM     34  C   UNL     1       6.603  -7.842   4.175  1.00  0.00     0.014 A 
ATOM     35  C   UNL     1       4.593  -8.184   2.875  1.00  0.00     0.014 A 
ATOM     36  C   UNL     1       6.019  -8.532   5.244  1.00  0.00     0.010 A 
ATOM     37  C   UNL     1       3.967  -8.730   3.983  1.00  0.00     0.010 A 
ATOM     38  C   UNL     1       4.674  -8.928   5.179  1.00  0.00    -0.014 A 
BRANCH  38  39
ATOM     39  C   UNL     1       3.967  -9.607   6.298  1.00  0.00     0.031 A 
ATOM     40  C   UNL     1       3.287 -10.927   6.024  1.00  0.00     0.074 A 
ATOM     41  C   UNL     1       3.818  -9.003   7.494  1.00  0.00     0.049 A 
ATOM     42  N   UNL     1       2.382 -11.557   6.725  1.00  0.00    -0.248 NA
ATOM     43  C   UNL     1       3.621 -11.587   4.748  1.00  0.00     0.031 C 
ATOM     44  C   UNL     1       4.372  -7.701   7.873  1.00  0.00     0.029 A 
ATOM     45  N   UNL     1       3.127  -9.401   8.612  1.00  0.00    -0.354 N 
ATOM     46  C   UNL     1       2.000 -12.647   5.950  1.00  0.00     0.074 A 
ATOM     47  C   UNL     1       2.719 -12.554   4.700  1.00  0.00     0.031 C 
ATOM     48  C   UNL     1       4.016  -7.418   9.138  1.00  0.00     0.029 A 
ATOM     49  C   UNL     1       3.171  -8.494   9.645  1.00  0.00     0.049 A 
ATOM     50  H   UNL     1       2.643 -10.257   8.668  1.00  0.00     0.167 HD
ATOM     51  C   UNL     1       1.157 -13.657   6.265  1.00  0.00     0.037 A 
ATOM     52  C   UNL     1       2.585  -8.525  10.858  1.00  0.00     0.037 A 
ATOM     53  C   UNL     1       0.525 -13.794   7.548  1.00  0.00     0.049 A 
ATOM     54  C   UNL     1       1.728  -9.709  11.221  1.00  0.00     0.074 A 
ATOM     55  C   UNL     1      -0.309 -14.803   7.998  1.00  0.00     0.029 A 
ATOM     56  N   UNL     1       0.697 -12.913   8.605  1.00  0.00    -0.354 N 
ATOM     57  N   UNL     1       1.378 -10.732  10.477  1.00  0.00    -0.248 NA
ATOM     58  C   UNL     1       1.194  -9.752  12.590  1.00  0.00     0.031 C 
ATOM     59  C   UNL     1      -0.640 -14.532   9.329  1.00  0.00     0.029 A 
ATOM     60  C   UNL     1       0.009 -13.370   9.715  1.00  0.00     0.049 A 
ATOM     61  H   UNL     1       1.229 -12.086   8.571  1.00  0.00     0.167 HD
ATOM     62  C   UNL     1       0.615 -11.555  11.297  1.00  0.00     0.074 A 
ATOM     63  C   UNL     1       0.560 -10.917  12.596  1.00  0.00     0.031 C 
ATOM     64  C   UNL     1       0.009 -12.732  11.005  1.00  0.00     0.037 A 
BRANCH  51  65
ATOM     65  C   UNL     1       0.914 -14.714   5.224  1.00  0.00     0.058 A 
ATOM     66  C   UNL     1       1.921 -15.621   4.853  1.00  0.00     0.135 A 
ATOM     67  C   UNL     1      -0.340 -14.841   4.605  1.00  0.00     0.135 A 
ATOM     68  F   UNL     1       3.145 -15.530   5.397  1.00  0.00    -0.206 F 
ATOM     69  C   UNL     1       1.704 -16.594   3.885  1.00  0.00     0.059 A 
ATOM     70  C   UNL     1      -0.589 -15.829   3.656  1.00  0.00     0.059 A 
ATOM     71  F   UNL     1      -1.338 -13.999   4.918  1.00  0.00    -0.206 F 
ATOM     72  C   UNL     1       0.445 -16.691   3.293  1.00  0.00     0.060 A 
BRANCH  72  73
ATOM     73  S   UNL     1       0.176 -17.973   2.051  1.00  0.00     0.124 S 
ATOM     74  O   UNL     1       0.877 -17.411   0.899  1.00  0.00    -0.237 OA
ATOM     75  O   UNL     1       0.801 -19.140   2.665  1.00  0.00    -0.237 OA
ATOM     76  O   UNL     1      -1.277 -18.032   1.934  1.00  0.00    -0.744 OA
ENDBRANCH  72  73
ENDBRANCH  51  65
BRANCH  52  77
ATOM     77  C   UNL     1       2.805  -7.423  11.834  1.00  0.00     0.058 A 
ATOM     78  C   UNL     1       3.584  -7.627  12.984  1.00  0.00     0.135 A 
ATOM     79  C   UNL     1       2.226  -6.158  11.655  1.00  0.00     0.135 A 
ATOM     80  F   UNL     1       4.157  -8.821  13.200  1.00  0.00    -0.206 F 
ATOM     81  C   UNL     1       3.751  -6.631  13.940  1.00  0.00     0.059 A 
ATOM     82  C   UNL     1       2.399  -5.136  12.585  1.00  0.00     0.059 A 
ATOM     83  F   UNL     1       1.492  -5.902  10.561  1.00  0.00    -0.206 F 
ATOM     84  C   UNL     1       3.148  -5.389  13.735  1.00  0.00     0.060 A 
BRANCH  84  85
ATOM     85  S   UNL     1       3.377  -4.096  14.975  1.00  0.00     0.124 S 
ATOM     86  O   UNL     1       2.456  -4.528  16.020  1.00  0.00    -0.237 OA
ATOM     87  O   UNL     1       4.798  -4.214  15.287  1.00  0.00    -0.237 OA
ATOM     88  O   UNL     1       2.999  -2.880  14.261  1.00  0.00    -0.744 OA
ENDBRANCH  84  85
ENDBRANCH  52  77
BRANCH  64  89
ATOM     89  C   UNL     1      -0.701 -13.439  12.122  1.00  0.00     0.058 A 
ATOM     90  C   UNL     1      -1.949 -13.008  12.592  1.00  0.00     0.135 A 
ATOM     91  C   UNL     1      -0.146 -14.600  12.685  1.00  0.00     0.135 A 
ATOM     92  F   UNL     1      -2.517 -11.902  12.086  1.00  0.00    -0.206 F 
ATOM     93  C   UNL     1      -2.617 -13.693  13.601  1.00  0.00     0.059 A 
ATOM     94  C   UNL     1      -0.807 -15.313  13.679  1.00  0.00     0.059 A 
ATOM     95  F   UNL     1       1.042 -15.057  12.259  1.00  0.00    -0.206 F 
ATOM     96  C   UNL     1      -2.038 -14.845  14.138  1.00  0.00     0.060 A 
BRANCH  96  97
ATOM     97  S   UNL     1      -2.930 -15.746  15.422  1.00  0.00     0.124 S 
ATOM     98  O   UNL     1      -2.688 -14.908  16.591  1.00  0.00    -0.237 OA
ATOM     99  O   UNL     1      -4.298 -15.746  14.913  1.00  0.00    -0.237 OA
ATOM    100  O   UNL     1      -2.275 -17.051  15.436  1.00  0.00    -0.744 OA
ENDBRANCH  96  97
ENDBRANCH  64  89
ENDBRANCH  38  39
ENDBRANCH  30  33
ENDBRANCH  28  29
ENDBRANCH  27  28
ENDBRANCH   1  27
TORSDOF 18
