REMARK SMILES O=C(NCCCCNC(=O)[C@@H]1C[C@H]1C(=O)N[C@@H]1CONC1=O)c1ccc(-c2c3nc(c(-c4c(F)cc(S(=O)(=O)[O-])cc4F)c4ccc([nH]4)c(-c4c(F)cc(S(=O)(=O)[O-])cc4F)c4nc(c(-c5c(F)cc(S(=O)(=O)[O-])cc5F)c5ccc2[nH]5)C=C4)C=C3)cc1
REMARK SMILES IDX 5 1 4 2 3 3 1 4 2 5 23 7 24 8 88 9 25 10 87 11 26 12 27 13
REMARK SMILES IDX 28 14 81 15 29 16 86 17 80 18 82 19 30 20 85 21 79 22 78 23
REMARK SMILES IDX 31 25 65 26 44 27 64 28 45 29 48 30 63 31 83 32 46 33 47 34
REMARK SMILES IDX 62 36 84 37 49 38 32 39 33 40 42 41 34 42 35 43 41 44 43 45
REMARK SMILES IDX 36 46 37 47 38 48 39 49 40 50 66 51 67 52 76 53 68 54 69 55
REMARK SMILES IDX 75 56 77 57 70 58 71 59 72 60 73 61 74 62 50 63 51 64 60 65
REMARK SMILES IDX 52 66 53 67 59 68 61 69 54 70 55 71 56 72 57 73 58 74 6 75
REMARK SMILES IDX 7 76 8 77 9 78 10 80 11 81 12 82 13 83 14 84 15 85 16 86
REMARK SMILES IDX 17 88 18 89 21 90 19 91 20 92 22 93
REMARK H PARENT 3 6 82 24 48 35 8 79 16 87 20 94
REMARK Flexibility Score: inf
ROOT
ATOM      1  C   UNL     1       4.980  -0.963   2.134  1.00  0.00     0.023 C 
ENDROOT
BRANCH   1   2
ATOM      2  C   UNL     1       4.592  -0.987   0.662  1.00  0.00     0.116 C 
BRANCH   2   3
ATOM      3  N   UNL     1       3.152  -1.032   0.454  1.00  0.00    -0.352 N 
ATOM      4  O   UNL     1       1.108  -0.245  -0.088  1.00  0.00    -0.269 OA
ATOM      5  C   UNL     1       2.327  -0.107  -0.140  1.00  0.00     0.251 C 
ATOM      6  H   UNL     1       2.704  -1.842   0.788  1.00  0.00     0.163 HD
BRANCH   5   7
ATOM      7  C   UNL     1       2.914   1.070  -0.814  1.00  0.00     0.039 A 
ATOM      8  C   UNL     1       3.996   0.925  -1.686  1.00  0.00     0.014 A 
ATOM      9  C   UNL     1       2.384   2.335  -0.554  1.00  0.00     0.014 A 
ATOM     10  C   UNL     1       4.650   2.053  -2.168  1.00  0.00     0.010 A 
ATOM     11  C   UNL     1       2.986   3.463  -1.115  1.00  0.00     0.010 A 
ATOM     12  C   UNL     1       4.146   3.334  -1.897  1.00  0.00    -0.014 A 
BRANCH  12  13
ATOM     13  C   UNL     1       4.810   4.533  -2.468  1.00  0.00     0.031 A 
ATOM     14  C   UNL     1       5.414   5.578  -1.572  1.00  0.00     0.074 A 
ATOM     15  C   UNL     1       4.842   4.684  -3.806  1.00  0.00     0.049 A 
ATOM     16  N   UNL     1       5.951   6.727  -1.892  1.00  0.00    -0.248 NA
ATOM     17  C   UNL     1       5.406   5.300  -0.128  1.00  0.00     0.031 C 
ATOM     18  C   UNL     1       4.293   3.732  -4.774  1.00  0.00     0.029 A 
ATOM     19  N   UNL     1       5.346   5.695  -4.583  1.00  0.00    -0.354 N 
ATOM     20  C   UNL     1       6.320   7.324  -0.691  1.00  0.00     0.074 A 
ATOM     21  C   UNL     1       5.922   6.418   0.365  1.00  0.00     0.031 C 
ATOM     22  C   UNL     1       4.500   4.197  -6.014  1.00  0.00     0.029 A 
ATOM     23  C   UNL     1       5.130   5.510  -5.927  1.00  0.00     0.049 A 
ATOM     24  H   UNL     1       5.817   6.477  -4.214  1.00  0.00     0.167 HD
ATOM     25  C   UNL     1       6.936   8.515  -0.493  1.00  0.00     0.037 A 
ATOM     26  C   UNL     1       5.374   6.319  -6.975  1.00  0.00     0.037 A 
ATOM     27  C   UNL     1       7.325   9.405  -1.559  1.00  0.00     0.049 A 
ATOM     28  C   UNL     1       6.015   7.654  -6.732  1.00  0.00     0.074 A 
ATOM     29  C   UNL     1       7.979  10.622  -1.469  1.00  0.00     0.029 A 
ATOM     30  N   UNL     1       7.084   9.182  -2.909  1.00  0.00    -0.354 N 
ATOM     31  N   UNL     1       6.380   8.195  -5.593  1.00  0.00    -0.248 NA
ATOM     32  C   UNL     1       6.281   8.489  -7.909  1.00  0.00     0.031 C 
ATOM     33  C   UNL     1       8.081  11.161  -2.756  1.00  0.00     0.029 A 
ATOM     34  C   UNL     1       7.554  10.250  -3.658  1.00  0.00     0.049 A 
ATOM     35  H   UNL     1       6.644   8.383  -3.279  1.00  0.00     0.167 HD
ATOM     36  C   UNL     1       6.948   9.420  -5.919  1.00  0.00     0.074 A 
ATOM     37  C   UNL     1       6.877   9.541  -7.362  1.00  0.00     0.031 C 
ATOM     38  C   UNL     1       7.488  10.353  -5.097  1.00  0.00     0.037 A 
BRANCH  25  39
ATOM     39  C   UNL     1       7.188   8.943   0.929  1.00  0.00     0.058 A 
ATOM     40  C   UNL     1       8.118   8.287   1.752  1.00  0.00     0.135 A 
ATOM     41  C   UNL     1       6.494  10.036   1.476  1.00  0.00     0.135 A 
ATOM     42  F   UNL     1       8.805   7.231   1.288  1.00  0.00    -0.206 F 
ATOM     43  C   UNL     1       8.315   8.667   3.077  1.00  0.00     0.059 A 
ATOM     44  C   UNL     1       6.699  10.454   2.788  1.00  0.00     0.059 A 
ATOM     45  F   UNL     1       5.598  10.708   0.736  1.00  0.00    -0.206 F 
ATOM     46  C   UNL     1       7.594   9.747   3.588  1.00  0.00     0.060 A 
BRANCH  46  47
ATOM     47  S   UNL     1       7.832  10.202   5.319  1.00  0.00     0.124 S 
ATOM     48  O   UNL     1       7.155   9.104   6.003  1.00  0.00    -0.237 OA
ATOM     49  O   UNL     1       9.286  10.222   5.441  1.00  0.00    -0.237 OA
ATOM     50  O   UNL     1       7.179  11.503   5.423  1.00  0.00    -0.744 OA
ENDBRANCH  46  47
ENDBRANCH  25  39
BRANCH  26  51
ATOM     51  C   UNL     1       4.995   5.871  -8.340  1.00  0.00     0.058 A 
ATOM     52  C   UNL     1       5.970   5.499  -9.275  1.00  0.00     0.135 A 
ATOM     53  C   UNL     1       3.646   5.734  -8.708  1.00  0.00     0.135 A 
ATOM     54  F   UNL     1       7.271   5.616  -8.971  1.00  0.00    -0.206 F 
ATOM     55  C   UNL     1       5.623   5.005 -10.528  1.00  0.00     0.059 A 
ATOM     56  C   UNL     1       3.275   5.215  -9.944  1.00  0.00     0.059 A 
ATOM     57  F   UNL     1       2.675   6.058  -7.840  1.00  0.00    -0.206 F 
ATOM     58  C   UNL     1       4.272   4.856 -10.849  1.00  0.00     0.060 A 
BRANCH  58  59
ATOM     59  S   UNL     1       3.838   4.134 -12.446  1.00  0.00     0.124 S 
ATOM     60  O   UNL     1       4.202   5.208 -13.363  1.00  0.00    -0.237 OA
ATOM     61  O   UNL     1       4.686   2.946 -12.483  1.00  0.00    -0.237 OA
ATOM     62  O   UNL     1       2.408   3.870 -12.318  1.00  0.00    -0.744 OA
ENDBRANCH  58  59
ENDBRANCH  26  51
BRANCH  38  63
ATOM     63  C   UNL     1       8.103  11.571  -5.731  1.00  0.00     0.058 A 
ATOM     64  C   UNL     1       7.324  12.592  -6.294  1.00  0.00     0.135 A 
ATOM     65  C   UNL     1       9.496  11.751  -5.698  1.00  0.00     0.135 A 
ATOM     66  F   UNL     1       5.989  12.466  -6.361  1.00  0.00    -0.206 F 
ATOM     67  C   UNL     1       7.904  13.748  -6.808  1.00  0.00     0.059 A 
ATOM     68  C   UNL     1      10.095  12.909  -6.180  1.00  0.00     0.059 A 
ATOM     69  F   UNL     1      10.288  10.806  -5.167  1.00  0.00    -0.206 F 
ATOM     70  C   UNL     1       9.291  13.901  -6.738  1.00  0.00     0.060 A 
BRANCH  70  71
ATOM     71  S   UNL     1      10.025  15.434  -7.347  1.00  0.00     0.124 S 
ATOM     72  O   UNL     1       9.877  15.279  -8.791  1.00  0.00    -0.237 OA
ATOM     73  O   UNL     1       9.180  16.451  -6.729  1.00  0.00    -0.237 OA
ATOM     74  O   UNL     1      11.395  15.378  -6.848  1.00  0.00    -0.744 OA
ENDBRANCH  70  71
ENDBRANCH  38  63
ENDBRANCH  12  13
ENDBRANCH   5   7
ENDBRANCH   2   3
ENDBRANCH   1   2
BRANCH   1  75
ATOM     75  C   UNL     1       4.530  -2.176   2.937  1.00  0.00     0.023 C 
BRANCH  75  76
ATOM     76  C   UNL     1       4.884  -3.525   2.328  1.00  0.00     0.116 C 
BRANCH  76  77
ATOM     77  N   UNL     1       6.312  -3.746   2.174  1.00  0.00    -0.356 N 
ATOM     78  C   UNL     1       6.991  -4.905   2.438  1.00  0.00     0.223 C 
ATOM     79  H   UNL     1       6.845  -2.985   1.847  1.00  0.00     0.163 HD
ATOM     80  O   UNL     1       8.185  -5.036   2.202  1.00  0.00    -0.275 OA
BRANCH  78  81
ATOM     81  C   UNL     1       6.224  -5.997   3.073  1.00  0.00     0.091 C 
ATOM     82  C   UNL     1       6.410  -7.457   2.730  1.00  0.00     0.028 C 
ATOM     83  C   UNL     1       5.199  -6.739   2.229  1.00  0.00     0.091 C 
BRANCH  83  84
ATOM     84  C   UNL     1       3.790  -6.802   2.687  1.00  0.00     0.224 C 
ATOM     85  O   UNL     1       2.912  -6.513   1.877  1.00  0.00    -0.275 OA
ATOM     86  N   UNL     1       3.398  -7.080   3.962  1.00  0.00    -0.342 N 
ATOM     87  H   UNL     1       2.432  -6.965   4.111  1.00  0.00     0.164 HD
BRANCH  86  88
ATOM     88  C   UNL     1       4.119  -7.511   5.145  1.00  0.00     0.202 C 
ATOM     89  C   UNL     1       3.804  -8.940   5.551  1.00  0.00     0.228 C 
ATOM     90  C   UNL     1       3.700  -6.799   6.410  1.00  0.00     0.268 C 
ATOM     91  O   UNL     1       4.080  -9.011   6.958  1.00  0.00    -0.271 OA
ATOM     92  N   UNL     1       3.822  -7.704   7.436  1.00  0.00    -0.233 N 
ATOM     93  O   UNL     1       3.381  -5.627   6.521  1.00  0.00    -0.270 OA
ATOM     94  H   UNL     1       3.740  -7.472   8.389  1.00  0.00     0.199 HD
ENDBRANCH  86  88
ENDBRANCH  83  84
ENDBRANCH  78  81
ENDBRANCH  76  77
ENDBRANCH  75  76
ENDBRANCH   1  75
TORSDOF 16
