REMARK SMILES CC1=C[C@@H](CNS(=O)(=O)c2cccs2)[C@H](C(C)C)C[C@H]1CC(=O)NCCCCNC(=O)c1ccc(-c2c3nc(c(-c4c(F)cc(S(=O)(=O)[O-])cc4F)c4ccc([nH]4)c(-c4c(F)cc(S(=O)(=O)[O-])cc4F)c4nc(c(-c5c(F)cc(S(=O)(=O)[O-])cc5F)c5ccc2[nH]5)C=C4)C=C3)cc1
REMARK SMILES IDX 25 1 24 2 22 3 23 4 21 6 20 7 1 8 2 9 3 10 4 11 19 12 15 13
REMARK SMILES IDX 5 14 6 15 7 17 8 18 9 19 10 20 11 21 14 22 12 23 13 24 16 25
REMARK SMILES IDX 17 26 18 27 26 28 27 29 28 30 29 31 30 32 31 34 32 35 33 36
REMARK SMILES IDX 97 37 34 38 96 39 35 40 36 41 37 42 90 43 38 44 95 45 89 46
REMARK SMILES IDX 91 47 39 48 94 49 88 50 87 51 40 53 74 54 53 55 73 56 54 57
REMARK SMILES IDX 57 58 72 59 92 60 55 61 56 62 71 64 93 65 58 66 41 67 42 68
REMARK SMILES IDX 51 69 43 70 44 71 50 72 52 73 45 74 46 75 47 76 48 77 49 78
REMARK SMILES IDX 75 79 76 80 85 81 77 82 78 83 84 84 86 85 79 86 80 87 81 88
REMARK SMILES IDX 82 89 83 90 59 91 60 92 69 93 61 94 62 95 68 96 70 97 63 98
REMARK SMILES IDX 64 99 65 100 66 101 67 102
REMARK H PARENT 24 5 6 16 29 33 91 52 57 63
REMARK Flexibility Score: inf
ROOT
ATOM      1  C   UNL     1       2.805   0.484  -1.786  1.00  0.00     0.116 C 
ENDROOT
BRANCH   1   2
ATOM      2  N   UNL     1       3.132  -0.865  -1.344  1.00  0.00    -0.356 N 
ATOM      3  C   UNL     1       2.326  -1.923  -1.037  1.00  0.00     0.220 C 
ATOM      4  O   UNL     1       2.849  -2.976  -0.665  1.00  0.00    -0.275 OA
ATOM      5  H   UNL     1       4.095  -1.043  -1.250  1.00  0.00     0.163 HD
BRANCH   3   6
ATOM      6  C   UNL     1       0.820  -1.812  -1.149  1.00  0.00     0.108 C 
BRANCH   6   7
ATOM      7  C   UNL     1       0.083  -1.549   0.188  1.00  0.00     0.024 C 
ATOM      8  C   UNL     1       1.719  -0.483   1.863  1.00  0.00     0.039 C 
ATOM      9  C   UNL     1       0.581  -0.295   0.885  1.00  0.00    -0.073 C 
ATOM     10  C   UNL     1      -0.048   0.893   0.748  1.00  0.00    -0.023 C 
ATOM     11  C   UNL     1      -1.430   0.996   0.153  1.00  0.00     0.030 C 
ATOM     12  C   UNL     1      -1.456  -1.516  -0.054  1.00  0.00     0.013 C 
ATOM     13  C   UNL     1      -2.182  -0.304   0.596  1.00  0.00     0.000 C 
BRANCH  11  14
ATOM     14  C   UNL     1      -1.493   1.189  -1.378  1.00  0.00     0.107 C 
BRANCH  14  15
ATOM     15  N   UNL     1      -0.973   2.494  -1.839  1.00  0.00    -0.210 NA
ATOM     16  H   UNL     1       0.046   2.455  -1.811  1.00  0.00     0.141 HD
BRANCH  15  17
ATOM     17  S   UNL     1      -1.439   2.949  -3.417  1.00  0.00     0.250 S 
ATOM     18  O   UNL     1      -2.883   2.792  -3.487  1.00  0.00    -0.206 OA
ATOM     19  O   UNL     1      -0.807   4.211  -3.686  1.00  0.00    -0.206 OA
BRANCH  17  20
ATOM     20  C   UNL     1      -0.807   1.739  -4.571  1.00  0.00     0.134 A 
ATOM     21  C   UNL     1      -1.044   0.381  -4.706  1.00  0.00     0.033 A 
ATOM     22  S   UNL     1       0.248   2.301  -5.796  1.00  0.00    -0.131 S 
ATOM     23  C   UNL     1      -0.329  -0.200  -5.793  1.00  0.00     0.013 A 
ATOM     24  C   UNL     1       0.403   0.741  -6.481  1.00  0.00     0.066 A 
ENDBRANCH  17  20
ENDBRANCH  15  17
ENDBRANCH  14  15
ENDBRANCH  11  14
BRANCH  13  25
ATOM     25  C   UNL     1      -2.304  -0.431   2.161  1.00  0.00    -0.014 C 
ATOM     26  C   UNL     1      -3.010   0.776   2.791  1.00  0.00     0.007 C 
ATOM     27  C   UNL     1      -3.017  -1.714   2.594  1.00  0.00     0.007 C 
ENDBRANCH  13  25
ENDBRANCH   6   7
ENDBRANCH   3   6
ENDBRANCH   1   2
BRANCH   1  28
ATOM     28  C   UNL     1       2.952   1.534  -0.688  1.00  0.00     0.023 C 
BRANCH  28  29
ATOM     29  C   UNL     1       4.347   1.709  -0.107  1.00  0.00     0.023 C 
BRANCH  29  30
ATOM     30  C   UNL     1       5.314   2.374  -1.064  1.00  0.00     0.116 C 
BRANCH  30  31
ATOM     31  N   UNL     1       4.861   3.701  -1.464  1.00  0.00    -0.352 N 
ATOM     32  C   UNL     1       5.519   4.902  -1.386  1.00  0.00     0.251 C 
ATOM     33  H   UNL     1       3.954   3.740  -1.845  1.00  0.00     0.163 HD
ATOM     34  O   UNL     1       4.912   5.952  -1.572  1.00  0.00    -0.269 OA
BRANCH  32  35
ATOM     35  C   UNL     1       6.958   4.914  -1.062  1.00  0.00     0.039 A 
ATOM     36  C   UNL     1       7.453   5.871  -0.175  1.00  0.00     0.014 A 
ATOM     37  C   UNL     1       7.808   3.960  -1.625  1.00  0.00     0.014 A 
ATOM     38  C   UNL     1       8.798   5.832   0.192  1.00  0.00     0.010 A 
ATOM     39  C   UNL     1       9.114   3.854  -1.177  1.00  0.00     0.010 A 
ATOM     40  C   UNL     1       9.628   4.804  -0.284  1.00  0.00    -0.014 A 
BRANCH  40  41
ATOM     41  C   UNL     1      11.060   4.722   0.083  1.00  0.00     0.031 A 
ATOM     42  C   UNL     1      12.099   4.822  -1.002  1.00  0.00     0.074 A 
ATOM     43  C   UNL     1      11.411   4.468   1.357  1.00  0.00     0.049 A 
ATOM     44  N   UNL     1      13.390   4.638  -0.929  1.00  0.00    -0.248 NA
ATOM     45  C   UNL     1      11.613   5.120  -2.361  1.00  0.00     0.031 C 
ATOM     46  C   UNL     1      10.481   4.286   2.475  1.00  0.00     0.029 A 
ATOM     47  N   UNL     1      12.647   4.303   1.925  1.00  0.00    -0.354 N 
ATOM     48  C   UNL     1      13.861   4.760  -2.231  1.00  0.00     0.074 A 
ATOM     49  C   UNL     1      12.714   4.976  -3.082  1.00  0.00     0.031 C 
ATOM     50  C   UNL     1      11.182   4.060   3.599  1.00  0.00     0.029 A 
ATOM     51  C   UNL     1      12.605   4.046   3.275  1.00  0.00     0.049 A 
ATOM     52  H   UNL     1      13.487   4.362   1.415  1.00  0.00     0.167 HD
ATOM     53  C   UNL     1      15.140   4.726  -2.672  1.00  0.00     0.037 A 
ATOM     54  C   UNL     1      13.606   3.825   4.148  1.00  0.00     0.037 A 
ATOM     55  C   UNL     1      16.275   4.578  -1.802  1.00  0.00     0.049 A 
ATOM     56  C   UNL     1      15.023   3.858   3.645  1.00  0.00     0.074 A 
ATOM     57  C   UNL     1      17.619   4.607  -2.126  1.00  0.00     0.029 A 
ATOM     58  N   UNL     1      16.195   4.390  -0.430  1.00  0.00    -0.354 N 
ATOM     59  N   UNL     1      15.457   4.030   2.418  1.00  0.00    -0.248 NA
ATOM     60  C   UNL     1      16.086   3.679   4.641  1.00  0.00     0.031 C 
ATOM     61  C   UNL     1      18.353   4.416  -0.950  1.00  0.00     0.029 A 
ATOM     62  C   UNL     1      17.466   4.300   0.109  1.00  0.00     0.049 A 
ATOM     63  H   UNL     1      15.358   4.330   0.085  1.00  0.00     0.167 HD
ATOM     64  C   UNL     1      16.844   4.002   2.498  1.00  0.00     0.074 A 
ATOM     65  C   UNL     1      17.176   3.810   3.896  1.00  0.00     0.031 C 
ATOM     66  C   UNL     1      17.762   4.123   1.508  1.00  0.00     0.037 A 
BRANCH  53  67
ATOM     67  C   UNL     1      15.373   4.875  -4.149  1.00  0.00     0.058 A 
ATOM     68  C   UNL     1      15.159   6.097  -4.808  1.00  0.00     0.135 A 
ATOM     69  C   UNL     1      15.829   3.791  -4.915  1.00  0.00     0.135 A 
ATOM     70  F   UNL     1      14.703   7.161  -4.128  1.00  0.00    -0.206 F 
ATOM     71  C   UNL     1      15.360   6.231  -6.177  1.00  0.00     0.059 A 
ATOM     72  C   UNL     1      16.064   3.909  -6.282  1.00  0.00     0.059 A 
ATOM     73  F   UNL     1      16.045   2.598  -4.338  1.00  0.00    -0.206 F 
ATOM     74  C   UNL     1      15.811   5.130  -6.907  1.00  0.00     0.060 A 
BRANCH  74  75
ATOM     75  S   UNL     1      16.076   5.321  -8.682  1.00  0.00     0.124 S 
ATOM     76  O   UNL     1      14.704   5.309  -9.183  1.00  0.00    -0.237 OA
ATOM     77  O   UNL     1      16.767   6.604  -8.761  1.00  0.00    -0.237 OA
ATOM     78  O   UNL     1      16.882   4.156  -9.032  1.00  0.00    -0.744 OA
ENDBRANCH  74  75
ENDBRANCH  53  67
BRANCH  54  79
ATOM     79  C   UNL     1      13.304   3.596   5.585  1.00  0.00     0.058 A 
ATOM     80  C   UNL     1      13.581   4.584   6.542  1.00  0.00     0.135 A 
ATOM     81  C   UNL     1      12.717   2.401   6.029  1.00  0.00     0.135 A 
ATOM     82  F   UNL     1      14.142   5.743   6.165  1.00  0.00    -0.206 F 
ATOM     83  C   UNL     1      13.306   4.389   7.891  1.00  0.00     0.059 A 
ATOM     84  C   UNL     1      12.413   2.192   7.371  1.00  0.00     0.059 A 
ATOM     85  F   UNL     1      12.413   1.434   5.150  1.00  0.00    -0.206 F 
ATOM     86  C   UNL     1      12.722   3.188   8.297  1.00  0.00     0.060 A 
BRANCH  86  87
ATOM     87  S   UNL     1      12.327   2.962  10.045  1.00  0.00     0.124 S 
ATOM     88  O   UNL     1      13.645   2.698  10.611  1.00  0.00    -0.237 OA
ATOM     89  O   UNL     1      11.728   4.247  10.395  1.00  0.00    -0.237 OA
ATOM     90  O   UNL     1      11.404   1.832  10.035  1.00  0.00    -0.744 OA
ENDBRANCH  86  87
ENDBRANCH  54  79
BRANCH  66  91
ATOM     91  C   UNL     1      19.208   4.084   1.906  1.00  0.00     0.058 A 
ATOM     92  C   UNL     1      19.841   2.880   2.247  1.00  0.00     0.135 A 
ATOM     93  C   UNL     1      19.980   5.256   1.887  1.00  0.00     0.135 A 
ATOM     94  F   UNL     1      19.142   1.735   2.285  1.00  0.00    -0.206 F 
ATOM     95  C   UNL     1      21.192   2.842   2.575  1.00  0.00     0.059 A 
ATOM     96  C   UNL     1      21.337   5.237   2.188  1.00  0.00     0.059 A 
ATOM     97  F   UNL     1      19.419   6.430   1.555  1.00  0.00    -0.206 F 
ATOM     98  C   UNL     1      21.931   4.026   2.542  1.00  0.00     0.060 A 
BRANCH  98  99
ATOM     99  S   UNL     1      23.692   3.959   2.931  1.00  0.00     0.124 S 
ATOM    100  O   UNL     1      23.666   3.849   4.385  1.00  0.00    -0.237 OA
ATOM    101  O   UNL     1      24.128   2.765   2.212  1.00  0.00    -0.237 OA
ATOM    102  O   UNL     1      24.203   5.221   2.404  1.00  0.00    -0.744 OA
ENDBRANCH  98  99
ENDBRANCH  66  91
ENDBRANCH  40  41
ENDBRANCH  32  35
ENDBRANCH  30  31
ENDBRANCH  29  30
ENDBRANCH  28  29
ENDBRANCH   1  28
TORSDOF 20
