REMARK SMILES C[C@@H]1CCC/C(=C\Nc2ccc(C(=O)NCCCCNC(=O)c3ccc(-c4c5nc(c(-c6c(F)cc(S(=O)(=O)[O-])cc6F)c6ccc([nH]6)c(-c6c(F)cc(S(=O)(=O)[O-])cc6F)c6nc(c(-c7c(F)cc(S(=O)(=O)[O-])cc7F)c7ccc4[nH]7)C=C6)C=C5)cc3)c(O)c2)C1=O
REMARK SMILES IDX 18 1 17 2 16 3 15 4 13 5 14 6 12 8 9 9 10 10 91 11 11 12
REMARK SMILES IDX 89 13 8 14 7 16 1 17 2 18 3 19 92 20 4 21 6 22 93 23 5 24
REMARK SMILES IDX 90 25 19 27 20 28 21 29 22 31 23 32 24 33 88 34 25 35 87 36
REMARK SMILES IDX 26 37 27 38 28 39 81 40 29 41 86 42 80 43 82 44 30 45 85 46
REMARK SMILES IDX 79 47 78 48 31 50 65 51 44 52 64 53 45 54 48 55 63 56 83 57
REMARK SMILES IDX 46 58 47 59 62 61 84 62 49 63 32 64 33 65 42 66 34 67 35 68
REMARK SMILES IDX 41 69 43 70 36 71 37 72 38 73 39 74 40 75 66 76 67 77 76 78
REMARK SMILES IDX 68 79 69 80 75 81 77 82 70 83 71 84 72 85 73 86 74 87 50 88
REMARK SMILES IDX 51 89 60 90 52 91 53 92 59 93 61 94 54 95 55 96 56 97 57 98
REMARK SMILES IDX 58 99
REMARK H PARENT 15 7 8 15 90 26 20 30 82 49 48 60
REMARK Flexibility Score: inf
ROOT
ATOM      1  C   UNL     1      -4.419   4.545  10.783  1.00  0.00     0.023 C 
ENDROOT
BRANCH   1   2
ATOM      2  C   UNL     1      -4.162   4.489   9.279  1.00  0.00     0.023 C 
BRANCH   2   3
ATOM      3  C   UNL     1      -2.745   4.130   8.846  1.00  0.00     0.116 C 
BRANCH   3   4
ATOM      4  N   UNL     1      -2.260   2.845   9.330  1.00  0.00    -0.352 N 
ATOM      5  C   UNL     1      -1.422   1.940   8.717  1.00  0.00     0.255 C 
ATOM      6  O   UNL     1      -1.133   0.892   9.289  1.00  0.00    -0.269 OA
ATOM      7  H   UNL     1      -2.579   2.585  10.225  1.00  0.00     0.163 HD
BRANCH   5   8
ATOM      8  C   UNL     1      -0.903   2.187   7.351  1.00  0.00     0.081 A 
ATOM      9  C   UNL     1      -0.281   2.600   4.630  1.00  0.00     0.042 A 
ATOM     10  C   UNL     1      -0.691   1.342   5.082  1.00  0.00     0.027 A 
ATOM     11  C   UNL     1      -0.098   3.616   5.578  1.00  0.00     0.073 A 
ATOM     12  C   UNL     1      -1.002   1.135   6.432  1.00  0.00     0.020 A 
ATOM     13  C   UNL     1      -0.358   3.398   6.929  1.00  0.00     0.130 A 
BRANCH   9  14
ATOM     14  N   UNL     1      -0.084   2.919   3.279  1.00  0.00    -0.361 N 
ATOM     15  H   UNL     1       0.400   3.759   3.109  1.00  0.00     0.166 HD
BRANCH  14  16
ATOM     16  C   UNL     1      -0.470   2.227   2.162  1.00  0.00     0.090 C 
ATOM     17  C   UNL     1       1.228  -0.217  -0.198  1.00  0.00     0.016 C 
ATOM     18  C   UNL     1       0.573   0.914  -0.992  1.00  0.00     0.058 C 
ATOM     19  C   UNL     1       1.575   1.998  -1.422  1.00  0.00     0.012 C 
ATOM     20  C   UNL     1      -0.544   1.519  -0.155  1.00  0.00     0.163 C 
ATOM     21  C   UNL     1       2.034   2.895  -0.273  1.00  0.00     0.006 C 
ATOM     22  C   UNL     1      -0.106   2.484   0.896  1.00  0.00     0.011 C 
ATOM     23  O   UNL     1      -1.717   1.180  -0.271  1.00  0.00    -0.294 OA
ATOM     24  C   UNL     1       0.839   3.543   0.423  1.00  0.00     0.041 C 
ENDBRANCH  14  16
ENDBRANCH   9  14
BRANCH  13  25
ATOM     25  O   UNL     1      -0.039   4.429   7.768  1.00  0.00    -0.507 OA
ATOM     26  H   UNL     1      -0.189   4.347   8.690  1.00  0.00     0.293 HD
ENDBRANCH  13  25
ENDBRANCH   5   8
ENDBRANCH   3   4
ENDBRANCH   2   3
ENDBRANCH   1   2
BRANCH   1  27
ATOM     27  C   UNL     1      -3.395   5.307  11.617  1.00  0.00     0.116 C 
BRANCH  27  28
ATOM     28  N   UNL     1      -3.268   6.710  11.252  1.00  0.00    -0.352 N 
ATOM     29  C   UNL     1      -3.483   7.844  12.001  1.00  0.00     0.251 C 
ATOM     30  H   UNL     1      -2.984   6.873  10.324  1.00  0.00     0.163 HD
ATOM     31  O   UNL     1      -3.416   8.947  11.460  1.00  0.00    -0.269 OA
BRANCH  29  32
ATOM     32  C   UNL     1      -3.831   7.746  13.437  1.00  0.00     0.039 A 
ATOM     33  C   UNL     1      -4.859   8.549  13.938  1.00  0.00     0.014 A 
ATOM     34  C   UNL     1      -3.161   6.866  14.288  1.00  0.00     0.014 A 
ATOM     35  C   UNL     1      -5.267   8.406  15.268  1.00  0.00     0.010 A 
ATOM     36  C   UNL     1      -3.633   6.654  15.581  1.00  0.00     0.010 A 
ATOM     37  C   UNL     1      -4.688   7.425  16.090  1.00  0.00    -0.014 A 
BRANCH  37  38
ATOM     38  C   UNL     1      -5.171   7.200  17.480  1.00  0.00     0.031 A 
ATOM     39  C   UNL     1      -4.238   7.386  18.649  1.00  0.00     0.074 A 
ATOM     40  C   UNL     1      -6.434   6.775  17.690  1.00  0.00     0.049 A 
ATOM     41  N   UNL     1      -4.464   7.202  19.925  1.00  0.00    -0.248 NA
ATOM     42  C   UNL     1      -2.860   7.803  18.342  1.00  0.00     0.031 C 
ATOM     43  C   UNL     1      -7.419   6.495  16.641  1.00  0.00     0.029 A 
ATOM     44  N   UNL     1      -7.108   6.500  18.854  1.00  0.00    -0.354 N 
ATOM     45  C   UNL     1      -3.260   7.469  20.567  1.00  0.00     0.074 A 
ATOM     46  C   UNL     1      -2.289   7.762  19.537  1.00  0.00     0.031 C 
ATOM     47  C   UNL     1      -8.576   6.122  17.211  1.00  0.00     0.029 A 
ATOM     48  C   UNL     1      -8.409   6.098  18.660  1.00  0.00     0.049 A 
ATOM     49  H   UNL     1      -6.698   6.583  19.745  1.00  0.00     0.167 HD
ATOM     50  C   UNL     1      -2.993   7.497  21.895  1.00  0.00     0.037 A 
ATOM     51  C   UNL     1      -9.361   5.748  19.548  1.00  0.00     0.037 A 
ATOM     52  C   UNL     1      -3.969   7.229  22.919  1.00  0.00     0.049 A 
ATOM     53  C   UNL     1      -9.044   5.800  21.019  1.00  0.00     0.074 A 
ATOM     54  C   UNL     1      -3.814   7.287  24.293  1.00  0.00     0.029 A 
ATOM     55  N   UNL     1      -5.283   6.851  22.683  1.00  0.00    -0.354 N 
ATOM     56  N   UNL     1      -7.918   6.122  21.610  1.00  0.00    -0.248 NA
ATOM     57  C   UNL     1     -10.132   5.454  21.944  1.00  0.00     0.031 C 
ATOM     58  C   UNL     1      -5.019   6.898  24.887  1.00  0.00     0.029 A 
ATOM     59  C   UNL     1      -5.944   6.655  23.885  1.00  0.00     0.049 A 
ATOM     60  H   UNL     1      -5.687   6.739  21.792  1.00  0.00     0.167 HD
ATOM     61  C   UNL     1      -8.171   6.049  22.976  1.00  0.00     0.074 A 
ATOM     62  C   UNL     1      -9.561   5.668  23.121  1.00  0.00     0.031 C 
ATOM     63  C   UNL     1      -7.330   6.279  24.016  1.00  0.00     0.037 A 
BRANCH  50  64
ATOM     64  C   UNL     1      -1.587   7.836  22.318  1.00  0.00     0.058 A 
ATOM     65  C   UNL     1      -1.053   9.123  22.140  1.00  0.00     0.135 A 
ATOM     66  C   UNL     1      -0.775   6.874  22.939  1.00  0.00     0.135 A 
ATOM     67  F   UNL     1      -1.777  10.080  21.537  1.00  0.00    -0.206 F 
ATOM     68  C   UNL     1       0.245   9.435  22.532  1.00  0.00     0.059 A 
ATOM     69  C   UNL     1       0.515   7.172  23.370  1.00  0.00     0.059 A 
ATOM     70  F   UNL     1      -1.232   5.627  23.135  1.00  0.00    -0.206 F 
ATOM     71  C   UNL     1       1.021   8.452  23.148  1.00  0.00     0.060 A 
BRANCH  71  72
ATOM     72  S   UNL     1       2.700   8.877  23.659  1.00  0.00     0.124 S 
ATOM     73  O   UNL     1       3.381   8.970  22.372  1.00  0.00    -0.237 OA
ATOM     74  O   UNL     1       2.501  10.140  24.363  1.00  0.00    -0.237 OA
ATOM     75  O   UNL     1       3.096   7.750  24.498  1.00  0.00    -0.744 OA
ENDBRANCH  71  72
ENDBRANCH  50  64
BRANCH  51  76
ATOM     76  C   UNL     1     -10.715   5.348  19.073  1.00  0.00     0.058 A 
ATOM     77  C   UNL     1     -11.833   6.165  19.302  1.00  0.00     0.135 A 
ATOM     78  C   UNL     1     -10.918   4.145  18.380  1.00  0.00     0.135 A 
ATOM     79  F   UNL     1     -11.693   7.323  19.965  1.00  0.00    -0.206 F 
ATOM     80  C   UNL     1     -13.106   5.795  18.881  1.00  0.00     0.059 A 
ATOM     81  C   UNL     1     -12.178   3.767  17.923  1.00  0.00     0.059 A 
ATOM     82  F   UNL     1      -9.881   3.335  18.119  1.00  0.00    -0.206 F 
ATOM     83  C   UNL     1     -13.268   4.593  18.189  1.00  0.00     0.060 A 
BRANCH  83  84
ATOM     84  S   UNL     1     -14.918   4.144  17.610  1.00  0.00     0.124 S 
ATOM     85  O   UNL     1     -15.582   3.789  18.858  1.00  0.00    -0.237 OA
ATOM     86  O   UNL     1     -15.367   5.380  16.976  1.00  0.00    -0.237 OA
ATOM     87  O   UNL     1     -14.662   3.036  16.694  1.00  0.00    -0.744 OA
ENDBRANCH  83  84
ENDBRANCH  51  76
BRANCH  63  88
ATOM     88  C   UNL     1      -7.903   6.168  25.404  1.00  0.00     0.058 A 
ATOM     89  C   UNL     1      -8.278   4.934  25.957  1.00  0.00     0.135 A 
ATOM     90  C   UNL     1      -8.059   7.316  26.198  1.00  0.00     0.135 A 
ATOM     91  F   UNL     1      -8.152   3.805  25.241  1.00  0.00    -0.206 F 
ATOM     92  C   UNL     1      -8.828   4.846  27.232  1.00  0.00     0.059 A 
ATOM     93  C   UNL     1      -8.575   7.247  27.488  1.00  0.00     0.059 A 
ATOM     94  F   UNL     1      -7.703   8.520  25.725  1.00  0.00    -0.206 F 
ATOM     95  C   UNL     1      -8.976   6.010  27.989  1.00  0.00     0.060 A 
BRANCH  95  96
ATOM     96  S   UNL     1      -9.693   5.884  29.641  1.00  0.00     0.124 S 
ATOM     97  O   UNL     1     -11.100   5.653  29.334  1.00  0.00    -0.237 OA
ATOM     98  O   UNL     1      -8.972   4.749  30.209  1.00  0.00    -0.237 OA
ATOM     99  O   UNL     1      -9.386   7.178  30.244  1.00  0.00    -0.744 OA
ENDBRANCH  95  96
ENDBRANCH  63  88
ENDBRANCH  37  38
ENDBRANCH  29  32
ENDBRANCH  27  28
ENDBRANCH   1  27
TORSDOF 17
