REMARK SMILES O=C(NCCCCNC(=O)c1ccc2nc(C3CCCCC3)[nH]c2c1)c1ccc(-c2c3nc(c(-c4c(F)cc(S(=O)(=O)[O-])cc4F)c4ccc([nH]4)c(-c4c(F)cc(S(=O)(=O)[O-])cc4F)c4nc(c(-c5c(F)cc(S(=O)(=O)[O-])cc5F)c5ccc2[nH]5)C=C4)C=C3)cc1
REMARK SMILES IDX 4 1 3 2 1 3 2 4 26 6 27 7 91 8 28 9 90 10 29 11 30 12 31 13
REMARK SMILES IDX 84 14 32 15 89 16 83 17 85 18 33 19 88 20 82 21 81 22 34 24
REMARK SMILES IDX 68 25 47 26 67 27 48 28 51 29 66 30 86 31 49 32 50 33 65 35
REMARK SMILES IDX 87 36 52 37 35 38 36 39 45 40 37 41 38 42 44 43 46 44 39 45
REMARK SMILES IDX 40 46 41 47 42 48 43 49 69 50 70 51 79 52 71 53 72 54 78 55
REMARK SMILES IDX 80 56 73 57 74 58 75 59 76 60 77 61 53 62 54 63 63 64 55 65
REMARK SMILES IDX 56 66 62 67 64 68 57 69 58 70 59 71 60 72 61 73 5 74 6 75
REMARK SMILES IDX 7 76 8 77 9 78 10 80 11 81 12 82 25 83 13 84 24 85 14 86
REMARK SMILES IDX 23 87 15 88 16 89 17 91 18 92 22 93 19 94 21 95 20 96
REMARK H PARENT 3 5 85 23 51 34 8 79 23 90
REMARK Flexibility Score: inf
ROOT
ATOM      1  C   UNL     1       4.600  -0.768   0.867  1.00  0.00     0.116 C 
ENDROOT
BRANCH   1   2
ATOM      2  N   UNL     1       3.169  -0.868   0.630  1.00  0.00    -0.352 N 
ATOM      3  O   UNL     1       1.139  -0.251  -0.118  1.00  0.00    -0.269 OA
ATOM      4  C   UNL     1       2.355  -0.088  -0.155  1.00  0.00     0.251 C 
ATOM      5  H   UNL     1       2.716  -1.603   1.102  1.00  0.00     0.163 HD
BRANCH   4   6
ATOM      6  C   UNL     1       2.938   0.963  -1.016  1.00  0.00     0.039 A 
ATOM      7  C   UNL     1       4.046   0.703  -1.828  1.00  0.00     0.014 A 
ATOM      8  C   UNL     1       2.350   2.231  -1.015  1.00  0.00     0.014 A 
ATOM      9  C   UNL     1       4.641   1.740  -2.543  1.00  0.00     0.010 A 
ATOM     10  C   UNL     1       2.910   3.254  -1.782  1.00  0.00     0.010 A 
ATOM     11  C   UNL     1       4.077   3.024  -2.528  1.00  0.00    -0.014 A 
BRANCH  11  12
ATOM     12  C   UNL     1       4.686   4.122  -3.319  1.00  0.00     0.031 A 
ATOM     13  C   UNL     1       5.302   5.308  -2.633  1.00  0.00     0.074 A 
ATOM     14  C   UNL     1       4.652   4.059  -4.663  1.00  0.00     0.049 A 
ATOM     15  N   UNL     1       5.797   6.399  -3.157  1.00  0.00    -0.248 NA
ATOM     16  C   UNL     1       5.360   5.266  -1.164  1.00  0.00     0.031 C 
ATOM     17  C   UNL     1       4.078   2.959  -5.440  1.00  0.00     0.029 A 
ATOM     18  N   UNL     1       5.095   4.944  -5.613  1.00  0.00    -0.354 N 
ATOM     19  C   UNL     1       6.200   7.188  -2.087  1.00  0.00     0.074 A 
ATOM     20  C   UNL     1       5.878   6.454  -0.880  1.00  0.00     0.031 C 
ATOM     21  C   UNL     1       4.204   3.233  -6.747  1.00  0.00     0.029 A 
ATOM     22  C   UNL     1       4.820   4.548  -6.899  1.00  0.00     0.049 A 
ATOM     23  H   UNL     1       5.564   5.782  -5.394  1.00  0.00     0.167 HD
ATOM     24  C   UNL     1       6.785   8.410  -2.110  1.00  0.00     0.037 A 
ATOM     25  C   UNL     1       5.010   5.183  -8.071  1.00  0.00     0.037 A 
ATOM     26  C   UNL     1       7.112   9.126  -3.315  1.00  0.00     0.049 A 
ATOM     27  C   UNL     1       5.647   6.541  -8.076  1.00  0.00     0.074 A 
ATOM     28  C   UNL     1       7.738  10.354  -3.445  1.00  0.00     0.029 A 
ATOM     29  N   UNL     1       6.832   8.683  -4.600  1.00  0.00    -0.354 N 
ATOM     30  N   UNL     1       6.049   7.262  -7.056  1.00  0.00    -0.248 NA
ATOM     31  C   UNL     1       5.857   7.175  -9.384  1.00  0.00     0.031 C 
ATOM     32  C   UNL     1       7.804  10.668  -4.808  1.00  0.00     0.029 A 
ATOM     33  C   UNL     1       7.256   9.619  -5.529  1.00  0.00     0.049 A 
ATOM     34  H   UNL     1       6.395   7.828  -4.820  1.00  0.00     0.167 HD
ATOM     35  C   UNL     1       6.578   8.426  -7.599  1.00  0.00     0.074 A 
ATOM     36  C   UNL     1       6.447   8.313  -9.038  1.00  0.00     0.031 C 
ATOM     37  C   UNL     1       7.127   9.488  -6.960  1.00  0.00     0.037 A 
BRANCH  24  38
ATOM     38  C   UNL     1       7.078   9.060  -0.786  1.00  0.00     0.058 A 
ATOM     39  C   UNL     1       8.112   8.607   0.049  1.00  0.00     0.135 A 
ATOM     40  C   UNL     1       6.310  10.150  -0.344  1.00  0.00     0.135 A 
ATOM     41  F   UNL     1       8.868   7.561  -0.319  1.00  0.00    -0.206 F 
ATOM     42  C   UNL     1       8.348   9.184   1.293  1.00  0.00     0.059 A 
ATOM     43  C   UNL     1       6.543  10.757   0.886  1.00  0.00     0.059 A 
ATOM     44  F   UNL     1       5.312  10.626  -1.105  1.00  0.00    -0.206 F 
ATOM     45  C   UNL     1       7.549  10.251   1.708  1.00  0.00     0.060 A 
BRANCH  45  46
ATOM     46  S   UNL     1       7.832  10.963   3.343  1.00  0.00     0.124 S 
ATOM     47  O   UNL     1       7.199   9.968   4.204  1.00  0.00    -0.237 OA
ATOM     48  O   UNL     1       9.289  11.024   3.414  1.00  0.00    -0.237 OA
ATOM     49  O   UNL     1       7.156  12.255   3.273  1.00  0.00    -0.744 OA
ENDBRANCH  45  46
ENDBRANCH  24  38
BRANCH  25  50
ATOM     50  C   UNL     1       4.578   4.517  -9.325  1.00  0.00     0.058 A 
ATOM     51  C   UNL     1       5.512   3.931 -10.189  1.00  0.00     0.135 A 
ATOM     52  C   UNL     1       3.216   4.371  -9.632  1.00  0.00     0.135 A 
ATOM     53  F   UNL     1       6.825   4.049  -9.938  1.00  0.00    -0.206 F 
ATOM     54  C   UNL     1       5.112   3.209 -11.309  1.00  0.00     0.059 A 
ATOM     55  C   UNL     1       2.790   3.637 -10.733  1.00  0.00     0.059 A 
ATOM     56  F   UNL     1       2.284   4.900  -8.823  1.00  0.00    -0.206 F 
ATOM     57  C   UNL     1       3.748   3.058 -11.566  1.00  0.00     0.060 A 
BRANCH  57  58
ATOM     58  S   UNL     1       3.236   2.026 -12.958  1.00  0.00     0.124 S 
ATOM     59  O   UNL     1       3.505   2.906 -14.089  1.00  0.00    -0.237 OA
ATOM     60  O   UNL     1       4.117   0.870 -12.824  1.00  0.00    -0.237 OA
ATOM     61  O   UNL     1       1.827   1.764 -12.680  1.00  0.00    -0.744 OA
ENDBRANCH  57  58
ENDBRANCH  25  50
BRANCH  37  62
ATOM     62  C   UNL     1       7.662  10.607  -7.806  1.00  0.00     0.058 A 
ATOM     63  C   UNL     1       6.812  11.554  -8.395  1.00  0.00     0.135 A 
ATOM     64  C   UNL     1       9.047  10.781  -7.953  1.00  0.00     0.135 A 
ATOM     65  F   UNL     1       5.480  11.425  -8.290  1.00  0.00    -0.206 F 
ATOM     66  C   UNL     1       7.318  12.639  -9.103  1.00  0.00     0.059 A 
ATOM     67  C   UNL     1       9.576  11.869  -8.640  1.00  0.00     0.059 A 
ATOM     68  F   UNL     1       9.901   9.903  -7.402  1.00  0.00    -0.206 F 
ATOM     69  C   UNL     1       8.702  12.792  -9.214  1.00  0.00     0.060 A 
BRANCH  69  70
ATOM     70  S   UNL     1       9.350  14.243 -10.073  1.00  0.00     0.124 S 
ATOM     71  O   UNL     1       9.133  13.880 -11.469  1.00  0.00    -0.237 OA
ATOM     72  O   UNL     1       8.506  15.316  -9.558  1.00  0.00    -0.237 OA
ATOM     73  O   UNL     1      10.746  14.293  -9.646  1.00  0.00    -0.744 OA
ENDBRANCH  69  70
ENDBRANCH  37  62
ENDBRANCH  11  12
ENDBRANCH   4   6
ENDBRANCH   1   2
BRANCH   1  74
ATOM     74  C   UNL     1       4.949  -0.666   2.348  1.00  0.00     0.023 C 
BRANCH  74  75
ATOM     75  C   UNL     1       4.454  -1.818   3.223  1.00  0.00     0.023 C 
BRANCH  75  76
ATOM     76  C   UNL     1       4.784  -3.217   2.711  1.00  0.00     0.116 C 
BRANCH  76  77
ATOM     77  N   UNL     1       6.215  -3.449   2.599  1.00  0.00    -0.352 N 
ATOM     78  C   UNL     1       6.997  -4.356   3.267  1.00  0.00     0.251 C 
ATOM     79  H   UNL     1       6.689  -2.875   1.954  1.00  0.00     0.163 HD
ATOM     80  O   UNL     1       8.219  -4.342   3.155  1.00  0.00    -0.269 OA
BRANCH  78  81
ATOM     81  C   UNL     1       6.359  -5.338   4.164  1.00  0.00     0.042 A 
ATOM     82  C   UNL     1       5.408  -6.241   3.669  1.00  0.00     0.016 A 
ATOM     83  C   UNL     1       6.737  -5.324   5.513  1.00  0.00     0.042 A 
ATOM     84  C   UNL     1       4.743  -7.116   4.538  1.00  0.00     0.031 A 
ATOM     85  C   UNL     1       6.053  -6.208   6.348  1.00  0.00     0.066 A 
ATOM     86  C   UNL     1       5.067  -7.081   5.902  1.00  0.00     0.089 A 
ATOM     87  N   UNL     1       6.131  -6.444   7.693  1.00  0.00    -0.342 N 
ATOM     88  N   UNL     1       4.546  -7.802   6.948  1.00  0.00    -0.233 NA
ATOM     89  C   UNL     1       5.190  -7.391   8.022  1.00  0.00     0.110 A 
ATOM     90  H   UNL     1       6.755  -6.010   8.319  1.00  0.00     0.168 HD
BRANCH  89  91
ATOM     91  C   UNL     1       4.974  -7.872   9.425  1.00  0.00     0.055 C 
ATOM     92  C   UNL     1       6.172  -8.705   9.903  1.00  0.00     0.011 C 
ATOM     93  C   UNL     1       4.675  -6.708  10.382  1.00  0.00     0.011 C 
ATOM     94  C   UNL     1       5.999  -9.167  11.348  1.00  0.00     0.001 C 
ATOM     95  C   UNL     1       4.516  -7.185  11.824  1.00  0.00     0.001 C 
ATOM     96  C   UNL     1       5.727  -7.992  12.282  1.00  0.00     0.000 C 
ENDBRANCH  89  91
ENDBRANCH  78  81
ENDBRANCH  76  77
ENDBRANCH  75  76
ENDBRANCH  74  75
ENDBRANCH   1  74
TORSDOF 15
