REMARK SMILES C[C@H](NC(=O)c1ccc(C(C)(C)C)cc1)C(=O)N[C@@H](C(=O)NCCCCNC(=O)c1ccc(-c2c3nc(c(-c4c(F)cc(S(=O)(=O)[O-])cc4F)c4ccc([nH]4)c(-c4c(F)cc(S(=O)(=O)[O-])cc4F)c4nc(c(-c5c(F)cc(S(=O)(=O)[O-])cc5F)c5ccc2[nH]5)C=C4)C=C3)cc1)[C@H](C)O
REMARK SMILES IDX 23 1 22 2 20 3 21 4 19 6 18 7 16 8 17 9 2 11 1 12 3 13 4 14
REMARK SMILES IDX 5 16 6 17 7 18 15 19 8 20 14 21 9 22 10 23 11 24 12 25 13 26
REMARK SMILES IDX 96 27 97 28 98 29 24 31 25 32 26 33 27 34 28 35 29 37 30 38
REMARK SMILES IDX 31 39 95 40 32 41 94 42 33 43 34 44 35 45 88 46 36 47 93 48
REMARK SMILES IDX 87 49 89 50 37 51 92 52 86 53 85 54 38 56 72 57 51 58 71 59
REMARK SMILES IDX 52 60 55 61 70 62 90 63 53 64 54 65 69 67 91 68 56 69 39 70
REMARK SMILES IDX 40 71 49 72 41 73 42 74 48 75 50 76 43 77 44 78 45 79 46 80
REMARK SMILES IDX 47 81 73 82 74 83 83 84 75 85 76 86 82 87 84 88 77 89 78 90
REMARK SMILES IDX 79 91 80 92 81 93 57 94 58 95 67 96 59 97 60 98 66 99 68 100
REMARK SMILES IDX 61 101 62 102 63 103 64 104 65 105
REMARK H PARENT 22 5 18 10 3 15 98 30 27 36 89 55 55 66
REMARK Flexibility Score: inf
ROOT
ATOM      1  C   UNL     1       0.899  -5.742   2.489  1.00  0.00     0.116 C 
ENDROOT
BRANCH   1   2
ATOM      2  N   UNL     1       0.947  -4.801   3.576  1.00  0.00    -0.354 N 
ATOM      3  C   UNL     1       0.164  -3.697   3.762  1.00  0.00     0.245 C 
ATOM      4  O   UNL     1       0.057  -3.299   4.930  1.00  0.00    -0.273 OA
ATOM      5  H   UNL     1       1.625  -4.972   4.268  1.00  0.00     0.163 HD
BRANCH   3   6
ATOM      6  C   UNL     1      -0.699  -3.067   2.614  1.00  0.00     0.200 C 
BRANCH   6   7
ATOM      7  N   UNL     1      -0.034  -3.075   1.299  1.00  0.00    -0.340 N 
ATOM      8  C   UNL     1      -0.442  -3.493   0.064  1.00  0.00     0.243 C 
ATOM      9  O   UNL     1       0.385  -3.397  -0.851  1.00  0.00    -0.273 OA
ATOM     10  H   UNL     1       0.880  -2.708   1.313  1.00  0.00     0.164 HD
BRANCH   8  11
ATOM     11  C   UNL     1      -1.826  -4.153  -0.226  1.00  0.00     0.168 C 
ATOM     12  C   UNL     1      -3.001  -3.260   0.149  1.00  0.00     0.041 C 
BRANCH  11  13
ATOM     13  N   UNL     1      -1.871  -5.512   0.326  1.00  0.00    -0.341 N 
ATOM     14  C   UNL     1      -2.857  -6.457   0.364  1.00  0.00     0.251 C 
ATOM     15  H   UNL     1      -1.030  -5.798   0.749  1.00  0.00     0.164 HD
ATOM     16  O   UNL     1      -2.703  -7.490   1.006  1.00  0.00    -0.269 OA
BRANCH  14  17
ATOM     17  C   UNL     1      -4.088  -6.237  -0.397  1.00  0.00     0.039 A 
ATOM     18  C   UNL     1      -5.309  -6.155   0.263  1.00  0.00     0.014 A 
ATOM     19  C   UNL     1      -4.008  -6.080  -1.779  1.00  0.00     0.014 A 
ATOM     20  C   UNL     1      -6.446  -5.801  -0.464  1.00  0.00     0.005 A 
ATOM     21  C   UNL     1      -5.146  -5.723  -2.496  1.00  0.00     0.005 A 
ATOM     22  C   UNL     1      -6.378  -5.525  -1.848  1.00  0.00    -0.043 A 
BRANCH  22  23
ATOM     23  C   UNL     1      -7.619  -5.026  -2.605  1.00  0.00    -0.013 C 
ATOM     24  C   UNL     1      -8.615  -6.189  -2.757  1.00  0.00     0.016 C 
ATOM     25  C   UNL     1      -8.290  -3.868  -1.830  1.00  0.00     0.016 C 
ATOM     26  C   UNL     1      -7.294  -4.480  -4.015  1.00  0.00     0.016 C 
ENDBRANCH  22  23
ENDBRANCH  14  17
ENDBRANCH  11  13
ENDBRANCH   8  11
ENDBRANCH   6   7
BRANCH   6  27
ATOM     27  C   UNL     1      -1.163  -1.623   3.043  1.00  0.00     0.143 C 
ATOM     28  C   UNL     1      -1.317  -0.610   1.913  1.00  0.00     0.041 C 
BRANCH  27  29
ATOM     29  O   UNL     1      -0.259  -0.972   3.949  1.00  0.00    -0.391 OA
ATOM     30  H   UNL     1       0.578  -0.788   3.494  1.00  0.00     0.211 HD
ENDBRANCH  27  29
ENDBRANCH   6  27
ENDBRANCH   3   6
ENDBRANCH   1   2
BRANCH   1  31
ATOM     31  C   UNL     1       2.172  -5.802   1.659  1.00  0.00     0.023 C 
BRANCH  31  32
ATOM     32  C   UNL     1       3.269  -6.682   2.259  1.00  0.00     0.023 C 
BRANCH  32  33
ATOM     33  C   UNL     1       2.875  -8.134   2.523  1.00  0.00     0.116 C 
BRANCH  33  34
ATOM     34  N   UNL     1       2.405  -8.843   1.342  1.00  0.00    -0.352 N 
ATOM     35  C   UNL     1       2.587 -10.168   1.017  1.00  0.00     0.251 C 
ATOM     36  H   UNL     1       1.893  -8.307   0.693  1.00  0.00     0.163 HD
ATOM     37  O   UNL     1       2.210 -10.597  -0.070  1.00  0.00    -0.269 OA
BRANCH  35  38
ATOM     38  C   UNL     1       3.287 -11.056   1.970  1.00  0.00     0.039 A 
ATOM     39  C   UNL     1       4.354 -11.829   1.508  1.00  0.00     0.014 A 
ATOM     40  C   UNL     1       2.928 -11.082   3.321  1.00  0.00     0.014 A 
ATOM     41  C   UNL     1       5.115 -12.566   2.417  1.00  0.00     0.010 A 
ATOM     42  C   UNL     1       3.729 -11.761   4.234  1.00  0.00     0.010 A 
ATOM     43  C   UNL     1       4.835 -12.504   3.793  1.00  0.00    -0.014 A 
BRANCH  43  44
ATOM     44  C   UNL     1       5.706 -13.192   4.779  1.00  0.00     0.031 A 
ATOM     45  C   UNL     1       5.167 -14.320   5.615  1.00  0.00     0.074 A 
ATOM     46  C   UNL     1       6.970 -12.759   4.961  1.00  0.00     0.049 A 
ATOM     47  N   UNL     1       5.773 -15.026   6.535  1.00  0.00    -0.248 NA
ATOM     48  C   UNL     1       3.756 -14.683   5.412  1.00  0.00     0.031 C 
ATOM     49  C   UNL     1       7.585 -11.626   4.266  1.00  0.00     0.029 A 
ATOM     50  N   UNL     1       7.963 -13.218   5.789  1.00  0.00    -0.354 N 
ATOM     51  C   UNL     1       4.817 -15.905   7.029  1.00  0.00     0.074 A 
ATOM     52  C   UNL     1       3.577 -15.608   6.344  1.00  0.00     0.031 C 
ATOM     53  C   UNL     1       8.858 -11.498   4.673  1.00  0.00     0.029 A 
ATOM     54  C   UNL     1       9.144 -12.522   5.673  1.00  0.00     0.049 A 
ATOM     55  H   UNL     1       7.843 -13.974   6.407  1.00  0.00     0.167 HD
ATOM     56  C   UNL     1       4.964 -16.886   7.951  1.00  0.00     0.037 A 
ATOM     57  C   UNL     1      10.326 -12.697   6.294  1.00  0.00     0.037 A 
ATOM     58  C   UNL     1       6.207 -17.201   8.605  1.00  0.00     0.049 A 
ATOM     59  C   UNL     1      10.479 -13.826   7.275  1.00  0.00     0.074 A 
ATOM     60  C   UNL     1       6.475 -18.219   9.503  1.00  0.00     0.029 A 
ATOM     61  N   UNL     1       7.392 -16.503   8.428  1.00  0.00    -0.354 N 
ATOM     62  N   UNL     1       9.583 -14.696   7.675  1.00  0.00    -0.248 NA
ATOM     63  C   UNL     1      11.807 -14.006   7.878  1.00  0.00     0.031 C 
ATOM     64  C   UNL     1       7.817 -18.121   9.889  1.00  0.00     0.029 A 
ATOM     65  C   UNL     1       8.393 -17.062   9.206  1.00  0.00     0.049 A 
ATOM     66  H   UNL     1       7.506 -15.724   7.836  1.00  0.00     0.167 HD
ATOM     67  C   UNL     1      10.243 -15.540   8.561  1.00  0.00     0.074 A 
ATOM     68  C   UNL     1      11.617 -15.084   8.627  1.00  0.00     0.031 C 
ATOM     69  C   UNL     1       9.755 -16.596   9.257  1.00  0.00     0.037 A 
BRANCH  56  70
ATOM     70  C   UNL     1       3.748 -17.701   8.291  1.00  0.00     0.058 A 
ATOM     71  C   UNL     1       3.213 -18.633   7.386  1.00  0.00     0.135 A 
ATOM     72  C   UNL     1       3.120 -17.566   9.540  1.00  0.00     0.135 A 
ATOM     73  F   UNL     1       3.766 -18.790   6.173  1.00  0.00    -0.206 F 
ATOM     74  C   UNL     1       2.080 -19.378   7.694  1.00  0.00     0.059 A 
ATOM     75  C   UNL     1       2.000 -18.320   9.878  1.00  0.00     0.059 A 
ATOM     76  F   UNL     1       3.590 -16.689  10.441  1.00  0.00    -0.206 F 
ATOM     77  C   UNL     1       1.478 -19.211   8.942  1.00  0.00     0.060 A 
BRANCH  77  78
ATOM     78  S   UNL     1       0.006 -20.183   9.328  1.00  0.00     0.124 S 
ATOM     79  O   UNL     1      -1.018 -19.471   8.569  1.00  0.00    -0.237 OA
ATOM     80  O   UNL     1       0.361 -21.506   8.825  1.00  0.00    -0.237 OA
ATOM     81  O   UNL     1      -0.099 -20.076  10.780  1.00  0.00    -0.744 OA
ENDBRANCH  77  78
ENDBRANCH  56  70
BRANCH  57  82
ATOM     82  C   UNL     1      11.472 -11.809   5.968  1.00  0.00     0.058 A 
ATOM     83  C   UNL     1      12.543 -12.276   5.191  1.00  0.00     0.135 A 
ATOM     84  C   UNL     1      11.511 -10.477   6.405  1.00  0.00     0.135 A 
ATOM     85  F   UNL     1      12.550 -13.544   4.754  1.00  0.00    -0.206 F 
ATOM     86  C   UNL     1      13.620 -11.458   4.869  1.00  0.00     0.059 A 
ATOM     87  C   UNL     1      12.568  -9.633   6.080  1.00  0.00     0.059 A 
ATOM     88  F   UNL     1      10.501  -9.979   7.136  1.00  0.00    -0.206 F 
ATOM     89  C   UNL     1      13.623 -10.136   5.318  1.00  0.00     0.060 A 
BRANCH  89  90
ATOM     90  S   UNL     1      14.998  -9.062   4.850  1.00  0.00     0.124 S 
ATOM     91  O   UNL     1      16.045  -9.512   5.760  1.00  0.00    -0.237 OA
ATOM     92  O   UNL     1      15.188  -9.399   3.442  1.00  0.00    -0.237 OA
ATOM     93  O   UNL     1      14.474  -7.723   5.099  1.00  0.00    -0.744 OA
ENDBRANCH  89  90
ENDBRANCH  57  82
BRANCH  69  94
ATOM     94  C   UNL     1      10.721 -17.345  10.130  1.00  0.00     0.058 A 
ATOM     95  C   UNL     1      11.166 -16.818  11.352  1.00  0.00     0.135 A 
ATOM     96  C   UNL     1      11.180 -18.617   9.755  1.00  0.00     0.135 A 
ATOM     97  F   UNL     1      10.759 -15.603  11.752  1.00  0.00    -0.206 F 
ATOM     98  C   UNL     1      12.056 -17.517  12.161  1.00  0.00     0.059 A 
ATOM     99  C   UNL     1      12.053 -19.343  10.559  1.00  0.00     0.059 A 
ATOM    100  F   UNL     1      10.776 -19.169   8.599  1.00  0.00    -0.206 F 
ATOM    101  C   UNL     1      12.497 -18.777  11.754  1.00  0.00     0.060 A 
BRANCH 101 102
ATOM    102  S   UNL     1      13.637 -19.686  12.819  1.00  0.00     0.124 S 
ATOM    103  O   UNL     1      14.903 -19.025  12.523  1.00  0.00    -0.237 OA
ATOM    104  O   UNL     1      13.090 -19.440  14.150  1.00  0.00    -0.237 OA
ATOM    105  O   UNL     1      13.518 -21.061  12.345  1.00  0.00    -0.744 OA
ENDBRANCH 101 102
ENDBRANCH  69  94
ENDBRANCH  43  44
ENDBRANCH  35  38
ENDBRANCH  33  34
ENDBRANCH  32  33
ENDBRANCH  31  32
ENDBRANCH   1  31
TORSDOF 21
