REMARK SMILES Cc1ccc(Nc2c(F)cccc2Cl)c(CC(=O)NCCCCNC(=O)c2ccc(-c3c4nc(c(-c5c(F)cc(S(=O)(=O)[O-])cc5F)c5ccc([nH]5)c(-c5c(F)cc(S(=O)(=O)[O-])cc5F)c5nc(c(-c6c(F)cc(S(=O)(=O)[O-])cc6F)c6ccc3[nH]6)C=C5)C=C4)cc2)c1
REMARK SMILES IDX 21 1 20 2 19 3 17 4 18 5 16 7 15 8 1 9 2 10 3 11 93 12 4 13
REMARK SMILES IDX 5 14 6 15 7 17 8 18 13 19 9 20 10 21 12 22 14 23 11 24 22 25
REMARK SMILES IDX 23 26 24 27 25 28 26 30 27 31 28 32 92 33 29 34 91 35 30 36
REMARK SMILES IDX 31 37 32 38 85 39 33 40 90 41 84 42 86 43 34 44 89 45 83 46
REMARK SMILES IDX 82 47 35 49 69 50 48 51 68 52 49 53 52 54 67 55 87 56 50 57
REMARK SMILES IDX 51 58 66 60 88 61 53 62 36 63 37 64 46 65 38 66 39 67 45 68
REMARK SMILES IDX 47 69 40 70 41 71 42 72 43 73 44 74 70 75 71 76 80 77 72 78
REMARK SMILES IDX 73 79 79 80 81 81 74 82 75 83 76 84 77 85 78 86 54 87 55 88
REMARK SMILES IDX 64 89 56 90 57 91 63 92 65 93 58 94 59 95 60 96 61 97 62 98
REMARK H PARENT 19 6 6 16 24 29 86 48 52 59
REMARK Flexibility Score: inf
ROOT
ATOM      1  C   UNL     1      -0.115   1.168  -3.226  1.00  0.00     0.023 C 
ENDROOT
BRANCH   1   2
ATOM      2  C   UNL     1      -0.563   2.573  -2.795  1.00  0.00     0.116 C 
BRANCH   2   3
ATOM      3  N   UNL     1      -1.972   2.646  -2.441  1.00  0.00    -0.356 N 
ATOM      4  C   UNL     1      -2.572   2.536  -1.224  1.00  0.00     0.224 C 
ATOM      5  O   UNL     1      -3.806   2.518  -1.168  1.00  0.00    -0.275 OA
ATOM      6  H   UNL     1      -2.585   2.798  -3.197  1.00  0.00     0.163 HD
BRANCH   4   7
ATOM      7  C   UNL     1      -1.756   2.403   0.047  1.00  0.00     0.137 C 
BRANCH   7   8
ATOM      8  C   UNL     1      -1.054   1.069   0.177  1.00  0.00    -0.015 A 
ATOM      9  C   UNL     1       2.604  -0.040   0.258  1.00  0.00     0.044 C 
ATOM     10  C   UNL     1       1.106  -0.082   0.280  1.00  0.00    -0.051 A 
ATOM     11  C   UNL     1       0.437  -1.300   0.212  1.00  0.00     0.005 A 
ATOM     12  C   UNL     1       0.354   1.094   0.296  1.00  0.00     0.009 A 
ATOM     13  C   UNL     1      -0.959  -1.339   0.149  1.00  0.00     0.026 A 
ATOM     14  C   UNL     1      -1.735  -0.168   0.111  1.00  0.00     0.042 A 
BRANCH  14  15
ATOM     15  N   UNL     1      -3.144  -0.229   0.017  1.00  0.00    -0.352 N 
ATOM     16  H   UNL     1      -3.595   0.641  -0.080  1.00  0.00     0.167 HD
BRANCH  15  17
ATOM     17  C   UNL     1      -4.003  -1.353   0.042  1.00  0.00     0.094 A 
ATOM     18  C   UNL     1      -3.941  -2.324   1.054  1.00  0.00     0.148 A 
ATOM     19  C   UNL     1      -4.899  -1.592  -1.018  1.00  0.00     0.067 A 
ATOM     20  F   UNL     1      -3.129  -2.154   2.110  1.00  0.00    -0.205 F 
ATOM     21  C   UNL     1      -4.720  -3.481   1.018  1.00  0.00     0.041 A 
ATOM     22  C   UNL     1      -5.682  -2.754  -1.063  1.00  0.00     0.023 A 
ATOM     23  Cl  UNL     1      -5.041  -0.481  -2.337  1.00  0.00    -0.082 Cl
ATOM     24  C   UNL     1      -5.589  -3.702  -0.046  1.00  0.00     0.005 A 
ENDBRANCH  15  17
ENDBRANCH  14  15
ENDBRANCH   7   8
ENDBRANCH   4   7
ENDBRANCH   2   3
ENDBRANCH   1   2
BRANCH   1  25
ATOM     25  C   UNL     1      -0.885   0.557  -4.398  1.00  0.00     0.023 C 
BRANCH  25  26
ATOM     26  C   UNL     1      -0.677   1.304  -5.708  1.00  0.00     0.116 C 
BRANCH  26  27
ATOM     27  N   UNL     1       0.023   0.539  -6.724  1.00  0.00    -0.352 N 
ATOM     28  C   UNL     1       0.313   0.924  -8.034  1.00  0.00     0.251 C 
ATOM     29  H   UNL     1       0.330  -0.358  -6.457  1.00  0.00     0.163 HD
ATOM     30  O   UNL     1       0.735   0.160  -8.852  1.00  0.00    -0.269 OA
BRANCH  28  31
ATOM     31  C   UNL     1       0.166   2.371  -8.334  1.00  0.00     0.039 A 
ATOM     32  C   UNL     1       1.343   3.095  -8.556  1.00  0.00     0.014 A 
ATOM     33  C   UNL     1      -1.048   3.019  -8.121  1.00  0.00     0.014 A 
ATOM     34  C   UNL     1       1.340   4.475  -8.372  1.00  0.00     0.010 A 
ATOM     35  C   UNL     1      -1.033   4.379  -7.867  1.00  0.00     0.010 A 
ATOM     36  C   UNL     1       0.173   5.096  -7.933  1.00  0.00    -0.014 A 
BRANCH  36  37
ATOM     37  C   UNL     1       0.131   6.457  -7.408  1.00  0.00     0.031 A 
ATOM     38  C   UNL     1      -0.548   7.533  -8.165  1.00  0.00     0.074 A 
ATOM     39  C   UNL     1       0.608   6.714  -6.168  1.00  0.00     0.049 A 
ATOM     40  N   UNL     1      -0.533   8.776  -7.820  1.00  0.00    -0.248 NA
ATOM     41  C   UNL     1      -1.247   7.299  -9.428  1.00  0.00     0.031 C 
ATOM     42  C   UNL     1       0.304   7.864  -5.320  1.00  0.00     0.029 A 
ATOM     43  N   UNL     1       1.685   6.090  -5.530  1.00  0.00    -0.354 N 
ATOM     44  C   UNL     1      -1.446   9.432  -8.604  1.00  0.00     0.074 A 
ATOM     45  C   UNL     1      -1.757   8.512  -9.668  1.00  0.00     0.031 C 
ATOM     46  C   UNL     1       1.301   8.032  -4.440  1.00  0.00     0.029 A 
ATOM     47  C   UNL     1       2.351   7.097  -4.794  1.00  0.00     0.049 A 
ATOM     48  H   UNL     1       1.930   5.138  -5.583  1.00  0.00     0.167 HD
ATOM     49  C   UNL     1      -1.938  10.628  -8.180  1.00  0.00     0.037 A 
ATOM     50  C   UNL     1       3.631   7.454  -5.114  1.00  0.00     0.037 A 
ATOM     51  C   UNL     1      -1.060  11.237  -7.179  1.00  0.00     0.049 A 
ATOM     52  C   UNL     1       3.791   8.873  -5.625  1.00  0.00     0.074 A 
ATOM     53  C   UNL     1      -1.118  11.506  -5.824  1.00  0.00     0.029 A 
ATOM     54  N   UNL     1       0.251  11.485  -7.555  1.00  0.00    -0.354 N 
ATOM     55  N   UNL     1       2.828   9.751  -5.706  1.00  0.00    -0.248 NA
ATOM     56  C   UNL     1       5.055   9.390  -6.158  1.00  0.00     0.031 C 
ATOM     57  C   UNL     1       0.210  11.817  -5.380  1.00  0.00     0.029 A 
ATOM     58  C   UNL     1       1.057  11.777  -6.474  1.00  0.00     0.049 A 
ATOM     59  H   UNL     1       0.571  11.455  -8.486  1.00  0.00     0.167 HD
ATOM     60  C   UNL     1       3.286  10.870  -6.351  1.00  0.00     0.074 A 
ATOM     61  C   UNL     1       4.694  10.611  -6.587  1.00  0.00     0.031 C 
ATOM     62  C   UNL     1       2.486  11.916  -6.706  1.00  0.00     0.037 A 
BRANCH  49  63
ATOM     63  C   UNL     1      -3.278  11.187  -8.603  1.00  0.00     0.058 A 
ATOM     64  C   UNL     1      -3.652  12.503  -8.260  1.00  0.00     0.135 A 
ATOM     65  C   UNL     1      -4.298  10.428  -9.226  1.00  0.00     0.135 A 
ATOM     66  F   UNL     1      -2.796  13.320  -7.628  1.00  0.00    -0.206 F 
ATOM     67  C   UNL     1      -4.929  13.020  -8.515  1.00  0.00     0.059 A 
ATOM     68  C   UNL     1      -5.556  10.939  -9.541  1.00  0.00     0.059 A 
ATOM     69  F   UNL     1      -4.158   9.123  -9.490  1.00  0.00    -0.206 F 
ATOM     70  C   UNL     1      -5.876  12.229  -9.156  1.00  0.00     0.060 A 
BRANCH  70  71
ATOM     71  S   UNL     1      -7.538  12.863  -9.450  1.00  0.00     0.124 S 
ATOM     72  O   UNL     1      -8.124  12.789  -8.115  1.00  0.00    -0.237 OA
ATOM     73  O   UNL     1      -7.280  14.205  -9.960  1.00  0.00    -0.237 OA
ATOM     74  O   UNL     1      -8.089  11.926 -10.426  1.00  0.00    -0.744 OA
ENDBRANCH  70  71
ENDBRANCH  49  63
BRANCH  50  75
ATOM     75  C   UNL     1       4.459   6.280  -5.508  1.00  0.00     0.058 A 
ATOM     76  C   UNL     1       4.704   5.306  -4.519  1.00  0.00     0.135 A 
ATOM     77  C   UNL     1       4.596   5.897  -6.848  1.00  0.00     0.135 A 
ATOM     78  F   UNL     1       4.604   5.628  -3.218  1.00  0.00    -0.206 F 
ATOM     79  C   UNL     1       4.887   3.969  -4.844  1.00  0.00     0.059 A 
ATOM     80  C   UNL     1       4.796   4.561  -7.197  1.00  0.00     0.059 A 
ATOM     81  F   UNL     1       4.380   6.783  -7.831  1.00  0.00    -0.206 F 
ATOM     82  C   UNL     1       4.857   3.600  -6.187  1.00  0.00     0.060 A 
BRANCH  82  83
ATOM     83  S   UNL     1       4.682   1.841  -6.566  1.00  0.00     0.124 S 
ATOM     84  O   UNL     1       5.864   1.273  -5.926  1.00  0.00    -0.237 OA
ATOM     85  O   UNL     1       3.406   1.534  -5.923  1.00  0.00    -0.237 OA
ATOM     86  O   UNL     1       4.677   1.813  -8.024  1.00  0.00    -0.744 OA
ENDBRANCH  82  83
ENDBRANCH  50  75
BRANCH  62  87
ATOM     87  C   UNL     1       3.033  13.150  -7.365  1.00  0.00     0.058 A 
ATOM     88  C   UNL     1       4.113  13.861  -6.815  1.00  0.00     0.135 A 
ATOM     89  C   UNL     1       2.422  13.719  -8.501  1.00  0.00     0.135 A 
ATOM     90  F   UNL     1       4.734  13.411  -5.713  1.00  0.00    -0.206 F 
ATOM     91  C   UNL     1       4.580  15.050  -7.373  1.00  0.00     0.059 A 
ATOM     92  C   UNL     1       2.843  14.928  -9.051  1.00  0.00     0.059 A 
ATOM     93  F   UNL     1       1.413  13.097  -9.130  1.00  0.00    -0.206 F 
ATOM     94  C   UNL     1       3.936  15.578  -8.491  1.00  0.00     0.060 A 
BRANCH  94  95
ATOM     95  S   UNL     1       4.509  17.137  -9.196  1.00  0.00     0.124 S 
ATOM     96  O   UNL     1       5.003  17.859  -8.027  1.00  0.00    -0.237 OA
ATOM     97  O   UNL     1       5.531  16.675 -10.129  1.00  0.00    -0.237 OA
ATOM     98  O   UNL     1       3.304  17.693  -9.802  1.00  0.00    -0.744 OA
ENDBRANCH  94  95
ENDBRANCH  62  87
ENDBRANCH  36  37
ENDBRANCH  28  31
ENDBRANCH  26  27
ENDBRANCH  25  26
ENDBRANCH   1  25
TORSDOF 17
