REMARK SMILES Cc1ccc([C@@H](C[NH+](C)C)N2C[C@@H](C(=O)NCCCCNC(=O)c3ccc(-c4c5nc(c(-c6c(F)cc(S(=O)(=O)[O-])cc6F)c6ccc([nH]6)c(-c6c(F)cc(S(=O)(=O)[O-])cc6F)c6nc(c(-c7c(F)cc(S(=O)(=O)[O-])cc7F)c7ccc4[nH]7)C=C6)C=C5)cc3)CC2=O)cc1C
REMARK SMILES IDX 18 1 17 2 16 3 14 4 15 5 13 7 11 8 12 9 91 10 90 11 92 12
REMARK SMILES IDX 6 13 5 14 1 15 2 16 3 17 94 18 4 19 93 20 95 21 7 22 8 23
REMARK SMILES IDX 9 24 10 25 19 27 20 28 21 29 22 30 23 32 24 33 25 34 89 35
REMARK SMILES IDX 26 36 88 37 27 38 28 39 29 40 82 41 30 42 87 43 81 44 83 45
REMARK SMILES IDX 31 46 86 47 80 48 79 49 32 51 66 52 45 53 65 54 46 55 49 56
REMARK SMILES IDX 64 57 84 58 47 59 48 60 63 62 85 63 50 64 33 65 34 66 43 67
REMARK SMILES IDX 35 68 36 69 42 70 44 71 37 72 38 73 39 74 40 75 41 76 67 77
REMARK SMILES IDX 68 78 77 79 69 80 70 81 76 82 78 83 71 84 72 85 73 86 74 87
REMARK SMILES IDX 75 88 51 89 52 90 61 91 53 92 54 93 60 94 62 95 55 96 56 97
REMARK SMILES IDX 57 98 58 99 59 100
REMARK H PARENT 16 6 8 26 21 31 83 50 49 61
REMARK Flexibility Score: inf
ROOT
ATOM      1  C   UNL     1       0.245  -4.546   3.620  1.00  0.00     0.023 C 
ENDROOT
BRANCH   1   2
ATOM      2  C   UNL     1      -0.711  -4.758   2.453  1.00  0.00     0.116 C 
BRANCH   2   3
ATOM      3  N   UNL     1      -1.745  -5.731   2.756  1.00  0.00    -0.356 N 
ATOM      4  C   UNL     1      -3.099  -5.620   2.739  1.00  0.00     0.225 C 
ATOM      5  O   UNL     1      -3.759  -6.624   3.019  1.00  0.00    -0.275 OA
ATOM      6  H   UNL     1      -1.409  -6.618   3.017  1.00  0.00     0.163 HD
BRANCH   4   7
ATOM      7  C   UNL     1      -3.808  -4.330   2.383  1.00  0.00     0.107 C 
ATOM      8  N   UNL     1      -3.221  -2.424   1.124  1.00  0.00    -0.329 N 
ATOM      9  C   UNL     1      -3.467  -3.840   0.984  1.00  0.00     0.134 C 
ATOM     10  C   UNL     1      -3.403  -1.977   2.425  1.00  0.00     0.224 C 
ATOM     11  C   UNL     1      -3.537  -3.172   3.332  1.00  0.00     0.115 C 
ATOM     12  O   UNL     1      -3.434  -0.821   2.805  1.00  0.00    -0.275 OA
BRANCH   8  13
ATOM     13  C   UNL     1      -2.973  -1.513  -0.008  1.00  0.00     0.170 C 
BRANCH  13  14
ATOM     14  C   UNL     1      -1.717  -0.672   0.196  1.00  0.00    -0.020 A 
ATOM     15  C   UNL     1       1.910   1.684   0.060  1.00  0.00     0.044 C 
ATOM     16  C   UNL     1       0.666   0.850   0.191  1.00  0.00    -0.048 A 
ATOM     17  C   UNL     1      -0.584   1.465   0.021  1.00  0.00     0.004 A 
ATOM     18  C   UNL     1       0.722  -0.536   0.425  1.00  0.00    -0.048 A 
ATOM     19  C   UNL     1      -1.761   0.714   0.014  1.00  0.00     0.006 A 
ATOM     20  C   UNL     1      -0.476  -1.270   0.461  1.00  0.00     0.009 A 
ATOM     21  C   UNL     1       2.010  -1.310   0.504  1.00  0.00     0.044 C 
ENDBRANCH  13  14
BRANCH  13  22
ATOM     22  C   UNL     1      -3.003  -2.167  -1.449  1.00  0.00     0.292 C 
BRANCH  22  23
ATOM     23  N   UNL     1      -1.972  -3.194  -1.752  1.00  0.00    -0.338 N 
ATOM     24  C   UNL     1      -2.496  -4.239  -2.636  1.00  0.00     0.332 C 
ATOM     25  C   UNL     1      -0.773  -2.623  -2.386  1.00  0.00     0.332 C 
ATOM     26  H   UNL     1      -1.714  -3.593  -0.849  1.00  0.00     0.347 HD
ENDBRANCH  22  23
ENDBRANCH  13  22
ENDBRANCH   8  13
ENDBRANCH   4   7
ENDBRANCH   2   3
ENDBRANCH   1   2
BRANCH   1  27
ATOM     27  C   UNL     1       1.085  -5.767   3.992  1.00  0.00     0.023 C 
BRANCH  27  28
ATOM     28  C   UNL     1       1.906  -6.367   2.855  1.00  0.00     0.116 C 
BRANCH  28  29
ATOM     29  N   UNL     1       2.837  -5.418   2.265  1.00  0.00    -0.352 N 
ATOM     30  C   UNL     1       4.181  -5.556   2.014  1.00  0.00     0.251 C 
ATOM     31  H   UNL     1       2.448  -4.551   2.008  1.00  0.00     0.163 HD
ATOM     32  O   UNL     1       4.831  -4.587   1.633  1.00  0.00    -0.269 OA
BRANCH  30  33
ATOM     33  C   UNL     1       4.846  -6.861   2.233  1.00  0.00     0.039 A 
ATOM     34  C   UNL     1       6.066  -6.889   2.913  1.00  0.00     0.014 A 
ATOM     35  C   UNL     1       4.264  -8.052   1.790  1.00  0.00     0.014 A 
ATOM     36  C   UNL     1       6.663  -8.116   3.212  1.00  0.00     0.010 A 
ATOM     37  C   UNL     1       4.821  -9.276   2.157  1.00  0.00     0.010 A 
ATOM     38  C   UNL     1       6.024  -9.322   2.877  1.00  0.00    -0.014 A 
BRANCH  38  39
ATOM     39  C   UNL     1       6.592 -10.631   3.298  1.00  0.00     0.031 A 
ATOM     40  C   UNL     1       7.028 -11.643   2.273  1.00  0.00     0.074 A 
ATOM     41  C   UNL     1       6.669 -10.927   4.612  1.00  0.00     0.049 A 
ATOM     42  N   UNL     1       7.511 -12.846   2.455  1.00  0.00    -0.248 NA
ATOM     43  C   UNL     1       6.882 -11.267   0.857  1.00  0.00     0.031 C 
ATOM     44  C   UNL     1       6.225 -10.054   5.703  1.00  0.00     0.029 A 
ATOM     45  N   UNL     1       7.141 -12.043   5.257  1.00  0.00    -0.354 N 
ATOM     46  C   UNL     1       7.726 -13.367   1.184  1.00  0.00     0.074 A 
ATOM     47  C   UNL     1       7.264 -12.375   0.238  1.00  0.00     0.031 C 
ATOM     48  C   UNL     1       6.470 -10.656   6.878  1.00  0.00     0.029 A 
ATOM     49  C   UNL     1       7.049 -11.972   6.628  1.00  0.00     0.049 A 
ATOM     50  H   UNL     1       7.511 -12.822   4.783  1.00  0.00     0.167 HD
ATOM     51  C   UNL     1       8.283 -14.553   0.837  1.00  0.00     0.037 A 
ATOM     52  C   UNL     1       7.385 -12.867   7.578  1.00  0.00     0.037 A 
ATOM     53  C   UNL     1       8.755 -15.532   1.783  1.00  0.00     0.049 A 
ATOM     54  C   UNL     1       7.991 -14.181   7.164  1.00  0.00     0.074 A 
ATOM     55  C   UNL     1       9.378 -16.742   1.528  1.00  0.00     0.029 A 
ATOM     56  N   UNL     1       8.659 -15.417   3.162  1.00  0.00    -0.354 N 
ATOM     57  N   UNL     1       8.250 -14.626   5.957  1.00  0.00    -0.248 NA
ATOM     58  C   UNL     1       8.361 -15.111   8.239  1.00  0.00     0.031 C 
ATOM     59  C   UNL     1       9.613 -17.380   2.750  1.00  0.00     0.029 A 
ATOM     60  C   UNL     1       9.190 -16.543   3.770  1.00  0.00     0.049 A 
ATOM     61  H   UNL     1       8.270 -14.648   3.638  1.00  0.00     0.167 HD
ATOM     62  C   UNL     1       8.835 -15.876   6.131  1.00  0.00     0.074 A 
ATOM     63  C   UNL     1       8.913 -16.105   7.558  1.00  0.00     0.031 C 
ATOM     64  C   UNL     1       9.265 -16.757   5.193  1.00  0.00     0.037 A 
BRANCH  51  65
ATOM     65  C   UNL     1       8.430 -14.858  -0.630  1.00  0.00     0.058 A 
ATOM     66  C   UNL     1       9.357 -14.173  -1.433  1.00  0.00     0.135 A 
ATOM     67  C   UNL     1       7.687 -15.891  -1.226  1.00  0.00     0.135 A 
ATOM     68  F   UNL     1      10.082 -13.166  -0.920  1.00  0.00    -0.206 F 
ATOM     69  C   UNL     1       9.531 -14.490  -2.776  1.00  0.00     0.059 A 
ATOM     70  C   UNL     1       7.866 -16.244  -2.561  1.00  0.00     0.059 A 
ATOM     71  F   UNL     1       6.786 -16.577  -0.507  1.00  0.00    -0.206 F 
ATOM     72  C   UNL     1       8.784 -15.531  -3.330  1.00  0.00     0.060 A 
BRANCH  72  73
ATOM     73  S   UNL     1       9.049 -15.947  -5.067  1.00  0.00     0.124 S 
ATOM     74  O   UNL     1       8.451 -14.796  -5.737  1.00  0.00    -0.237 OA
ATOM     75  O   UNL     1      10.502 -16.042  -5.146  1.00  0.00    -0.237 OA
ATOM     76  O   UNL     1       8.331 -17.208  -5.228  1.00  0.00    -0.744 OA
ENDBRANCH  72  73
ENDBRANCH  51  65
BRANCH  52  77
ATOM     77  C   UNL     1       7.162 -12.554   9.017  1.00  0.00     0.058 A 
ATOM     78  C   UNL     1       8.240 -12.367   9.896  1.00  0.00     0.135 A 
ATOM     79  C   UNL     1       5.865 -12.452   9.546  1.00  0.00     0.135 A 
ATOM     80  F   UNL     1       9.499 -12.459   9.441  1.00  0.00    -0.206 F 
ATOM     81  C   UNL     1       8.043 -12.125  11.252  1.00  0.00     0.059 A 
ATOM     82  C   UNL     1       5.643 -12.180  10.892  1.00  0.00     0.059 A 
ATOM     83  F   UNL     1       4.798 -12.603   8.746  1.00  0.00    -0.206 F 
ATOM     84  C   UNL     1       6.739 -12.035  11.741  1.00  0.00     0.060 A 
BRANCH  84  85
ATOM     85  S   UNL     1       6.494 -11.701  13.498  1.00  0.00     0.124 S 
ATOM     86  O   UNL     1       6.869 -12.977  14.095  1.00  0.00    -0.237 OA
ATOM     87  O   UNL     1       7.413 -10.591  13.731  1.00  0.00    -0.237 OA
ATOM     88  O   UNL     1       5.077 -11.358  13.579  1.00  0.00    -0.744 OA
ENDBRANCH  84  85
ENDBRANCH  52  77
BRANCH  64  89
ATOM     89  C   UNL     1       9.888 -18.036   5.683  1.00  0.00     0.058 A 
ATOM     90  C   UNL     1       9.126 -19.043   6.296  1.00  0.00     0.135 A 
ATOM     91  C   UNL     1      11.263 -18.270   5.511  1.00  0.00     0.135 A 
ATOM     92  F   UNL     1       7.809 -18.870   6.491  1.00  0.00    -0.206 F 
ATOM     93  C   UNL     1       9.710 -20.220   6.755  1.00  0.00     0.059 A 
ATOM     94  C   UNL     1      11.862 -19.453   5.931  1.00  0.00     0.059 A 
ATOM     95  F   UNL     1      12.037 -17.346   4.919  1.00  0.00    -0.206 F 
ATOM     96  C   UNL     1      11.079 -20.415   6.568  1.00  0.00     0.060 A 
BRANCH  96  97
ATOM     97  S   UNL     1      11.821 -21.953   7.154  1.00  0.00     0.124 S 
ATOM     98  O   UNL     1      11.821 -21.747   8.599  1.00  0.00    -0.237 OA
ATOM     99  O   UNL     1      10.889 -22.959   6.657  1.00  0.00    -0.237 OA
ATOM    100  O   UNL     1      13.137 -21.959   6.522  1.00  0.00    -0.744 OA
ENDBRANCH  96  97
ENDBRANCH  64  89
ENDBRANCH  38  39
ENDBRANCH  30  33
ENDBRANCH  28  29
ENDBRANCH  27  28
ENDBRANCH   1  27
TORSDOF 18
