REMARK SMILES O=C(CCCN1C(=O)/C(=C/c2ccccc2Cl)SC1=S)Nc1cccc(C(=O)NCCCCNC(=O)c2ccc(-c3c4nc(c(-c5c(F)cc(S(=O)(=O)[O-])cc5F)c5ccc([nH]5)c(-c5c(F)cc(S(=O)(=O)[O-])cc5F)c5nc(c(-c6c(F)cc(S(=O)(=O)[O-])cc6F)c6ccc3[nH]6)C=C5)C=C4)cc2)c1
REMARK SMILES IDX 30 1 29 2 27 3 28 4 26 6 22 7 23 8 103 9 24 10 25 11 21 12
REMARK SMILES IDX 1 13 2 14 3 16 4 17 5 18 6 19 7 20 19 21 8 22 9 23 18 24
REMARK SMILES IDX 20 25 10 26 11 27 12 28 16 29 13 30 15 31 17 32 14 33 31 34
REMARK SMILES IDX 32 35 33 36 34 37 35 38 36 40 37 41 38 42 102 43 39 44
REMARK SMILES IDX 101 45 40 46 41 47 42 48 95 49 43 50 100 51 94 52 96 53
REMARK SMILES IDX 44 54 99 55 93 56 92 57 45 59 79 60 58 61 78 62 59 63 62 64
REMARK SMILES IDX 77 65 97 66 60 67 61 68 76 70 98 71 63 72 46 73 47 74 56 75
REMARK SMILES IDX 48 76 49 77 55 78 57 79 50 80 51 81 52 82 53 83 54 84 80 85
REMARK SMILES IDX 81 86 90 87 82 88 83 89 89 90 91 91 84 92 85 93 86 94 87 95
REMARK SMILES IDX 88 96 64 97 65 98 74 99 66 100 67 101 73 102 75 103 68 104
REMARK SMILES IDX 69 105 70 106 71 107 72 108
REMARK H PARENT 29 5 21 15 34 39 96 58 62 69
REMARK Flexibility Score: inf
ROOT
ATOM      1  C   UNL     1       0.005  -1.382  -3.131  1.00  0.00     0.116 C 
ENDROOT
BRANCH   1   2
ATOM      2  N   UNL     1      -0.774  -2.614  -3.086  1.00  0.00    -0.352 N 
ATOM      3  C   UNL     1      -0.683  -3.689  -2.223  1.00  0.00     0.251 C 
ATOM      4  O   UNL     1      -1.433  -4.652  -2.361  1.00  0.00    -0.269 OA
ATOM      5  H   UNL     1      -1.472  -2.691  -3.776  1.00  0.00     0.163 HD
BRANCH   3   6
ATOM      6  C   UNL     1       0.369  -3.733  -1.177  1.00  0.00     0.041 A 
ATOM      7  C   UNL     1       1.926  -2.543   0.232  1.00  0.00     0.041 A 
ATOM      8  C   UNL     1       2.656  -3.726   0.400  1.00  0.00     0.026 A 
ATOM      9  C   UNL     1       0.716  -2.591  -0.454  1.00  0.00     0.040 A 
ATOM     10  C   UNL     1       2.215  -4.920  -0.177  1.00  0.00     0.003 A 
ATOM     11  C   UNL     1       1.087  -4.918  -0.996  1.00  0.00     0.014 A 
BRANCH   7  12
ATOM     12  N   UNL     1       2.539  -1.326   0.608  1.00  0.00    -0.326 N 
ATOM     13  O   UNL     1       0.805   0.193   0.306  1.00  0.00    -0.275 OA
ATOM     14  C   UNL     1       1.996  -0.063   0.463  1.00  0.00     0.224 C 
ATOM     15  H   UNL     1       3.436  -1.383   1.010  1.00  0.00     0.169 HD
BRANCH  14  16
ATOM     16  C   UNL     1       3.018   1.055   0.382  1.00  0.00     0.102 C 
BRANCH  16  17
ATOM     17  C   UNL     1       3.885   1.253   1.619  1.00  0.00     0.032 C 
BRANCH  17  18
ATOM     18  C   UNL     1       5.244   0.534   1.617  1.00  0.00     0.128 C 
BRANCH  18  19
ATOM     19  N   UNL     1       5.989   0.585   0.354  1.00  0.00    -0.293 N 
ATOM     20  C   UNL     1       6.297   1.816  -0.202  1.00  0.00     0.266 C 
ATOM     21  C   UNL     1       6.522  -0.516  -0.290  1.00  0.00     0.148 C 
ATOM     22  O   UNL     1       6.038   2.911   0.285  1.00  0.00    -0.268 OA
ATOM     23  C   UNL     1       7.026   1.642  -1.483  1.00  0.00     0.081 C 
ATOM     24  S   UNL     1       7.432  -0.009  -1.705  1.00  0.00    -0.054 SA
ATOM     25  S   UNL     1       6.386  -2.123   0.136  1.00  0.00    -0.052 S 
ATOM     26  C   UNL     1       7.287   2.677  -2.294  1.00  0.00     0.031 C 
BRANCH  26  27
ATOM     27  C   UNL     1       8.030   2.606  -3.561  1.00  0.00    -0.006 A 
ATOM     28  C   UNL     1       9.313   3.175  -3.579  1.00  0.00     0.010 A 
ATOM     29  C   UNL     1       7.532   2.021  -4.738  1.00  0.00     0.048 A 
ATOM     30  C   UNL     1      10.093   3.138  -4.736  1.00  0.00     0.001 A 
ATOM     31  C   UNL     1       8.320   1.978  -5.892  1.00  0.00     0.021 A 
ATOM     32  Cl  UNL     1       5.936   1.359  -4.829  1.00  0.00    -0.084 Cl
ATOM     33  C   UNL     1       9.600   2.534  -5.890  1.00  0.00     0.002 A 
ENDBRANCH  26  27
ENDBRANCH  18  19
ENDBRANCH  17  18
ENDBRANCH  16  17
ENDBRANCH  14  16
ENDBRANCH   7  12
ENDBRANCH   3   6
ENDBRANCH   1   2
BRANCH   1  34
ATOM     34  C   UNL     1       0.409  -0.931  -4.529  1.00  0.00     0.023 C 
BRANCH  34  35
ATOM     35  C   UNL     1      -0.728  -0.598  -5.485  1.00  0.00     0.023 C 
BRANCH  35  36
ATOM     36  C   UNL     1      -1.781   0.370  -4.959  1.00  0.00     0.116 C 
BRANCH  36  37
ATOM     37  N   UNL     1      -1.248   1.669  -4.574  1.00  0.00    -0.352 N 
ATOM     38  C   UNL     1      -1.634   2.929  -4.973  1.00  0.00     0.251 C 
ATOM     39  H   UNL     1      -0.501   1.643  -3.934  1.00  0.00     0.163 HD
ATOM     40  O   UNL     1      -0.997   3.912  -4.603  1.00  0.00    -0.269 OA
BRANCH  38  41
ATOM     41  C   UNL     1      -2.790   3.096  -5.883  1.00  0.00     0.039 A 
ATOM     42  C   UNL     1      -2.659   3.932  -6.996  1.00  0.00     0.014 A 
ATOM     43  C   UNL     1      -3.985   2.406  -5.664  1.00  0.00     0.014 A 
ATOM     44  C   UNL     1      -3.688   3.996  -7.939  1.00  0.00     0.010 A 
ATOM     45  C   UNL     1      -4.972   2.405  -6.645  1.00  0.00     0.010 A 
ATOM     46  C   UNL     1      -4.832   3.192  -7.798  1.00  0.00    -0.014 A 
BRANCH  46  47
ATOM     47  C   UNL     1      -5.881   3.143  -8.850  1.00  0.00     0.031 A 
ATOM     48  C   UNL     1      -7.286   3.581  -8.538  1.00  0.00     0.074 A 
ATOM     49  C   UNL     1      -5.590   2.626 -10.061  1.00  0.00     0.049 A 
ATOM     50  N   UNL     1      -8.355   3.529  -9.291  1.00  0.00    -0.248 NA
ATOM     51  C   UNL     1      -7.527   4.121  -7.191  1.00  0.00     0.031 C 
ATOM     52  C   UNL     1      -4.279   2.117 -10.472  1.00  0.00     0.029 A 
ATOM     53  N   UNL     1      -6.380   2.433 -11.167  1.00  0.00    -0.354 N 
ATOM     54  C   UNL     1      -9.396   4.009  -8.506  1.00  0.00     0.074 A 
ATOM     55  C   UNL     1      -8.840   4.298  -7.201  1.00  0.00     0.031 C 
ATOM     56  C   UNL     1      -4.350   1.695 -11.745  1.00  0.00     0.029 A 
ATOM     57  C   UNL     1      -5.715   1.867 -12.230  1.00  0.00     0.049 A 
ATOM     58  H   UNL     1      -7.333   2.676 -11.196  1.00  0.00     0.167 HD
ATOM     59  C   UNL     1     -10.691   4.215  -8.846  1.00  0.00     0.037 A 
ATOM     60  C   UNL     1      -6.156   1.522 -13.455  1.00  0.00     0.037 A 
ATOM     61  C   UNL     1     -11.234   3.952 -10.153  1.00  0.00     0.049 A 
ATOM     62  C   UNL     1      -7.596   1.765 -13.814  1.00  0.00     0.074 A 
ATOM     63  C   UNL     1     -12.519   4.179 -10.614  1.00  0.00     0.029 A 
ATOM     64  N   UNL     1     -10.523   3.401 -11.209  1.00  0.00    -0.354 N 
ATOM     65  N   UNL     1      -8.554   2.275 -13.077  1.00  0.00    -0.248 NA
ATOM     66  C   UNL     1      -8.015   1.392 -15.172  1.00  0.00     0.031 C 
ATOM     67  C   UNL     1     -12.594   3.736 -11.939  1.00  0.00     0.029 A 
ATOM     68  C   UNL     1     -11.344   3.269 -12.317  1.00  0.00     0.049 A 
ATOM     69  H   UNL     1      -9.573   3.143 -11.177  1.00  0.00     0.167 HD
ATOM     70  C   UNL     1      -9.682   2.306 -13.888  1.00  0.00     0.074 A 
ATOM     71  C   UNL     1      -9.286   1.772 -15.175  1.00  0.00     0.031 C 
ATOM     72  C   UNL     1     -10.933   2.741 -13.594  1.00  0.00     0.037 A 
BRANCH  59  73
ATOM     73  C   UNL     1     -11.604   4.758  -7.781  1.00  0.00     0.058 A 
ATOM     74  C   UNL     1     -11.487   6.078  -7.315  1.00  0.00     0.135 A 
ATOM     75  C   UNL     1     -12.608   3.953  -7.219  1.00  0.00     0.135 A 
ATOM     76  F   UNL     1     -10.535   6.886  -7.808  1.00  0.00    -0.206 F 
ATOM     77  C   UNL     1     -12.302   6.567  -6.300  1.00  0.00     0.059 A 
ATOM     78  C   UNL     1     -13.454   4.431  -6.222  1.00  0.00     0.059 A 
ATOM     79  F   UNL     1     -12.768   2.685  -7.628  1.00  0.00    -0.206 F 
ATOM     80  C   UNL     1     -13.279   5.733  -5.754  1.00  0.00     0.060 A 
BRANCH  80  81
ATOM     81  S   UNL     1     -14.314   6.374  -4.422  1.00  0.00     0.124 S 
ATOM     82  O   UNL     1     -13.393   6.327  -3.290  1.00  0.00    -0.237 OA
ATOM     83  O   UNL     1     -14.657   7.708  -4.903  1.00  0.00    -0.237 OA
ATOM     84  O   UNL     1     -15.423   5.426  -4.369  1.00  0.00    -0.744 OA
ENDBRANCH  80  81
ENDBRANCH  59  73
BRANCH  60  85
ATOM     85  C   UNL     1      -5.209   0.945 -14.446  1.00  0.00     0.058 A 
ATOM     86  C   UNL     1      -4.769   1.704 -15.541  1.00  0.00     0.135 A 
ATOM     87  C   UNL     1      -4.704  -0.356 -14.306  1.00  0.00     0.135 A 
ATOM     88  F   UNL     1      -5.231   2.951 -15.721  1.00  0.00    -0.206 F 
ATOM     89  C   UNL     1      -3.867   1.192 -16.467  1.00  0.00     0.059 A 
ATOM     90  C   UNL     1      -3.784  -0.883 -15.208  1.00  0.00     0.059 A 
ATOM     91  F   UNL     1      -5.082  -1.117 -13.267  1.00  0.00    -0.206 F 
ATOM     92  C   UNL     1      -3.376  -0.103 -16.289  1.00  0.00     0.060 A 
BRANCH  92  93
ATOM     93  S   UNL     1      -2.154  -0.733 -17.462  1.00  0.00     0.124 S 
ATOM     94  O   UNL     1      -2.981  -1.002 -18.632  1.00  0.00    -0.237 OA
ATOM     95  O   UNL     1      -1.230   0.391 -17.577  1.00  0.00    -0.237 OA
ATOM     96  O   UNL     1      -1.616  -1.909 -16.784  1.00  0.00    -0.744 OA
ENDBRANCH  92  93
ENDBRANCH  60  85
BRANCH  72  97
ATOM     97  C   UNL     1     -11.958   2.688 -14.691  1.00  0.00     0.058 A 
ATOM     98  C   UNL     1     -12.536   1.478 -15.103  1.00  0.00     0.135 A 
ATOM     99  C   UNL     1     -12.405   3.871 -15.303  1.00  0.00     0.135 A 
ATOM    100  F   UNL     1     -12.138   0.319 -14.555  1.00  0.00    -0.206 F 
ATOM    101  C   UNL     1     -13.509   1.439 -16.096  1.00  0.00     0.059 A 
ATOM    102  C   UNL     1     -13.394   3.858 -16.281  1.00  0.00     0.059 A 
ATOM    103  F   UNL     1     -11.891   5.056 -14.939  1.00  0.00    -0.206 F 
ATOM    104  C   UNL     1     -13.933   2.635 -16.679  1.00  0.00     0.060 A 
BRANCH 104 105
ATOM    105  S   UNL     1     -15.223   2.577 -17.941  1.00  0.00     0.124 S 
ATOM    106  O   UNL     1     -14.481   2.086 -19.097  1.00  0.00    -0.237 OA
ATOM    107  O   UNL     1     -16.186   1.644 -17.363  1.00  0.00    -0.237 OA
ATOM    108  O   UNL     1     -15.677   3.962 -18.026  1.00  0.00    -0.744 OA
ENDBRANCH 104 105
ENDBRANCH  72  97
ENDBRANCH  46  47
ENDBRANCH  38  41
ENDBRANCH  36  37
ENDBRANCH  35  36
ENDBRANCH  34  35
ENDBRANCH   1  34
TORSDOF 20
