REMARK SMILES CC(C)C[C@H](C(=O)NCCCCNC(=O)c1ccc(-c2c3nc(c(-c4c(F)cc(S(=O)(=O)[O-])cc4F)c4ccc([nH]4)c(-c4c(F)cc(S(=O)(=O)[O-])cc4F)c4nc(c(-c5c(F)cc(S(=O)(=O)[O-])cc5F)c5ccc2[nH]5)C=C4)C=C3)cc1)N1C(=O)/C(=C2\C(=O)Nc3ccc(Br)cc32)SC1=S
REMARK SMILES IDX 11 1 10 2 9 3 8 4 6 5 7 6 5 8 4 9 2 10 1 11 3 12 82 13 83 14
REMARK SMILES IDX 98 15 84 16 85 17 97 18 99 19 86 20 87 21 96 22 88 23 89 24
REMARK SMILES IDX 90 25 95 26 91 28 93 29 92 30 94 31 12 32 13 33 14 34 15 36
REMARK SMILES IDX 16 37 17 38 81 39 18 40 80 41 19 42 20 43 21 44 74 45 22 46
REMARK SMILES IDX 79 47 73 48 75 49 23 50 78 51 72 52 71 53 24 55 58 56 37 57
REMARK SMILES IDX 57 58 38 59 41 60 56 61 76 62 39 63 40 64 55 66 77 67 42 68
REMARK SMILES IDX 25 69 26 70 35 71 27 72 28 73 34 74 36 75 29 76 30 77 31 78
REMARK SMILES IDX 32 79 33 80 59 81 60 82 69 83 61 84 62 85 68 86 70 87 63 88
REMARK SMILES IDX 64 89 65 90 66 91 67 92 43 93 44 94 53 95 45 96 46 97 52 98
REMARK SMILES IDX 54 99 47 100 48 101 49 102 50 103 51 104
REMARK H PARENT 8 7 89 27 13 35 75 54 41 65
REMARK Flexibility Score: inf
ROOT
ATOM      1  C   UNL     1      -2.357  -1.639  -3.454  1.00  0.00     0.023 C 
ENDROOT
BRANCH   1   2
ATOM      2  C   UNL     1      -2.620  -1.441  -1.971  1.00  0.00     0.023 C 
BRANCH   2   3
ATOM      3  C   UNL     1      -1.401  -1.098  -1.129  1.00  0.00     0.116 C 
BRANCH   3   4
ATOM      4  N   UNL     1      -0.908   0.230  -1.446  1.00  0.00    -0.354 N 
ATOM      5  C   UNL     1      -1.153   1.425  -0.832  1.00  0.00     0.243 C 
ATOM      6  O   UNL     1      -0.609   2.428  -1.295  1.00  0.00    -0.273 OA
ATOM      7  H   UNL     1      -0.304   0.276  -2.223  1.00  0.00     0.163 HD
BRANCH   5   8
ATOM      8  C   UNL     1      -2.111   1.497   0.376  1.00  0.00     0.181 C 
BRANCH   8   9
ATOM      9  C   UNL     1      -1.545   2.411   1.495  1.00  0.00     0.038 C 
BRANCH   9  10
ATOM     10  C   UNL     1      -1.862   3.908   1.519  1.00  0.00    -0.015 C 
ATOM     11  C   UNL     1      -3.144   4.164   2.311  1.00  0.00     0.007 C 
ATOM     12  C   UNL     1      -0.710   4.710   2.140  1.00  0.00     0.007 C 
ENDBRANCH   9  10
ENDBRANCH   8   9
BRANCH   8  13
ATOM     13  N   UNL     1      -3.535   1.516  -0.056  1.00  0.00    -0.280 N 
ATOM     14  C   UNL     1      -4.321   0.408   0.279  1.00  0.00     0.267 C 
ATOM     15  C   UNL     1      -4.173   2.445  -0.853  1.00  0.00     0.149 C 
ATOM     16  O   UNL     1      -4.092  -0.345   1.212  1.00  0.00    -0.268 OA
ATOM     17  C   UNL     1      -5.500   0.298  -0.648  1.00  0.00     0.093 C 
ATOM     18  S   UNL     1      -5.814   1.898  -1.204  1.00  0.00    -0.053 SA
ATOM     19  S   UNL     1      -3.645   3.855  -1.557  1.00  0.00    -0.052 S 
ATOM     20  C   UNL     1      -6.099  -0.821  -1.105  1.00  0.00     0.069 C 
ATOM     21  C   UNL     1      -5.749  -2.224  -0.650  1.00  0.00     0.257 C 
ATOM     22  C   UNL     1      -7.133  -0.994  -2.163  1.00  0.00     0.013 A 
ATOM     23  O   UNL     1      -4.891  -2.591   0.128  1.00  0.00    -0.269 OA
ATOM     24  N   UNL     1      -6.583  -3.068  -1.357  1.00  0.00    -0.321 N 
ATOM     25  C   UNL     1      -7.392  -2.369  -2.239  1.00  0.00     0.049 A 
ATOM     26  C   UNL     1      -7.776  -0.150  -3.058  1.00  0.00     0.026 A 
ATOM     27  H   UNL     1      -6.601  -4.046  -1.248  1.00  0.00     0.170 HD
ATOM     28  C   UNL     1      -8.300  -2.934  -3.118  1.00  0.00     0.028 A 
ATOM     29  C   UNL     1      -8.695  -0.702  -3.965  1.00  0.00     0.018 A 
ATOM     30  C   UNL     1      -8.970  -2.077  -3.989  1.00  0.00     0.018 A 
ATOM     31  Br  UNL     1      -9.577   0.433  -5.198  1.00  0.00    -0.051 Br
ENDBRANCH   8  13
ENDBRANCH   5   8
ENDBRANCH   3   4
ENDBRANCH   2   3
ENDBRANCH   1   2
BRANCH   1  32
ATOM     32  C   UNL     1      -1.385  -2.761  -3.757  1.00  0.00     0.116 C 
BRANCH  32  33
ATOM     33  N   UNL     1      -1.826  -4.047  -3.236  1.00  0.00    -0.352 N 
ATOM     34  C   UNL     1      -1.858  -5.264  -3.872  1.00  0.00     0.251 C 
ATOM     35  H   UNL     1      -2.143  -4.044  -2.304  1.00  0.00     0.163 HD
ATOM     36  O   UNL     1      -2.421  -6.218  -3.344  1.00  0.00    -0.269 OA
BRANCH  34  37
ATOM     37  C   UNL     1      -1.237  -5.400  -5.206  1.00  0.00     0.039 A 
ATOM     38  C   UNL     1      -1.889  -6.150  -6.186  1.00  0.00     0.014 A 
ATOM     39  C   UNL     1      -0.028  -4.763  -5.497  1.00  0.00     0.014 A 
ATOM     40  C   UNL     1      -1.342  -6.226  -7.467  1.00  0.00     0.010 A 
ATOM     41  C   UNL     1       0.443  -4.734  -6.801  1.00  0.00     0.010 A 
ATOM     42  C   UNL     1      -0.184  -5.500  -7.791  1.00  0.00    -0.014 A 
BRANCH  42  43
ATOM     43  C   UNL     1       0.430  -5.588  -9.139  1.00  0.00     0.031 A 
ATOM     44  C   UNL     1       1.829  -6.130  -9.284  1.00  0.00     0.074 A 
ATOM     45  C   UNL     1      -0.252  -5.155 -10.217  1.00  0.00     0.049 A 
ATOM     46  N   UNL     1       2.547  -6.283 -10.367  1.00  0.00    -0.248 NA
ATOM     47  C   UNL     1       2.530  -6.519  -8.048  1.00  0.00     0.031 C 
ATOM     48  C   UNL     1      -1.589  -4.559 -10.193  1.00  0.00     0.029 A 
ATOM     49  N   UNL     1       0.086  -5.155 -11.546  1.00  0.00    -0.354 N 
ATOM     50  C   UNL     1       3.780  -6.763  -9.938  1.00  0.00     0.074 A 
ATOM     51  C   UNL     1       3.741  -6.806  -8.495  1.00  0.00     0.031 C 
ATOM     52  C   UNL     1      -1.976  -4.295 -11.451  1.00  0.00     0.029 A 
ATOM     53  C   UNL     1      -0.903  -4.665 -12.367  1.00  0.00     0.049 A 
ATOM     54  H   UNL     1       0.954  -5.476 -11.881  1.00  0.00     0.167 HD
ATOM     55  C   UNL     1       4.837  -7.167 -10.680  1.00  0.00     0.037 A 
ATOM     56  C   UNL     1      -0.939  -4.539 -13.708  1.00  0.00     0.037 A 
ATOM     57  C   UNL     1       4.851  -7.153 -12.119  1.00  0.00     0.049 A 
ATOM     58  C   UNL     1       0.245  -5.006 -14.513  1.00  0.00     0.074 A 
ATOM     59  C   UNL     1       5.843  -7.598 -12.973  1.00  0.00     0.029 A 
ATOM     60  N   UNL     1       3.825  -6.665 -12.915  1.00  0.00    -0.354 N 
ATOM     61  N   UNL     1       1.375  -5.527 -14.097  1.00  0.00    -0.248 NA
ATOM     62  C   UNL     1       0.141  -4.882 -15.973  1.00  0.00     0.031 C 
ATOM     63  C   UNL     1       5.442  -7.324 -14.285  1.00  0.00     0.029 A 
ATOM     64  C   UNL     1       4.169  -6.777 -14.251  1.00  0.00     0.049 A 
ATOM     65  H   UNL     1       2.977  -6.294 -12.579  1.00  0.00     0.167 HD
ATOM     66  C   UNL     1       2.098  -5.836 -15.245  1.00  0.00     0.074 A 
ATOM     67  C   UNL     1       1.272  -5.448 -16.370  1.00  0.00     0.031 C 
ATOM     68  C   UNL     1       3.328  -6.398 -15.359  1.00  0.00     0.037 A 
BRANCH  55  69
ATOM     69  C   UNL     1       6.061  -7.654  -9.950  1.00  0.00     0.058 A 
ATOM     70  C   UNL     1       6.059  -8.842  -9.201  1.00  0.00     0.135 A 
ATOM     71  C   UNL     1       7.262  -6.929 -10.017  1.00  0.00     0.135 A 
ATOM     72  F   UNL     1       4.934  -9.567  -9.083  1.00  0.00    -0.206 F 
ATOM     73  C   UNL     1       7.190  -9.276  -8.518  1.00  0.00     0.059 A 
ATOM     74  C   UNL     1       8.416  -7.363  -9.372  1.00  0.00     0.059 A 
ATOM     75  F   UNL     1       7.324  -5.784 -10.715  1.00  0.00    -0.206 F 
ATOM     76  C   UNL     1       8.366  -8.530  -8.611  1.00  0.00     0.060 A 
BRANCH  76  77
ATOM     77  S   UNL     1       9.827  -9.111  -7.725  1.00  0.00     0.124 S 
ATOM     78  O   UNL     1       9.451  -8.845  -6.339  1.00  0.00    -0.237 OA
ATOM     79  O   UNL     1       9.883 -10.518  -8.107  1.00  0.00    -0.237 OA
ATOM     80  O   UNL     1      10.900  -8.276  -8.254  1.00  0.00    -0.744 OA
ENDBRANCH  76  77
ENDBRANCH  55  69
BRANCH  56  81
ATOM     81  C   UNL     1      -2.152  -3.993 -14.375  1.00  0.00     0.058 A 
ATOM     82  C   UNL     1      -2.970  -4.812 -15.169  1.00  0.00     0.135 A 
ATOM     83  C   UNL     1      -2.522  -2.647 -14.232  1.00  0.00     0.135 A 
ATOM     84  F   UNL     1      -2.659  -6.106 -15.340  1.00  0.00    -0.206 F 
ATOM     85  C   UNL     1      -4.095  -4.314 -15.817  1.00  0.00     0.059 A 
ATOM     86  C   UNL     1      -3.660  -2.131 -14.845  1.00  0.00     0.059 A 
ATOM     87  F   UNL     1      -1.786  -1.825 -13.468  1.00  0.00    -0.206 F 
ATOM     88  C   UNL     1      -4.434  -2.970 -15.646  1.00  0.00     0.060 A 
BRANCH  88  89
ATOM     89  S   UNL     1      -5.919  -2.344 -16.459  1.00  0.00     0.124 S 
ATOM     90  O   UNL     1      -5.510  -2.341 -17.859  1.00  0.00    -0.237 OA
ATOM     91  O   UNL     1      -6.915  -3.344 -16.086  1.00  0.00    -0.237 OA
ATOM     92  O   UNL     1      -6.104  -1.029 -15.853  1.00  0.00    -0.744 OA
ENDBRANCH  88  89
ENDBRANCH  56  81
BRANCH  68  93
ATOM     93  C   UNL     1       3.829  -6.691 -16.748  1.00  0.00     0.058 A 
ATOM     94  C   UNL     1       4.188  -5.674 -17.646  1.00  0.00     0.135 A 
ATOM     95  C   UNL     1       3.979  -8.022 -17.172  1.00  0.00     0.135 A 
ATOM     96  F   UNL     1       4.065  -4.385 -17.292  1.00  0.00    -0.206 F 
ATOM     97  C   UNL     1       4.634  -5.965 -18.931  1.00  0.00     0.059 A 
ATOM     98  C   UNL     1       4.459  -8.337 -18.439  1.00  0.00     0.059 A 
ATOM     99  F   UNL     1       3.667  -9.036 -16.349  1.00  0.00    -0.206 F 
ATOM    100  C   UNL     1       4.764  -7.300 -19.319  1.00  0.00     0.060 A 
BRANCH 100 101
ATOM    101  S   UNL     1       5.345  -7.665 -20.988  1.00  0.00     0.124 S 
ATOM    102  O   UNL     1       4.180  -7.303 -21.789  1.00  0.00    -0.237 OA
ATOM    103  O   UNL     1       6.501  -6.784 -21.115  1.00  0.00    -0.237 OA
ATOM    104  O   UNL     1       5.653  -9.091 -20.937  1.00  0.00    -0.744 OA
ENDBRANCH 100 101
ENDBRANCH  68  93
ENDBRANCH  42  43
ENDBRANCH  34  37
ENDBRANCH  32  33
ENDBRANCH   1  32
TORSDOF 17
