REMARK SMILES CCN(CCC(=O)NCCCCNC(=O)c1ccc(-c2c3nc(c(-c4c(F)cc(S(=O)(=O)[O-])cc4F)c4ccc([nH]4)c(-c4c(F)cc(S(=O)(=O)[O-])cc4F)c4nc(c(-c5c(F)cc(S(=O)(=O)[O-])cc5F)c5ccc2[nH]5)C=C4)C=C3)cc1)C(=O)N(C)CCc1cccs1
REMARK SMILES IDX 6 1 7 2 8 3 5 5 4 6 3 7 2 8 1 9 82 10 83 11 84 12 85 13
REMARK SMILES IDX 86 14 87 15 88 16 89 17 92 18 90 19 91 20 9 21 10 22 11 23
REMARK SMILES IDX 12 24 13 25 14 26 15 28 16 29 17 30 81 31 18 32 80 33 19 34
REMARK SMILES IDX 20 35 21 36 74 37 22 38 79 39 73 40 75 41 23 42 78 43 72 44
REMARK SMILES IDX 71 45 24 47 58 48 37 49 57 50 38 51 41 52 56 53 76 54 39 55
REMARK SMILES IDX 40 56 55 58 77 59 42 60 25 61 26 62 35 63 27 64 28 65 34 66
REMARK SMILES IDX 36 67 29 68 30 69 31 70 32 71 33 72 59 73 60 74 69 75 61 76
REMARK SMILES IDX 62 77 68 78 70 79 63 80 64 81 65 82 66 83 67 84 43 85 44 86
REMARK SMILES IDX 53 87 45 88 46 89 52 90 54 91 47 92 48 93 49 94 50 95 51 96
REMARK H PARENT 8 4 13 27 75 46 41 57
REMARK Flexibility Score: inf
ROOT
ATOM      1  C   UNL     1       0.932  -2.420   4.028  1.00  0.00     0.221 C 
ATOM      2  O   UNL     1       1.162  -2.941   5.125  1.00  0.00    -0.275 OA
ATOM      3  N   UNL     1       1.906  -2.428   3.074  1.00  0.00    -0.356 N 
ATOM      4  H   UNL     1       2.739  -2.840   3.398  1.00  0.00     0.163 HD
ENDROOT
BRANCH   1   5
ATOM      5  C   UNL     1      -0.392  -1.788   3.761  1.00  0.00     0.121 C 
BRANCH   5   6
ATOM      6  C   UNL     1      -0.327  -0.294   3.990  1.00  0.00     0.131 C 
BRANCH   6   7
ATOM      7  N   UNL     1       0.534   0.419   3.042  1.00  0.00    -0.324 N 
BRANCH   7   8
ATOM      8  C   UNL     1      -0.171   0.715   1.761  1.00  0.00     0.118 C 
ATOM      9  C   UNL     1       0.470   1.377   0.548  1.00  0.00     0.027 C 
ENDBRANCH   7   8
BRANCH   7  10
ATOM     10  C   UNL     1       1.899   0.706   3.316  1.00  0.00     0.319 C 
ATOM     11  O   UNL     1       2.508   1.602   2.733  1.00  0.00    -0.248 OA
BRANCH  10  12
ATOM     12  N   UNL     1       2.526  -0.086   4.342  1.00  0.00    -0.327 N 
ATOM     13  C   UNL     1       2.374   0.653   5.600  1.00  0.00     0.148 C 
BRANCH  12  14
ATOM     14  C   UNL     1       3.953  -0.700   4.221  1.00  0.00     0.126 C 
BRANCH  14  15
ATOM     15  C   UNL     1       4.678  -2.184   3.868  1.00  0.00     0.068 C 
BRANCH  15  16
ATOM     16  C   UNL     1       4.560  -3.448   2.859  1.00  0.00     0.006 A 
ATOM     17  C   UNL     1       4.671  -4.801   3.211  1.00  0.00     0.015 A 
ATOM     18  S   UNL     1       4.529  -3.471   1.147  1.00  0.00    -0.149 S 
ATOM     19  C   UNL     1       4.518  -5.744   2.124  1.00  0.00     0.012 A 
ATOM     20  C   UNL     1       4.311  -5.115   0.928  1.00  0.00     0.065 A 
ENDBRANCH  15  16
ENDBRANCH  14  15
ENDBRANCH  12  14
ENDBRANCH  10  12
ENDBRANCH   7  10
ENDBRANCH   6   7
ENDBRANCH   5   6
ENDBRANCH   1   5
BRANCH   3  21
ATOM     21  C   UNL     1       2.019  -1.969   1.675  1.00  0.00     0.116 C 
BRANCH  21  22
ATOM     22  C   UNL     1       3.086  -0.911   1.016  1.00  0.00     0.023 C 
BRANCH  22  23
ATOM     23  C   UNL     1       4.550  -0.283   1.142  1.00  0.00     0.023 C 
BRANCH  23  24
ATOM     24  C   UNL     1       5.920  -0.867   0.722  1.00  0.00     0.116 C 
BRANCH  24  25
ATOM     25  N   UNL     1       5.916  -1.489  -0.587  1.00  0.00    -0.352 N 
ATOM     26  C   UNL     1       6.827  -2.364  -1.160  1.00  0.00     0.251 C 
ATOM     27  H   UNL     1       5.148  -1.255  -1.157  1.00  0.00     0.163 HD
ATOM     28  O   UNL     1       6.590  -2.885  -2.218  1.00  0.00    -0.269 OA
BRANCH  26  29
ATOM     29  C   UNL     1       8.145  -2.572  -0.505  1.00  0.00     0.039 A 
ATOM     30  C   UNL     1       9.266  -2.169  -1.234  1.00  0.00     0.014 A 
ATOM     31  C   UNL     1       8.296  -3.123   0.769  1.00  0.00     0.014 A 
ATOM     32  C   UNL     1      10.526  -2.213  -0.643  1.00  0.00     0.010 A 
ATOM     33  C   UNL     1       9.552  -3.118   1.381  1.00  0.00     0.010 A 
ATOM     34  C   UNL     1      10.669  -2.630   0.690  1.00  0.00    -0.014 A 
BRANCH  34  35
ATOM     35  C   UNL     1      11.981  -2.469   1.364  1.00  0.00     0.031 A 
ATOM     36  C   UNL     1      12.800  -3.665   1.742  1.00  0.00     0.074 A 
ATOM     37  C   UNL     1      12.417  -1.218   1.623  1.00  0.00     0.049 A 
ATOM     38  N   UNL     1      13.993  -3.708   2.275  1.00  0.00    -0.248 NA
ATOM     39  C   UNL     1      12.196  -4.986   1.512  1.00  0.00     0.031 C 
ATOM     40  C   UNL     1      11.660   0.009   1.349  1.00  0.00     0.029 A 
ATOM     41  N   UNL     1      13.595  -0.764   2.156  1.00  0.00    -0.354 N 
ATOM     42  C   UNL     1      14.284  -5.056   2.444  1.00  0.00     0.074 A 
ATOM     43  C   UNL     1      13.121  -5.797   2.006  1.00  0.00     0.031 C 
ATOM     44  C   UNL     1      12.409   1.073   1.678  1.00  0.00     0.029 A 
ATOM     45  C   UNL     1      13.685   0.609   2.208  1.00  0.00     0.049 A 
ATOM     46  H   UNL     1      14.309  -1.363   2.473  1.00  0.00     0.167 HD
ATOM     47  C   UNL     1      15.429  -5.619   2.901  1.00  0.00     0.037 A 
ATOM     48  C   UNL     1      14.692   1.402   2.623  1.00  0.00     0.037 A 
ATOM     49  C   UNL     1      16.580  -4.858   3.313  1.00  0.00     0.049 A 
ATOM     50  C   UNL     1      15.967   0.752   3.085  1.00  0.00     0.074 A 
ATOM     51  C   UNL     1      17.806  -5.320   3.758  1.00  0.00     0.029 A 
ATOM     52  N   UNL     1      16.646  -3.471   3.328  1.00  0.00    -0.354 N 
ATOM     53  N   UNL     1      16.250  -0.527   3.179  1.00  0.00    -0.248 NA
ATOM     54  C   UNL     1      17.064   1.643   3.483  1.00  0.00     0.031 C 
ATOM     55  C   UNL     1      18.602  -4.211   4.071  1.00  0.00     0.029 A 
ATOM     56  C   UNL     1      17.887  -3.059   3.781  1.00  0.00     0.049 A 
ATOM     57  H   UNL     1      15.916  -2.869   3.055  1.00  0.00     0.167 HD
ATOM     58  C   UNL     1      17.561  -0.595   3.630  1.00  0.00     0.074 A 
ATOM     59  C   UNL     1      18.023   0.772   3.772  1.00  0.00     0.031 C 
ATOM     60  C   UNL     1      18.316  -1.687   3.907  1.00  0.00     0.037 A 
BRANCH  47  61
ATOM     61  C   UNL     1      15.486  -7.120   2.971  1.00  0.00     0.058 A 
ATOM     62  C   UNL     1      15.537  -7.910   1.811  1.00  0.00     0.135 A 
ATOM     63  C   UNL     1      15.507  -7.781   4.210  1.00  0.00     0.135 A 
ATOM     64  F   UNL     1      15.505  -7.332   0.599  1.00  0.00    -0.206 F 
ATOM     65  C   UNL     1      15.571  -9.299   1.874  1.00  0.00     0.059 A 
ATOM     66  C   UNL     1      15.568  -9.170   4.298  1.00  0.00     0.059 A 
ATOM     67  F   UNL     1      15.460  -7.078   5.353  1.00  0.00    -0.206 F 
ATOM     68  C   UNL     1      15.583  -9.921   3.123  1.00  0.00     0.060 A 
BRANCH  68  69
ATOM     69  S   UNL     1      15.622 -11.725   3.188  1.00  0.00     0.124 S 
ATOM     70  O   UNL     1      14.258 -12.060   2.791  1.00  0.00    -0.237 OA
ATOM     71  O   UNL     1      16.662 -12.051   2.219  1.00  0.00    -0.237 OA
ATOM     72  O   UNL     1      15.956 -12.008   4.581  1.00  0.00    -0.744 OA
ENDBRANCH  68  69
ENDBRANCH  47  61
BRANCH  48  73
ATOM     73  C   UNL     1      14.542   2.883   2.584  1.00  0.00     0.058 A 
ATOM     74  C   UNL     1      15.254   3.664   1.661  1.00  0.00     0.135 A 
ATOM     75  C   UNL     1      13.658   3.546   3.450  1.00  0.00     0.135 A 
ATOM     76  F   UNL     1      16.114   3.080   0.812  1.00  0.00    -0.206 F 
ATOM     77  C   UNL     1      15.109   5.047   1.608  1.00  0.00     0.059 A 
ATOM     78  C   UNL     1      13.476   4.925   3.400  1.00  0.00     0.059 A 
ATOM     79  F   UNL     1      12.936   2.845   4.339  1.00  0.00    -0.206 F 
ATOM     80  C   UNL     1      14.214   5.670   2.480  1.00  0.00     0.060 A 
BRANCH  80  81
ATOM     81  S   UNL     1      13.993   7.459   2.369  1.00  0.00     0.124 S 
ATOM     82  O   UNL     1      15.233   7.947   2.963  1.00  0.00    -0.237 OA
ATOM     83  O   UNL     1      13.851   7.662   0.930  1.00  0.00    -0.237 OA
ATOM     84  O   UNL     1      12.783   7.697   3.149  1.00  0.00    -0.744 OA
ENDBRANCH  80  81
ENDBRANCH  48  73
BRANCH  60  85
ATOM     85  C   UNL     1      19.723  -1.446   4.373  1.00  0.00     0.058 A 
ATOM     86  C   UNL     1      19.997  -0.988   5.670  1.00  0.00     0.135 A 
ATOM     87  C   UNL     1      20.809  -1.739   3.533  1.00  0.00     0.135 A 
ATOM     88  F   UNL     1      18.992  -0.688   6.508  1.00  0.00    -0.206 F 
ATOM     89  C   UNL     1      21.302  -0.811   6.115  1.00  0.00     0.059 A 
ATOM     90  C   UNL     1      22.123  -1.594   3.965  1.00  0.00     0.059 A 
ATOM     91  F   UNL     1      20.598  -2.189   2.286  1.00  0.00    -0.206 F 
ATOM     92  C   UNL     1      22.359  -1.120   5.255  1.00  0.00     0.060 A 
BRANCH  92  93
ATOM     93  S   UNL     1      24.049  -0.929   5.860  1.00  0.00     0.124 S 
ATOM     94  O   UNL     1      24.211   0.521   5.823  1.00  0.00    -0.237 OA
ATOM     95  O   UNL     1      23.975  -1.525   7.190  1.00  0.00    -0.237 OA
ATOM     96  O   UNL     1      24.843  -1.675   4.889  1.00  0.00    -0.744 OA
ENDBRANCH  92  93
ENDBRANCH  60  85
ENDBRANCH  34  35
ENDBRANCH  26  29
ENDBRANCH  24  25
ENDBRANCH  23  24
ENDBRANCH  22  23
ENDBRANCH  21  22
ENDBRANCH   3  21
TORSDOF 22
