REMARK SMILES CC(C)c1noc(C[N@@H+]2[C@@H](C(=O)NCCCCNC(=O)c3ccc(-c4c5nc(c(-c6c(F)cc(S(=O)(=O)[O-])cc6F)c6ccc([nH]6)c(-c6c(F)cc(S(=O)(=O)[O-])cc6F)c6nc(c(-c7c(F)cc(S(=O)(=O)[O-])cc7F)c7ccc4[nH]7)C=C6)C=C5)cc3)C[C@H]3CCCC[C@@H]32)n1
REMARK SMILES IDX 15 1 14 2 13 3 11 4 12 5 10 7 9 8 93 9 87 11 88 12 92 13
REMARK SMILES IDX 89 14 91 15 90 16 8 17 7 18 4 19 5 20 94 21 6 22 2 23 1 24
REMARK SMILES IDX 3 25 16 26 17 27 18 28 19 29 20 31 21 32 22 33 86 34 23 35
REMARK SMILES IDX 85 36 24 37 25 38 26 39 79 40 27 41 84 42 78 43 80 44 28 45
REMARK SMILES IDX 83 46 77 47 76 48 29 50 63 51 42 52 62 53 43 54 46 55 61 56
REMARK SMILES IDX 81 57 44 58 45 59 60 61 82 62 47 63 30 64 31 65 40 66 32 67
REMARK SMILES IDX 33 68 39 69 41 70 34 71 35 72 36 73 37 74 38 75 64 76 65 77
REMARK SMILES IDX 74 78 66 79 67 80 73 81 75 82 68 83 69 84 70 85 71 86 72 87
REMARK SMILES IDX 48 88 49 89 58 90 50 91 51 92 57 93 59 94 52 95 53 96 54 97
REMARK SMILES IDX 55 98 56 99
REMARK H PARENT 13 6 9 10 18 30 80 49 46 60
REMARK Flexibility Score: inf
ROOT
ATOM      1  C   UNL     1      -7.968   1.436  -0.767  1.00  0.00     0.023 C 
ENDROOT
BRANCH   1   2
ATOM      2  C   UNL     1      -7.132   1.158   0.479  1.00  0.00     0.116 C 
BRANCH   2   3
ATOM      3  N   UNL     1      -7.532  -0.080   1.124  1.00  0.00    -0.351 N 
ATOM      4  C   UNL     1      -6.797  -1.220   1.324  1.00  0.00     0.278 C 
ATOM      5  O   UNL     1      -7.344  -2.173   1.879  1.00  0.00    -0.268 OA
ATOM      6  H   UNL     1      -8.455  -0.103   1.464  1.00  0.00     0.163 HD
BRANCH   4   7
ATOM      7  C   UNL     1      -5.317  -1.207   0.887  1.00  0.00     0.275 C 
ATOM      8  N   UNL     1      -4.747  -2.584   0.862  1.00  0.00    -0.314 N 
ATOM      9  C   UNL     1      -3.965  -2.712   2.098  1.00  0.00     0.188 C 
ATOM     10  H   UNL     1      -5.460  -3.313   0.870  1.00  0.00     0.349 HD
ATOM     11  C   UNL     1      -4.506  -0.401   1.921  1.00  0.00     0.085 C 
ATOM     12  C   UNL     1      -3.365  -1.325   2.298  1.00  0.00     0.054 C 
ATOM     13  C   UNL     1      -2.904  -3.802   2.261  1.00  0.00     0.065 C 
ATOM     14  C   UNL     1      -2.789  -1.176   3.696  1.00  0.00     0.010 C 
ATOM     15  C   UNL     1      -2.168  -3.649   3.602  1.00  0.00     0.006 C 
ATOM     16  C   UNL     1      -1.684  -2.219   3.880  1.00  0.00     0.001 C 
BRANCH   8  17
ATOM     17  C   UNL     1      -4.094  -2.925  -0.417  1.00  0.00     0.364 C 
BRANCH  17  18
ATOM     18  C   UNL     1      -2.838  -2.189  -0.756  1.00  0.00     0.281 A 
ATOM     19  C   UNL     1      -0.900  -1.396  -0.832  1.00  0.00     0.174 A 
ATOM     20  N   UNL     1      -1.663  -0.383  -1.268  1.00  0.00    -0.062 NA
ATOM     21  N   UNL     1      -1.588  -2.552  -0.572  1.00  0.00    -0.191 NA
ATOM     22  O   UNL     1      -2.958  -0.908  -1.214  1.00  0.00    -0.333 OA
BRANCH  19  23
ATOM     23  C   UNL     1       0.580  -1.296  -0.623  1.00  0.00     0.055 C 
ATOM     24  C   UNL     1       1.030   0.111  -0.215  1.00  0.00     0.016 C 
ATOM     25  C   UNL     1       1.074  -2.294   0.433  1.00  0.00     0.016 C 
ENDBRANCH  19  23
ENDBRANCH  17  18
ENDBRANCH   8  17
ENDBRANCH   4   7
ENDBRANCH   2   3
ENDBRANCH   1   2
BRANCH   1  26
ATOM     26  C   UNL     1      -9.434   1.765  -0.482  1.00  0.00     0.023 C 
BRANCH  26  27
ATOM     27  C   UNL     1      -9.664   2.949   0.453  1.00  0.00     0.116 C 
BRANCH  27  28
ATOM     28  N   UNL     1      -9.090   4.188  -0.050  1.00  0.00    -0.352 N 
ATOM     29  C   UNL     1      -9.667   5.432  -0.145  1.00  0.00     0.251 C 
ATOM     30  H   UNL     1      -8.160   4.127  -0.368  1.00  0.00     0.163 HD
ATOM     31  O   UNL     1      -9.079   6.337  -0.731  1.00  0.00    -0.269 OA
BRANCH  29  32
ATOM     32  C   UNL     1     -11.008   5.665   0.432  1.00  0.00     0.039 A 
ATOM     33  C   UNL     1     -11.971   6.320  -0.339  1.00  0.00     0.014 A 
ATOM     34  C   UNL     1     -11.322   5.218   1.719  1.00  0.00     0.014 A 
ATOM     35  C   UNL     1     -13.271   6.461   0.151  1.00  0.00     0.010 A 
ATOM     36  C   UNL     1     -12.635   5.295   2.176  1.00  0.00     0.010 A 
ATOM     37  C   UNL     1     -13.625   5.913   1.396  1.00  0.00    -0.014 A 
BRANCH  37  38
ATOM     38  C   UNL     1     -15.025   5.958   1.890  1.00  0.00     0.031 A 
ATOM     39  C   UNL     1     -15.361   6.706   3.151  1.00  0.00     0.074 A 
ATOM     40  C   UNL     1     -15.980   5.254   1.249  1.00  0.00     0.049 A 
ATOM     41  N   UNL     1     -16.504   6.788   3.783  1.00  0.00    -0.248 NA
ATOM     42  C   UNL     1     -14.261   7.434   3.803  1.00  0.00     0.031 C 
ATOM     43  C   UNL     1     -15.768   4.440   0.049  1.00  0.00     0.029 A 
ATOM     44  N   UNL     1     -17.314   5.091   1.526  1.00  0.00    -0.354 N 
ATOM     45  C   UNL     1     -16.257   7.556   4.914  1.00  0.00     0.074 A 
ATOM     46  C   UNL     1     -14.847   7.877   4.906  1.00  0.00     0.031 C 
ATOM     47  C   UNL     1     -16.930   3.874  -0.310  1.00  0.00     0.029 A 
ATOM     48  C   UNL     1     -17.962   4.250   0.652  1.00  0.00     0.049 A 
ATOM     49  H   UNL     1     -17.765   5.536   2.280  1.00  0.00     0.167 HD
ATOM     50  C   UNL     1     -17.131   7.971   5.863  1.00  0.00     0.037 A 
ATOM     51  C   UNL     1     -19.237   3.814   0.635  1.00  0.00     0.037 A 
ATOM     52  C   UNL     1     -18.539   7.669   5.849  1.00  0.00     0.049 A 
ATOM     53  C   UNL     1     -20.192   4.296   1.692  1.00  0.00     0.074 A 
ATOM     54  C   UNL     1     -19.521   8.113   6.717  1.00  0.00     0.029 A 
ATOM     55  N   UNL     1     -19.164   6.839   4.930  1.00  0.00    -0.354 N 
ATOM     56  N   UNL     1     -19.962   5.095   2.707  1.00  0.00    -0.248 NA
ATOM     57  C   UNL     1     -21.581   3.824   1.601  1.00  0.00     0.031 C 
ATOM     58  C   UNL     1     -20.730   7.511   6.354  1.00  0.00     0.029 A 
ATOM     59  C   UNL     1     -20.513   6.733   5.228  1.00  0.00     0.049 A 
ATOM     60  H   UNL     1     -18.715   6.391   4.177  1.00  0.00     0.167 HD
ATOM     61  C   UNL     1     -21.178   5.234   3.366  1.00  0.00     0.074 A 
ATOM     62  C   UNL     1     -22.145   4.451   2.625  1.00  0.00     0.031 C 
ATOM     63  C   UNL     1     -21.466   5.946   4.484  1.00  0.00     0.037 A 
BRANCH  50  64
ATOM     64  C   UNL     1     -16.587   8.793   7.000  1.00  0.00     0.058 A 
ATOM     65  C   UNL     1     -16.131  10.108   6.812  1.00  0.00     0.135 A 
ATOM     66  C   UNL     1     -16.546   8.268   8.302  1.00  0.00     0.135 A 
ATOM     67  F   UNL     1     -16.136  10.656   5.586  1.00  0.00    -0.206 F 
ATOM     68  C   UNL     1     -15.621  10.859   7.865  1.00  0.00     0.059 A 
ATOM     69  C   UNL     1     -16.067   9.012   9.377  1.00  0.00     0.059 A 
ATOM     70  F   UNL     1     -16.971   7.017   8.541  1.00  0.00    -0.206 F 
ATOM     71  C   UNL     1     -15.590  10.301   9.144  1.00  0.00     0.060 A 
BRANCH  71  72
ATOM     72  S   UNL     1     -14.916  11.286  10.499  1.00  0.00     0.124 S 
ATOM     73  O   UNL     1     -13.487  11.250  10.201  1.00  0.00    -0.237 OA
ATOM     74  O   UNL     1     -15.571  12.576  10.303  1.00  0.00    -0.237 OA
ATOM     75  O   UNL     1     -15.327  10.552  11.691  1.00  0.00    -0.744 OA
ENDBRANCH  71  72
ENDBRANCH  50  64
BRANCH  51  76
ATOM     76  C   UNL     1     -19.680   2.874  -0.429  1.00  0.00     0.058 A 
ATOM     77  C   UNL     1     -20.538   3.294  -1.456  1.00  0.00     0.135 A 
ATOM     78  C   UNL     1     -19.226   1.546  -0.459  1.00  0.00     0.135 A 
ATOM     79  F   UNL     1     -21.005   4.551  -1.466  1.00  0.00    -0.206 F 
ATOM     80  C   UNL     1     -20.937   2.430  -2.471  1.00  0.00     0.059 A 
ATOM     81  C   UNL     1     -19.590   0.670  -1.477  1.00  0.00     0.059 A 
ATOM     82  F   UNL     1     -18.390   1.099   0.492  1.00  0.00    -0.206 F 
ATOM     83  C   UNL     1     -20.452   1.121  -2.476  1.00  0.00     0.060 A 
BRANCH  83  84
ATOM     84  S   UNL     1     -20.921   0.029  -3.836  1.00  0.00     0.124 S 
ATOM     85  O   UNL     1     -22.314  -0.259  -3.515  1.00  0.00    -0.237 OA
ATOM     86  O   UNL     1     -20.696   0.879  -5.002  1.00  0.00    -0.237 OA
ATOM     87  O   UNL     1     -19.996  -1.092  -3.700  1.00  0.00    -0.744 OA
ENDBRANCH  83  84
ENDBRANCH  51  76
BRANCH  63  88
ATOM     88  C   UNL     1     -22.889   5.927   4.971  1.00  0.00     0.058 A 
ATOM     89  C   UNL     1     -23.441   4.794   5.589  1.00  0.00     0.135 A 
ATOM     90  C   UNL     1     -23.690   7.076   4.875  1.00  0.00     0.135 A 
ATOM     91  F   UNL     1     -22.721   3.666   5.699  1.00  0.00    -0.206 F 
ATOM     92  C   UNL     1     -24.743   4.795   6.079  1.00  0.00     0.059 A 
ATOM     93  C   UNL     1     -24.985   7.109   5.382  1.00  0.00     0.059 A 
ATOM     94  F   UNL     1     -23.208   8.191   4.301  1.00  0.00    -0.206 F 
ATOM     95  C   UNL     1     -25.507   5.959   5.974  1.00  0.00     0.060 A 
BRANCH  95  96
ATOM     96  S   UNL     1     -27.180   5.961   6.652  1.00  0.00     0.124 S 
ATOM     97  O   UNL     1     -27.895   5.150   5.672  1.00  0.00    -0.237 OA
ATOM     98  O   UNL     1     -26.986   5.347   7.963  1.00  0.00    -0.237 OA
ATOM     99  O   UNL     1     -27.536   7.376   6.676  1.00  0.00    -0.744 OA
ENDBRANCH  95  96
ENDBRANCH  63  88
ENDBRANCH  37  38
ENDBRANCH  29  32
ENDBRANCH  27  28
ENDBRANCH  26  27
ENDBRANCH   1  26
TORSDOF 17
