REMARK SMILES Cc1ccc(O)c(C(=O)[C@@H]2[C@@H](C(=O)NCCCCNC(=O)c3ccc(-c4c5nc(c(-c6c(F)cc(S(=O)(=O)[O-])cc6F)c6ccc([nH]6)c(-c6c(F)cc(S(=O)(=O)[O-])cc6F)c6nc(c(-c7c(F)cc(S(=O)(=O)[O-])cc7F)c7ccc4[nH]7)C=C6)C=C5)cc3)[C@H]3C=C[C@@H]2C3)c1
REMARK SMILES IDX 16 1 15 2 14 3 12 4 13 5 11 7 10 8 91 9 88 10 90 11 92 12
REMARK SMILES IDX 89 13 8 14 9 15 7 16 1 17 2 18 3 19 93 20 4 21 5 22 6 23
REMARK SMILES IDX 17 25 18 26 19 27 20 28 21 30 22 31 23 32 87 33 24 34 86 35
REMARK SMILES IDX 25 36 26 37 27 38 80 39 28 40 85 41 79 42 81 43 29 44 84 45
REMARK SMILES IDX 78 46 77 47 30 49 64 50 43 51 63 52 44 53 47 54 62 55 82 56
REMARK SMILES IDX 45 57 46 58 61 60 83 61 48 62 31 63 32 64 41 65 33 66 34 67
REMARK SMILES IDX 40 68 42 69 35 70 36 71 37 72 38 73 39 74 65 75 66 76 75 77
REMARK SMILES IDX 67 78 68 79 74 80 76 81 69 82 70 83 71 84 72 85 73 86 49 87
REMARK SMILES IDX 50 88 59 89 51 90 52 91 58 92 60 93 53 94 54 95 55 96 56 97
REMARK SMILES IDX 57 98
REMARK H PARENT 14 6 6 24 19 29 81 48 47 59
REMARK Flexibility Score: inf
ROOT
ATOM      1  C   UNL     1      -0.044  -7.930  -0.859  1.00  0.00     0.023 C 
ENDROOT
BRANCH   1   2
ATOM      2  C   UNL     1      -0.895  -6.809  -0.267  1.00  0.00     0.116 C 
BRANCH   2   3
ATOM      3  N   UNL     1      -0.437  -6.411   1.049  1.00  0.00    -0.356 N 
ATOM      4  C   UNL     1       0.227  -5.335   1.528  1.00  0.00     0.224 C 
ATOM      5  O   UNL     1       0.470  -5.353   2.744  1.00  0.00    -0.275 OA
ATOM      6  H   UNL     1      -0.658  -7.069   1.748  1.00  0.00     0.163 HD
BRANCH   4   7
ATOM      7  C   UNL     1       0.744  -4.149   0.721  1.00  0.00     0.097 C 
ATOM      8  C   UNL     1      -0.163  -3.467  -0.330  1.00  0.00     0.081 C 
ATOM      9  C   UNL     1       0.811  -3.286  -1.533  1.00  0.00     0.024 C 
ATOM     10  C   UNL     1       2.066  -4.421  -0.057  1.00  0.00     0.025 C 
ATOM     11  C   UNL     1       1.079  -4.665  -2.117  1.00  0.00    -0.027 C 
ATOM     12  C   UNL     1       2.199  -3.143  -0.889  1.00  0.00     0.017 C 
ATOM     13  C   UNL     1       1.845  -5.329  -1.235  1.00  0.00    -0.027 C 
BRANCH   8  14
ATOM     14  C   UNL     1      -0.947  -2.247   0.179  1.00  0.00     0.171 C 
ATOM     15  O   UNL     1      -2.130  -2.365   0.518  1.00  0.00    -0.294 OA
BRANCH  14  16
ATOM     16  C   UNL     1      -0.405  -0.868   0.193  1.00  0.00     0.060 A 
ATOM     17  C   UNL     1       2.915   0.880   0.737  1.00  0.00     0.044 C 
ATOM     18  C   UNL     1       1.459   0.667   0.445  1.00  0.00    -0.050 A 
ATOM     19  C   UNL     1       0.668   1.705  -0.054  1.00  0.00     0.007 A 
ATOM     20  C   UNL     1       0.879  -0.590   0.652  1.00  0.00     0.019 A 
ATOM     21  C   UNL     1      -0.672   1.476  -0.370  1.00  0.00     0.047 A 
ATOM     22  C   UNL     1      -1.202   0.192  -0.255  1.00  0.00     0.126 A 
BRANCH  22  23
ATOM     23  O   UNL     1      -2.521   0.038  -0.589  1.00  0.00    -0.507 OA
ATOM     24  H   UNL     1      -3.018   0.775  -0.884  1.00  0.00     0.293 HD
ENDBRANCH  22  23
ENDBRANCH  14  16
ENDBRANCH   8  14
ENDBRANCH   4   7
ENDBRANCH   2   3
ENDBRANCH   1   2
BRANCH   1  25
ATOM     25  C   UNL     1      -0.581  -9.338  -0.642  1.00  0.00     0.023 C 
BRANCH  25  26
ATOM     26  C   UNL     1      -2.000  -9.578  -1.135  1.00  0.00     0.116 C 
BRANCH  26  27
ATOM     27  N   UNL     1      -2.235  -9.184  -2.518  1.00  0.00    -0.352 N 
ATOM     28  C   UNL     1      -3.079  -9.786  -3.431  1.00  0.00     0.251 C 
ATOM     29  H   UNL     1      -1.735  -8.399  -2.838  1.00  0.00     0.163 HD
ATOM     30  O   UNL     1      -3.148  -9.394  -4.581  1.00  0.00    -0.269 OA
BRANCH  28  31
ATOM     31  C   UNL     1      -3.856 -10.958  -2.974  1.00  0.00     0.039 A 
ATOM     32  C   UNL     1      -3.691 -12.175  -3.635  1.00  0.00     0.014 A 
ATOM     33  C   UNL     1      -4.620 -10.872  -1.808  1.00  0.00     0.014 A 
ATOM     34  C   UNL     1      -4.223 -13.335  -3.069  1.00  0.00     0.010 A 
ATOM     35  C   UNL     1      -5.069 -12.037  -1.202  1.00  0.00     0.010 A 
ATOM     36  C   UNL     1      -4.871 -13.281  -1.823  1.00  0.00    -0.014 A 
BRANCH  36  37
ATOM     37  C   UNL     1      -5.353 -14.510  -1.145  1.00  0.00     0.031 A 
ATOM     38  C   UNL     1      -6.820 -14.675  -0.862  1.00  0.00     0.074 A 
ATOM     39  C   UNL     1      -4.467 -15.430  -0.712  1.00  0.00     0.049 A 
ATOM     40  N   UNL     1      -7.432 -15.620  -0.197  1.00  0.00    -0.248 NA
ATOM     41  C   UNL     1      -7.713 -13.615  -1.357  1.00  0.00     0.031 C 
ATOM     42  C   UNL     1      -3.012 -15.349  -0.866  1.00  0.00     0.029 A 
ATOM     43  N   UNL     1      -4.660 -16.611  -0.040  1.00  0.00    -0.354 N 
ATOM     44  C   UNL     1      -8.772 -15.255  -0.173  1.00  0.00     0.074 A 
ATOM     45  C   UNL     1      -8.877 -13.976  -0.838  1.00  0.00     0.031 C 
ATOM     46  C   UNL     1      -2.449 -16.445  -0.330  1.00  0.00     0.029 A 
ATOM     47  C   UNL     1      -3.496 -17.290   0.235  1.00  0.00     0.049 A 
ATOM     48  H   UNL     1      -5.550 -16.942   0.220  1.00  0.00     0.167 HD
ATOM     49  C   UNL     1      -9.826 -15.939   0.332  1.00  0.00     0.037 A 
ATOM     50  C   UNL     1      -3.297 -18.460   0.871  1.00  0.00     0.037 A 
ATOM     51  C   UNL     1      -9.721 -17.233   0.949  1.00  0.00     0.049 A 
ATOM     52  C   UNL     1      -4.488 -19.223   1.387  1.00  0.00     0.074 A 
ATOM     53  C   UNL     1     -10.735 -18.043   1.428  1.00  0.00     0.029 A 
ATOM     54  N   UNL     1      -8.530 -17.911   1.163  1.00  0.00    -0.354 N 
ATOM     55  N   UNL     1      -5.757 -18.894   1.343  1.00  0.00    -0.248 NA
ATOM     56  C   UNL     1      -4.223 -20.517   2.030  1.00  0.00     0.031 C 
ATOM     57  C   UNL     1     -10.153 -19.201   1.958  1.00  0.00     0.029 A 
ATOM     58  C   UNL     1      -8.781 -19.126   1.775  1.00  0.00     0.049 A 
ATOM     59  H   UNL     1      -7.637 -17.576   0.916  1.00  0.00     0.167 HD
ATOM     60  C   UNL     1      -6.444 -19.951   1.929  1.00  0.00     0.074 A 
ATOM     61  C   UNL     1      -5.450 -20.934   2.310  1.00  0.00     0.031 C 
ATOM     62  C   UNL     1      -7.777 -20.095   2.135  1.00  0.00     0.037 A 
BRANCH  49  63
ATOM     63  C   UNL     1     -11.182 -15.301   0.216  1.00  0.00     0.058 A 
ATOM     64  C   UNL     1     -11.831 -15.175  -1.023  1.00  0.00     0.135 A 
ATOM     65  C   UNL     1     -11.847 -14.820   1.356  1.00  0.00     0.135 A 
ATOM     66  F   UNL     1     -11.231 -15.600  -2.146  1.00  0.00    -0.206 F 
ATOM     67  C   UNL     1     -13.074 -14.562  -1.134  1.00  0.00     0.059 A 
ATOM     68  C   UNL     1     -13.104 -14.229   1.272  1.00  0.00     0.059 A 
ATOM     69  F   UNL     1     -11.271 -14.914   2.564  1.00  0.00    -0.206 F 
ATOM     70  C   UNL     1     -13.702 -14.090   0.019  1.00  0.00     0.060 A 
BRANCH  70  71
ATOM     71  S   UNL     1     -15.315 -13.296  -0.140  1.00  0.00     0.124 S 
ATOM     72  O   UNL     1     -14.944 -11.993  -0.684  1.00  0.00    -0.237 OA
ATOM     73  O   UNL     1     -16.015 -14.189  -1.058  1.00  0.00    -0.237 OA
ATOM     74  O   UNL     1     -15.824 -13.284   1.227  1.00  0.00    -0.744 OA
ENDBRANCH  70  71
ENDBRANCH  49  63
BRANCH  50  75
ATOM     75  C   UNL     1      -1.921 -19.002   1.023  1.00  0.00     0.058 A 
ATOM     76  C   UNL     1      -1.498 -20.109   0.272  1.00  0.00     0.135 A 
ATOM     77  C   UNL     1      -0.998 -18.422   1.906  1.00  0.00     0.135 A 
ATOM     78  F   UNL     1      -2.346 -20.702  -0.583  1.00  0.00    -0.206 F 
ATOM     79  C   UNL     1      -0.216 -20.632   0.401  1.00  0.00     0.059 A 
ATOM     80  C   UNL     1       0.297 -18.913   2.038  1.00  0.00     0.059 A 
ATOM     81  F   UNL     1      -1.348 -17.350   2.635  1.00  0.00    -0.206 F 
ATOM     82  C   UNL     1       0.676 -20.026   1.287  1.00  0.00     0.060 A 
BRANCH  82  83
ATOM     83  S   UNL     1       2.356 -20.680   1.410  1.00  0.00     0.124 S 
ATOM     84  O   UNL     1       2.142 -21.893   2.190  1.00  0.00    -0.237 OA
ATOM     85  O   UNL     1       2.714 -20.876   0.009  1.00  0.00    -0.237 OA
ATOM     86  O   UNL     1       3.081 -19.611   2.090  1.00  0.00    -0.744 OA
ENDBRANCH  82  83
ENDBRANCH  50  75
BRANCH  62  87
ATOM     87  C   UNL     1      -8.242 -21.373   2.770  1.00  0.00     0.058 A 
ATOM     88  C   UNL     1      -8.072 -21.617   4.141  1.00  0.00     0.135 A 
ATOM     89  C   UNL     1      -8.920 -22.338   2.008  1.00  0.00     0.135 A 
ATOM     90  F   UNL     1      -7.424 -20.728   4.910  1.00  0.00    -0.206 F 
ATOM     91  C   UNL     1      -8.543 -22.784   4.733  1.00  0.00     0.059 A 
ATOM     92  C   UNL     1      -9.420 -23.501   2.584  1.00  0.00     0.059 A 
ATOM     93  F   UNL     1      -9.118 -22.146   0.694  1.00  0.00    -0.206 F 
ATOM     94  C   UNL     1      -9.217 -23.720   3.946  1.00  0.00     0.060 A 
BRANCH  94  95
ATOM     95  S   UNL     1      -9.860 -25.212   4.732  1.00  0.00     0.124 S 
ATOM     96  O   UNL     1      -8.644 -26.003   4.898  1.00  0.00    -0.237 OA
ATOM     97  O   UNL     1     -10.450 -24.691   5.961  1.00  0.00    -0.237 OA
ATOM     98  O   UNL     1     -10.815 -25.726   3.755  1.00  0.00    -0.744 OA
ENDBRANCH  94  95
ENDBRANCH  62  87
ENDBRANCH  36  37
ENDBRANCH  28  31
ENDBRANCH  26  27
ENDBRANCH  25  26
ENDBRANCH   1  25
TORSDOF 17
