REMARK SMILES Cc1ccc(Cl)c(Nc2ccccc2C(=O)N[C@@H](C)C(=O)NCCCCNC(=O)c2ccc(-c3c4nc(c(-c5c(F)cc(S(=O)(=O)[O-])cc5F)c5ccc([nH]5)c(-c5c(F)cc(S(=O)(=O)[O-])cc5F)c5nc(c(-c6c(F)cc(S(=O)(=O)[O-])cc6F)c6ccc3[nH]6)C=C5)C=C4)cc2)c1Cl
REMARK SMILES IDX 24 1 23 2 22 3 20 4 21 5 18 7 19 8 17 9 15 10 16 11 14 13
REMARK SMILES IDX 9 14 10 15 11 16 13 17 12 18 8 19 7 21 1 22 2 23 3 24 96 25
REMARK SMILES IDX 4 26 97 27 5 28 6 29 25 30 26 31 27 32 28 33 29 35 30 36
REMARK SMILES IDX 31 37 95 38 32 39 94 40 33 41 34 42 35 43 88 44 36 45 93 46
REMARK SMILES IDX 87 47 89 48 37 49 92 50 86 51 85 52 38 54 72 55 51 56 71 57
REMARK SMILES IDX 52 58 55 59 70 60 90 61 53 62 54 63 69 65 91 66 56 67 39 68
REMARK SMILES IDX 40 69 49 70 41 71 42 72 48 73 50 74 43 75 44 76 45 77 46 78
REMARK SMILES IDX 47 79 73 80 74 81 83 82 75 83 76 84 82 85 84 86 77 87 78 88
REMARK SMILES IDX 79 89 80 90 81 91 57 92 58 93 67 94 59 95 60 96 66 97 68 98
REMARK SMILES IDX 61 99 62 100 63 101 64 102 65 103
REMARK H PARENT 22 6 17 12 8 20 27 34 89 53 55 64
REMARK Flexibility Score: inf
ROOT
ATOM      1  C   UNL     1      -0.301   2.457   3.664  1.00  0.00     0.023 C 
ENDROOT
BRANCH   1   2
ATOM      2  C   UNL     1      -1.546   1.616   3.339  1.00  0.00     0.116 C 
BRANCH   2   3
ATOM      3  N   UNL     1      -1.564   1.133   1.973  1.00  0.00    -0.354 N 
ATOM      4  C   UNL     1      -0.654   0.168   1.652  1.00  0.00     0.242 C 
ATOM      5  O   UNL     1       0.468   0.547   1.321  1.00  0.00    -0.273 OA
ATOM      6  H   UNL     1      -2.201   1.484   1.310  1.00  0.00     0.163 HD
BRANCH   4   7
ATOM      7  C   UNL     1      -1.044  -1.323   1.774  1.00  0.00     0.168 C 
ATOM      8  C   UNL     1      -2.361  -1.621   2.473  1.00  0.00     0.041 C 
BRANCH   7   9
ATOM      9  N   UNL     1       0.096  -1.923   2.446  1.00  0.00    -0.340 N 
ATOM     10  C   UNL     1       1.291  -2.307   1.877  1.00  0.00     0.254 C 
ATOM     11  O   UNL     1       2.299  -2.084   2.556  1.00  0.00    -0.269 OA
ATOM     12  H   UNL     1       0.004  -2.070   3.416  1.00  0.00     0.164 HD
BRANCH  10  13
ATOM     13  C   UNL     1       1.408  -3.219   0.691  1.00  0.00     0.063 A 
ATOM     14  C   UNL     1       0.773  -3.202  -0.570  1.00  0.00     0.051 A 
ATOM     15  C   UNL     1       0.993  -4.301  -1.440  1.00  0.00     0.027 A 
ATOM     16  C   UNL     1       1.868  -5.340  -1.131  1.00  0.00     0.002 A 
ATOM     17  C   UNL     1       2.313  -4.279   0.967  1.00  0.00     0.016 A 
ATOM     18  C   UNL     1       2.553  -5.316   0.068  1.00  0.00     0.001 A 
BRANCH  14  19
ATOM     19  N   UNL     1       0.015  -2.168  -1.154  1.00  0.00    -0.352 N 
ATOM     20  H   UNL     1      -0.875  -2.468  -1.452  1.00  0.00     0.167 HD
BRANCH  19  21
ATOM     21  C   UNL     1       0.246  -0.790  -1.409  1.00  0.00     0.077 A 
ATOM     22  C   UNL     1       2.827   2.005  -0.921  1.00  0.00     0.046 C 
ATOM     23  C   UNL     1       1.560   1.285  -1.301  1.00  0.00    -0.030 A 
ATOM     24  C   UNL     1       0.405   2.041  -1.554  1.00  0.00     0.006 A 
ATOM     25  C   UNL     1       1.488  -0.131  -1.292  1.00  0.00     0.069 A 
ATOM     26  C   UNL     1      -0.812   1.410  -1.774  1.00  0.00     0.023 A 
ATOM     27  Cl  UNL     1       2.978  -1.021  -1.203  1.00  0.00    -0.082 Cl
ATOM     28  C   UNL     1      -0.889   0.019  -1.685  1.00  0.00     0.066 A 
ATOM     29  Cl  UNL     1      -2.463  -0.699  -1.861  1.00  0.00    -0.082 Cl
ENDBRANCH  19  21
ENDBRANCH  14  19
ENDBRANCH  10  13
ENDBRANCH   7   9
ENDBRANCH   4   7
ENDBRANCH   2   3
ENDBRANCH   1   2
BRANCH   1  30
ATOM     30  C   UNL     1      -0.135   3.729   2.830  1.00  0.00     0.023 C 
BRANCH  30  31
ATOM     31  C   UNL     1      -1.384   4.597   2.739  1.00  0.00     0.116 C 
BRANCH  31  32
ATOM     32  N   UNL     1      -2.008   4.807   4.037  1.00  0.00    -0.352 N 
ATOM     33  C   UNL     1      -2.442   5.965   4.627  1.00  0.00     0.251 C 
ATOM     34  H   UNL     1      -2.138   3.992   4.574  1.00  0.00     0.163 HD
ATOM     35  O   UNL     1      -2.811   5.959   5.791  1.00  0.00    -0.269 OA
BRANCH  33  36
ATOM     36  C   UNL     1      -2.431   7.213   3.845  1.00  0.00     0.039 A 
ATOM     37  C   UNL     1      -1.870   8.354   4.418  1.00  0.00     0.014 A 
ATOM     38  C   UNL     1      -2.951   7.241   2.549  1.00  0.00     0.014 A 
ATOM     39  C   UNL     1      -1.782   9.523   3.665  1.00  0.00     0.010 A 
ATOM     40  C   UNL     1      -2.792   8.382   1.775  1.00  0.00     0.010 A 
ATOM     41  C   UNL     1      -2.213   9.534   2.329  1.00  0.00    -0.014 A 
BRANCH  41  42
ATOM     42  C   UNL     1      -2.083  10.748   1.491  1.00  0.00     0.031 A 
ATOM     43  C   UNL     1      -3.318  11.425   0.969  1.00  0.00     0.074 A 
ATOM     44  C   UNL     1      -0.857  11.188   1.146  1.00  0.00     0.049 A 
ATOM     45  N   UNL     1      -3.420  12.430   0.140  1.00  0.00    -0.248 NA
ATOM     46  C   UNL     1      -4.612  10.881   1.415  1.00  0.00     0.031 C 
ATOM     47  C   UNL     1       0.409  10.582   1.566  1.00  0.00     0.029 A 
ATOM     48  N   UNL     1      -0.475  12.238   0.352  1.00  0.00    -0.354 N 
ATOM     49  C   UNL     1      -4.782  12.627  -0.048  1.00  0.00     0.074 A 
ATOM     50  C   UNL     1      -5.468  11.604   0.709  1.00  0.00     0.031 C 
ATOM     51  C   UNL     1       1.427  11.281   1.039  1.00  0.00     0.029 A 
ATOM     52  C   UNL     1       0.888  12.354   0.210  1.00  0.00     0.049 A 
ATOM     53  H   UNL     1      -1.115  12.851  -0.076  1.00  0.00     0.167 HD
ATOM     54  C   UNL     1      -5.403  13.590  -0.769  1.00  0.00     0.037 A 
ATOM     55  C   UNL     1       1.618  13.220  -0.519  1.00  0.00     0.037 A 
ATOM     56  C   UNL     1      -4.705  14.616  -1.498  1.00  0.00     0.049 A 
ATOM     57  C   UNL     1       0.905  14.275  -1.321  1.00  0.00     0.074 A 
ATOM     58  C   UNL     1      -5.236  15.670  -2.220  1.00  0.00     0.029 A 
ATOM     59  N   UNL     1      -3.324  14.717  -1.598  1.00  0.00    -0.354 N 
ATOM     60  N   UNL     1      -0.385  14.482  -1.447  1.00  0.00    -0.248 NA
ATOM     61  C   UNL     1       1.742  15.217  -2.074  1.00  0.00     0.031 C 
ATOM     62  C   UNL     1      -4.178  16.378  -2.799  1.00  0.00     0.029 A 
ATOM     63  C   UNL     1      -2.985  15.803  -2.387  1.00  0.00     0.049 A 
ATOM     64  H   UNL     1      -2.680  14.107  -1.171  1.00  0.00     0.167 HD
ATOM     65  C   UNL     1      -0.513  15.600  -2.263  1.00  0.00     0.074 A 
ATOM     66  C   UNL     1       0.831  16.027  -2.598  1.00  0.00     0.031 C 
ATOM     67  C   UNL     1      -1.639  16.221  -2.693  1.00  0.00     0.037 A 
BRANCH  54  68
ATOM     68  C   UNL     1      -6.907  13.578  -0.805  1.00  0.00     0.058 A 
ATOM     69  C   UNL     1      -7.676  13.882   0.330  1.00  0.00     0.135 A 
ATOM     70  C   UNL     1      -7.588  13.289  -1.998  1.00  0.00     0.135 A 
ATOM     71  F   UNL     1      -7.078  14.148   1.502  1.00  0.00    -0.206 F 
ATOM     72  C   UNL     1      -9.067  13.871   0.291  1.00  0.00     0.059 A 
ATOM     73  C   UNL     1      -8.978  13.303  -2.068  1.00  0.00     0.059 A 
ATOM     74  F   UNL     1      -6.904  12.988  -3.113  1.00  0.00    -0.206 F 
ATOM     75  C   UNL     1      -9.709  13.581  -0.914  1.00  0.00     0.060 A 
BRANCH  75  76
ATOM     76  S   UNL     1     -11.513  13.578  -0.949  1.00  0.00     0.124 S 
ATOM     77  O   UNL     1     -11.816  12.362  -0.200  1.00  0.00    -0.237 OA
ATOM     78  O   UNL     1     -11.840  14.832  -0.278  1.00  0.00    -0.237 OA
ATOM     79  O   UNL     1     -11.827  13.531  -2.373  1.00  0.00    -0.744 OA
ENDBRANCH  75  76
ENDBRANCH  54  68
BRANCH  55  80
ATOM     80  C   UNL     1       3.103  13.135  -0.507  1.00  0.00     0.058 A 
ATOM     81  C   UNL     1       3.877  14.127   0.111  1.00  0.00     0.135 A 
ATOM     82  C   UNL     1       3.776  12.054  -1.098  1.00  0.00     0.135 A 
ATOM     83  F   UNL     1       3.280  15.182   0.687  1.00  0.00    -0.206 F 
ATOM     84  C   UNL     1       5.267  14.063   0.127  1.00  0.00     0.059 A 
ATOM     85  C   UNL     1       5.164  11.953  -1.070  1.00  0.00     0.059 A 
ATOM     86  F   UNL     1       3.081  11.068  -1.686  1.00  0.00    -0.206 F 
ATOM     87  C   UNL     1       5.901  12.970  -0.465  1.00  0.00     0.060 A 
BRANCH  87  88
ATOM     88  S   UNL     1       7.704  12.877  -0.402  1.00  0.00     0.124 S 
ATOM     89  O   UNL     1       8.084  13.924  -1.344  1.00  0.00    -0.237 OA
ATOM     90  O   UNL     1       7.974  13.155   1.005  1.00  0.00    -0.237 OA
ATOM     91  O   UNL     1       7.984  11.510  -0.829  1.00  0.00    -0.744 OA
ENDBRANCH  87  88
ENDBRANCH  55  80
BRANCH  67  92
ATOM     92  C   UNL     1      -1.475  17.461  -3.528  1.00  0.00     0.058 A 
ATOM     93  C   UNL     1      -1.038  17.407  -4.860  1.00  0.00     0.135 A 
ATOM     94  C   UNL     1      -1.830  18.715  -3.003  1.00  0.00     0.135 A 
ATOM     95  F   UNL     1      -0.680  16.234  -5.407  1.00  0.00    -0.206 F 
ATOM     96  C   UNL     1      -0.943  18.555  -5.639  1.00  0.00     0.059 A 
ATOM     97  C   UNL     1      -1.771  19.872  -3.773  1.00  0.00     0.059 A 
ATOM     98  F   UNL     1      -2.264  18.820  -1.737  1.00  0.00    -0.206 F 
ATOM     99  C   UNL     1      -1.317  19.783  -5.088  1.00  0.00     0.060 A 
BRANCH  99 100
ATOM    100  S   UNL     1      -1.236  21.257  -6.125  1.00  0.00     0.124 S 
ATOM    101  O   UNL     1       0.203  21.476  -6.214  1.00  0.00    -0.237 OA
ATOM    102  O   UNL     1      -1.887  20.810  -7.353  1.00  0.00    -0.237 OA
ATOM    103  O   UNL     1      -1.977  22.255  -5.359  1.00  0.00    -0.744 OA
ENDBRANCH  99 100
ENDBRANCH  67  92
ENDBRANCH  41  42
ENDBRANCH  33  36
ENDBRANCH  31  32
ENDBRANCH  30  31
ENDBRANCH   1  30
TORSDOF 18
