REMARK SMILES COc1cccc(C(=O)Nc2ccc(NC(=O)[C@@H]3[C@@H](C(=O)NCCCCNC(=O)c4ccc(-c5c6nc(c(-c7c(F)cc(S(=O)(=O)[O-])cc7F)c7ccc([nH]7)c(-c7c(F)cc(S(=O)(=O)[O-])cc7F)c7nc(c(-c8c(F)cc(S(=O)(=O)[O-])cc8F)c8ccc5[nH]8)C=C7)C=C6)cc4)[C@@H]4C=C[C@H]3C4)cc2)c1
REMARK SMILES IDX 23 1 22 2 20 3 21 4 19 6 18 7 99 8 96 9 98 10 100 11 97 12
REMARK SMILES IDX 16 13 15 14 17 16 14 17 11 18 12 19 102 20 13 21 101 22
REMARK SMILES IDX 10 23 8 24 9 25 7 27 3 28 4 29 103 30 5 31 6 32 2 33 1 34
REMARK SMILES IDX 24 35 25 36 26 37 27 38 28 39 29 41 30 42 31 43 95 44 32 45
REMARK SMILES IDX 94 46 33 47 34 48 35 49 88 50 36 51 93 52 87 53 89 54 37 55
REMARK SMILES IDX 92 56 86 57 85 58 38 60 72 61 51 62 71 63 52 64 55 65 70 66
REMARK SMILES IDX 90 67 53 68 54 69 69 71 91 72 56 73 39 74 40 75 49 76 41 77
REMARK SMILES IDX 42 78 48 79 50 80 43 81 44 82 45 83 46 84 47 85 73 86 74 87
REMARK SMILES IDX 83 88 75 89 76 90 82 91 84 92 77 93 78 94 79 95 80 96 81 97
REMARK SMILES IDX 57 98 58 99 67 100 59 101 60 102 66 103 68 104 61 105 62 106
REMARK SMILES IDX 63 107 64 108 65 109
REMARK H PARENT 22 5 15 15 10 26 27 40 89 59 55 70
REMARK Flexibility Score: inf
ROOT
ATOM      1  C   UNL     1       5.673   5.408   1.206  1.00  0.00     0.116 C 
ENDROOT
BRANCH   1   2
ATOM      2  N   UNL     1       5.659   5.055   2.617  1.00  0.00    -0.356 N 
ATOM      3  C   UNL     1       5.712   3.808   3.185  1.00  0.00     0.224 C 
ATOM      4  O   UNL     1       5.746   3.715   4.409  1.00  0.00    -0.275 OA
ATOM      5  H   UNL     1       5.604   5.811   3.246  1.00  0.00     0.163 HD
BRANCH   3   6
ATOM      6  C   UNL     1       5.724   2.603   2.255  1.00  0.00     0.098 C 
ATOM      7  C   UNL     1       5.612   1.214   2.954  1.00  0.00     0.099 C 
ATOM      8  C   UNL     1       6.869   0.458   2.433  1.00  0.00     0.025 C 
ATOM      9  C   UNL     1       7.126   2.514   1.580  1.00  0.00     0.025 C 
ATOM     10  C   UNL     1       6.909   0.333   0.928  1.00  0.00    -0.027 C 
ATOM     11  C   UNL     1       7.895   1.596   2.542  1.00  0.00     0.017 C 
ATOM     12  C   UNL     1       7.046   1.565   0.416  1.00  0.00    -0.027 C 
BRANCH   7  13
ATOM     13  C   UNL     1       4.281   0.444   3.023  1.00  0.00     0.228 C 
ATOM     14  N   UNL     1       3.769  -0.366   2.054  1.00  0.00    -0.326 N 
ATOM     15  H   UNL     1       3.203  -1.093   2.401  1.00  0.00     0.169 HD
ATOM     16  O   UNL     1       3.657   0.434   4.095  1.00  0.00    -0.274 OA
BRANCH  14  17
ATOM     17  C   UNL     1       3.893  -0.361   0.667  1.00  0.00     0.041 A 
ATOM     18  C   UNL     1       4.275  -0.399  -2.087  1.00  0.00     0.041 A 
ATOM     19  C   UNL     1       4.255   0.815  -1.409  1.00  0.00     0.028 A 
ATOM     20  C   UNL     1       4.052  -1.597  -1.411  1.00  0.00     0.028 A 
ATOM     21  C   UNL     1       3.986   0.826  -0.047  1.00  0.00     0.028 A 
ATOM     22  C   UNL     1       3.852  -1.576  -0.026  1.00  0.00     0.028 A 
BRANCH  18  23
ATOM     23  N   UNL     1       4.456  -0.370  -3.467  1.00  0.00    -0.322 N 
ATOM     24  C   UNL     1       3.512  -0.002  -4.408  1.00  0.00     0.255 C 
ATOM     25  O   UNL     1       3.897   0.376  -5.514  1.00  0.00    -0.269 OA
ATOM     26  H   UNL     1       5.341  -0.637  -3.806  1.00  0.00     0.170 HD
BRANCH  24  27
ATOM     27  C   UNL     1       2.047  -0.174  -4.163  1.00  0.00     0.043 A 
ATOM     28  C   UNL     1       0.071  -0.279  -2.746  1.00  0.00     0.119 A 
ATOM     29  C   UNL     1      -0.655  -0.789  -3.821  1.00  0.00     0.046 A 
ATOM     30  C   UNL     1       1.403   0.080  -2.944  1.00  0.00     0.060 A 
ATOM     31  C   UNL     1      -0.060  -0.942  -5.074  1.00  0.00     0.005 A 
ATOM     32  C   UNL     1       1.290  -0.645  -5.241  1.00  0.00     0.014 A 
BRANCH  28  33
ATOM     33  O   UNL     1      -0.619  -0.200  -1.569  1.00  0.00    -0.497 OA
ATOM     34  C   UNL     1       0.069   0.271  -0.413  1.00  0.00     0.278 C 
ENDBRANCH  28  33
ENDBRANCH  24  27
ENDBRANCH  18  23
ENDBRANCH  14  17
ENDBRANCH   7  13
ENDBRANCH   3   6
ENDBRANCH   1   2
BRANCH   1  35
ATOM     35  C   UNL     1       4.978   6.732   0.906  1.00  0.00     0.023 C 
BRANCH  35  36
ATOM     36  C   UNL     1       5.650   7.970   1.500  1.00  0.00     0.023 C 
BRANCH  36  37
ATOM     37  C   UNL     1       7.117   8.167   1.127  1.00  0.00     0.116 C 
BRANCH  37  38
ATOM     38  N   UNL     1       7.322   8.357  -0.301  1.00  0.00    -0.352 N 
ATOM     39  C   UNL     1       7.892   9.415  -0.971  1.00  0.00     0.251 C 
ATOM     40  H   UNL     1       7.006   7.620  -0.873  1.00  0.00     0.163 HD
ATOM     41  O   UNL     1       7.844   9.454  -2.199  1.00  0.00    -0.269 OA
BRANCH  39  42
ATOM     42  C   UNL     1       8.530  10.517  -0.218  1.00  0.00     0.039 A 
ATOM     43  C   UNL     1       8.238  11.837  -0.570  1.00  0.00     0.014 A 
ATOM     44  C   UNL     1       9.399  10.254   0.844  1.00  0.00     0.014 A 
ATOM     45  C   UNL     1       8.749  12.889   0.196  1.00  0.00     0.010 A 
ATOM     46  C   UNL     1       9.839  11.298   1.655  1.00  0.00     0.010 A 
ATOM     47  C   UNL     1       9.515  12.628   1.345  1.00  0.00    -0.014 A 
BRANCH  47  48
ATOM     48  C   UNL     1       9.969  13.727   2.240  1.00  0.00     0.031 A 
ATOM     49  C   UNL     1      11.440  13.971   2.457  1.00  0.00     0.074 A 
ATOM     50  C   UNL     1       9.057  14.460   2.914  1.00  0.00     0.049 A 
ATOM     51  N   UNL     1      12.025  14.825   3.257  1.00  0.00    -0.248 NA
ATOM     52  C   UNL     1      12.377  13.129   1.694  1.00  0.00     0.031 C 
ATOM     53  C   UNL     1       7.604  14.288   2.832  1.00  0.00     0.029 A 
ATOM     54  N   UNL     1       9.215  15.487   3.812  1.00  0.00    -0.354 N 
ATOM     55  C   UNL     1      13.391  14.613   3.108  1.00  0.00     0.074 A 
ATOM     56  C   UNL     1      13.549  13.518   2.176  1.00  0.00     0.031 C 
ATOM     57  C   UNL     1       7.007  15.190   3.628  1.00  0.00     0.029 A 
ATOM     58  C   UNL     1       8.029  15.975   4.312  1.00  0.00     0.049 A 
ATOM     59  H   UNL     1      10.095  15.842   4.073  1.00  0.00     0.167 HD
ATOM     60  C   UNL     1      14.419  15.285   3.678  1.00  0.00     0.037 A 
ATOM     61  C   UNL     1       7.790  16.935   5.227  1.00  0.00     0.037 A 
ATOM     62  C   UNL     1      14.257  16.397   4.578  1.00  0.00     0.049 A 
ATOM     63  C   UNL     1       8.955  17.663   5.847  1.00  0.00     0.074 A 
ATOM     64  C   UNL     1      15.240  17.187   5.150  1.00  0.00     0.029 A 
ATOM     65  N   UNL     1      13.041  16.878   5.038  1.00  0.00    -0.354 N 
ATOM     66  N   UNL     1      10.239  17.499   5.632  1.00  0.00    -0.248 NA
ATOM     67  C   UNL     1       8.640  18.712   6.828  1.00  0.00     0.031 C 
ATOM     68  C   UNL     1      14.621  18.110   5.998  1.00  0.00     0.029 A 
ATOM     69  C   UNL     1      13.249  17.936   5.907  1.00  0.00     0.049 A 
ATOM     70  H   UNL     1      12.159  16.520   4.785  1.00  0.00     0.167 HD
ATOM     71  C   UNL     1      10.881  18.446   6.424  1.00  0.00     0.074 A 
ATOM     72  C   UNL     1       9.845  19.188   7.111  1.00  0.00     0.031 C 
ATOM     73  C   UNL     1      12.208  18.679   6.570  1.00  0.00     0.037 A 
BRANCH  60  74
ATOM     74  C   UNL     1      15.821  14.851   3.345  1.00  0.00     0.058 A 
ATOM     75  C   UNL     1      16.385  15.084   2.081  1.00  0.00     0.135 A 
ATOM     76  C   UNL     1      16.640  14.273   4.330  1.00  0.00     0.135 A 
ATOM     77  F   UNL     1      15.643  15.618   1.097  1.00  0.00    -0.206 F 
ATOM     78  C   UNL     1      17.706  14.752   1.801  1.00  0.00     0.059 A 
ATOM     79  C   UNL     1      17.973  13.959   4.081  1.00  0.00     0.059 A 
ATOM     80  F   UNL     1      16.151  14.026   5.555  1.00  0.00    -0.206 F 
ATOM     81  C   UNL     1      18.495  14.197   2.811  1.00  0.00     0.060 A 
BRANCH  81  82
ATOM     82  S   UNL     1      20.221  13.816   2.442  1.00  0.00     0.124 S 
ATOM     83  O   UNL     1      20.082  12.670   1.548  1.00  0.00    -0.237 OA
ATOM     84  O   UNL     1      20.685  15.052   1.821  1.00  0.00    -0.237 OA
ATOM     85  O   UNL     1      20.793  13.522   3.752  1.00  0.00    -0.744 OA
ENDBRANCH  81  82
ENDBRANCH  60  74
BRANCH  61  86
ATOM     86  C   UNL     1       6.394  17.274   5.621  1.00  0.00     0.058 A 
ATOM     87  C   UNL     1       5.835  18.522   5.308  1.00  0.00     0.135 A 
ATOM     88  C   UNL     1       5.602  16.370   6.347  1.00  0.00     0.135 A 
ATOM     89  F   UNL     1       6.552  19.424   4.621  1.00  0.00    -0.206 F 
ATOM     90  C   UNL     1       4.558  18.878   5.732  1.00  0.00     0.059 A 
ATOM     91  C   UNL     1       4.310  16.691   6.754  1.00  0.00     0.059 A 
ATOM     92  F   UNL     1       6.079  15.154   6.657  1.00  0.00    -0.206 F 
ATOM     93  C   UNL     1       3.805  17.956   6.459  1.00  0.00     0.060 A 
BRANCH  93  94
ATOM     94  S   UNL     1       2.146  18.424   6.998  1.00  0.00     0.124 S 
ATOM     95  O   UNL     1       2.442  19.366   8.071  1.00  0.00    -0.237 OA
ATOM     96  O   UNL     1       1.579  18.997   5.782  1.00  0.00    -0.237 OA
ATOM     97  O   UNL     1       1.559  17.154   7.416  1.00  0.00    -0.744 OA
ENDBRANCH  93  94
ENDBRANCH  61  86
BRANCH  73  98
ATOM     98  C   UNL     1      12.622  19.814   7.468  1.00  0.00     0.058 A 
ATOM     99  C   UNL     1      12.497  19.739   8.864  1.00  0.00     0.135 A 
ATOM    100  C   UNL     1      13.204  20.971   6.923  1.00  0.00     0.135 A 
ATOM    101  F   UNL     1      11.942  18.659   9.436  1.00  0.00    -0.206 F 
ATOM    102  C   UNL     1      12.910  20.783   9.686  1.00  0.00     0.059 A 
ATOM    103  C   UNL     1      13.653  22.012   7.729  1.00  0.00     0.059 A 
ATOM    104  F   UNL     1      13.359  21.089   5.595  1.00  0.00    -0.206 F 
ATOM    105  C   UNL     1      13.490  21.914   9.109  1.00  0.00     0.060 A 
BRANCH 105 106
ATOM    106  S   UNL     1      14.054  23.244  10.191  1.00  0.00     0.124 S 
ATOM    107  O   UNL     1      12.788  23.832  10.619  1.00  0.00    -0.237 OA
ATOM    108  O   UNL     1      14.795  22.519  11.218  1.00  0.00    -0.237 OA
ATOM    109  O   UNL     1      14.867  24.078   9.311  1.00  0.00    -0.744 OA
ENDBRANCH 105 106
ENDBRANCH  73  98
ENDBRANCH  47  48
ENDBRANCH  39  42
ENDBRANCH  37  38
ENDBRANCH  36  37
ENDBRANCH  35  36
ENDBRANCH   1  35
TORSDOF 19
