REMARK SMILES CC[C@H](C)c1ccc(N2C(=O)NC(=O)/C(=C/c3ccc(-c4ccc(C(=O)NCCCCNC(=O)c5ccc(-c6c7nc(c(-c8c(F)cc(S(=O)(=O)[O-])cc8F)c8ccc([nH]8)c(-c8c(F)cc(S(=O)(=O)[O-])cc8F)c8nc(c(-c9c(F)cc(S(=O)(=O)[O-])cc9F)c9ccc6[nH]9)C=C8)C=C7)cc5)cc4)o3)C2=O)cc1
REMARK SMILES IDX 28 1 27 2 25 3 26 4 24 6 21 7 22 8 102 9 23 10 101 11 20 12
REMARK SMILES IDX 17 13 18 14 103 15 19 16 16 17 9 18 10 19 104 20 11 21 12 22
REMARK SMILES IDX 15 23 105 24 13 25 14 27 8 28 5 29 6 30 107 31 7 32 106 33
REMARK SMILES IDX 3 34 4 35 2 36 1 37 29 38 30 39 31 40 32 41 33 42 34 44
REMARK SMILES IDX 35 45 36 46 100 47 37 48 99 49 38 50 39 51 40 52 93 53 41 54
REMARK SMILES IDX 98 55 92 56 94 57 42 58 97 59 91 60 90 61 43 63 77 64 56 65
REMARK SMILES IDX 76 66 57 67 60 68 75 69 95 70 58 71 59 72 74 74 96 75 61 76
REMARK SMILES IDX 44 77 45 78 54 79 46 80 47 81 53 82 55 83 48 84 49 85 50 86
REMARK SMILES IDX 51 87 52 88 78 89 79 90 88 91 80 92 81 93 87 94 89 95 82 96
REMARK SMILES IDX 83 97 84 98 85 99 86 100 62 101 63 102 72 103 64 104 65 105
REMARK SMILES IDX 71 106 73 107 66 108 67 109 68 110 69 111 70 112
REMARK H PARENT 27 5 12 26 32 43 94 62 60 73
REMARK Flexibility Score: inf
ROOT
ATOM      1  C   UNL     1      -9.005   9.937   4.352  1.00  0.00     0.116 C 
ENDROOT
BRANCH   1   2
ATOM      2  N   UNL     1      -7.842  10.781   4.554  1.00  0.00    -0.352 N 
ATOM      3  C   UNL     1      -6.608  10.517   5.097  1.00  0.00     0.251 C 
ATOM      4  O   UNL     1      -5.757  11.406   5.068  1.00  0.00    -0.269 OA
ATOM      5  H   UNL     1      -7.958  11.709   4.246  1.00  0.00     0.163 HD
BRANCH   3   6
ATOM      6  C   UNL     1      -6.243   9.190   5.670  1.00  0.00     0.039 A 
ATOM      7  C   UNL     1      -5.437   6.667   6.627  1.00  0.00     0.017 A 
ATOM      8  C   UNL     1      -4.495   7.541   6.079  1.00  0.00     0.013 A 
ATOM      9  C   UNL     1      -6.763   7.080   6.750  1.00  0.00     0.013 A 
ATOM     10  C   UNL     1      -4.899   8.793   5.596  1.00  0.00     0.014 A 
ATOM     11  C   UNL     1      -7.153   8.342   6.303  1.00  0.00     0.014 A 
BRANCH   7  12
ATOM     12  C   UNL     1      -5.088   5.321   7.021  1.00  0.00     0.134 A 
ATOM     13  C   UNL     1      -4.102   3.847   8.337  1.00  0.00     0.128 A 
ATOM     14  C   UNL     1      -4.832   3.144   7.384  1.00  0.00     0.051 A 
ATOM     15  O   UNL     1      -4.293   5.190   8.115  1.00  0.00    -0.457 OA
ATOM     16  C   UNL     1      -5.453   4.087   6.539  1.00  0.00     0.051 A 
BRANCH  13  17
ATOM     17  C   UNL     1      -3.275   3.331   9.366  1.00  0.00     0.066 C 
ATOM     18  N   UNL     1      -0.382   1.902   7.588  1.00  0.00    -0.228 N 
ATOM     19  C   UNL     1       0.129   1.102   8.606  1.00  0.00     0.335 C 
ATOM     20  C   UNL     1      -1.384   2.859   7.795  1.00  0.00     0.272 C 
ATOM     21  O   UNL     1       1.008   0.248   8.487  1.00  0.00    -0.247 OA
ATOM     22  N   UNL     1      -0.362   1.319   9.867  1.00  0.00    -0.273 N 
ATOM     23  C   UNL     1      -2.054   2.814   9.123  1.00  0.00     0.109 C 
ATOM     24  O   UNL     1      -1.740   3.687   6.959  1.00  0.00    -0.268 OA
ATOM     25  C   UNL     1      -1.405   2.110  10.238  1.00  0.00     0.265 C 
ATOM     26  H   UNL     1       0.097   0.841  10.595  1.00  0.00     0.175 HD
ATOM     27  O   UNL     1      -1.786   2.164  11.401  1.00  0.00    -0.269 OA
BRANCH  18  28
ATOM     28  C   UNL     1       0.131   1.750   6.249  1.00  0.00     0.054 A 
ATOM     29  C   UNL     1       0.775   1.459   3.478  1.00  0.00    -0.045 A 
ATOM     30  C   UNL     1       0.691   2.720   4.082  1.00  0.00     0.006 A 
ATOM     31  C   UNL     1       0.648   0.346   4.325  1.00  0.00     0.006 A 
ATOM     32  C   UNL     1       0.363   2.862   5.433  1.00  0.00     0.027 A 
ATOM     33  C   UNL     1       0.334   0.486   5.687  1.00  0.00     0.027 A 
BRANCH  29  34
ATOM     34  C   UNL     1       1.016   1.325   1.965  1.00  0.00     0.016 C 
ATOM     35  C   UNL     1       0.522  -0.016   1.395  1.00  0.00     0.013 C 
BRANCH  34  36
ATOM     36  C   UNL     1       0.403   2.516   1.171  1.00  0.00     0.004 C 
ATOM     37  C   UNL     1       0.415   2.385  -0.345  1.00  0.00     0.004 C 
ENDBRANCH  34  36
ENDBRANCH  29  34
ENDBRANCH  18  28
ENDBRANCH  13  17
ENDBRANCH   7  12
ENDBRANCH   3   6
ENDBRANCH   1   2
BRANCH   1  38
ATOM     38  C   UNL     1     -10.032  10.136   5.470  1.00  0.00     0.023 C 
BRANCH  38  39
ATOM     39  C   UNL     1     -10.904  11.383   5.320  1.00  0.00     0.023 C 
BRANCH  39  40
ATOM     40  C   UNL     1     -11.825  11.378   4.108  1.00  0.00     0.116 C 
BRANCH  40  41
ATOM     41  N   UNL     1     -12.745  10.251   4.088  1.00  0.00    -0.352 N 
ATOM     42  C   UNL     1     -14.022  10.202   3.578  1.00  0.00     0.251 C 
ATOM     43  H   UNL     1     -12.412   9.417   4.491  1.00  0.00     0.163 HD
ATOM     44  O   UNL     1     -14.710   9.202   3.731  1.00  0.00    -0.269 OA
BRANCH  42  45
ATOM     45  C   UNL     1     -14.563  11.390   2.884  1.00  0.00     0.039 A 
ATOM     46  C   UNL     1     -15.815  11.879   3.265  1.00  0.00     0.014 A 
ATOM     47  C   UNL     1     -13.819  12.041   1.897  1.00  0.00     0.014 A 
ATOM     48  C   UNL     1     -16.291  13.064   2.701  1.00  0.00     0.010 A 
ATOM     49  C   UNL     1     -14.264  13.257   1.387  1.00  0.00     0.010 A 
ATOM     50  C   UNL     1     -15.503  13.780   1.786  1.00  0.00    -0.014 A 
BRANCH  50  51
ATOM     51  C   UNL     1     -15.954  15.084   1.238  1.00  0.00     0.031 A 
ATOM     52  C   UNL     1     -16.234  15.226  -0.232  1.00  0.00     0.074 A 
ATOM     53  C   UNL     1     -16.041  16.153   2.053  1.00  0.00     0.049 A 
ATOM     54  N   UNL     1     -16.566  16.294  -0.909  1.00  0.00    -0.248 NA
ATOM     55  C   UNL     1     -16.093  14.013  -1.054  1.00  0.00     0.031 C 
ATOM     56  C   UNL     1     -15.741  16.152   3.487  1.00  0.00     0.029 A 
ATOM     57  N   UNL     1     -16.395  17.452   1.791  1.00  0.00    -0.354 N 
ATOM     58  C   UNL     1     -16.660  15.888  -2.235  1.00  0.00     0.074 A 
ATOM     59  C   UNL     1     -16.300  14.487  -2.274  1.00  0.00     0.031 C 
ATOM     60  C   UNL     1     -15.942  17.385   3.980  1.00  0.00     0.029 A 
ATOM     61  C   UNL     1     -16.354  18.270   2.895  1.00  0.00     0.049 A 
ATOM     62  H   UNL     1     -16.655  17.769   0.896  1.00  0.00     0.167 HD
ATOM     63  C   UNL     1     -17.034  16.611  -3.317  1.00  0.00     0.037 A 
ATOM     64  C   UNL     1     -16.614  19.586   3.018  1.00  0.00     0.037 A 
ATOM     65  C   UNL     1     -17.419  17.996  -3.266  1.00  0.00     0.049 A 
ATOM     66  C   UNL     1     -17.045  20.364   1.805  1.00  0.00     0.074 A 
ATOM     67  C   UNL     1     -17.874  18.802  -4.295  1.00  0.00     0.029 A 
ATOM     68  N   UNL     1     -17.397  18.782  -2.123  1.00  0.00    -0.354 N 
ATOM     69  N   UNL     1     -17.191  19.949   0.569  1.00  0.00    -0.248 NA
ATOM     70  C   UNL     1     -17.354  21.787   2.002  1.00  0.00     0.031 C 
ATOM     71  C   UNL     1     -18.093  20.085  -3.782  1.00  0.00     0.029 A 
ATOM     72  C   UNL     1     -17.815  20.068  -2.424  1.00  0.00     0.049 A 
ATOM     73  H   UNL     1     -17.123  18.472  -1.230  1.00  0.00     0.167 HD
ATOM     74  C   UNL     1     -17.632  21.052  -0.153  1.00  0.00     0.074 A 
ATOM     75  C   UNL     1     -17.740  22.149   0.786  1.00  0.00     0.031 C 
ATOM     76  C   UNL     1     -17.924  21.146  -1.474  1.00  0.00     0.037 A 
BRANCH  63  77
ATOM     77  C   UNL     1     -17.051  15.910  -4.647  1.00  0.00     0.058 A 
ATOM     78  C   UNL     1     -18.016  14.936  -4.952  1.00  0.00     0.135 A 
ATOM     79  C   UNL     1     -16.109  16.230  -5.638  1.00  0.00     0.135 A 
ATOM     80  F   UNL     1     -18.930  14.580  -4.035  1.00  0.00    -0.206 F 
ATOM     81  C   UNL     1     -18.026  14.280  -6.179  1.00  0.00     0.059 A 
ATOM     82  C   UNL     1     -16.117  15.606  -6.882  1.00  0.00     0.059 A 
ATOM     83  F   UNL     1     -15.164  17.153  -5.399  1.00  0.00    -0.206 F 
ATOM     84  C   UNL     1     -17.070  14.621  -7.137  1.00  0.00     0.060 A 
BRANCH  84  85
ATOM     85  S   UNL     1     -17.094  13.759  -8.723  1.00  0.00     0.124 S 
ATOM     86  O   UNL     1     -16.542  12.459  -8.355  1.00  0.00    -0.237 OA
ATOM     87  O   UNL     1     -18.513  13.770  -9.065  1.00  0.00    -0.237 OA
ATOM     88  O   UNL     1     -16.242  14.586  -9.572  1.00  0.00    -0.744 OA
ENDBRANCH  84  85
ENDBRANCH  63  77
BRANCH  64  89
ATOM     89  C   UNL     1     -16.503  20.243   4.347  1.00  0.00     0.058 A 
ATOM     90  C   UNL     1     -17.650  20.642   5.049  1.00  0.00     0.135 A 
ATOM     91  C   UNL     1     -15.255  20.468   4.949  1.00  0.00     0.135 A 
ATOM     92  F   UNL     1     -18.864  20.453   4.512  1.00  0.00    -0.206 F 
ATOM     93  C   UNL     1     -17.565  21.255   6.295  1.00  0.00     0.059 A 
ATOM     94  C   UNL     1     -15.146  21.058   6.204  1.00  0.00     0.059 A 
ATOM     95  F   UNL     1     -14.130  20.087   4.325  1.00  0.00    -0.206 F 
ATOM     96  C   UNL     1     -16.307  21.457   6.865  1.00  0.00     0.060 A 
BRANCH  96  97
ATOM     97  S   UNL     1     -16.210  22.206   8.506  1.00  0.00     0.124 S 
ATOM     98  O   UNL     1     -16.497  23.604   8.208  1.00  0.00    -0.237 OA
ATOM     99  O   UNL     1     -17.246  21.483   9.236  1.00  0.00    -0.237 OA
ATOM    100  O   UNL     1     -14.841  21.917   8.925  1.00  0.00    -0.744 OA
ENDBRANCH  96  97
ENDBRANCH  64  89
BRANCH  76 101
ATOM    101  C   UNL     1     -18.418  22.473  -1.978  1.00  0.00     0.058 A 
ATOM    102  C   UNL     1     -17.553  23.566  -2.144  1.00  0.00     0.135 A 
ATOM    103  C   UNL     1     -19.762  22.635  -2.348  1.00  0.00     0.135 A 
ATOM    104  F   UNL     1     -16.260  23.463  -1.799  1.00  0.00    -0.206 F 
ATOM    105  C   UNL     1     -18.009  24.782  -2.642  1.00  0.00     0.059 A 
ATOM    106  C   UNL     1     -20.235  23.835  -2.871  1.00  0.00     0.059 A 
ATOM    107  F   UNL     1     -20.627  21.617  -2.218  1.00  0.00    -0.206 F 
ATOM    108  C   UNL     1     -19.352  24.906  -3.004  1.00  0.00     0.060 A 
BRANCH 108 109
ATOM    109  S   UNL     1     -19.926  26.478  -3.683  1.00  0.00     0.124 S 
ATOM    110  O   UNL     1     -20.004  27.304  -2.483  1.00  0.00    -0.237 OA
ATOM    111  O   UNL     1     -18.862  26.822  -4.621  1.00  0.00    -0.237 OA
ATOM    112  O   UNL     1     -21.206  26.136  -4.295  1.00  0.00    -0.744 OA
ENDBRANCH 108 109
ENDBRANCH  76 101
ENDBRANCH  50  51
ENDBRANCH  42  45
ENDBRANCH  40  41
ENDBRANCH  39  40
ENDBRANCH  38  39
ENDBRANCH   1  38
TORSDOF 19
