REMARK SMILES CCOc1cc(C(=O)NCCCCNC(=O)c2ccc(-c3c4nc(c(-c5c(F)cc(S(=O)(=O)[O-])cc5F)c5ccc([nH]5)c(-c5c(F)cc(S(=O)(=O)[O-])cc5F)c5nc(c(-c6c(F)cc(S(=O)(=O)[O-])cc6F)c6ccc3[nH]6)C=C5)C=C4)cc2)c(NC(=O)c2ccccc2OC)cc1OC
REMARK SMILES IDX 11 1 10 2 9 3 7 4 8 5 6 7 4 8 5 9 96 10 95 11 83 12 3 13
REMARK SMILES IDX 2 14 1 15 97 16 98 17 84 18 85 19 86 21 87 22 88 23 92 24
REMARK SMILES IDX 89 25 91 26 90 27 93 28 94 29 12 30 13 31 14 32 15 33 16 35
REMARK SMILES IDX 17 36 18 37 82 38 19 39 81 40 20 41 21 42 22 43 75 44 23 45
REMARK SMILES IDX 80 46 74 47 76 48 24 49 79 50 73 51 72 52 25 54 59 55 38 56
REMARK SMILES IDX 58 57 39 58 42 59 57 60 77 61 40 62 41 63 56 65 78 66 43 67
REMARK SMILES IDX 26 68 27 69 36 70 28 71 29 72 35 73 37 74 30 75 31 76 32 77
REMARK SMILES IDX 33 78 34 79 60 80 61 81 70 82 62 83 63 84 69 85 71 86 64 87
REMARK SMILES IDX 65 88 66 89 67 90 68 91 44 92 45 93 54 94 46 95 47 96 53 97
REMARK SMILES IDX 55 98 48 99 49 100 50 101 51 102 52 103
REMARK H PARENT 9 6 84 20 14 34 76 53 42 64
REMARK Flexibility Score: inf
ROOT
ATOM      1  C   UNL     1       7.378   4.409   4.814  1.00  0.00     0.023 C 
ENDROOT
BRANCH   1   2
ATOM      2  C   UNL     1       6.506   3.228   4.390  1.00  0.00     0.116 C 
BRANCH   2   3
ATOM      3  N   UNL     1       5.513   2.811   5.369  1.00  0.00    -0.352 N 
ATOM      4  C   UNL     1       4.446   1.940   5.234  1.00  0.00     0.253 C 
ATOM      5  O   UNL     1       3.640   1.843   6.158  1.00  0.00    -0.269 OA
ATOM      6  H   UNL     1       5.616   3.209   6.264  1.00  0.00     0.163 HD
BRANCH   4   7
ATOM      7  C   UNL     1       4.181   1.211   3.958  1.00  0.00     0.067 A 
ATOM      8  C   UNL     1       2.508   0.874   2.221  1.00  0.00     0.162 A 
ATOM      9  C   UNL     1       2.834   1.155   3.550  1.00  0.00     0.066 A 
ATOM     10  C   UNL     1       3.522   0.800   1.270  1.00  0.00     0.162 A 
ATOM     11  C   UNL     1       4.842   0.680   1.716  1.00  0.00     0.077 A 
ATOM     12  C   UNL     1       5.163   0.747   3.082  1.00  0.00     0.058 A 
BRANCH   8  13
ATOM     13  O   UNL     1       1.187   0.776   1.879  1.00  0.00    -0.490 OA
BRANCH  13  14
ATOM     14  C   UNL     1       0.736  -0.589   1.889  1.00  0.00     0.226 C 
ATOM     15  C   UNL     1       0.047  -0.903   0.569  1.00  0.00     0.049 C 
ENDBRANCH  13  14
ENDBRANCH   8  13
BRANCH  10  16
ATOM     16  O   UNL     1       3.376   0.757  -0.088  1.00  0.00    -0.493 OA
ATOM     17  C   UNL     1       2.274   1.474  -0.643  1.00  0.00     0.278 C 
ENDBRANCH  10  16
BRANCH  12  18
ATOM     18  N   UNL     1       6.453   0.282   3.417  1.00  0.00    -0.321 N 
ATOM     19  C   UNL     1       6.986  -0.231   4.582  1.00  0.00     0.259 C 
ATOM     20  H   UNL     1       7.099   0.335   2.676  1.00  0.00     0.170 HD
ATOM     21  O   UNL     1       8.197  -0.449   4.624  1.00  0.00    -0.269 OA
BRANCH  19  22
ATOM     22  C   UNL     1       6.177  -0.561   5.771  1.00  0.00     0.082 A 
ATOM     23  C   UNL     1       6.562   0.109   6.951  1.00  0.00     0.018 A 
ATOM     24  C   UNL     1       5.100  -1.455   5.803  1.00  0.00     0.131 A 
ATOM     25  C   UNL     1       5.819  -0.008   8.123  1.00  0.00     0.001 A 
ATOM     26  C   UNL     1       4.365  -1.565   6.996  1.00  0.00     0.047 A 
ATOM     27  C   UNL     1       4.708  -0.838   8.140  1.00  0.00     0.004 A 
BRANCH  24  28
ATOM     28  O   UNL     1       4.598  -2.244   4.806  1.00  0.00    -0.496 OA
ATOM     29  C   UNL     1       5.466  -2.694   3.776  1.00  0.00     0.278 C 
ENDBRANCH  24  28
ENDBRANCH  19  22
ENDBRANCH  12  18
ENDBRANCH   4   7
ENDBRANCH   2   3
ENDBRANCH   1   2
BRANCH   1  30
ATOM     30  C   UNL     1       8.275   4.174   6.034  1.00  0.00     0.023 C 
BRANCH  30  31
ATOM     31  C   UNL     1       9.216   2.971   5.974  1.00  0.00     0.116 C 
BRANCH  31  32
ATOM     32  N   UNL     1      10.236   3.057   4.945  1.00  0.00    -0.352 N 
ATOM     33  C   UNL     1      11.601   3.214   5.038  1.00  0.00     0.251 C 
ATOM     34  H   UNL     1       9.894   2.992   4.024  1.00  0.00     0.163 HD
ATOM     35  O   UNL     1      12.265   3.320   4.016  1.00  0.00    -0.269 OA
BRANCH  33  36
ATOM     36  C   UNL     1      12.267   3.307   6.360  1.00  0.00     0.039 A 
ATOM     37  C   UNL     1      13.187   4.340   6.564  1.00  0.00     0.014 A 
ATOM     38  C   UNL     1      12.016   2.392   7.383  1.00  0.00     0.014 A 
ATOM     39  C   UNL     1      13.783   4.506   7.818  1.00  0.00     0.010 A 
ATOM     40  C   UNL     1      12.552   2.603   8.656  1.00  0.00     0.010 A 
ATOM     41  C   UNL     1      13.435   3.669   8.891  1.00  0.00    -0.014 A 
BRANCH  41  42
ATOM     42  C   UNL     1      13.969   3.920  10.260  1.00  0.00     0.031 A 
ATOM     43  C   UNL     1      14.841   2.902  10.946  1.00  0.00     0.074 A 
ATOM     44  C   UNL     1      13.625   5.051  10.910  1.00  0.00     0.049 A 
ATOM     45  N   UNL     1      15.364   2.937  12.145  1.00  0.00    -0.248 NA
ATOM     46  C   UNL     1      15.148   1.674  10.196  1.00  0.00     0.031 C 
ATOM     47  C   UNL     1      12.746   6.096  10.379  1.00  0.00     0.029 A 
ATOM     48  N   UNL     1      13.964   5.512  12.159  1.00  0.00    -0.354 N 
ATOM     49  C   UNL     1      16.052   1.738  12.298  1.00  0.00     0.074 A 
ATOM     50  C   UNL     1      15.835   0.975  11.088  1.00  0.00     0.031 C 
ATOM     51  C   UNL     1      12.636   7.083  11.283  1.00  0.00     0.029 A 
ATOM     52  C   UNL     1      13.401   6.727  12.474  1.00  0.00     0.049 A 
ATOM     53  H   UNL     1      14.556   5.018  12.771  1.00  0.00     0.167 HD
ATOM     54  C   UNL     1      16.811   1.321  13.340  1.00  0.00     0.037 A 
ATOM     55  C   UNL     1      13.481   7.470  13.596  1.00  0.00     0.037 A 
ATOM     56  C   UNL     1      17.038   2.091  14.537  1.00  0.00     0.049 A 
ATOM     57  C   UNL     1      14.327   6.982  14.742  1.00  0.00     0.074 A 
ATOM     58  C   UNL     1      17.838   1.778  15.622  1.00  0.00     0.029 A 
ATOM     59  N   UNL     1      16.462   3.323  14.812  1.00  0.00    -0.354 N 
ATOM     60  N   UNL     1      15.027   5.877  14.839  1.00  0.00    -0.248 NA
ATOM     61  C   UNL     1      14.402   7.846  15.928  1.00  0.00     0.031 C 
ATOM     62  C   UNL     1      17.704   2.793  16.575  1.00  0.00     0.029 A 
ATOM     63  C   UNL     1      16.869   3.770  16.059  1.00  0.00     0.049 A 
ATOM     64  H   UNL     1      15.853   3.808  14.209  1.00  0.00     0.167 HD
ATOM     65  C   UNL     1      15.648   5.927  16.082  1.00  0.00     0.074 A 
ATOM     66  C   UNL     1      15.251   7.178  16.696  1.00  0.00     0.031 C 
ATOM     67  C   UNL     1      16.473   5.020  16.661  1.00  0.00     0.037 A 
BRANCH  54  68
ATOM     68  C   UNL     1      17.456  -0.036  13.237  1.00  0.00     0.058 A 
ATOM     69  C   UNL     1      18.505  -0.289  12.338  1.00  0.00     0.135 A 
ATOM     70  C   UNL     1      17.053  -1.086  14.079  1.00  0.00     0.135 A 
ATOM     71  F   UNL     1      18.925   0.672  11.500  1.00  0.00    -0.206 F 
ATOM     72  C   UNL     1      19.109  -1.540  12.256  1.00  0.00     0.059 A 
ATOM     73  C   UNL     1      17.664  -2.336  14.036  1.00  0.00     0.059 A 
ATOM     74  F   UNL     1      16.057  -0.901  14.961  1.00  0.00    -0.206 F 
ATOM     75  C   UNL     1      18.682  -2.558  13.110  1.00  0.00     0.060 A 
BRANCH  75  76
ATOM     76  S   UNL     1      19.483  -4.172  12.996  1.00  0.00     0.124 S 
ATOM     77  O   UNL     1      18.960  -4.667  11.726  1.00  0.00    -0.237 OA
ATOM     78  O   UNL     1      20.899  -3.818  13.002  1.00  0.00    -0.237 OA
ATOM     79  O   UNL     1      19.009  -4.873  14.185  1.00  0.00    -0.744 OA
ENDBRANCH  75  76
ENDBRANCH  54  68
BRANCH  55  80
ATOM     80  C   UNL     1      12.752   8.765  13.684  1.00  0.00     0.058 A 
ATOM     81  C   UNL     1      13.443   9.986  13.700  1.00  0.00     0.135 A 
ATOM     82  C   UNL     1      11.351   8.809  13.745  1.00  0.00     0.135 A 
ATOM     83  F   UNL     1      14.784   9.998  13.653  1.00  0.00    -0.206 F 
ATOM     84  C   UNL     1      12.774  11.203  13.790  1.00  0.00     0.059 A 
ATOM     85  C   UNL     1      10.657  10.014  13.806  1.00  0.00     0.059 A 
ATOM     86  F   UNL     1      10.640   7.670  13.716  1.00  0.00    -0.206 F 
ATOM     87  C   UNL     1      11.379  11.206  13.839  1.00  0.00     0.060 A 
BRANCH  87  88
ATOM     88  S   UNL     1      10.519  12.792  13.905  1.00  0.00     0.124 S 
ATOM     89  O   UNL     1      10.805  13.226  15.268  1.00  0.00    -0.237 OA
ATOM     90  O   UNL     1      11.181  13.544  12.844  1.00  0.00    -0.237 OA
ATOM     91  O   UNL     1       9.130  12.432  13.635  1.00  0.00    -0.744 OA
ENDBRANCH  87  88
ENDBRANCH  55  80
BRANCH  67  92
ATOM     92  C   UNL     1      17.039   5.359  18.014  1.00  0.00     0.058 A 
ATOM     93  C   UNL     1      16.245   5.367  19.172  1.00  0.00     0.135 A 
ATOM     94  C   UNL     1      18.409   5.638  18.160  1.00  0.00     0.135 A 
ATOM     95  F   UNL     1      14.929   5.114  19.090  1.00  0.00    -0.206 F 
ATOM     96  C   UNL     1      16.781   5.668  20.420  1.00  0.00     0.059 A 
ATOM     97  C   UNL     1      18.972   5.910  19.403  1.00  0.00     0.059 A 
ATOM     98  F   UNL     1      19.218   5.633  17.089  1.00  0.00    -0.206 F 
ATOM     99  C   UNL     1      18.147   5.937  20.526  1.00  0.00     0.060 A 
BRANCH  99 100
ATOM    100  S   UNL     1      18.834   6.301  22.155  1.00  0.00     0.124 S 
ATOM    101  O   UNL     1      18.322   7.645  22.398  1.00  0.00    -0.237 OA
ATOM    102  O   UNL     1      18.257   5.244  22.981  1.00  0.00    -0.237 OA
ATOM    103  O   UNL     1      20.276   6.207  21.946  1.00  0.00    -0.744 OA
ENDBRANCH  99 100
ENDBRANCH  67  92
ENDBRANCH  41  42
ENDBRANCH  33  36
ENDBRANCH  31  32
ENDBRANCH  30  31
ENDBRANCH   1  30
TORSDOF 20
