REMARK SMILES C[C@H]1CCCN(C(=O)NC[C@H]2CC[C@H](C(=O)NCCCCNC(=O)c3ccc(-c4c5nc(c(-c6c(F)cc(S(=O)(=O)[O-])cc6F)c6ccc([nH]6)c(-c6c(F)cc(S(=O)(=O)[O-])cc6F)c6nc(c(-c7c(F)cc(S(=O)(=O)[O-])cc7F)c7ccc4[nH]7)C=C6)C=C5)cc3)O2)CC1
REMARK SMILES IDX 18 1 17 2 15 3 16 4 14 6 11 7 12 8 91 9 13 10 10 11 9 12
REMARK SMILES IDX 7 13 8 14 6 16 92 17 93 18 2 19 1 20 5 22 4 23 3 24 19 26
REMARK SMILES IDX 20 27 21 28 22 29 23 30 24 32 25 33 26 34 90 35 27 36 89 37
REMARK SMILES IDX 28 38 29 39 30 40 83 41 31 42 88 43 82 44 84 45 32 46 87 47
REMARK SMILES IDX 81 48 80 49 33 51 67 52 46 53 66 54 47 55 50 56 65 57 85 58
REMARK SMILES IDX 48 59 49 60 64 62 86 63 51 64 34 65 35 66 44 67 36 68 37 69
REMARK SMILES IDX 43 70 45 71 38 72 39 73 40 74 41 75 42 76 68 77 69 78 78 79
REMARK SMILES IDX 70 80 71 81 77 82 79 83 72 84 73 85 74 86 75 87 76 88 52 89
REMARK SMILES IDX 53 90 62 91 54 92 55 93 61 94 63 95 56 96 57 97 58 98 59 99
REMARK SMILES IDX 60 100
REMARK H PARENT 17 5 9 15 22 31 84 50 50 61
REMARK Flexibility Score: 90.00
ROOT
ATOM      1  C   UNL     1      -7.159   2.075   2.116  1.00  0.00     0.116 C 
ENDROOT
BRANCH   1   2
ATOM      2  N   UNL     1      -7.900   3.067   2.863  1.00  0.00    -0.354 N 
ATOM      3  C   UNL     1      -7.732   3.515   4.140  1.00  0.00     0.249 C 
ATOM      4  O   UNL     1      -8.518   4.378   4.547  1.00  0.00    -0.272 OA
ATOM      5  H   UNL     1      -8.644   3.486   2.372  1.00  0.00     0.163 HD
BRANCH   3   6
ATOM      6  C   UNL     1      -6.663   2.923   5.089  1.00  0.00     0.207 C 
ATOM      7  C   UNL     1      -4.913   1.385   4.848  1.00  0.00     0.138 C 
ATOM      8  C   UNL     1      -6.154   0.590   5.186  1.00  0.00     0.037 C 
ATOM      9  O   UNL     1      -5.354   2.722   4.549  1.00  0.00    -0.363 OA
ATOM     10  C   UNL     1      -7.123   1.613   5.717  1.00  0.00     0.045 C 
BRANCH   7  11
ATOM     11  C   UNL     1      -3.801   1.403   5.909  1.00  0.00     0.149 C 
BRANCH  11  12
ATOM     12  N   UNL     1      -4.077   2.226   7.077  1.00  0.00    -0.335 N 
ATOM     13  C   UNL     1      -4.412   2.103   8.367  1.00  0.00     0.317 C 
ATOM     14  O   UNL     1      -4.308   3.153   9.013  1.00  0.00    -0.249 OA
ATOM     15  H   UNL     1      -3.987   3.179   6.844  1.00  0.00     0.165 HD
BRANCH  13  16
ATOM     16  N   UNL     1      -4.859   0.947   8.950  1.00  0.00    -0.325 N 
BRANCH  16  17
ATOM     17  C   UNL     1      -5.279   1.055  10.350  1.00  0.00     0.121 C 
BRANCH  17  18
ATOM     18  C   UNL     1      -4.156   0.647  11.302  1.00  0.00     0.025 C 
BRANCH  18  19
ATOM     19  C   UNL     1      -3.926  -0.867  11.433  1.00  0.00    -0.012 CG0
ATOM     20  C   UNL     1      -5.019  -1.524  12.285  1.00  0.00     0.008 C 
ATOM     21  G   UNL     1      -3.729  -1.585  10.087  1.00  0.00     0.000 G0
ENDBRANCH  18  19
ENDBRANCH  17  18
ENDBRANCH  16  17
BRANCH  16  22
ATOM     22  C   UNL     1      -5.099  -0.338   8.315  1.00  0.00     0.121 C 
BRANCH  22  23
ATOM     23  C   UNL     1      -4.954  -1.591   9.178  1.00  0.00     0.022 C 
BRANCH  23  24
ATOM     24  C   UNL     1      -3.729  -1.585  10.087  1.00  0.00     0.005 CG0
ATOM     25  G   UNL     1      -3.926  -0.867  11.433  1.00  0.00     0.000 G0
ENDBRANCH  23  24
ENDBRANCH  22  23
ENDBRANCH  16  22
ENDBRANCH  13  16
ENDBRANCH  11  12
ENDBRANCH   7  11
ENDBRANCH   3   6
ENDBRANCH   1   2
BRANCH   1  26
ATOM     26  C   UNL     1      -7.876   0.725   2.104  1.00  0.00     0.023 C 
BRANCH  26  27
ATOM     27  C   UNL     1      -8.821   0.513   0.924  1.00  0.00     0.023 C 
BRANCH  27  28
ATOM     28  C   UNL     1      -8.148   0.527  -0.443  1.00  0.00     0.116 C 
BRANCH  28  29
ATOM     29  N   UNL     1      -7.079  -0.453  -0.589  1.00  0.00    -0.352 N 
ATOM     30  C   UNL     1      -6.629  -1.033  -1.756  1.00  0.00     0.251 C 
ATOM     31  H   UNL     1      -6.628  -0.734   0.239  1.00  0.00     0.163 HD
ATOM     32  O   UNL     1      -5.766  -1.900  -1.736  1.00  0.00    -0.269 OA
BRANCH  30  33
ATOM     33  C   UNL     1      -7.259  -0.616  -3.025  1.00  0.00     0.039 A 
ATOM     34  C   UNL     1      -7.898  -1.580  -3.806  1.00  0.00     0.014 A 
ATOM     35  C   UNL     1      -7.320   0.738  -3.364  1.00  0.00     0.014 A 
ATOM     36  C   UNL     1      -8.683  -1.172  -4.886  1.00  0.00     0.010 A 
ATOM     37  C   UNL     1      -8.155   1.145  -4.398  1.00  0.00     0.010 A 
ATOM     38  C   UNL     1      -8.857   0.195  -5.156  1.00  0.00    -0.014 A 
BRANCH  38  39
ATOM     39  C   UNL     1      -9.799   0.662  -6.204  1.00  0.00     0.031 A 
ATOM     40  C   UNL     1      -9.280   1.411  -7.398  1.00  0.00     0.074 A 
ATOM     41  C   UNL     1     -11.125   0.498  -6.026  1.00  0.00     0.049 A 
ATOM     42  N   UNL     1      -9.947   1.995  -8.358  1.00  0.00    -0.248 NA
ATOM     43  C   UNL     1      -7.819   1.549  -7.510  1.00  0.00     0.031 C 
ATOM     44  C   UNL     1     -11.752  -0.158  -4.875  1.00  0.00     0.029 A 
ATOM     45  N   UNL     1     -12.187   0.887  -6.802  1.00  0.00    -0.354 N 
ATOM     46  C   UNL     1      -8.993   2.588  -9.174  1.00  0.00     0.074 A 
ATOM     47  C   UNL     1      -7.702   2.328  -8.575  1.00  0.00     0.031 C 
ATOM     48  C   UNL     1     -13.086  -0.135  -5.027  1.00  0.00     0.029 A 
ATOM     49  C   UNL     1     -13.412   0.564  -6.266  1.00  0.00     0.049 A 
ATOM     50  H   UNL     1     -12.083   1.354  -7.662  1.00  0.00     0.167 HD
ATOM     51  C   UNL     1      -9.176   3.269 -10.330  1.00  0.00     0.037 A 
ATOM     52  C   UNL     1     -14.657   0.812  -6.717  1.00  0.00     0.037 A 
ATOM     53  C   UNL     1     -10.459   3.489 -10.941  1.00  0.00     0.049 A 
ATOM     54  C   UNL     1     -14.832   1.548  -8.017  1.00  0.00     0.074 A 
ATOM     55  C   UNL     1     -10.742   4.094 -12.153  1.00  0.00     0.029 A 
ATOM     56  N   UNL     1     -11.674   3.109 -10.390  1.00  0.00    -0.354 N 
ATOM     57  N   UNL     1     -13.914   2.038  -8.815  1.00  0.00    -0.248 NA
ATOM     58  C   UNL     1     -16.210   1.763  -8.480  1.00  0.00     0.031 C 
ATOM     59  C   UNL     1     -12.131   4.107 -12.321  1.00  0.00     0.029 A 
ATOM     60  C   UNL     1     -12.710   3.482 -11.228  1.00  0.00     0.049 A 
ATOM     61  H   UNL     1     -11.783   2.643  -9.529  1.00  0.00     0.167 HD
ATOM     62  C   UNL     1     -14.601   2.604  -9.882  1.00  0.00     0.074 A 
ATOM     63  C   UNL     1     -16.012   2.385  -9.635  1.00  0.00     0.031 C 
ATOM     64  C   UNL     1     -14.108   3.248 -10.968  1.00  0.00     0.037 A 
BRANCH  51  65
ATOM     65  C   UNL     1      -7.956   3.814 -11.014  1.00  0.00     0.058 A 
ATOM     66  C   UNL     1      -7.051   2.972 -11.679  1.00  0.00     0.135 A 
ATOM     67  C   UNL     1      -7.704   5.195 -11.034  1.00  0.00     0.135 A 
ATOM     68  F   UNL     1      -7.237   1.642 -11.674  1.00  0.00    -0.206 F 
ATOM     69  C   UNL     1      -5.924   3.477 -12.318  1.00  0.00     0.059 A 
ATOM     70  C   UNL     1      -6.595   5.724 -11.688  1.00  0.00     0.059 A 
ATOM     71  F   UNL     1      -8.538   6.043 -10.411  1.00  0.00    -0.206 F 
ATOM     72  C   UNL     1      -5.703   4.855 -12.315  1.00  0.00     0.060 A 
BRANCH  72  73
ATOM     73  S   UNL     1      -4.240   5.497 -13.154  1.00  0.00     0.124 S 
ATOM     74  O   UNL     1      -3.188   5.159 -12.200  1.00  0.00    -0.237 OA
ATOM     75  O   UNL     1      -4.232   4.736 -14.399  1.00  0.00    -0.237 OA
ATOM     76  O   UNL     1      -4.526   6.920 -13.294  1.00  0.00    -0.744 OA
ENDBRANCH  72  73
ENDBRANCH  51  65
BRANCH  52  77
ATOM     77  C   UNL     1     -15.835   0.348  -5.941  1.00  0.00     0.058 A 
ATOM     78  C   UNL     1     -16.608  -0.735  -6.386  1.00  0.00     0.135 A 
ATOM     79  C   UNL     1     -16.206   0.965  -4.737  1.00  0.00     0.135 A 
ATOM     80  F   UNL     1     -16.295  -1.353  -7.535  1.00  0.00    -0.206 F 
ATOM     81  C   UNL     1     -17.716  -1.181  -5.674  1.00  0.00     0.059 A 
ATOM     82  C   UNL     1     -17.298   0.525  -3.996  1.00  0.00     0.059 A 
ATOM     83  F   UNL     1     -15.488   1.994  -4.260  1.00  0.00    -0.206 F 
ATOM     84  C   UNL     1     -18.053  -0.544  -4.479  1.00  0.00     0.060 A 
BRANCH  84  85
ATOM     85  S   UNL     1     -19.463  -1.161  -3.533  1.00  0.00     0.124 S 
ATOM     86  O   UNL     1     -20.584  -0.620  -4.291  1.00  0.00    -0.237 OA
ATOM     87  O   UNL     1     -19.278  -2.607  -3.610  1.00  0.00    -0.237 OA
ATOM     88  O   UNL     1     -19.255  -0.582  -2.209  1.00  0.00    -0.744 OA
ENDBRANCH  84  85
ENDBRANCH  52  77
BRANCH  64  89
ATOM     89  C   UNL     1     -15.096   3.747 -11.982  1.00  0.00     0.058 A 
ATOM     90  C   UNL     1     -15.859   4.901 -11.753  1.00  0.00     0.135 A 
ATOM     91  C   UNL     1     -15.231   3.101 -13.221  1.00  0.00     0.135 A 
ATOM     92  F   UNL     1     -15.771   5.548 -10.581  1.00  0.00    -0.206 F 
ATOM     93  C   UNL     1     -16.733   5.394 -12.716  1.00  0.00     0.059 A 
ATOM     94  C   UNL     1     -16.083   3.588 -14.207  1.00  0.00     0.059 A 
ATOM     95  F   UNL     1     -14.516   1.997 -13.490  1.00  0.00    -0.206 F 
ATOM     96  C   UNL     1     -16.836   4.732 -13.942  1.00  0.00     0.060 A 
BRANCH  96  97
ATOM     97  S   UNL     1     -17.934   5.409 -15.205  1.00  0.00     0.124 S 
ATOM     98  O   UNL     1     -19.241   4.989 -14.712  1.00  0.00    -0.237 OA
ATOM     99  O   UNL     1     -17.658   6.841 -15.128  1.00  0.00    -0.237 OA
ATOM    100  O   UNL     1     -17.483   4.756 -16.430  1.00  0.00    -0.744 OA
ENDBRANCH  96  97
ENDBRANCH  64  89
ENDBRANCH  38  39
ENDBRANCH  30  33
ENDBRANCH  28  29
ENDBRANCH  27  28
ENDBRANCH  26  27
ENDBRANCH   1  26
TORSDOF 17
