REMARK SMILES Cc1ccc(-c2cc([C@@H](C)C(=O)NCCCCNC(=O)c3ccc(-c4c5nc(c(-c6c(F)cc(S(=O)(=O)[O-])cc6F)c6ccc([nH]6)c(-c6c(F)cc(S(=O)(=O)[O-])cc6F)c6nc(c(-c7c(F)cc(S(=O)(=O)[O-])cc7F)c7ccc4[nH]7)C=C6)C=C5)cc3)ccc2C[C@H]2CCCC2=O)cc1
REMARK SMILES IDX 15 1 14 2 13 3 11 4 12 5 9 7 10 8 8 9 6 10 7 11 89 12 88 13
REMARK SMILES IDX 87 14 5 15 1 16 2 17 3 18 98 19 4 20 97 21 90 22 91 23 92 24
REMARK SMILES IDX 95 25 93 26 94 27 96 28 16 29 17 30 18 31 19 32 20 34 21 35
REMARK SMILES IDX 22 36 86 37 23 38 85 39 24 40 25 41 26 42 79 43 27 44 84 45
REMARK SMILES IDX 78 46 80 47 28 48 83 49 77 50 76 51 29 53 63 54 42 55 62 56
REMARK SMILES IDX 43 57 46 58 61 59 81 60 44 61 45 62 60 64 82 65 47 66 30 67
REMARK SMILES IDX 31 68 40 69 32 70 33 71 39 72 41 73 34 74 35 75 36 76 37 77
REMARK SMILES IDX 38 78 64 79 65 80 74 81 66 82 67 83 73 84 75 85 68 86 69 87
REMARK SMILES IDX 70 88 71 89 72 90 48 91 49 92 58 93 50 94 51 95 57 96 59 97
REMARK SMILES IDX 52 98 53 99 54 100 55 101 56 102
REMARK H PARENT 13 6 18 33 80 52 46 63
REMARK Flexibility Score: inf
ROOT
ATOM      1  C   UNL     1      -8.127   0.806   1.081  1.00  0.00     0.023 C 
ENDROOT
BRANCH   1   2
ATOM      2  C   UNL     1      -8.568   1.043  -0.371  1.00  0.00     0.116 C 
BRANCH   2   3
ATOM      3  N   UNL     1      -7.835   2.136  -0.994  1.00  0.00    -0.356 N 
ATOM      4  C   UNL     1      -6.714   2.167  -1.763  1.00  0.00     0.227 C 
ATOM      5  O   UNL     1      -6.274   3.290  -2.047  1.00  0.00    -0.274 OA
ATOM      6  H   UNL     1      -8.227   3.023  -0.826  1.00  0.00     0.163 HD
BRANCH   4   7
ATOM      7  C   UNL     1      -5.998   0.916  -2.297  1.00  0.00     0.105 C 
ATOM      8  C   UNL     1      -6.862   0.062  -3.224  1.00  0.00     0.023 C 
BRANCH   7   9
ATOM      9  C   UNL     1      -5.204   0.167  -1.238  1.00  0.00    -0.035 A 
ATOM     10  C   UNL     1      -3.090  -0.119  -0.003  1.00  0.00    -0.015 A 
ATOM     11  C   UNL     1      -3.850   0.483  -1.028  1.00  0.00     0.013 A 
ATOM     12  C   UNL     1      -3.754  -0.947   0.931  1.00  0.00    -0.039 A 
ATOM     13  C   UNL     1      -5.075  -1.333   0.666  1.00  0.00     0.004 A 
ATOM     14  C   UNL     1      -5.765  -0.828  -0.437  1.00  0.00     0.005 A 
BRANCH  10  15
ATOM     15  C   UNL     1      -1.623   0.020  -0.019  1.00  0.00    -0.018 A 
ATOM     16  C   UNL     1       2.700   0.212  -0.044  1.00  0.00     0.044 C 
ATOM     17  C   UNL     1       1.202   0.164  -0.059  1.00  0.00    -0.051 A 
ATOM     18  C   UNL     1       0.558  -1.066  -0.204  1.00  0.00     0.004 A 
ATOM     19  C   UNL     1       0.428   1.323   0.086  1.00  0.00     0.004 A 
ATOM     20  C   UNL     1      -0.833  -1.131  -0.200  1.00  0.00     0.009 A 
ATOM     21  C   UNL     1      -0.971   1.252   0.103  1.00  0.00     0.009 A 
ENDBRANCH  10  15
BRANCH  12  22
ATOM     22  C   UNL     1      -3.106  -1.431   2.215  1.00  0.00     0.047 C 
BRANCH  22  23
ATOM     23  C   UNL     1      -3.411  -0.633   3.491  1.00  0.00     0.060 C 
ATOM     24  C   UNL     1      -3.284   0.893   3.437  1.00  0.00     0.012 C 
ATOM     25  C   UNL     1      -4.832  -0.817   3.963  1.00  0.00     0.136 C 
ATOM     26  C   UNL     1      -4.700   1.429   3.256  1.00  0.00     0.009 C 
ATOM     27  C   UNL     1      -5.582   0.482   4.058  1.00  0.00     0.076 C 
ATOM     28  O   UNL     1      -5.298  -1.902   4.286  1.00  0.00    -0.299 OA
ENDBRANCH  22  23
ENDBRANCH  12  22
ENDBRANCH   7   9
ENDBRANCH   4   7
ENDBRANCH   2   3
ENDBRANCH   1   2
BRANCH   1  29
ATOM     29  C   UNL     1      -8.606   1.871   2.063  1.00  0.00     0.023 C 
BRANCH  29  30
ATOM     30  C   UNL     1     -10.087   1.757   2.372  1.00  0.00     0.116 C 
BRANCH  30  31
ATOM     31  N   UNL     1     -10.408   1.083   3.620  1.00  0.00    -0.352 N 
ATOM     32  C   UNL     1     -11.670   0.920   4.177  1.00  0.00     0.251 C 
ATOM     33  H   UNL     1      -9.652   0.703   4.122  1.00  0.00     0.163 HD
ATOM     34  O   UNL     1     -11.829   0.579   5.337  1.00  0.00    -0.269 OA
BRANCH  32  35
ATOM     35  C   UNL     1     -12.827   1.073   3.263  1.00  0.00     0.039 A 
ATOM     36  C   UNL     1     -13.561  -0.079   2.958  1.00  0.00     0.014 A 
ATOM     37  C   UNL     1     -12.958   2.225   2.496  1.00  0.00     0.014 A 
ATOM     38  C   UNL     1     -14.276  -0.137   1.761  1.00  0.00     0.010 A 
ATOM     39  C   UNL     1     -13.560   2.122   1.257  1.00  0.00     0.010 A 
ATOM     40  C   UNL     1     -14.191   0.930   0.868  1.00  0.00    -0.014 A 
BRANCH  40  41
ATOM     41  C   UNL     1     -14.651   0.877  -0.519  1.00  0.00     0.031 A 
ATOM     42  C   UNL     1     -15.778   1.738  -0.965  1.00  0.00     0.074 A 
ATOM     43  C   UNL     1     -14.027   0.099  -1.433  1.00  0.00     0.049 A 
ATOM     44  N   UNL     1     -16.482   1.516  -2.025  1.00  0.00    -0.248 NA
ATOM     45  C   UNL     1     -16.232   2.912  -0.224  1.00  0.00     0.031 C 
ATOM     46  C   UNL     1     -14.139   0.200  -2.887  1.00  0.00     0.029 A 
ATOM     47  N   UNL     1     -13.291  -1.062  -1.241  1.00  0.00    -0.354 N 
ATOM     48  C   UNL     1     -17.284   2.611  -2.245  1.00  0.00     0.074 A 
ATOM     49  C   UNL     1     -17.112   3.443  -1.078  1.00  0.00     0.031 C 
ATOM     50  C   UNL     1     -13.715  -0.944  -3.444  1.00  0.00     0.029 A 
ATOM     51  C   UNL     1     -13.444  -1.879  -2.369  1.00  0.00     0.049 A 
ATOM     52  H   UNL     1     -12.752  -1.276  -0.446  1.00  0.00     0.167 HD
ATOM     53  C   UNL     1     -17.927   2.752  -3.439  1.00  0.00     0.037 A 
ATOM     54  C   UNL     1     -13.976  -3.135  -2.291  1.00  0.00     0.037 A 
ATOM     55  C   UNL     1     -17.680   1.613  -4.316  1.00  0.00     0.049 A 
ATOM     56  C   UNL     1     -15.260  -3.320  -3.070  1.00  0.00     0.074 A 
ATOM     57  C   UNL     1     -16.774   1.396  -5.342  1.00  0.00     0.029 A 
ATOM     58  N   UNL     1     -18.223   0.375  -4.001  1.00  0.00    -0.354 N 
ATOM     59  N   UNL     1     -15.970  -2.339  -3.554  1.00  0.00    -0.248 NA
ATOM     60  C   UNL     1     -15.859  -4.622  -3.348  1.00  0.00     0.031 C 
ATOM     61  C   UNL     1     -16.753   0.009  -5.624  1.00  0.00     0.029 A 
ATOM     62  C   UNL     1     -17.653  -0.615  -4.778  1.00  0.00     0.049 A 
ATOM     63  H   UNL     1     -18.917   0.224  -3.319  1.00  0.00     0.167 HD
ATOM     64  C   UNL     1     -17.112  -2.833  -4.137  1.00  0.00     0.074 A 
ATOM     65  C   UNL     1     -16.970  -4.271  -4.021  1.00  0.00     0.031 C 
ATOM     66  C   UNL     1     -18.074  -2.002  -4.644  1.00  0.00     0.037 A 
BRANCH  53  67
ATOM     67  C   UNL     1     -18.563   4.045  -3.897  1.00  0.00     0.058 A 
ATOM     68  C   UNL     1     -18.517   4.436  -5.253  1.00  0.00     0.135 A 
ATOM     69  C   UNL     1     -19.200   4.961  -3.038  1.00  0.00     0.135 A 
ATOM     70  F   UNL     1     -18.010   3.635  -6.199  1.00  0.00    -0.206 F 
ATOM     71  C   UNL     1     -18.966   5.679  -5.701  1.00  0.00     0.059 A 
ATOM     72  C   UNL     1     -19.606   6.235  -3.450  1.00  0.00     0.059 A 
ATOM     73  F   UNL     1     -19.480   4.637  -1.767  1.00  0.00    -0.206 F 
ATOM     74  C   UNL     1     -19.476   6.590  -4.786  1.00  0.00     0.060 A 
BRANCH  74  75
ATOM     75  S   UNL     1     -19.943   8.231  -5.367  1.00  0.00     0.124 S 
ATOM     76  O   UNL     1     -18.755   8.648  -6.108  1.00  0.00    -0.237 OA
ATOM     77  O   UNL     1     -21.125   7.944  -6.172  1.00  0.00    -0.237 OA
ATOM     78  O   UNL     1     -20.188   8.970  -4.131  1.00  0.00    -0.744 OA
ENDBRANCH  74  75
ENDBRANCH  53  67
BRANCH  54  79
ATOM     79  C   UNL     1     -13.613  -3.848  -1.038  1.00  0.00     0.058 A 
ATOM     80  C   UNL     1     -12.268  -4.234  -0.891  1.00  0.00     0.135 A 
ATOM     81  C   UNL     1     -14.386  -3.708   0.123  1.00  0.00     0.135 A 
ATOM     82  F   UNL     1     -11.495  -4.404  -1.976  1.00  0.00    -0.206 F 
ATOM     83  C   UNL     1     -11.661  -4.283   0.356  1.00  0.00     0.059 A 
ATOM     84  C   UNL     1     -13.797  -3.761   1.387  1.00  0.00     0.059 A 
ATOM     85  F   UNL     1     -15.676  -3.351   0.038  1.00  0.00    -0.206 F 
ATOM     86  C   UNL     1     -12.420  -3.964   1.480  1.00  0.00     0.060 A 
BRANCH  86  87
ATOM     87  S   UNL     1     -11.530  -3.599   3.011  1.00  0.00     0.124 S 
ATOM     88  O   UNL     1     -10.747  -4.814   3.204  1.00  0.00    -0.237 OA
ATOM     89  O   UNL     1     -10.775  -2.410   2.619  1.00  0.00    -0.237 OA
ATOM     90  O   UNL     1     -12.603  -3.378   3.973  1.00  0.00    -0.744 OA
ENDBRANCH  86  87
ENDBRANCH  54  79
BRANCH  66  91
ATOM     91  C   UNL     1     -19.459  -2.385  -5.136  1.00  0.00     0.058 A 
ATOM     92  C   UNL     1     -20.162  -3.535  -4.740  1.00  0.00     0.135 A 
ATOM     93  C   UNL     1     -20.196  -1.489  -5.958  1.00  0.00     0.135 A 
ATOM     94  F   UNL     1     -19.639  -4.412  -3.873  1.00  0.00    -0.206 F 
ATOM     95  C   UNL     1     -21.462  -3.812  -5.175  1.00  0.00     0.059 A 
ATOM     96  C   UNL     1     -21.513  -1.716  -6.353  1.00  0.00     0.059 A 
ATOM     97  F   UNL     1     -19.664  -0.339  -6.399  1.00  0.00    -0.206 F 
ATOM     98  C   UNL     1     -22.133  -2.897  -5.979  1.00  0.00     0.060 A 
BRANCH  98  99
ATOM     99  S   UNL     1     -23.836  -3.211  -6.478  1.00  0.00     0.124 S 
ATOM    100  O   UNL     1     -23.644  -3.922  -7.738  1.00  0.00    -0.237 OA
ATOM    101  O   UNL     1     -24.354  -4.014  -5.375  1.00  0.00    -0.237 OA
ATOM    102  O   UNL     1     -24.404  -1.871  -6.587  1.00  0.00    -0.744 OA
ENDBRANCH  98  99
ENDBRANCH  66  91
ENDBRANCH  40  41
ENDBRANCH  32  35
ENDBRANCH  30  31
ENDBRANCH  29  30
ENDBRANCH   1  29
TORSDOF 18
