REMARK SMILES C[C@@H](C(=O)NCCCCNC(=O)c1ccc(-c2c3nc(c(-c4c(F)cc(S(=O)(=O)[O-])cc4F)c4ccc([nH]4)c(-c4c(F)cc(S(=O)(=O)[O-])cc4F)c4nc(c(-c5c(F)cc(S(=O)(=O)[O-])cc5F)c5ccc2[nH]5)C=C4)C=C3)cc1)N1C(=O)CSc2cccn2-c2ccccc21
REMARK SMILES IDX 6 1 5 2 3 3 4 4 2 6 1 7 79 8 80 9 81 10 94 12 89 13 93 14
REMARK SMILES IDX 90 15 92 16 91 17 88 18 84 19 87 20 85 21 86 22 83 23 82 24
REMARK SMILES IDX 7 26 8 27 9 28 10 29 11 30 12 32 13 33 14 34 78 35 15 36
REMARK SMILES IDX 77 37 16 38 17 39 18 40 71 41 19 42 76 43 70 44 72 45 20 46
REMARK SMILES IDX 75 47 69 48 68 49 21 51 55 52 34 53 54 54 35 55 38 56 53 57
REMARK SMILES IDX 73 58 36 59 37 60 52 62 74 63 39 64 22 65 23 66 32 67 24 68
REMARK SMILES IDX 25 69 31 70 33 71 26 72 27 73 28 74 29 75 30 76 56 77 57 78
REMARK SMILES IDX 66 79 58 80 59 81 65 82 67 83 60 84 61 85 62 86 63 87 64 88
REMARK SMILES IDX 40 89 41 90 50 91 42 92 43 93 49 94 51 95 44 96 45 97 46 98
REMARK SMILES IDX 47 99 48 100
REMARK H PARENT 5 5 10 31 72 50 38 61
REMARK Flexibility Score: 80.00
ROOT
ATOM      1  C   UNL     1       3.252  -2.244   0.611  1.00  0.00     0.116 C 
ENDROOT
BRANCH   1   2
ATOM      2  N   UNL     1       2.164  -2.796   1.411  1.00  0.00    -0.354 N 
ATOM      3  C   UNL     1       0.825  -2.438   1.398  1.00  0.00     0.242 C 
ATOM      4  O   UNL     1      -0.003  -3.264   1.779  1.00  0.00    -0.273 OA
ATOM      5  H   UNL     1       2.412  -3.514   2.038  1.00  0.00     0.163 HD
BRANCH   3   6
ATOM      6  C   UNL     1       0.478  -0.995   0.956  1.00  0.00     0.176 C 
ATOM      7  C   UNL     1       0.838   0.026   2.045  1.00  0.00     0.042 C 
BRANCH   6   8
ATOM      8  N   UNL     1      -0.854  -0.700   0.318  1.00  0.00    -0.297 N 
BRANCH   8   9
ATOM      9  C   UNL     1      -1.968  -0.802   1.152  1.00  0.00     0.238 CG0
ATOM     10  O   UNL     1      -1.835  -1.052   2.360  1.00  0.00    -0.274 OA
ATOM     11  G   UNL     1      -3.393  -0.758   0.632  1.00  0.00     0.000 G0
ENDBRANCH   8   9
BRANCH   8  12
ATOM     12  C   UNL     1      -0.747   0.254  -0.789  1.00  0.00     0.069 A 
ATOM     13  C   UNL     1      -0.870   1.618  -0.463  1.00  0.00     0.070 A 
ATOM     14  C   UNL     1       0.237  -0.084  -1.737  1.00  0.00     0.028 A 
ATOM     15  C   UNL     1       0.274   2.428  -0.564  1.00  0.00     0.029 A 
ATOM     16  C   UNL     1       1.323   0.769  -1.952  1.00  0.00     0.002 A 
ATOM     17  C   UNL     1       1.388   1.979  -1.270  1.00  0.00     0.002 A 
BRANCH  13  18
ATOM     18  N   UNL     1      -2.147   2.240  -0.258  1.00  0.00    -0.310 N 
ATOM     19  C   UNL     1      -3.418   1.709  -0.462  1.00  0.00     0.080 A 
ATOM     20  C   UNL     1      -2.339   3.593   0.007  1.00  0.00     0.092 A 
ATOM     21  C   UNL     1      -4.362   2.706  -0.331  1.00  0.00     0.035 A 
ATOM     22  C   UNL     1      -3.679   3.901  -0.048  1.00  0.00     0.021 A 
BRANCH  19  23
ATOM     23  S   UNL     1      -3.729   0.061  -0.926  1.00  0.00    -0.098 SA
BRANCH  23  24
ATOM     24  C   UNL     1      -3.393  -0.758   0.632  1.00  0.00     0.177 CG0
ATOM     25  G   UNL     1      -1.968  -0.802   1.152  1.00  0.00     0.000 G0
ENDBRANCH  23  24
ENDBRANCH  19  23
ENDBRANCH  13  18
ENDBRANCH   8  12
ENDBRANCH   6   8
ENDBRANCH   3   6
ENDBRANCH   1   2
BRANCH   1  26
ATOM     26  C   UNL     1       4.010  -1.071   1.236  1.00  0.00     0.023 C 
BRANCH  26  27
ATOM     27  C   UNL     1       4.876  -1.415   2.444  1.00  0.00     0.023 C 
BRANCH  27  28
ATOM     28  C   UNL     1       5.975  -2.431   2.170  1.00  0.00     0.116 C 
BRANCH  28  29
ATOM     29  N   UNL     1       6.894  -2.015   1.119  1.00  0.00    -0.352 N 
ATOM     30  C   UNL     1       8.253  -2.196   1.041  1.00  0.00     0.251 C 
ATOM     31  H   UNL     1       6.484  -1.538   0.362  1.00  0.00     0.163 HD
ATOM     32  O   UNL     1       8.885  -1.665   0.128  1.00  0.00    -0.269 OA
BRANCH  30  33
ATOM     33  C   UNL     1       8.953  -2.991   2.073  1.00  0.00     0.039 A 
ATOM     34  C   UNL     1      10.165  -2.518   2.579  1.00  0.00     0.014 A 
ATOM     35  C   UNL     1       8.405  -4.180   2.562  1.00  0.00     0.014 A 
ATOM     36  C   UNL     1      10.790  -3.206   3.619  1.00  0.00     0.010 A 
ATOM     37  C   UNL     1       8.976  -4.806   3.665  1.00  0.00     0.010 A 
ATOM     38  C   UNL     1      10.182  -4.334   4.199  1.00  0.00    -0.014 A 
BRANCH  38  39
ATOM     39  C   UNL     1      10.805  -5.017   5.361  1.00  0.00     0.031 A 
ATOM     40  C   UNL     1      11.248  -6.452   5.256  1.00  0.00     0.074 A 
ATOM     41  C   UNL     1      10.950  -4.345   6.521  1.00  0.00     0.049 A 
ATOM     42  N   UNL     1      11.836  -7.200   6.154  1.00  0.00    -0.248 NA
ATOM     43  C   UNL     1      10.970  -7.150   3.990  1.00  0.00     0.031 C 
ATOM     44  C   UNL     1      10.485  -2.977   6.769  1.00  0.00     0.029 A 
ATOM     45  N   UNL     1      11.533  -4.714   7.706  1.00  0.00    -0.354 N 
ATOM     46  C   UNL     1      12.008  -8.444   5.560  1.00  0.00     0.074 A 
ATOM     47  C   UNL     1      11.388  -8.378   4.255  1.00  0.00     0.031 C 
ATOM     48  C   UNL     1      10.835  -2.611   8.012  1.00  0.00     0.029 A 
ATOM     49  C   UNL     1      11.518  -3.725   8.661  1.00  0.00     0.049 A 
ATOM     50  H   UNL     1      11.925  -5.604   7.859  1.00  0.00     0.167 HD
ATOM     51  C   UNL     1      12.658  -9.532   6.039  1.00  0.00     0.037 A 
ATOM     52  C   UNL     1      12.003  -3.715   9.918  1.00  0.00     0.037 A 
ATOM     53  C   UNL     1      13.279  -9.588   7.337  1.00  0.00     0.049 A 
ATOM     54  C   UNL     1      12.729  -4.932  10.425  1.00  0.00     0.074 A 
ATOM     55  C   UNL     1      13.992 -10.628   7.907  1.00  0.00     0.029 A 
ATOM     56  N   UNL     1      13.263  -8.559   8.268  1.00  0.00    -0.354 N 
ATOM     57  N   UNL     1      12.946  -6.075   9.819  1.00  0.00    -0.248 NA
ATOM     58  C   UNL     1      13.291  -4.851  11.779  1.00  0.00     0.031 C 
ATOM     59  C   UNL     1      14.368 -10.245   9.199  1.00  0.00     0.029 A 
ATOM     60  C   UNL     1      13.940  -8.944   9.414  1.00  0.00     0.049 A 
ATOM     61  H   UNL     1      12.834  -7.683   8.134  1.00  0.00     0.167 HD
ATOM     62  C   UNL     1      13.687  -6.843  10.710  1.00  0.00     0.074 A 
ATOM     63  C   UNL     1      13.906  -6.021  11.883  1.00  0.00     0.031 C 
ATOM     64  C   UNL     1      14.143  -8.114  10.575  1.00  0.00     0.037 A 
BRANCH  51  65
ATOM     65  C   UNL     1      12.750 -10.739   5.145  1.00  0.00     0.058 A 
ATOM     66  C   UNL     1      13.531 -10.727   3.976  1.00  0.00     0.135 A 
ATOM     67  C   UNL     1      12.089 -11.934   5.474  1.00  0.00     0.135 A 
ATOM     68  F   UNL     1      14.170  -9.608   3.601  1.00  0.00    -0.206 F 
ATOM     69  C   UNL     1      13.633 -11.845   3.156  1.00  0.00     0.059 A 
ATOM     70  C   UNL     1      12.202 -13.075   4.684  1.00  0.00     0.059 A 
ATOM     71  F   UNL     1      11.326 -12.002   6.577  1.00  0.00    -0.206 F 
ATOM     72  C   UNL     1      12.968 -13.017   3.520  1.00  0.00     0.060 A 
BRANCH  72  73
ATOM     73  S   UNL     1      13.130 -14.463   2.452  1.00  0.00     0.124 S 
ATOM     74  O   UNL     1      12.349 -14.055   1.288  1.00  0.00    -0.237 OA
ATOM     75  O   UNL     1      14.573 -14.539   2.251  1.00  0.00    -0.237 OA
ATOM     76  O   UNL     1      12.552 -15.541   3.248  1.00  0.00    -0.744 OA
ENDBRANCH  72  73
ENDBRANCH  51  65
BRANCH  52  77
ATOM     77  C   UNL     1      11.833  -2.509  10.774  1.00  0.00     0.058 A 
ATOM     78  C   UNL     1      12.930  -1.718  11.148  1.00  0.00     0.135 A 
ATOM     79  C   UNL     1      10.564  -2.122  11.233  1.00  0.00     0.135 A 
ATOM     80  F   UNL     1      14.165  -2.046  10.737  1.00  0.00    -0.206 F 
ATOM     81  C   UNL     1      12.781  -0.606  11.971  1.00  0.00     0.059 A 
ATOM     82  C   UNL     1      10.386  -0.996  12.030  1.00  0.00     0.059 A 
ATOM     83  F   UNL     1       9.478  -2.830  10.886  1.00  0.00    -0.206 F 
ATOM     84  C   UNL     1      11.503  -0.253  12.407  1.00  0.00     0.060 A 
BRANCH  84  85
ATOM     85  S   UNL     1      11.314   1.212  13.446  1.00  0.00     0.124 S 
ATOM     86  O   UNL     1      11.865   0.746  14.713  1.00  0.00    -0.237 OA
ATOM     87  O   UNL     1      12.111   2.202  12.728  1.00  0.00    -0.237 OA
ATOM     88  O   UNL     1       9.874   1.449  13.432  1.00  0.00    -0.744 OA
ENDBRANCH  84  85
ENDBRANCH  52  77
BRANCH  64  89
ATOM     89  C   UNL     1      14.943  -8.680  11.718  1.00  0.00     0.058 A 
ATOM     90  C   UNL     1      14.351  -8.986  12.954  1.00  0.00     0.135 A 
ATOM     91  C   UNL     1      16.317  -8.927  11.570  1.00  0.00     0.135 A 
ATOM     92  F   UNL     1      13.041  -8.768  13.150  1.00  0.00    -0.206 F 
ATOM     93  C   UNL     1      15.104  -9.472  14.019  1.00  0.00     0.059 A 
ATOM     94  C   UNL     1      17.082  -9.445  12.611  1.00  0.00     0.059 A 
ATOM     95  F   UNL     1      16.931  -8.668  10.405  1.00  0.00    -0.206 F 
ATOM     96  C   UNL     1      16.470  -9.693  13.838  1.00  0.00     0.060 A 
BRANCH  96  97
ATOM     97  S   UNL     1      17.436 -10.315  15.230  1.00  0.00     0.124 S 
ATOM     98  O   UNL     1      17.519  -9.132  16.081  1.00  0.00    -0.237 OA
ATOM     99  O   UNL     1      16.599 -11.400  15.732  1.00  0.00    -0.237 OA
ATOM    100  O   UNL     1      18.692 -10.733  14.613  1.00  0.00    -0.744 OA
ENDBRANCH  96  97
ENDBRANCH  64  89
ENDBRANCH  38  39
ENDBRANCH  30  33
ENDBRANCH  28  29
ENDBRANCH  27  28
ENDBRANCH  26  27
ENDBRANCH   1  26
TORSDOF 15
