REMARK SMILES Cc1[nH]c(=O)sc1S(=O)(=O)N[C@@H]1CCCCC[C@@H]1C(=O)NCCCCNC(=O)c1ccc(-c2c3nc(c(-c4c(F)cc(S(=O)(=O)[O-])cc4F)c4ccc([nH]4)c(-c4c(F)cc(S(=O)(=O)[O-])cc4F)c4nc(c(-c5c(F)cc(S(=O)(=O)[O-])cc5F)c5ccc2[nH]5)C=C4)C=C3)cc1
REMARK SMILES IDX 23 1 22 2 21 3 19 4 20 5 18 7 12 8 11 9 8 11 9 12 10 13 7 14
REMARK SMILES IDX 1 15 2 16 3 17 4 18 6 20 5 21 13 22 14 23 17 25 16 26 15 27
REMARK SMILES IDX 24 29 25 30 26 31 27 32 28 34 29 35 30 36 94 37 31 38 93 39
REMARK SMILES IDX 32 40 33 41 34 42 87 43 35 44 92 45 86 46 88 47 36 48 91 49
REMARK SMILES IDX 85 50 84 51 37 53 71 54 50 55 70 56 51 57 54 58 69 59 89 60
REMARK SMILES IDX 52 61 53 62 68 64 90 65 55 66 38 67 39 68 48 69 40 70 41 71
REMARK SMILES IDX 47 72 49 73 42 74 43 75 44 76 45 77 46 78 72 79 73 80 82 81
REMARK SMILES IDX 74 82 75 83 81 84 83 85 76 86 77 87 78 88 79 89 80 90 56 91
REMARK SMILES IDX 57 92 66 93 58 94 59 95 65 96 67 97 60 98 61 99 62 100
REMARK SMILES IDX 63 101 64 102
REMARK H PARENT 21 6 11 10 3 19 26 33 88 52 54 63
REMARK Flexibility Score: 100.00
ROOT
ATOM      1  C   UNL     1       4.215  -3.842  -0.466  1.00  0.00     0.023 C 
ENDROOT
BRANCH   1   2
ATOM      2  C   UNL     1       4.206  -2.314  -0.634  1.00  0.00     0.116 C 
BRANCH   2   3
ATOM      3  N   UNL     1       4.311  -1.902  -2.026  1.00  0.00    -0.356 N 
ATOM      4  C   UNL     1       3.395  -1.540  -2.967  1.00  0.00     0.224 C 
ATOM      5  O   UNL     1       3.842  -1.275  -4.088  1.00  0.00    -0.275 OA
ATOM      6  H   UNL     1       5.238  -1.880  -2.357  1.00  0.00     0.163 HD
BRANCH   4   7
ATOM      7  C   UNL     1       1.892  -1.345  -2.699  1.00  0.00     0.096 C 
BRANCH   7   8
ATOM      8  C   UNL     1       1.574   0.157  -2.456  1.00  0.00     0.082 C 
BRANCH   8   9
ATOM      9  N   UNL     1       2.464   0.689  -1.369  1.00  0.00    -0.207 NA
ATOM     10  H   UNL     1       2.261   0.144  -0.531  1.00  0.00     0.141 HD
BRANCH   9  11
ATOM     11  S   UNL     1       2.384   2.342  -0.912  1.00  0.00     0.252 S 
ATOM     12  O   UNL     1       2.060   3.059  -2.128  1.00  0.00    -0.206 OA
ATOM     13  O   UNL     1       3.653   2.554  -0.248  1.00  0.00    -0.206 OA
BRANCH  11  14
ATOM     14  C   UNL     1       1.116   2.541   0.257  1.00  0.00     0.158 A 
ATOM     15  C   UNL     1       1.395   0.254   1.414  1.00  0.00     0.067 C 
ATOM     16  C   UNL     1       0.786   1.592   1.155  1.00  0.00     0.046 A 
ATOM     17  N   UNL     1      -0.329   1.929   1.890  1.00  0.00    -0.315 N 
ATOM     18  C   UNL     1      -0.905   3.145   1.621  1.00  0.00     0.305 A 
ATOM     19  H   UNL     1      -0.695   1.325   2.577  1.00  0.00     0.170 HD
ATOM     20  S   UNL     1       0.044   3.926   0.367  1.00  0.00    -0.061 S 
ATOM     21  O   UNL     1      -1.913   3.594   2.131  1.00  0.00    -0.257 OA
ENDBRANCH  11  14
ENDBRANCH   9  11
ENDBRANCH   8   9
BRANCH   8  22
ATOM     22  C   UNL     1       0.099   0.510  -2.176  1.00  0.00     0.021 C 
BRANCH  22  23
ATOM     23  C   UNL     1      -1.007  -0.436  -2.624  1.00  0.00     0.002 CG0
ATOM     24  G   UNL     1      -1.158  -1.647  -1.710  1.00  0.00     0.000 G0
ENDBRANCH  22  23
ENDBRANCH   8  22
ENDBRANCH   7   8
BRANCH   7  25
ATOM     25  C   UNL     1       1.283  -2.357  -1.729  1.00  0.00     0.015 C 
BRANCH  25  26
ATOM     26  C   UNL     1      -0.161  -2.747  -2.017  1.00  0.00     0.001 C 
BRANCH  26  27
ATOM     27  C   UNL     1      -1.158  -1.647  -1.710  1.00  0.00     0.000 CG0
ATOM     28  G   UNL     1      -1.007  -0.436  -2.624  1.00  0.00     0.000 G0
ENDBRANCH  26  27
ENDBRANCH  25  26
ENDBRANCH   7  25
ENDBRANCH   4   7
ENDBRANCH   2   3
ENDBRANCH   1   2
BRANCH   1  29
ATOM     29  C   UNL     1       5.579  -4.529  -0.627  1.00  0.00     0.023 C 
BRANCH  29  30
ATOM     30  C   UNL     1       6.604  -4.196   0.450  1.00  0.00     0.116 C 
BRANCH  30  31
ATOM     31  N   UNL     1       6.175  -4.594   1.790  1.00  0.00    -0.352 N 
ATOM     32  C   UNL     1       6.739  -4.227   2.999  1.00  0.00     0.251 C 
ATOM     33  H   UNL     1       5.394  -5.191   1.838  1.00  0.00     0.163 HD
ATOM     34  O   UNL     1       6.582  -4.920   3.997  1.00  0.00    -0.269 OA
BRANCH  32  35
ATOM     35  C   UNL     1       7.519  -2.979   3.060  1.00  0.00     0.039 A 
ATOM     36  C   UNL     1       8.740  -2.914   3.733  1.00  0.00     0.014 A 
ATOM     37  C   UNL     1       7.019  -1.871   2.378  1.00  0.00     0.014 A 
ATOM     38  C   UNL     1       9.494  -1.747   3.631  1.00  0.00     0.010 A 
ATOM     39  C   UNL     1       7.821  -0.776   2.166  1.00  0.00     0.010 A 
ATOM     40  C   UNL     1       9.043  -0.690   2.819  1.00  0.00    -0.014 A 
BRANCH  40  41
ATOM     41  C   UNL     1       9.907   0.456   2.551  1.00  0.00     0.031 A 
ATOM     42  C   UNL     1      11.260   0.096   2.049  1.00  0.00     0.074 A 
ATOM     43  C   UNL     1       9.497   1.743   2.573  1.00  0.00     0.049 A 
ATOM     44  N   UNL     1      12.362   0.093   2.720  1.00  0.00    -0.248 NA
ATOM     45  C   UNL     1      11.386  -0.493   0.706  1.00  0.00     0.031 C 
ATOM     46  C   UNL     1       8.138   2.274   2.726  1.00  0.00     0.029 A 
ATOM     47  N   UNL     1      10.233   2.871   2.378  1.00  0.00    -0.354 N 
ATOM     48  C   UNL     1      13.363  -0.248   1.817  1.00  0.00     0.074 A 
ATOM     49  C   UNL     1      12.687  -0.797   0.670  1.00  0.00     0.031 C 
ATOM     50  C   UNL     1       8.122   3.585   2.395  1.00  0.00     0.029 A 
ATOM     51  C   UNL     1       9.487   4.030   2.186  1.00  0.00     0.049 A 
ATOM     52  H   UNL     1      11.217   2.867   2.372  1.00  0.00     0.167 HD
ATOM     53  C   UNL     1      14.644   0.184   1.994  1.00  0.00     0.037 A 
ATOM     54  C   UNL     1       9.962   5.264   1.876  1.00  0.00     0.037 A 
ATOM     55  C   UNL     1      14.824   0.721   3.323  1.00  0.00     0.049 A 
ATOM     56  C   UNL     1      11.391   5.290   2.285  1.00  0.00     0.074 A 
ATOM     57  C   UNL     1      14.670   0.223   4.603  1.00  0.00     0.029 A 
ATOM     58  N   UNL     1      14.831   2.090   3.454  1.00  0.00    -0.354 N 
ATOM     59  N   UNL     1      11.790   5.225   3.526  1.00  0.00    -0.248 NA
ATOM     60  C   UNL     1      12.384   4.910   1.292  1.00  0.00     0.031 C 
ATOM     61  C   UNL     1      14.096   1.297   5.347  1.00  0.00     0.029 A 
ATOM     62  C   UNL     1      14.014   2.409   4.508  1.00  0.00     0.049 A 
ATOM     63  H   UNL     1      15.332   2.725   2.892  1.00  0.00     0.167 HD
ATOM     64  C   UNL     1      12.895   4.388   3.499  1.00  0.00     0.074 A 
ATOM     65  C   UNL     1      13.266   4.298   2.087  1.00  0.00     0.031 C 
ATOM     66  C   UNL     1      13.231   3.623   4.581  1.00  0.00     0.037 A 
BRANCH  53  67
ATOM     67  C   UNL     1      15.625   0.485   0.884  1.00  0.00     0.058 A 
ATOM     68  C   UNL     1      16.964   0.786   1.217  1.00  0.00     0.135 A 
ATOM     69  C   UNL     1      15.253   0.769  -0.448  1.00  0.00     0.135 A 
ATOM     70  F   UNL     1      17.428   0.560   2.457  1.00  0.00    -0.206 F 
ATOM     71  C   UNL     1      17.840   1.397   0.320  1.00  0.00     0.059 A 
ATOM     72  C   UNL     1      16.127   1.328  -1.374  1.00  0.00     0.059 A 
ATOM     73  F   UNL     1      14.001   0.609  -0.892  1.00  0.00    -0.206 F 
ATOM     74  C   UNL     1      17.405   1.677  -0.971  1.00  0.00     0.060 A 
BRANCH  74  75
ATOM     75  S   UNL     1      18.505   2.542  -2.103  1.00  0.00     0.124 S 
ATOM     76  O   UNL     1      18.564   3.866  -1.496  1.00  0.00    -0.237 OA
ATOM     77  O   UNL     1      19.721   1.740  -2.012  1.00  0.00    -0.237 OA
ATOM     78  O   UNL     1      17.802   2.461  -3.380  1.00  0.00    -0.744 OA
ENDBRANCH  74  75
ENDBRANCH  53  67
BRANCH  54  79
ATOM     79  C   UNL     1       9.375   6.290   0.973  1.00  0.00     0.058 A 
ATOM     80  C   UNL     1       9.895   7.597   0.920  1.00  0.00     0.135 A 
ATOM     81  C   UNL     1       8.502   5.930  -0.074  1.00  0.00     0.135 A 
ATOM     82  F   UNL     1      10.746   8.023   1.867  1.00  0.00    -0.206 F 
ATOM     83  C   UNL     1       9.622   8.470  -0.140  1.00  0.00     0.059 A 
ATOM     84  C   UNL     1       8.208   6.786  -1.136  1.00  0.00     0.059 A 
ATOM     85  F   UNL     1       7.988   4.693  -0.147  1.00  0.00    -0.206 F 
ATOM     86  C   UNL     1       8.797   8.045  -1.179  1.00  0.00     0.060 A 
BRANCH  86  87
ATOM     87  S   UNL     1       8.608   9.088  -2.646  1.00  0.00     0.124 S 
ATOM     88  O   UNL     1       7.801  10.190  -2.133  1.00  0.00    -0.237 OA
ATOM     89  O   UNL     1       9.992   9.412  -2.975  1.00  0.00    -0.237 OA
ATOM     90  O   UNL     1       7.935   8.212  -3.602  1.00  0.00    -0.744 OA
ENDBRANCH  86  87
ENDBRANCH  54  79
BRANCH  66  91
ATOM     91  C   UNL     1      12.594   3.941   5.911  1.00  0.00     0.058 A 
ATOM     92  C   UNL     1      11.217   3.875   6.189  1.00  0.00     0.135 A 
ATOM     93  C   UNL     1      13.450   4.197   6.994  1.00  0.00     0.135 A 
ATOM     94  F   UNL     1      10.335   3.532   5.239  1.00  0.00    -0.206 F 
ATOM     95  C   UNL     1      10.714   4.101   7.473  1.00  0.00     0.059 A 
ATOM     96  C   UNL     1      12.975   4.391   8.287  1.00  0.00     0.059 A 
ATOM     97  F   UNL     1      14.781   4.214   6.810  1.00  0.00    -0.206 F 
ATOM     98  C   UNL     1      11.602   4.360   8.517  1.00  0.00     0.060 A 
BRANCH  98  99
ATOM     99  S   UNL     1      10.960   4.604  10.187  1.00  0.00     0.124 S 
ATOM    100  O   UNL     1      10.305   5.903  10.078  1.00  0.00    -0.237 OA
ATOM    101  O   UNL     1      10.072   3.458  10.357  1.00  0.00    -0.237 OA
ATOM    102  O   UNL     1      12.160   4.580  11.021  1.00  0.00    -0.744 OA
ENDBRANCH  98  99
ENDBRANCH  66  91
ENDBRANCH  40  41
ENDBRANCH  32  35
ENDBRANCH  30  31
ENDBRANCH  29  30
ENDBRANCH   1  29
TORSDOF 17
