REMARK SMILES C[C@@H](C(=O)NCCCCNC(=O)c1ccc(-c2c3nc(c(-c4c(F)cc(S(=O)(=O)[O-])cc4F)c4ccc([nH]4)c(-c4c(F)cc(S(=O)(=O)[O-])cc4F)c4nc(c(-c5c(F)cc(S(=O)(=O)[O-])cc5F)c5ccc2[nH]5)C=C4)C=C3)cc1)[C@H](C)[S@@](=O)c1ccc(F)c(F)c1
REMARK SMILES IDX 7 1 6 2 5 3 3 4 4 5 2 7 1 8 79 9 80 10 81 11 82 12 83 13
REMARK SMILES IDX 84 14 90 15 85 16 88 17 86 18 89 19 87 20 8 21 9 22 10 23
REMARK SMILES IDX 11 24 12 26 13 27 14 28 78 29 15 30 77 31 16 32 17 33 18 34
REMARK SMILES IDX 71 35 19 36 76 37 70 38 72 39 20 40 75 41 69 42 68 43 21 45
REMARK SMILES IDX 55 46 34 47 54 48 35 49 38 50 53 51 73 52 36 53 37 54 52 56
REMARK SMILES IDX 74 57 39 58 22 59 23 60 32 61 24 62 25 63 31 64 33 65 26 66
REMARK SMILES IDX 27 67 28 68 29 69 30 70 56 71 57 72 66 73 58 74 59 75 65 76
REMARK SMILES IDX 67 77 60 78 61 79 62 80 63 81 64 82 40 83 41 84 50 85 42 86
REMARK SMILES IDX 43 87 49 88 51 89 44 90 45 91 46 92 47 93 48 94
REMARK H PARENT 5 6 10 25 72 44 38 55
REMARK Flexibility Score: inf
ROOT
ATOM      1  C   UNL     1      -1.347   4.823   1.064  1.00  0.00     0.023 C 
ENDROOT
BRANCH   1   2
ATOM      2  C   UNL     1      -2.248   3.920   0.215  1.00  0.00     0.116 C 
BRANCH   2   3
ATOM      3  N   UNL     1      -1.558   3.586  -1.015  1.00  0.00    -0.356 N 
ATOM      4  C   UNL     1      -0.740   2.517  -1.229  1.00  0.00     0.224 C 
ATOM      5  O   UNL     1       0.256   2.679  -1.929  1.00  0.00    -0.275 OA
ATOM      6  H   UNL     1      -1.694   4.195  -1.776  1.00  0.00     0.163 HD
BRANCH   4   7
ATOM      7  C   UNL     1      -1.097   1.177  -0.608  1.00  0.00     0.091 C 
ATOM      8  C   UNL     1      -0.367   1.049   0.734  1.00  0.00     0.019 C 
BRANCH   7   9
ATOM      9  C   UNL     1      -0.782  -0.025  -1.533  1.00  0.00     0.093 C 
ATOM     10  C   UNL     1       0.688  -0.307  -1.834  1.00  0.00     0.023 C 
BRANCH   9  11
ATOM     11  S   UNL     1      -1.837  -0.145  -3.044  1.00  0.00     0.057 S 
ATOM     12  O   UNL     1      -3.252   0.120  -2.621  1.00  0.00    -0.254 OA
BRANCH  11  13
ATOM     13  C   UNL     1      -1.324   1.278  -4.024  1.00  0.00     0.042 A 
ATOM     14  C   UNL     1      -0.113   1.252  -4.732  1.00  0.00     0.021 A 
ATOM     15  C   UNL     1      -2.135   2.419  -4.097  1.00  0.00     0.060 A 
ATOM     16  C   UNL     1       0.324   2.384  -5.428  1.00  0.00     0.043 A 
ATOM     17  C   UNL     1      -1.687   3.544  -4.782  1.00  0.00     0.160 A 
ATOM     18  C   UNL     1      -0.461   3.531  -5.434  1.00  0.00     0.158 A 
ATOM     19  F   UNL     1      -2.440   4.653  -4.780  1.00  0.00    -0.204 F 
ATOM     20  F   UNL     1      -0.025   4.623  -6.076  1.00  0.00    -0.204 F 
ENDBRANCH  11  13
ENDBRANCH   9  11
ENDBRANCH   7   9
ENDBRANCH   4   7
ENDBRANCH   2   3
ENDBRANCH   1   2
BRANCH   1  21
ATOM     21  C   UNL     1      -1.059   6.192   0.430  1.00  0.00     0.023 C 
BRANCH  21  22
ATOM     22  C   UNL     1      -2.290   7.065   0.200  1.00  0.00     0.116 C 
BRANCH  22  23
ATOM     23  N   UNL     1      -2.977   7.378   1.444  1.00  0.00    -0.352 N 
ATOM     24  C   UNL     1      -3.411   8.594   1.914  1.00  0.00     0.251 C 
ATOM     25  H   UNL     1      -3.156   6.609   2.032  1.00  0.00     0.163 HD
ATOM     26  O   UNL     1      -3.812   8.697   3.065  1.00  0.00    -0.269 OA
BRANCH  24  27
ATOM     27  C   UNL     1      -3.360   9.779   1.031  1.00  0.00     0.039 A 
ATOM     28  C   UNL     1      -2.793  10.958   1.520  1.00  0.00     0.014 A 
ATOM     29  C   UNL     1      -3.854   9.722  -0.276  1.00  0.00     0.014 A 
ATOM     30  C   UNL     1      -2.648  12.058   0.672  1.00  0.00     0.010 A 
ATOM     31  C   UNL     1      -3.661  10.802  -1.135  1.00  0.00     0.010 A 
ATOM     32  C   UNL     1      -3.041  11.973  -0.674  1.00  0.00    -0.014 A 
BRANCH  32  33
ATOM     33  C   UNL     1      -2.750  13.073  -1.629  1.00  0.00     0.031 A 
ATOM     34  C   UNL     1      -3.868  13.847  -2.268  1.00  0.00     0.074 A 
ATOM     35  C   UNL     1      -1.470  13.312  -1.981  1.00  0.00     0.049 A 
ATOM     36  N   UNL     1      -3.805  14.778  -3.185  1.00  0.00    -0.248 NA
ATOM     37  C   UNL     1      -5.237  13.522  -1.836  1.00  0.00     0.031 C 
ATOM     38  C   UNL     1      -0.303  12.588  -1.469  1.00  0.00     0.029 A 
ATOM     39  N   UNL     1      -0.935  14.214  -2.866  1.00  0.00    -0.354 N 
ATOM     40  C   UNL     1      -5.120  15.139  -3.452  1.00  0.00     0.074 A 
ATOM     41  C   UNL     1      -5.963  14.306  -2.623  1.00  0.00     0.031 C 
ATOM     42  C   UNL     1       0.807  13.076  -2.046  1.00  0.00     0.029 A 
ATOM     43  C   UNL     1       0.431  14.119  -2.994  1.00  0.00     0.049 A 
ATOM     44  H   UNL     1      -1.479  14.867  -3.363  1.00  0.00     0.167 HD
ATOM     45  C   UNL     1      -5.577  16.090  -4.301  1.00  0.00     0.037 A 
ATOM     46  C   UNL     1       1.284  14.783  -3.798  1.00  0.00     0.037 A 
ATOM     47  C   UNL     1      -4.729  16.937  -5.101  1.00  0.00     0.049 A 
ATOM     48  C   UNL     1       0.746  15.831  -4.733  1.00  0.00     0.074 A 
ATOM     49  C   UNL     1      -5.096  17.990  -5.921  1.00  0.00     0.029 A 
ATOM     50  N   UNL     1      -3.350  16.825  -5.189  1.00  0.00    -0.354 N 
ATOM     51  N   UNL     1      -0.494  16.220  -4.907  1.00  0.00    -0.248 NA
ATOM     52  C   UNL     1       1.721  16.529  -5.582  1.00  0.00     0.031 C 
ATOM     53  C   UNL     1      -3.944  18.485  -6.540  1.00  0.00     0.029 A 
ATOM     54  C   UNL     1      -2.854  17.769  -6.074  1.00  0.00     0.049 A 
ATOM     55  H   UNL     1      -2.803  16.171  -4.696  1.00  0.00     0.167 HD
ATOM     56  C   UNL     1      -0.446  17.218  -5.874  1.00  0.00     0.074 A 
ATOM     57  C   UNL     1       0.947  17.388  -6.232  1.00  0.00     0.031 C 
ATOM     58  C   UNL     1      -1.465  17.925  -6.421  1.00  0.00     0.037 A 
BRANCH  45  59
ATOM     59  C   UNL     1      -7.063  16.287  -4.409  1.00  0.00     0.058 A 
ATOM     60  C   UNL     1      -7.795  16.917  -3.393  1.00  0.00     0.135 A 
ATOM     61  C   UNL     1      -7.746  15.921  -5.581  1.00  0.00     0.135 A 
ATOM     62  F   UNL     1      -7.193  17.274  -2.247  1.00  0.00    -0.206 F 
ATOM     63  C   UNL     1      -9.156  17.173  -3.530  1.00  0.00     0.059 A 
ATOM     64  C   UNL     1      -9.102  16.186  -5.748  1.00  0.00     0.059 A 
ATOM     65  F   UNL     1      -7.092  15.312  -6.582  1.00  0.00    -0.206 F 
ATOM     66  C   UNL     1      -9.799  16.810  -4.714  1.00  0.00     0.060 A 
BRANCH  66  67
ATOM     67  S   UNL     1     -11.555  17.192  -4.893  1.00  0.00     0.124 S 
ATOM     68  O   UNL     1     -12.159  16.210  -3.997  1.00  0.00    -0.237 OA
ATOM     69  O   UNL     1     -11.619  18.580  -4.447  1.00  0.00    -0.237 OA
ATOM     70  O   UNL     1     -11.807  16.981  -6.315  1.00  0.00    -0.744 OA
ENDBRANCH  66  67
ENDBRANCH  45  59
BRANCH  46  71
ATOM     71  C   UNL     1       2.738  14.470  -3.768  1.00  0.00     0.058 A 
ATOM     72  C   UNL     1       3.664  15.387  -3.250  1.00  0.00     0.135 A 
ATOM     73  C   UNL     1       3.231  13.256  -4.271  1.00  0.00     0.135 A 
ATOM     74  F   UNL     1       3.241  16.564  -2.763  1.00  0.00    -0.206 F 
ATOM     75  C   UNL     1       5.030  15.126  -3.257  1.00  0.00     0.059 A 
ATOM     76  C   UNL     1       4.590  12.961  -4.266  1.00  0.00     0.059 A 
ATOM     77  F   UNL     1       2.384  12.337  -4.762  1.00  0.00    -0.206 F 
ATOM     78  C   UNL     1       5.484  13.910  -3.772  1.00  0.00     0.060 A 
BRANCH  78  79
ATOM     79  S   UNL     1       7.257  13.568  -3.759  1.00  0.00     0.124 S 
ATOM     80  O   UNL     1       7.721  14.388  -4.872  1.00  0.00    -0.237 OA
ATOM     81  O   UNL     1       7.649  14.019  -2.427  1.00  0.00    -0.237 OA
ATOM     82  O   UNL     1       7.321  12.124  -3.966  1.00  0.00    -0.744 OA
ENDBRANCH  78  79
ENDBRANCH  46  71
BRANCH  58  83
ATOM     83  C   UNL     1      -1.111  18.956  -7.455  1.00  0.00     0.058 A 
ATOM     84  C   UNL     1      -0.728  18.587  -8.754  1.00  0.00     0.135 A 
ATOM     85  C   UNL     1      -1.202  20.326  -7.160  1.00  0.00     0.135 A 
ATOM     86  F   UNL     1      -0.617  17.290  -9.083  1.00  0.00    -0.206 F 
ATOM     87  C   UNL     1      -0.428  19.541  -9.720  1.00  0.00     0.059 A 
ATOM     88  C   UNL     1      -0.931  21.297  -8.119  1.00  0.00     0.059 A 
ATOM     89  F   UNL     1      -1.571  20.731  -5.935  1.00  0.00    -0.206 F 
ATOM     90  C   UNL     1      -0.534  20.894  -9.394  1.00  0.00     0.060 A 
BRANCH  90  91
ATOM     91  S   UNL     1      -0.178  22.123 -10.668  1.00  0.00     0.124 S 
ATOM     92  O   UNL     1       1.278  22.071 -10.727  1.00  0.00    -0.237 OA
ATOM     93  O   UNL     1      -0.880  21.584 -11.829  1.00  0.00    -0.237 OA
ATOM     94  O   UNL     1      -0.741  23.353 -10.119  1.00  0.00    -0.744 OA
ENDBRANCH  90  91
ENDBRANCH  58  83
ENDBRANCH  32  33
ENDBRANCH  24  27
ENDBRANCH  22  23
ENDBRANCH  21  22
ENDBRANCH   1  21
TORSDOF 17
