REMARK SMILES CC(C)[C@@H](CO)NC(=O)CC(C)(C)CC(=O)NCCCCNC(=O)c1ccc(-c2c3nc(c(-c4c(F)cc(S(=O)(=O)[O-])cc4F)c4ccc([nH]4)c(-c4c(F)cc(S(=O)(=O)[O-])cc4F)c4nc(c(-c5c(F)cc(S(=O)(=O)[O-])cc5F)c5ccc2[nH]5)C=C4)C=C3)cc1
REMARK SMILES IDX 18 1 17 2 15 3 16 4 14 6 11 7 12 8 13 9 10 10 8 11 7 12 9 14
REMARK SMILES IDX 4 15 2 16 1 17 3 18 5 19 6 20 19 22 20 23 21 24 22 25 23 26
REMARK SMILES IDX 24 28 25 29 26 30 90 31 27 32 89 33 28 34 29 35 30 36 83 37
REMARK SMILES IDX 31 38 88 39 82 40 84 41 32 42 87 43 81 44 80 45 33 47 67 48
REMARK SMILES IDX 46 49 66 50 47 51 50 52 65 53 85 54 48 55 49 56 64 58 86 59
REMARK SMILES IDX 51 60 34 61 35 62 44 63 36 64 37 65 43 66 45 67 38 68 39 69
REMARK SMILES IDX 40 70 41 71 42 72 68 73 69 74 78 75 70 76 71 77 77 78 79 79
REMARK SMILES IDX 72 80 73 81 74 82 75 83 76 84 52 85 53 86 62 87 54 88 55 89
REMARK SMILES IDX 61 90 63 91 56 92 57 93 58 94 59 95 60 96
REMARK H PARENT 17 5 7 13 6 21 22 27 84 46 50 57
REMARK Flexibility Score: inf
ROOT
ATOM      1  C   UNL     1      -1.940  -0.172   6.650  1.00  0.00     0.116 C 
ENDROOT
BRANCH   1   2
ATOM      2  N   UNL     1      -2.288  -1.548   6.360  1.00  0.00    -0.356 N 
ATOM      3  C   UNL     1      -2.068  -2.270   5.225  1.00  0.00     0.220 C 
ATOM      4  O   UNL     1      -2.601  -3.371   5.115  1.00  0.00    -0.275 OA
ATOM      5  H   UNL     1      -2.749  -2.029   7.085  1.00  0.00     0.163 HD
BRANCH   3   6
ATOM      6  C   UNL     1      -1.134  -1.721   4.165  1.00  0.00     0.107 C 
BRANCH   6   7
ATOM      7  C   UNL     1      -1.748  -0.900   3.002  1.00  0.00    -0.018 C 
ATOM      8  C   UNL     1      -0.600  -0.059   2.420  1.00  0.00     0.012 C 
ATOM      9  C   UNL     1      -2.790   0.149   3.417  1.00  0.00     0.012 C 
BRANCH   7  10
ATOM     10  C   UNL     1      -2.495  -1.797   1.978  1.00  0.00     0.107 C 
BRANCH  10  11
ATOM     11  C   UNL     1      -1.833  -3.045   1.424  1.00  0.00     0.220 C 
ATOM     12  N   UNL     1      -1.073  -2.969   0.299  1.00  0.00    -0.351 N 
ATOM     13  H   UNL     1      -0.806  -3.835  -0.085  1.00  0.00     0.163 HD
ATOM     14  O   UNL     1      -2.009  -4.152   1.929  1.00  0.00    -0.275 OA
BRANCH  12  15
ATOM     15  C   UNL     1      -0.598  -1.798  -0.419  1.00  0.00     0.110 C 
BRANCH  15  16
ATOM     16  C   UNL     1       0.948  -1.842  -0.589  1.00  0.00     0.007 C 
ATOM     17  C   UNL     1       1.491  -0.430  -0.839  1.00  0.00     0.009 C 
ATOM     18  C   UNL     1       1.718  -2.464   0.592  1.00  0.00     0.009 C 
ENDBRANCH  15  16
BRANCH  15  19
ATOM     19  C   UNL     1      -1.372  -1.623  -1.743  1.00  0.00     0.181 C 
BRANCH  19  20
ATOM     20  O   UNL     1      -1.056  -2.636  -2.692  1.00  0.00    -0.394 OA
ATOM     21  H   UNL     1      -0.112  -2.592  -2.909  1.00  0.00     0.210 HD
ENDBRANCH  19  20
ENDBRANCH  15  19
ENDBRANCH  12  15
ENDBRANCH  10  11
ENDBRANCH   7  10
ENDBRANCH   6   7
ENDBRANCH   3   6
ENDBRANCH   1   2
BRANCH   1  22
ATOM     22  C   UNL     1      -3.171   0.723   6.531  1.00  0.00     0.023 C 
BRANCH  22  23
ATOM     23  C   UNL     1      -4.096   0.693   7.728  1.00  0.00     0.023 C 
BRANCH  23  24
ATOM     24  C   UNL     1      -3.450   1.204   8.994  1.00  0.00     0.116 C 
BRANCH  24  25
ATOM     25  N   UNL     1      -2.891   2.545   8.850  1.00  0.00    -0.352 N 
ATOM     26  C   UNL     1      -3.080   3.630   9.672  1.00  0.00     0.251 C 
ATOM     27  H   UNL     1      -2.309   2.690   8.070  1.00  0.00     0.163 HD
ATOM     28  O   UNL     1      -2.667   4.742   9.361  1.00  0.00    -0.269 OA
BRANCH  26  29
ATOM     29  C   UNL     1      -3.828   3.412  10.921  1.00  0.00     0.039 A 
ATOM     30  C   UNL     1      -4.937   4.206  11.207  1.00  0.00     0.014 A 
ATOM     31  C   UNL     1      -3.504   2.309  11.716  1.00  0.00     0.014 A 
ATOM     32  C   UNL     1      -5.769   3.846  12.266  1.00  0.00     0.010 A 
ATOM     33  C   UNL     1      -4.407   1.878  12.671  1.00  0.00     0.010 A 
ATOM     34  C   UNL     1      -5.531   2.658  12.978  1.00  0.00    -0.014 A 
BRANCH  34  35
ATOM     35  C   UNL     1      -6.400   2.233  14.100  1.00  0.00     0.031 A 
ATOM     36  C   UNL     1      -5.790   2.066  15.467  1.00  0.00     0.074 A 
ATOM     37  C   UNL     1      -7.693   1.927  13.879  1.00  0.00     0.049 A 
ATOM     38  N   UNL     1      -6.331   1.607  16.564  1.00  0.00    -0.248 NA
ATOM     39  C   UNL     1      -4.362   2.409  15.605  1.00  0.00     0.031 C 
ATOM     40  C   UNL     1      -8.371   1.973  12.581  1.00  0.00     0.029 A 
ATOM     41  N   UNL     1      -8.669   1.510  14.746  1.00  0.00    -0.354 N 
ATOM     42  C   UNL     1      -5.305   1.572  17.500  1.00  0.00     0.074 A 
ATOM     43  C   UNL     1      -4.095   1.979  16.827  1.00  0.00     0.031 C 
ATOM     44  C   UNL     1      -9.662   1.638  12.746  1.00  0.00     0.029 A 
ATOM     45  C   UNL     1      -9.895   1.324  14.152  1.00  0.00     0.049 A 
ATOM     46  H   UNL     1      -8.508   1.357  15.705  1.00  0.00     0.167 HD
ATOM     47  C   UNL     1      -5.372   1.272  18.818  1.00  0.00     0.037 A 
ATOM     48  C   UNL     1     -11.072   0.953  14.689  1.00  0.00     0.037 A 
ATOM     49  C   UNL     1      -6.596   0.943  19.492  1.00  0.00     0.049 A 
ATOM     50  C   UNL     1     -11.141   0.695  16.170  1.00  0.00     0.074 A 
ATOM     51  C   UNL     1      -6.801   0.699  20.837  1.00  0.00     0.029 A 
ATOM     52  N   UNL     1      -7.831   0.833  18.869  1.00  0.00    -0.354 N 
ATOM     53  N   UNL     1     -10.174   0.730  17.058  1.00  0.00    -0.248 NA
ATOM     54  C   UNL     1     -12.459   0.363  16.727  1.00  0.00     0.031 C 
ATOM     55  C   UNL     1      -8.159   0.419  21.024  1.00  0.00     0.029 A 
ATOM     56  C   UNL     1      -8.804   0.523  19.801  1.00  0.00     0.049 A 
ATOM     57  H   UNL     1      -7.990   0.956  17.905  1.00  0.00     0.167 HD
ATOM     58  C   UNL     1     -10.771   0.450  18.281  1.00  0.00     0.074 A 
ATOM     59  C   UNL     1     -12.184   0.261  18.020  1.00  0.00     0.031 C 
ATOM     60  C   UNL     1     -10.205   0.356  19.510  1.00  0.00     0.037 A 
BRANCH  47  61
ATOM     61  C   UNL     1      -4.092   1.320  19.604  1.00  0.00     0.058 A 
ATOM     62  C   UNL     1      -3.437   2.534  19.870  1.00  0.00     0.135 A 
ATOM     63  C   UNL     1      -3.509   0.141  20.094  1.00  0.00     0.135 A 
ATOM     64  F   UNL     1      -3.938   3.689  19.404  1.00  0.00    -0.206 F 
ATOM     65  C   UNL     1      -2.230   2.574  20.558  1.00  0.00     0.059 A 
ATOM     66  C   UNL     1      -2.317   0.161  20.813  1.00  0.00     0.059 A 
ATOM     67  F   UNL     1      -4.090  -1.047  19.865  1.00  0.00    -0.206 F 
ATOM     68  C   UNL     1      -1.676   1.381  21.023  1.00  0.00     0.060 A 
BRANCH  68  69
ATOM     69  S   UNL     1      -0.107   1.449  21.913  1.00  0.00     0.124 S 
ATOM     70  O   UNL     1       0.837   1.663  20.821  1.00  0.00    -0.237 OA
ATOM     71  O   UNL     1      -0.304   2.583  22.811  1.00  0.00    -0.237 OA
ATOM     72  O   UNL     1      -0.030   0.145  22.564  1.00  0.00    -0.744 OA
ENDBRANCH  68  69
ENDBRANCH  47  61
BRANCH  48  73
ATOM     73  C   UNL     1     -12.287   0.860  13.836  1.00  0.00     0.058 A 
ATOM     74  C   UNL     1     -13.305   1.820  13.931  1.00  0.00     0.135 A 
ATOM     75  C   UNL     1     -12.448  -0.172  12.900  1.00  0.00     0.135 A 
ATOM     76  F   UNL     1     -13.197   2.826  14.813  1.00  0.00    -0.206 F 
ATOM     77  C   UNL     1     -14.450   1.752  13.144  1.00  0.00     0.059 A 
ATOM     78  C   UNL     1     -13.575  -0.251  12.085  1.00  0.00     0.059 A 
ATOM     79  F   UNL     1     -11.493  -1.104  12.755  1.00  0.00    -0.206 F 
ATOM     80  C   UNL     1     -14.575   0.711  12.222  1.00  0.00     0.060 A 
BRANCH  80  81
ATOM     81  S   UNL     1     -16.044   0.658  11.171  1.00  0.00     0.124 S 
ATOM     82  O   UNL     1     -17.058   0.189  12.107  1.00  0.00    -0.237 OA
ATOM     83  O   UNL     1     -16.165   2.047  10.741  1.00  0.00    -0.237 OA
ATOM     84  O   UNL     1     -15.668  -0.284  10.120  1.00  0.00    -0.744 OA
ENDBRANCH  80  81
ENDBRANCH  48  73
BRANCH  60  85
ATOM     85  C   UNL     1     -11.119   0.073  20.666  1.00  0.00     0.058 A 
ATOM     86  C   UNL     1     -11.656  -1.204  20.882  1.00  0.00     0.135 A 
ATOM     87  C   UNL     1     -11.412   1.080  21.600  1.00  0.00     0.135 A 
ATOM     88  F   UNL     1     -11.406  -2.198  20.014  1.00  0.00    -0.206 F 
ATOM     89  C   UNL     1     -12.475  -1.470  21.973  1.00  0.00     0.059 A 
ATOM     90  C   UNL     1     -12.208   0.831  22.712  1.00  0.00     0.059 A 
ATOM     91  F   UNL     1     -10.910   2.315  21.444  1.00  0.00    -0.206 F 
ATOM     92  C   UNL     1     -12.745  -0.445  22.883  1.00  0.00     0.060 A 
BRANCH  92  93
ATOM     93  S   UNL     1     -13.784  -0.808  24.313  1.00  0.00     0.124 S 
ATOM     94  O   UNL     1     -15.114  -0.824  23.713  1.00  0.00    -0.237 OA
ATOM     95  O   UNL     1     -13.271  -2.102  24.754  1.00  0.00    -0.237 OA
ATOM     96  O   UNL     1     -13.515   0.306  25.218  1.00  0.00    -0.744 OA
ENDBRANCH  92  93
ENDBRANCH  60  85
ENDBRANCH  34  35
ENDBRANCH  26  29
ENDBRANCH  24  25
ENDBRANCH  23  24
ENDBRANCH  22  23
ENDBRANCH   1  22
TORSDOF 21
