REMARK SMILES O=C(NCCCCNC(=O)c1ccccc1Sc1ccc(S(=O)(=O)N2CCCC2)cc1[N+](=O)[O-])c1ccc(-c2c3nc(c(-c4c(F)cc(S(=O)(=O)[O-])cc4F)c4ccc([nH]4)c(-c4c(F)cc(S(=O)(=O)[O-])cc4F)c4nc(c(-c5c(F)cc(S(=O)(=O)[O-])cc5F)c5ccc2[nH]5)C=C4)C=C3)cc1
REMARK SMILES IDX 6 1 5 2 4 3 3 4 1 5 2 6 35 8 36 9 100 10 37 11 99 12 38 13
REMARK SMILES IDX 39 14 40 15 93 16 41 17 98 18 92 19 94 20 42 21 97 22 91 23
REMARK SMILES IDX 90 24 43 26 77 27 56 28 76 29 57 30 60 31 75 32 95 33 58 34
REMARK SMILES IDX 59 35 74 37 96 38 61 39 44 40 45 41 54 42 46 43 47 44 53 45
REMARK SMILES IDX 55 46 48 47 49 48 50 49 51 50 52 51 78 52 79 53 88 54 80 55
REMARK SMILES IDX 81 56 87 57 89 58 82 59 83 60 84 61 85 62 86 63 62 64 63 65
REMARK SMILES IDX 72 66 64 67 65 68 71 69 73 70 66 71 67 72 68 73 69 74 70 75
REMARK SMILES IDX 7 76 8 77 9 78 10 80 11 81 12 82 16 83 13 84 15 85 14 86
REMARK SMILES IDX 17 87 18 88 19 89 31 90 20 91 30 92 21 93 32 94 33 95 34 96
REMARK SMILES IDX 22 97 23 98 24 99 25 100 26 101 29 102 27 103 28 104
REMARK H PARENT 3 7 94 25 60 36 8 79
REMARK Flexibility Score: inf
ROOT
ATOM      1  C   UNL     1       3.689   4.054   0.784  1.00  0.00     0.023 C 
ENDROOT
BRANCH   1   2
ATOM      2  C   UNL     1       4.119   2.977  -0.223  1.00  0.00     0.023 C 
BRANCH   2   3
ATOM      3  C   UNL     1       3.799   1.537   0.161  1.00  0.00     0.116 C 
BRANCH   3   4
ATOM      4  N   UNL     1       2.397   1.191   0.031  1.00  0.00    -0.352 N 
ATOM      5  O   UNL     1       0.599   0.013  -0.638  1.00  0.00    -0.269 OA
ATOM      6  C   UNL     1       1.823   0.114  -0.606  1.00  0.00     0.251 C 
ATOM      7  H   UNL     1       1.766   1.814   0.459  1.00  0.00     0.163 HD
BRANCH   6   8
ATOM      8  C   UNL     1       2.664  -0.906  -1.278  1.00  0.00     0.039 A 
ATOM      9  C   UNL     1       3.693  -1.562  -0.603  1.00  0.00     0.014 A 
ATOM     10  C   UNL     1       2.381  -1.247  -2.603  1.00  0.00     0.014 A 
ATOM     11  C   UNL     1       4.506  -2.479  -1.277  1.00  0.00     0.010 A 
ATOM     12  C   UNL     1       3.155  -2.214  -3.259  1.00  0.00     0.010 A 
ATOM     13  C   UNL     1       4.235  -2.834  -2.608  1.00  0.00    -0.014 A 
BRANCH  13  14
ATOM     14  C   UNL     1       5.007  -3.913  -3.289  1.00  0.00     0.031 A 
ATOM     15  C   UNL     1       5.813  -3.632  -4.531  1.00  0.00     0.074 A 
ATOM     16  C   UNL     1       4.920  -5.177  -2.825  1.00  0.00     0.049 A 
ATOM     17  N   UNL     1       6.406  -4.477  -5.338  1.00  0.00    -0.248 NA
ATOM     18  C   UNL     1       5.966  -2.223  -4.927  1.00  0.00     0.031 C 
ATOM     19  C   UNL     1       4.165  -5.592  -1.640  1.00  0.00     0.029 A 
ATOM     20  N   UNL     1       5.447  -6.352  -3.306  1.00  0.00    -0.354 N 
ATOM     21  C   UNL     1       6.970  -3.711  -6.353  1.00  0.00     0.074 A 
ATOM     22  C   UNL     1       6.647  -2.330  -6.062  1.00  0.00     0.031 C 
ATOM     23  C   UNL     1       4.270  -6.921  -1.491  1.00  0.00     0.029 A 
ATOM     24  C   UNL     1       5.043  -7.464  -2.603  1.00  0.00     0.049 A 
ATOM     25  H   UNL     1       6.055  -6.395  -4.080  1.00  0.00     0.167 HD
ATOM     26  C   UNL     1       7.689  -4.125  -7.424  1.00  0.00     0.037 A 
ATOM     27  C   UNL     1       5.222  -8.777  -2.845  1.00  0.00     0.037 A 
ATOM     28  C   UNL     1       8.049  -5.498  -7.684  1.00  0.00     0.049 A 
ATOM     29  C   UNL     1       5.995  -9.208  -4.060  1.00  0.00     0.074 A 
ATOM     30  C   UNL     1       8.861  -5.995  -8.691  1.00  0.00     0.029 A 
ATOM     31  N   UNL     1       7.616  -6.590  -6.948  1.00  0.00    -0.354 N 
ATOM     32  N   UNL     1       6.572  -8.466  -4.974  1.00  0.00    -0.248 NA
ATOM     33  C   UNL     1       6.131 -10.654  -4.286  1.00  0.00     0.031 C 
ATOM     34  C   UNL     1       8.873  -7.391  -8.598  1.00  0.00     0.029 A 
ATOM     35  C   UNL     1       8.107  -7.761  -7.506  1.00  0.00     0.049 A 
ATOM     36  H   UNL     1       7.045  -6.541  -6.148  1.00  0.00     0.167 HD
ATOM     37  C   UNL     1       7.142  -9.354  -5.878  1.00  0.00     0.074 A 
ATOM     38  C   UNL     1       6.867 -10.688  -5.388  1.00  0.00     0.031 C 
ATOM     39  C   UNL     1       7.826  -9.086  -7.017  1.00  0.00     0.037 A 
BRANCH  26  40
ATOM     40  C   UNL     1       8.146  -3.101  -8.428  1.00  0.00     0.058 A 
ATOM     41  C   UNL     1       9.229  -2.247  -8.175  1.00  0.00     0.135 A 
ATOM     42  C   UNL     1       7.574  -3.072  -9.711  1.00  0.00     0.135 A 
ATOM     43  F   UNL     1       9.808  -2.230  -6.964  1.00  0.00    -0.206 F 
ATOM     44  C   UNL     1       9.732  -1.402  -9.160  1.00  0.00     0.059 A 
ATOM     45  C   UNL     1       8.073  -2.249 -10.718  1.00  0.00     0.059 A 
ATOM     46  F   UNL     1       6.537  -3.872 -10.007  1.00  0.00    -0.206 F 
ATOM     47  C   UNL     1       9.154  -1.417 -10.432  1.00  0.00     0.060 A 
BRANCH  47  48
ATOM     48  S   UNL     1       9.861  -0.361 -11.716  1.00  0.00     0.124 S 
ATOM     49  O   UNL     1       9.432   0.963 -11.275  1.00  0.00    -0.237 OA
ATOM     50  O   UNL     1      11.289  -0.636 -11.594  1.00  0.00    -0.237 OA
ATOM     51  O   UNL     1       9.234  -0.847 -12.941  1.00  0.00    -0.744 OA
ENDBRANCH  47  48
ENDBRANCH  26  40
BRANCH  27  52
ATOM     52  C   UNL     1       4.603  -9.789  -1.948  1.00  0.00     0.058 A 
ATOM     53  C   UNL     1       5.388 -10.613  -1.131  1.00  0.00     0.135 A 
ATOM     54  C   UNL     1       3.209  -9.961  -1.906  1.00  0.00     0.135 A 
ATOM     55  F   UNL     1       6.725 -10.493  -1.144  1.00  0.00    -0.206 F 
ATOM     56  C   UNL     1       4.818 -11.589  -0.320  1.00  0.00     0.059 A 
ATOM     57  C   UNL     1       2.614 -10.909  -1.082  1.00  0.00     0.059 A 
ATOM     58  F   UNL     1       2.412  -9.188  -2.659  1.00  0.00    -0.206 F 
ATOM     59  C   UNL     1       3.429 -11.731  -0.305  1.00  0.00     0.060 A 
BRANCH  59  60
ATOM     60  S   UNL     1       2.694 -12.985   0.766  1.00  0.00     0.124 S 
ATOM     61  O   UNL     1       2.960 -14.204   0.013  1.00  0.00    -0.237 OA
ATOM     62  O   UNL     1       3.453 -12.819   2.002  1.00  0.00    -0.237 OA
ATOM     63  O   UNL     1       1.294 -12.580   0.842  1.00  0.00    -0.744 OA
ENDBRANCH  59  60
ENDBRANCH  27  52
BRANCH  39  64
ATOM     64  C   UNL     1       8.331 -10.257  -7.813  1.00  0.00     0.058 A 
ATOM     65  C   UNL     1       7.461 -11.054  -8.573  1.00  0.00     0.135 A 
ATOM     66  C   UNL     1       9.702 -10.557  -7.856  1.00  0.00     0.135 A 
ATOM     67  F   UNL     1       6.140 -10.817  -8.556  1.00  0.00    -0.206 F 
ATOM     68  C   UNL     1       7.930 -12.118  -9.336  1.00  0.00     0.059 A 
ATOM     69  C   UNL     1      10.196 -11.600  -8.633  1.00  0.00     0.059 A 
ATOM     70  F   UNL     1      10.578  -9.822  -7.152  1.00  0.00    -0.206 F 
ATOM     71  C   UNL     1       9.301 -12.381  -9.363  1.00  0.00     0.060 A 
BRANCH  71  72
ATOM     72  S   UNL     1       9.901 -13.739 -10.391  1.00  0.00     0.124 S 
ATOM     73  O   UNL     1       9.484 -14.902  -9.615  1.00  0.00    -0.237 OA
ATOM     74  O   UNL     1       9.185 -13.523 -11.645  1.00  0.00    -0.237 OA
ATOM     75  O   UNL     1      11.341 -13.509 -10.451  1.00  0.00    -0.744 OA
ENDBRANCH  71  72
ENDBRANCH  39  64
ENDBRANCH  13  14
ENDBRANCH   6   8
ENDBRANCH   3   4
ENDBRANCH   2   3
ENDBRANCH   1   2
BRANCH   1  76
ATOM     76  C   UNL     1       4.240   3.928   2.209  1.00  0.00     0.116 C 
BRANCH  76  77
ATOM     77  N   UNL     1       5.688   3.872   2.263  1.00  0.00    -0.352 N 
ATOM     78  C   UNL     1       6.523   4.216   3.291  1.00  0.00     0.252 C 
ATOM     79  H   UNL     1       6.130   3.541   1.448  1.00  0.00     0.163 HD
ATOM     80  O   UNL     1       7.741   4.132   3.141  1.00  0.00    -0.269 OA
BRANCH  78  81
ATOM     81  C   UNL     1       6.012   4.748   4.569  1.00  0.00     0.053 A 
ATOM     82  C   UNL     1       6.442   6.069   4.824  1.00  0.00     0.015 A 
ATOM     83  C   UNL     1       5.268   4.048   5.537  1.00  0.00     0.025 A 
ATOM     84  C   UNL     1       6.076   6.732   5.992  1.00  0.00     0.001 A 
ATOM     85  C   UNL     1       4.874   4.765   6.689  1.00  0.00     0.016 A 
ATOM     86  C   UNL     1       5.267   6.087   6.914  1.00  0.00     0.001 A 
BRANCH  83  87
ATOM     87  S   UNL     1       4.750   2.327   5.604  1.00  0.00    -0.082 SA
BRANCH  87  88
ATOM     88  C   UNL     1       5.854   1.380   4.581  1.00  0.00     0.090 A 
ATOM     89  C   UNL     1       5.193   0.534   3.675  1.00  0.00     0.024 A 
ATOM     90  C   UNL     1       7.247   1.478   4.477  1.00  0.00     0.284 A 
ATOM     91  C   UNL     1       5.856   0.008   2.568  1.00  0.00     0.023 A 
ATOM     92  C   UNL     1       7.883   1.064   3.293  1.00  0.00     0.108 A 
ATOM     93  C   UNL     1       7.167   0.389   2.312  1.00  0.00     0.089 A 
BRANCH  90  94
ATOM     94  N   UNL     1       8.095   2.019   5.553  1.00  0.00     0.063 N 
ATOM     95  O   UNL     1       9.308   2.138   5.321  1.00  0.00    -0.258 OA
ATOM     96  O   UNL     1       7.586   2.235   6.659  1.00  0.00    -0.258 OA
ENDBRANCH  90  94
BRANCH  93  97
ATOM     97  S   UNL     1       7.789   0.142   0.658  1.00  0.00     0.243 S 
ATOM     98  O   UNL     1       7.173  -1.076   0.187  1.00  0.00    -0.207 OA
ATOM     99  O   UNL     1       7.564   1.407  -0.015  1.00  0.00    -0.207 OA
BRANCH  97 100
ATOM    100  N   UNL     1       9.430  -0.134   0.792  1.00  0.00    -0.198 NA
ATOM    101  C   UNL     1       9.922  -1.347   1.455  1.00  0.00     0.102 C 
ATOM    102  C   UNL     1      10.379   0.971   1.003  1.00  0.00     0.102 C 
ATOM    103  C   UNL     1      10.719  -0.813   2.631  1.00  0.00     0.018 C 
ATOM    104  C   UNL     1      11.300   0.502   2.129  1.00  0.00     0.018 C 
ENDBRANCH  97 100
ENDBRANCH  93  97
ENDBRANCH  87  88
ENDBRANCH  83  87
ENDBRANCH  78  81
ENDBRANCH  76  77
ENDBRANCH   1  76
TORSDOF 19
