REMARK SMILES C=CCN(CC(=O)NCCCCNC(=O)c1ccc(-c2c3nc(c(-c4c(F)cc(S(=O)(=O)[O-])cc4F)c4ccc([nH]4)c(-c4c(F)cc(S(=O)(=O)[O-])cc4F)c4nc(c(-c5c(F)cc(S(=O)(=O)[O-])cc5F)c5ccc2[nH]5)C=C4)C=C3)cc1)c1nc2ccccc2s1
REMARK SMILES IDX 10 1 9 2 8 3 6 4 7 5 5 7 4 8 3 9 2 10 1 11 82 12 83 13 90 14
REMARK SMILES IDX 84 15 89 16 85 17 88 18 86 19 87 20 11 21 12 22 13 23 14 24
REMARK SMILES IDX 15 26 16 27 17 28 81 29 18 30 80 31 19 32 20 33 21 34 74 35
REMARK SMILES IDX 22 36 79 37 73 38 75 39 23 40 78 41 72 42 71 43 24 45 58 46
REMARK SMILES IDX 37 47 57 48 38 49 41 50 56 51 76 52 39 53 40 54 55 56 77 57
REMARK SMILES IDX 42 58 25 59 26 60 35 61 27 62 28 63 34 64 36 65 29 66 30 67
REMARK SMILES IDX 31 68 32 69 33 70 59 71 60 72 69 73 61 74 62 75 68 76 70 77
REMARK SMILES IDX 63 78 64 79 65 80 66 81 67 82 43 83 44 84 53 85 45 86 46 87
REMARK SMILES IDX 52 88 54 89 47 90 48 91 49 92 50 93 51 94
REMARK H PARENT 8 6 13 25 75 44 41 55
REMARK Flexibility Score: inf
ROOT
ATOM      1  C   UNL     1      -4.112   0.489   0.677  1.00  0.00     0.023 C 
ENDROOT
BRANCH   1   2
ATOM      2  C   UNL     1      -4.328   0.336  -0.826  1.00  0.00     0.116 C 
BRANCH   2   3
ATOM      3  N   UNL     1      -4.591   1.597  -1.476  1.00  0.00    -0.355 N 
ATOM      4  C   UNL     1      -3.774   2.341  -2.282  1.00  0.00     0.239 C 
ATOM      5  O   UNL     1      -4.280   3.304  -2.868  1.00  0.00    -0.273 OA
ATOM      6  H   UNL     1      -5.486   1.976  -1.317  1.00  0.00     0.163 HD
BRANCH   4   7
ATOM      7  C   UNL     1      -2.321   1.910  -2.551  1.00  0.00     0.219 C 
BRANCH   7   8
ATOM      8  N   UNL     1      -1.421   1.901  -1.378  1.00  0.00    -0.335 N 
BRANCH   8   9
ATOM      9  C   UNL     1      -0.911   0.627  -0.903  1.00  0.00     0.146 C 
BRANCH   9  10
ATOM     10  C   UNL     1       0.577   0.509  -1.027  1.00  0.00    -0.014 C 
ATOM     11  C   UNL     1       1.361   0.064  -0.034  1.00  0.00     0.006 C 
ENDBRANCH   9  10
ENDBRANCH   8   9
BRANCH   8  12
ATOM     12  C   UNL     1      -1.244   3.084  -0.713  1.00  0.00     0.187 A 
ATOM     13  N   UNL     1      -2.103   4.074  -0.804  1.00  0.00    -0.220 NA
ATOM     14  S   UNL     1       0.128   3.466   0.270  1.00  0.00    -0.097 S 
ATOM     15  C   UNL     1      -1.674   5.195  -0.126  1.00  0.00     0.084 A 
ATOM     16  C   UNL     1      -0.426   5.077   0.476  1.00  0.00     0.056 A 
ATOM     17  C   UNL     1      -2.370   6.415  -0.021  1.00  0.00     0.030 A 
ATOM     18  C   UNL     1       0.187   6.158   1.131  1.00  0.00     0.021 A 
ATOM     19  C   UNL     1      -1.779   7.495   0.641  1.00  0.00     0.002 A 
ATOM     20  C   UNL     1      -0.508   7.371   1.195  1.00  0.00     0.002 A 
ENDBRANCH   8  12
ENDBRANCH   7   8
ENDBRANCH   4   7
ENDBRANCH   2   3
ENDBRANCH   1   2
BRANCH   1  21
ATOM     21  C   UNL     1      -5.363   0.876   1.468  1.00  0.00     0.023 C 
BRANCH  21  22
ATOM     22  C   UNL     1      -6.565  -0.046   1.290  1.00  0.00     0.116 C 
BRANCH  22  23
ATOM     23  N   UNL     1      -6.285  -1.428   1.651  1.00  0.00    -0.352 N 
ATOM     24  C   UNL     1      -7.065  -2.313   2.361  1.00  0.00     0.251 C 
ATOM     25  H   UNL     1      -5.418  -1.778   1.345  1.00  0.00     0.163 HD
ATOM     26  O   UNL     1      -6.614  -3.405   2.677  1.00  0.00    -0.269 OA
BRANCH  24  27
ATOM     27  C   UNL     1      -8.434  -1.921   2.769  1.00  0.00     0.039 A 
ATOM     28  C   UNL     1      -8.835  -2.155   4.087  1.00  0.00     0.014 A 
ATOM     29  C   UNL     1      -9.310  -1.311   1.867  1.00  0.00     0.014 A 
ATOM     30  C   UNL     1     -10.087  -1.711   4.518  1.00  0.00     0.010 A 
ATOM     31  C   UNL     1     -10.528  -0.806   2.318  1.00  0.00     0.010 A 
ATOM     32  C   UNL     1     -10.929  -0.996   3.649  1.00  0.00    -0.014 A 
BRANCH  32  33
ATOM     33  C   UNL     1     -12.217  -0.424   4.123  1.00  0.00     0.031 A 
ATOM     34  C   UNL     1     -13.521  -0.888   3.529  1.00  0.00     0.074 A 
ATOM     35  C   UNL     1     -12.207   0.565   5.041  1.00  0.00     0.049 A 
ATOM     36  N   UNL     1     -14.733  -0.461   3.769  1.00  0.00    -0.248 NA
ATOM     37  C   UNL     1     -13.452  -1.952   2.513  1.00  0.00     0.031 C 
ATOM     38  C   UNL     1     -11.005   1.146   5.646  1.00  0.00     0.029 A 
ATOM     39  N   UNL     1     -13.236   1.271   5.614  1.00  0.00    -0.354 N 
ATOM     40  C   UNL     1     -15.567  -1.184   2.924  1.00  0.00     0.074 A 
ATOM     41  C   UNL     1     -14.720  -2.052   2.136  1.00  0.00     0.031 C 
ATOM     42  C   UNL     1     -11.366   2.109   6.509  1.00  0.00     0.029 A 
ATOM     43  C   UNL     1     -12.819   2.243   6.495  1.00  0.00     0.049 A 
ATOM     44  H   UNL     1     -14.184   1.098   5.413  1.00  0.00     0.167 HD
ATOM     45  C   UNL     1     -16.917  -1.141   2.828  1.00  0.00     0.037 A 
ATOM     46  C   UNL     1     -13.524   3.150   7.200  1.00  0.00     0.037 A 
ATOM     47  C   UNL     1     -17.758  -0.305   3.645  1.00  0.00     0.049 A 
ATOM     48  C   UNL     1     -15.026   3.157   7.090  1.00  0.00     0.074 A 
ATOM     49  C   UNL     1     -19.142  -0.260   3.685  1.00  0.00     0.029 A 
ATOM     50  N   UNL     1     -17.302   0.635   4.556  1.00  0.00    -0.354 N 
ATOM     51  N   UNL     1     -15.802   2.396   6.355  1.00  0.00    -0.248 NA
ATOM     52  C   UNL     1     -15.751   4.138   7.911  1.00  0.00     0.031 C 
ATOM     53  C   UNL     1     -19.521   0.744   4.581  1.00  0.00     0.029 A 
ATOM     54  C   UNL     1     -18.376   1.284   5.142  1.00  0.00     0.049 A 
ATOM     55  H   UNL     1     -16.355   0.814   4.757  1.00  0.00     0.167 HD
ATOM     56  C   UNL     1     -17.105   2.788   6.646  1.00  0.00     0.074 A 
ATOM     57  C   UNL     1     -17.013   3.840   7.637  1.00  0.00     0.031 C 
ATOM     58  C   UNL     1     -18.271   2.322   6.137  1.00  0.00     0.037 A 
BRANCH  45  59
ATOM     59  C   UNL     1     -17.587  -2.025   1.812  1.00  0.00     0.058 A 
ATOM     60  C   UNL     1     -17.672  -3.415   1.983  1.00  0.00     0.135 A 
ATOM     61  C   UNL     1     -18.235  -1.461   0.700  1.00  0.00     0.135 A 
ATOM     62  F   UNL     1     -17.058  -4.008   3.019  1.00  0.00    -0.206 F 
ATOM     63  C   UNL     1     -18.371  -4.216   1.086  1.00  0.00     0.059 A 
ATOM     64  C   UNL     1     -18.961  -2.240  -0.196  1.00  0.00     0.059 A 
ATOM     65  F   UNL     1     -18.182  -0.137   0.487  1.00  0.00    -0.206 F 
ATOM     66  C   UNL     1     -19.020  -3.618   0.004  1.00  0.00     0.060 A 
BRANCH  66  67
ATOM     67  S   UNL     1     -19.966  -4.668  -1.119  1.00  0.00     0.124 S 
ATOM     68  O   UNL     1     -18.901  -5.379  -1.820  1.00  0.00    -0.237 OA
ATOM     69  O   UNL     1     -20.763  -5.470  -0.198  1.00  0.00    -0.237 OA
ATOM     70  O   UNL     1     -20.718  -3.713  -1.927  1.00  0.00    -0.744 OA
ENDBRANCH  66  67
ENDBRANCH  45  59
BRANCH  46  71
ATOM     71  C   UNL     1     -12.824   4.135   8.069  1.00  0.00     0.058 A 
ATOM     72  C   UNL     1     -12.947   4.090   9.466  1.00  0.00     0.135 A 
ATOM     73  C   UNL     1     -12.038   5.159   7.517  1.00  0.00     0.135 A 
ATOM     74  F   UNL     1     -13.690   3.134  10.044  1.00  0.00    -0.206 F 
ATOM     75  C   UNL     1     -12.347   5.045  10.283  1.00  0.00     0.059 A 
ATOM     76  C   UNL     1     -11.403   6.107   8.315  1.00  0.00     0.059 A 
ATOM     77  F   UNL     1     -11.870   5.237   6.188  1.00  0.00    -0.206 F 
ATOM     78  C   UNL     1     -11.580   6.052   9.696  1.00  0.00     0.060 A 
BRANCH  78  79
ATOM     79  S   UNL     1     -10.797   7.280  10.764  1.00  0.00     0.124 S 
ATOM     80  O   UNL     1     -11.940   8.095  11.160  1.00  0.00    -0.237 OA
ATOM     81  O   UNL     1     -10.211   6.449  11.810  1.00  0.00    -0.237 OA
ATOM     82  O   UNL     1      -9.835   7.929   9.877  1.00  0.00    -0.744 OA
ENDBRANCH  78  79
ENDBRANCH  46  71
BRANCH  58  83
ATOM     83  C   UNL     1     -19.548   2.913   6.669  1.00  0.00     0.058 A 
ATOM     84  C   UNL     1     -19.948   4.220   6.349  1.00  0.00     0.135 A 
ATOM     85  C   UNL     1     -20.407   2.143   7.470  1.00  0.00     0.135 A 
ATOM     86  F   UNL     1     -19.161   5.001   5.592  1.00  0.00    -0.206 F 
ATOM     87  C   UNL     1     -21.142   4.752   6.827  1.00  0.00     0.059 A 
ATOM     88  C   UNL     1     -21.620   2.643   7.932  1.00  0.00     0.059 A 
ATOM     89  F   UNL     1     -20.079   0.882   7.796  1.00  0.00    -0.206 F 
ATOM     90  C   UNL     1     -21.972   3.954   7.616  1.00  0.00     0.060 A 
BRANCH  90  91
ATOM     91  S   UNL     1     -23.532   4.647   8.206  1.00  0.00     0.124 S 
ATOM     92  O   UNL     1     -23.072   5.566   9.242  1.00  0.00    -0.237 OA
ATOM     93  O   UNL     1     -24.073   5.268   7.001  1.00  0.00    -0.237 OA
ATOM     94  O   UNL     1     -24.264   3.478   8.684  1.00  0.00    -0.744 OA
ENDBRANCH  90  91
ENDBRANCH  58  83
ENDBRANCH  32  33
ENDBRANCH  24  27
ENDBRANCH  22  23
ENDBRANCH  21  22
ENDBRANCH   1  21
TORSDOF 18
