REMARK SMILES O=C(CCN1C(=O)S/C(=C\c2ccccc2F)C1=O)Nc1ccc(C(=O)NCCCCNC(=O)c2ccc(-c3c4nc(c(-c5c(F)cc(S(=O)(=O)[O-])cc5F)c5ccc([nH]5)c(-c5c(F)cc(S(=O)(=O)[O-])cc5F)c5nc(c(-c6c(F)cc(S(=O)(=O)[O-])cc6F)c6ccc3[nH]6)C=C5)C=C4)cc2)c(O)c1
REMARK SMILES IDX 28 1 27 2 25 3 26 4 24 6 21 7 22 8 103 9 23 10 101 11 20 12
REMARK SMILES IDX 1 13 2 14 3 16 4 17 5 18 6 19 18 20 7 21 8 22 9 23 19 24
REMARK SMILES IDX 10 25 11 26 12 27 16 28 13 29 15 30 17 31 14 32 102 33 29 35
REMARK SMILES IDX 30 36 31 37 32 38 33 39 34 41 35 42 36 43 100 44 37 45 99 46
REMARK SMILES IDX 38 47 39 48 40 49 93 50 41 51 98 52 92 53 94 54 42 55 97 56
REMARK SMILES IDX 91 57 90 58 43 60 77 61 56 62 76 63 57 64 60 65 75 66 95 67
REMARK SMILES IDX 58 68 59 69 74 71 96 72 61 73 44 74 45 75 54 76 46 77 47 78
REMARK SMILES IDX 53 79 55 80 48 81 49 82 50 83 51 84 52 85 78 86 79 87 88 88
REMARK SMILES IDX 80 89 81 90 87 91 89 92 82 93 83 94 84 95 85 96 86 97 62 98
REMARK SMILES IDX 63 99 72 100 64 101 65 102 71 103 73 104 66 105 67 106
REMARK SMILES IDX 68 107 69 108 70 109
REMARK H PARENT 27 5 20 15 102 34 32 40 94 59 60 70
REMARK Flexibility Score: inf
ROOT
ATOM      1  C   UNL     1       0.991   5.285   4.912  1.00  0.00     0.116 C 
ENDROOT
BRANCH   1   2
ATOM      2  N   UNL     1       0.237   4.295   5.667  1.00  0.00    -0.352 N 
ATOM      3  C   UNL     1       0.196   2.925   5.541  1.00  0.00     0.255 C 
ATOM      4  O   UNL     1      -0.506   2.271   6.308  1.00  0.00    -0.269 OA
ATOM      5  H   UNL     1      -0.334   4.664   6.380  1.00  0.00     0.163 HD
BRANCH   3   6
ATOM      6  C   UNL     1       0.935   2.221   4.466  1.00  0.00     0.081 A 
ATOM      7  C   UNL     1       2.065   0.996   2.201  1.00  0.00     0.044 A 
ATOM      8  C   UNL     1       0.794   0.627   2.629  1.00  0.00     0.027 A 
ATOM      9  C   UNL     1       2.808   1.898   2.971  1.00  0.00     0.073 A 
ATOM     10  C   UNL     1       0.231   1.237   3.756  1.00  0.00     0.020 A 
ATOM     11  C   UNL     1       2.260   2.478   4.115  1.00  0.00     0.130 A 
BRANCH   7  12
ATOM     12  N   UNL     1       2.674   0.502   1.034  1.00  0.00    -0.326 N 
ATOM     13  O   UNL     1       0.878  -0.396  -0.134  1.00  0.00    -0.275 OA
ATOM     14  C   UNL     1       2.075  -0.148  -0.025  1.00  0.00     0.226 C 
ATOM     15  H   UNL     1       3.647   0.636   0.964  1.00  0.00     0.169 HD
BRANCH  14  16
ATOM     16  C   UNL     1       3.055  -0.615  -1.091  1.00  0.00     0.122 C 
BRANCH  16  17
ATOM     17  C   UNL     1       3.952   0.475  -1.688  1.00  0.00     0.140 C 
BRANCH  17  18
ATOM     18  N   UNL     1       4.955   1.020  -0.776  1.00  0.00    -0.268 N 
ATOM     19  C   UNL     1       5.112   2.377  -0.624  1.00  0.00     0.293 C 
ATOM     20  C   UNL     1       5.879   0.222  -0.138  1.00  0.00     0.268 C 
ATOM     21  O   UNL     1       4.495   3.258  -1.194  1.00  0.00    -0.261 OA
ATOM     22  S   UNL     1       6.363   2.704   0.561  1.00  0.00    -0.022 SA
ATOM     23  C   UNL     1       6.638   1.033   0.849  1.00  0.00     0.083 C 
ATOM     24  O   UNL     1       6.028  -0.980  -0.296  1.00  0.00    -0.268 OA
ATOM     25  C   UNL     1       7.323   0.458   1.846  1.00  0.00     0.032 C 
BRANCH  25  26
ATOM     26  C   UNL     1       7.981   1.172   2.946  1.00  0.00     0.012 A 
ATOM     27  C   UNL     1       9.371   1.114   3.076  1.00  0.00     0.011 A 
ATOM     28  C   UNL     1       7.246   1.896   3.893  1.00  0.00     0.130 A 
ATOM     29  C   UNL     1      10.008   1.798   4.116  1.00  0.00     0.001 A 
ATOM     30  C   UNL     1       7.874   2.584   4.926  1.00  0.00     0.040 A 
ATOM     31  F   UNL     1       5.908   1.927   3.823  1.00  0.00    -0.206 F 
ATOM     32  C   UNL     1       9.262   2.539   5.035  1.00  0.00     0.003 A 
ENDBRANCH  25  26
ENDBRANCH  17  18
ENDBRANCH  16  17
ENDBRANCH  14  16
ENDBRANCH   7  12
BRANCH  11  33
ATOM     33  O   UNL     1       3.104   3.272   4.840  1.00  0.00    -0.507 OA
ATOM     34  H   UNL     1       2.797   3.692   5.620  1.00  0.00     0.293 HD
ENDBRANCH  11  33
ENDBRANCH   3   6
ENDBRANCH   1   2
BRANCH   1  35
ATOM     35  C   UNL     1       0.266   6.605   4.672  1.00  0.00     0.023 C 
BRANCH  35  36
ATOM     36  C   UNL     1      -0.213   7.361   5.910  1.00  0.00     0.023 C 
BRANCH  36  37
ATOM     37  C   UNL     1       0.797   7.524   7.040  1.00  0.00     0.116 C 
BRANCH  37  38
ATOM     38  N   UNL     1       2.000   8.245   6.651  1.00  0.00    -0.352 N 
ATOM     39  C   UNL     1       2.534   9.417   7.137  1.00  0.00     0.251 C 
ATOM     40  H   UNL     1       2.515   7.827   5.924  1.00  0.00     0.163 HD
ATOM     41  O   UNL     1       3.518   9.903   6.587  1.00  0.00    -0.269 OA
BRANCH  39  42
ATOM     42  C   UNL     1       1.912  10.114   8.287  1.00  0.00     0.039 A 
ATOM     43  C   UNL     1       1.761  11.502   8.227  1.00  0.00     0.014 A 
ATOM     44  C   UNL     1       1.474   9.418   9.415  1.00  0.00     0.014 A 
ATOM     45  C   UNL     1       1.093  12.173   9.256  1.00  0.00     0.010 A 
ATOM     46  C   UNL     1       0.723  10.073  10.391  1.00  0.00     0.010 A 
ATOM     47  C   UNL     1       0.521  11.459  10.323  1.00  0.00    -0.014 A 
BRANCH  47  48
ATOM     48  C   UNL     1      -0.305  12.151  11.350  1.00  0.00     0.031 A 
ATOM     49  C   UNL     1       0.101  12.146  12.800  1.00  0.00     0.074 A 
ATOM     50  C   UNL     1      -1.449  12.761  10.976  1.00  0.00     0.049 A 
ATOM     51  N   UNL     1      -0.491  12.706  13.824  1.00  0.00    -0.248 NA
ATOM     52  C   UNL     1       1.317  11.395  13.152  1.00  0.00     0.031 C 
ATOM     53  C   UNL     1      -1.985  12.786   9.613  1.00  0.00     0.029 A 
ATOM     54  N   UNL     1      -2.362  13.486  11.702  1.00  0.00    -0.354 N 
ATOM     55  C   UNL     1       0.278  12.380  14.935  1.00  0.00     0.074 A 
ATOM     56  C   UNL     1       1.338  11.512  14.472  1.00  0.00     0.031 C 
ATOM     57  C   UNL     1      -3.099  13.534   9.591  1.00  0.00     0.029 A 
ATOM     58  C   UNL     1      -3.384  14.007  10.941  1.00  0.00     0.049 A 
ATOM     59  H   UNL     1      -2.293  13.619  12.675  1.00  0.00     0.167 HD
ATOM     60  C   UNL     1       0.136  12.794  16.217  1.00  0.00     0.037 A 
ATOM     61  C   UNL     1      -4.428  14.785  11.287  1.00  0.00     0.037 A 
ATOM     62  C   UNL     1      -0.916  13.668  16.671  1.00  0.00     0.049 A 
ATOM     63  C   UNL     1      -4.575  15.219  12.720  1.00  0.00     0.074 A 
ATOM     64  C   UNL     1      -1.121  14.179  17.941  1.00  0.00     0.029 A 
ATOM     65  N   UNL     1      -1.942  14.158  15.875  1.00  0.00    -0.354 N 
ATOM     66  N   UNL     1      -3.802  14.950  13.745  1.00  0.00    -0.248 NA
ATOM     67  C   UNL     1      -5.731  16.065  13.041  1.00  0.00     0.031 C 
ATOM     68  C   UNL     1      -2.298  14.933  17.925  1.00  0.00     0.029 A 
ATOM     69  C   UNL     1      -2.797  14.943  16.633  1.00  0.00     0.049 A 
ATOM     70  H   UNL     1      -2.047  13.975  14.913  1.00  0.00     0.167 HD
ATOM     71  C   UNL     1      -4.371  15.605  14.832  1.00  0.00     0.074 A 
ATOM     72  C   UNL     1      -5.537  16.305  14.331  1.00  0.00     0.031 C 
ATOM     73  C   UNL     1      -3.967  15.620  16.128  1.00  0.00     0.037 A 
BRANCH  60  74
ATOM     74  C   UNL     1       1.154  12.320  17.223  1.00  0.00     0.058 A 
ATOM     75  C   UNL     1       0.785  11.458  18.267  1.00  0.00     0.135 A 
ATOM     76  C   UNL     1       2.487  12.761  17.182  1.00  0.00     0.135 A 
ATOM     77  F   UNL     1      -0.473  10.999  18.356  1.00  0.00    -0.206 F 
ATOM     78  C   UNL     1       1.698  11.058  19.239  1.00  0.00     0.059 A 
ATOM     79  C   UNL     1       3.425  12.350  18.125  1.00  0.00     0.059 A 
ATOM     80  F   UNL     1       2.901  13.572  16.194  1.00  0.00    -0.206 F 
ATOM     81  C   UNL     1       3.017  11.508  19.158  1.00  0.00     0.060 A 
BRANCH  81  82
ATOM     82  S   UNL     1       4.197  10.947  20.404  1.00  0.00     0.124 S 
ATOM     83  O   UNL     1       3.718  11.627  21.601  1.00  0.00    -0.237 OA
ATOM     84  O   UNL     1       4.008   9.500  20.373  1.00  0.00    -0.237 OA
ATOM     85  O   UNL     1       5.481  11.413  19.887  1.00  0.00    -0.744 OA
ENDBRANCH  81  82
ENDBRANCH  60  74
BRANCH  61  86
ATOM     86  C   UNL     1      -5.384  15.241  10.242  1.00  0.00     0.058 A 
ATOM     87  C   UNL     1      -6.246  14.340   9.596  1.00  0.00     0.135 A 
ATOM     88  C   UNL     1      -5.416  16.582   9.830  1.00  0.00     0.135 A 
ATOM     89  F   UNL     1      -6.250  13.044   9.944  1.00  0.00    -0.206 F 
ATOM     90  C   UNL     1      -7.077  14.745   8.557  1.00  0.00     0.059 A 
ATOM     91  C   UNL     1      -6.260  17.017   8.813  1.00  0.00     0.059 A 
ATOM     92  F   UNL     1      -4.621  17.484  10.427  1.00  0.00    -0.206 F 
ATOM     93  C   UNL     1      -7.072  16.085   8.168  1.00  0.00     0.060 A 
BRANCH  93  94
ATOM     94  S   UNL     1      -8.132  16.581   6.792  1.00  0.00     0.124 S 
ATOM     95  O   UNL     1      -7.503  15.883   5.675  1.00  0.00    -0.237 OA
ATOM     96  O   UNL     1      -9.432  16.069   7.210  1.00  0.00    -0.237 OA
ATOM     97  O   UNL     1      -8.007  18.034   6.775  1.00  0.00    -0.744 OA
ENDBRANCH  93  94
ENDBRANCH  61  86
BRANCH  73  98
ATOM     98  C   UNL     1      -4.794  16.420  17.100  1.00  0.00     0.058 A 
ATOM     99  C   UNL     1      -4.279  17.585  17.689  1.00  0.00     0.135 A 
ATOM    100  C   UNL     1      -6.084  16.012  17.478  1.00  0.00     0.135 A 
ATOM    101  F   UNL     1      -3.048  18.018  17.373  1.00  0.00    -0.206 F 
ATOM    102  C   UNL     1      -5.010  18.316  18.620  1.00  0.00     0.059 A 
ATOM    103  C   UNL     1      -6.847  16.746  18.382  1.00  0.00     0.059 A 
ATOM    104  F   UNL     1      -6.628  14.909  16.940  1.00  0.00    -0.206 F 
ATOM    105  C   UNL     1      -6.297  17.892  18.955  1.00  0.00     0.060 A 
BRANCH 105 106
ATOM    106  S   UNL     1      -7.253  18.884  20.121  1.00  0.00     0.124 S 
ATOM    107  O   UNL     1      -6.554  18.629  21.376  1.00  0.00    -0.237 OA
ATOM    108  O   UNL     1      -7.106  20.229  19.573  1.00  0.00    -0.237 OA
ATOM    109  O   UNL     1      -8.596  18.320  20.025  1.00  0.00    -0.744 OA
ENDBRANCH 105 106
ENDBRANCH  73  98
ENDBRANCH  47  48
ENDBRANCH  39  42
ENDBRANCH  37  38
ENDBRANCH  36  37
ENDBRANCH  35  36
ENDBRANCH   1  35
TORSDOF 20
