REMARK SMILES Cc1cc(C)c(C#N)c(NC[C@H](CC(C)C)C(=O)NCCCCNC(=O)c2ccc(-c3c4nc(c(-c5c(F)cc(S(=O)(=O)[O-])cc5F)c5ccc([nH]5)c(-c5c(F)cc(S(=O)(=O)[O-])cc5F)c5nc(c(-c6c(F)cc(S(=O)(=O)[O-])cc6F)c6ccc3[nH]6)C=C5)C=C4)cc2)n1
REMARK SMILES IDX 21 1 20 2 19 3 17 4 18 5 12 7 11 8 10 9 9 11 1 12 2 13 3 14
REMARK SMILES IDX 93 15 4 16 5 17 6 18 7 19 8 20 13 21 14 22 15 23 16 24 22 25
REMARK SMILES IDX 23 26 24 27 25 28 26 30 27 31 28 32 92 33 29 34 91 35 30 36
REMARK SMILES IDX 31 37 32 38 85 39 33 40 90 41 84 42 86 43 34 44 89 45 83 46
REMARK SMILES IDX 82 47 35 49 69 50 48 51 68 52 49 53 52 54 67 55 87 56 50 57
REMARK SMILES IDX 51 58 66 60 88 61 53 62 36 63 37 64 46 65 38 66 39 67 45 68
REMARK SMILES IDX 47 69 40 70 41 71 42 72 43 73 44 74 70 75 71 76 80 77 72 78
REMARK SMILES IDX 73 79 79 80 81 81 74 82 75 83 76 84 77 85 78 86 54 87 55 88
REMARK SMILES IDX 64 89 56 90 57 91 63 92 65 93 58 94 59 95 60 96 61 97 62 98
REMARK H PARENT 19 6 10 10 24 29 86 48 52 59
REMARK Flexibility Score: inf
ROOT
ATOM      1  C   UNL     1       5.085   4.452   1.753  1.00  0.00     0.023 C 
ENDROOT
BRANCH   1   2
ATOM      2  C   UNL     1       4.595   5.111   0.460  1.00  0.00     0.116 C 
BRANCH   2   3
ATOM      3  N   UNL     1       4.686   4.221  -0.673  1.00  0.00    -0.356 N 
ATOM      4  C   UNL     1       3.739   3.594  -1.412  1.00  0.00     0.224 C 
ATOM      5  O   UNL     1       4.154   2.979  -2.403  1.00  0.00    -0.275 OA
ATOM      6  H   UNL     1       5.608   4.035  -0.964  1.00  0.00     0.163 HD
BRANCH   4   7
ATOM      7  C   UNL     1       2.232   3.597  -1.111  1.00  0.00     0.098 C 
BRANCH   7   8
ATOM      8  C   UNL     1       1.438   4.810  -1.622  1.00  0.00     0.128 C 
BRANCH   8   9
ATOM      9  N   UNL     1       1.826   6.130  -1.177  1.00  0.00    -0.368 N 
ATOM     10  H   UNL     1       2.329   6.165  -0.331  1.00  0.00     0.162 HD
BRANCH   9  11
ATOM     11  C   UNL     1       1.585   7.343  -1.778  1.00  0.00     0.144 A 
ATOM     12  C   UNL     1       1.811  10.732  -0.296  1.00  0.00     0.067 C 
ATOM     13  C   UNL     1       1.616   9.649  -1.318  1.00  0.00     0.040 A 
ATOM     14  C   UNL     1       1.298   9.973  -2.626  1.00  0.00     0.028 A 
ATOM     15  N   UNL     1       1.764   8.366  -0.901  1.00  0.00    -0.235 NA
ATOM     16  C   UNL     1       1.103   8.942  -3.542  1.00  0.00    -0.028 A 
ATOM     17  C   UNL     1       0.765   9.279  -4.972  1.00  0.00     0.046 C 
ATOM     18  C   UNL     1       1.233   7.602  -3.109  1.00  0.00     0.097 A 
BRANCH  18  19
ATOM     19  C   UNL     1       0.972   6.573  -4.068  1.00  0.00     0.103 C 
ATOM     20  N   UNL     1       0.710   5.783  -4.882  1.00  0.00    -0.192 NA
ENDBRANCH  18  19
ENDBRANCH   9  11
ENDBRANCH   8   9
ENDBRANCH   7   8
BRANCH   7  21
ATOM     21  C   UNL     1       1.692   2.784   0.092  1.00  0.00     0.018 C 
BRANCH  21  22
ATOM     22  C   UNL     1       2.045   3.174   1.523  1.00  0.00    -0.017 C 
ATOM     23  C   UNL     1       1.336   4.417   2.042  1.00  0.00     0.007 C 
ATOM     24  C   UNL     1       1.842   2.021   2.510  1.00  0.00     0.007 C 
ENDBRANCH  21  22
ENDBRANCH   7  21
ENDBRANCH   4   7
ENDBRANCH   2   3
ENDBRANCH   1   2
BRANCH   1  25
ATOM     25  C   UNL     1       6.451   4.873   2.238  1.00  0.00     0.023 C 
BRANCH  25  26
ATOM     26  C   UNL     1       6.591   6.363   2.460  1.00  0.00     0.116 C 
BRANCH  26  27
ATOM     27  N   UNL     1       5.676   6.917   3.454  1.00  0.00    -0.352 N 
ATOM     28  C   UNL     1       5.982   7.785   4.482  1.00  0.00     0.251 C 
ATOM     29  H   UNL     1       4.734   6.641   3.381  1.00  0.00     0.163 HD
ATOM     30  O   UNL     1       5.139   8.124   5.303  1.00  0.00    -0.269 OA
BRANCH  28  31
ATOM     31  C   UNL     1       7.382   8.244   4.589  1.00  0.00     0.039 A 
ATOM     32  C   UNL     1       8.084   8.012   5.771  1.00  0.00     0.014 A 
ATOM     33  C   UNL     1       8.035   8.708   3.445  1.00  0.00     0.014 A 
ATOM     34  C   UNL     1       9.472   8.153   5.771  1.00  0.00     0.010 A 
ATOM     35  C   UNL     1       9.421   8.695   3.411  1.00  0.00     0.010 A 
ATOM     36  C   UNL     1      10.158   8.435   4.576  1.00  0.00    -0.014 A 
BRANCH  36  37
ATOM     37  C   UNL     1      11.642   8.494   4.525  1.00  0.00     0.031 A 
ATOM     38  C   UNL     1      12.314   9.756   4.051  1.00  0.00     0.074 A 
ATOM     39  C   UNL     1      12.378   7.411   4.849  1.00  0.00     0.049 A 
ATOM     40  N   UNL     1      13.587   9.997   3.873  1.00  0.00    -0.248 NA
ATOM     41  C   UNL     1      11.439  10.887   3.694  1.00  0.00     0.031 C 
ATOM     42  C   UNL     1      11.844   6.109   5.258  1.00  0.00     0.029 A 
ATOM     43  N   UNL     1      13.739   7.230   4.881  1.00  0.00    -0.354 N 
ATOM     44  C   UNL     1      13.658  11.296   3.384  1.00  0.00     0.074 A 
ATOM     45  C   UNL     1      12.303  11.759   3.202  1.00  0.00     0.031 C 
ATOM     46  C   UNL     1      12.863   5.279   5.534  1.00  0.00     0.029 A 
ATOM     47  C   UNL     1      14.123   5.968   5.274  1.00  0.00     0.049 A 
ATOM     48  H   UNL     1      14.382   7.937   4.644  1.00  0.00     0.167 HD
ATOM     49  C   UNL     1      14.754  12.055   3.151  1.00  0.00     0.037 A 
ATOM     50  C   UNL     1      15.350   5.424   5.399  1.00  0.00     0.037 A 
ATOM     51  C   UNL     1      16.100  11.595   3.352  1.00  0.00     0.049 A 
ATOM     52  C   UNL     1      16.556   6.279   5.107  1.00  0.00     0.074 A 
ATOM     53  C   UNL     1      17.281  12.294   3.181  1.00  0.00     0.029 A 
ATOM     54  N   UNL     1      16.446  10.316   3.767  1.00  0.00    -0.354 N 
ATOM     55  N   UNL     1      16.605   7.530   4.712  1.00  0.00    -0.248 NA
ATOM     56  C   UNL     1      17.874   5.655   5.286  1.00  0.00     0.031 C 
ATOM     57  C   UNL     1      18.343  11.421   3.434  1.00  0.00     0.029 A 
ATOM     58  C   UNL     1      17.824  10.199   3.834  1.00  0.00     0.049 A 
ATOM     59  H   UNL     1      15.807   9.599   3.982  1.00  0.00     0.167 HD
ATOM     60  C   UNL     1      17.956   7.850   4.625  1.00  0.00     0.074 A 
ATOM     61  C   UNL     1      18.689   6.668   5.026  1.00  0.00     0.031 C 
ATOM     62  C   UNL     1      18.537   9.016   4.248  1.00  0.00     0.037 A 
BRANCH  49  63
ATOM     63  C   UNL     1      14.534  13.464   2.669  1.00  0.00     0.058 A 
ATOM     64  C   UNL     1      13.945  14.441   3.490  1.00  0.00     0.135 A 
ATOM     65  C   UNL     1      14.944  13.853   1.384  1.00  0.00     0.135 A 
ATOM     66  F   UNL     1      13.513  14.121   4.721  1.00  0.00    -0.206 F 
ATOM     67  C   UNL     1      13.743  15.742   3.045  1.00  0.00     0.059 A 
ATOM     68  C   UNL     1      14.785  15.159   0.931  1.00  0.00     0.059 A 
ATOM     69  F   UNL     1      15.506  12.961   0.554  1.00  0.00    -0.206 F 
ATOM     70  C   UNL     1      14.172  16.093   1.765  1.00  0.00     0.060 A 
BRANCH  70  71
ATOM     71  S   UNL     1      13.920  17.793   1.213  1.00  0.00     0.124 S 
ATOM     72  O   UNL     1      12.467  17.840   1.071  1.00  0.00    -0.237 OA
ATOM     73  O   UNL     1      14.473  18.563   2.322  1.00  0.00    -0.237 OA
ATOM     74  O   UNL     1      14.674  17.862  -0.035  1.00  0.00    -0.744 OA
ENDBRANCH  70  71
ENDBRANCH  49  63
BRANCH  50  75
ATOM     75  C   UNL     1      15.504   4.002   5.820  1.00  0.00     0.058 A 
ATOM     76  C   UNL     1      16.090   3.661   7.048  1.00  0.00     0.135 A 
ATOM     77  C   UNL     1      15.074   2.952   4.993  1.00  0.00     0.135 A 
ATOM     78  F   UNL     1      16.525   4.625   7.875  1.00  0.00    -0.206 F 
ATOM     79  C   UNL     1      16.271   2.335   7.430  1.00  0.00     0.059 A 
ATOM     80  C   UNL     1      15.212   1.619   5.367  1.00  0.00     0.059 A 
ATOM     81  F   UNL     1      14.491   3.219   3.813  1.00  0.00    -0.206 F 
ATOM     82  C   UNL     1      15.826   1.320   6.582  1.00  0.00     0.060 A 
BRANCH  82  83
ATOM     83  S   UNL     1      16.036  -0.398   7.100  1.00  0.00     0.124 S 
ATOM     84  O   UNL     1      17.481  -0.561   7.000  1.00  0.00    -0.237 OA
ATOM     85  O   UNL     1      15.487  -0.376   8.452  1.00  0.00    -0.237 OA
ATOM     86  O   UNL     1      15.247  -1.142   6.123  1.00  0.00    -0.744 OA
ENDBRANCH  82  83
ENDBRANCH  50  75
BRANCH  62  87
ATOM     87  C   UNL     1      20.040   9.092   4.293  1.00  0.00     0.058 A 
ATOM     88  C   UNL     1      20.849   8.386   3.390  1.00  0.00     0.135 A 
ATOM     89  C   UNL     1      20.676   9.936   5.219  1.00  0.00     0.135 A 
ATOM     90  F   UNL     1      20.294   7.562   2.486  1.00  0.00    -0.206 F 
ATOM     91  C   UNL     1      22.235   8.490   3.422  1.00  0.00     0.059 A 
ATOM     92  C   UNL     1      22.058  10.085   5.244  1.00  0.00     0.059 A 
ATOM     93  F   UNL     1      19.951  10.646   6.098  1.00  0.00    -0.206 F 
ATOM     94  C   UNL     1      22.831   9.347   4.349  1.00  0.00     0.060 A 
BRANCH  94  95
ATOM     95  S   UNL     1      24.629   9.499   4.353  1.00  0.00     0.124 S 
ATOM     96  O   UNL     1      25.034   8.199   4.876  1.00  0.00    -0.237 OA
ATOM     97  O   UNL     1      24.922   9.736   2.943  1.00  0.00    -0.237 OA
ATOM     98  O   UNL     1      24.873  10.635   5.237  1.00  0.00    -0.744 OA
ENDBRANCH  94  95
ENDBRANCH  62  87
ENDBRANCH  36  37
ENDBRANCH  28  31
ENDBRANCH  26  27
ENDBRANCH  25  26
ENDBRANCH   1  25
TORSDOF 20
