REMARK SMILES CCCCNC(=O)c1cnn([C@@H](C)C(=O)NCCCCNC(=O)c2ccc(-c3c4nc(c(-c5c(F)cc(S(=O)(=O)[O-])cc5F)c5ccc([nH]5)c(-c5c(F)cc(S(=O)(=O)[O-])cc5F)c5nc(c(-c6c(F)cc(S(=O)(=O)[O-])cc6F)c6ccc3[nH]6)C=C5)C=C4)cc2)c1
REMARK SMILES IDX 17 1 16 2 14 3 15 4 12 6 13 7 11 8 8 9 9 10 90 11 10 12 6 13
REMARK SMILES IDX 5 14 7 16 4 17 3 18 2 19 1 20 18 21 19 22 20 23 21 24 22 25
REMARK SMILES IDX 23 27 24 28 25 29 89 30 26 31 88 32 27 33 28 34 29 35 82 36
REMARK SMILES IDX 30 37 87 38 81 39 83 40 31 41 86 42 80 43 79 44 32 46 66 47
REMARK SMILES IDX 45 48 65 49 46 50 49 51 64 52 84 53 47 54 48 55 63 57 85 58
REMARK SMILES IDX 50 59 33 60 34 61 43 62 35 63 36 64 42 65 44 66 37 67 38 68
REMARK SMILES IDX 39 69 40 70 41 71 67 72 68 73 77 74 69 75 70 76 76 77 78 78
REMARK SMILES IDX 71 79 72 80 73 81 74 82 75 83 51 84 52 85 61 86 53 87 54 88
REMARK SMILES IDX 60 89 62 90 55 91 56 92 57 93 58 94 59 95
REMARK H PARENT 16 5 5 15 21 26 83 45 49 56
REMARK Flexibility Score: inf
ROOT
ATOM      1  C   UNL     1       1.305  -6.721   6.902  1.00  0.00     0.116 C 
ENDROOT
BRANCH   1   2
ATOM      2  N   UNL     1      -0.006  -7.342   7.011  1.00  0.00    -0.354 N 
ATOM      3  C   UNL     1      -0.926  -7.699   6.070  1.00  0.00     0.244 C 
ATOM      4  O   UNL     1      -2.019  -8.089   6.504  1.00  0.00    -0.273 OA
ATOM      5  H   UNL     1      -0.280  -7.541   7.935  1.00  0.00     0.163 HD
BRANCH   3   6
ATOM      6  C   UNL     1      -0.696  -7.672   4.558  1.00  0.00     0.193 C 
ATOM      7  C   UNL     1       0.419  -8.587   4.060  1.00  0.00     0.044 C 
BRANCH   6   8
ATOM      8  N   UNL     1      -0.619  -6.314   4.037  1.00  0.00    -0.260 N 
ATOM      9  C   UNL     1      -1.057  -4.377   3.068  1.00  0.00     0.077 A 
ATOM     10  C   UNL     1       0.115  -4.355   3.845  1.00  0.00     0.149 A 
ATOM     11  C   UNL     1      -1.534  -5.664   3.249  1.00  0.00     0.123 A 
ATOM     12  N   UNL     1       0.466  -5.560   4.278  1.00  0.00    -0.180 NA
BRANCH   9  13
ATOM     13  C   UNL     1      -1.685  -3.313   2.313  1.00  0.00     0.254 C 
ATOM     14  N   UNL     1      -0.893  -2.352   1.724  1.00  0.00    -0.352 N 
ATOM     15  H   UNL     1      -1.382  -1.574   1.371  1.00  0.00     0.163 HD
ATOM     16  O   UNL     1      -2.901  -3.238   2.169  1.00  0.00    -0.269 OA
BRANCH  14  17
ATOM     17  C   UNL     1       0.548  -2.301   1.540  1.00  0.00     0.116 C 
BRANCH  17  18
ATOM     18  C   UNL     1       0.956  -2.364   0.072  1.00  0.00     0.021 C 
BRANCH  18  19
ATOM     19  C   UNL     1       0.512  -1.171  -0.771  1.00  0.00    -0.002 C 
ATOM     20  C   UNL     1       1.047   0.158  -0.261  1.00  0.00     0.004 C 
ENDBRANCH  18  19
ENDBRANCH  17  18
ENDBRANCH  14  17
ENDBRANCH   9  13
ENDBRANCH   6   8
ENDBRANCH   3   6
ENDBRANCH   1   2
BRANCH   1  21
ATOM     21  C   UNL     1       1.273  -5.210   7.181  1.00  0.00     0.023 C 
BRANCH  21  22
ATOM     22  C   UNL     1       1.129  -4.783   8.644  1.00  0.00     0.023 C 
BRANCH  22  23
ATOM     23  C   UNL     1       2.307  -5.138   9.541  1.00  0.00     0.116 C 
BRANCH  23  24
ATOM     24  N   UNL     1       3.561  -4.514   9.121  1.00  0.00    -0.352 N 
ATOM     25  C   UNL     1       4.843  -4.848   9.518  1.00  0.00     0.251 C 
ATOM     26  H   UNL     1       3.484  -3.770   8.481  1.00  0.00     0.163 HD
ATOM     27  O   UNL     1       5.773  -4.063   9.390  1.00  0.00    -0.269 OA
BRANCH  25  28
ATOM     28  C   UNL     1       5.057  -6.181  10.107  1.00  0.00     0.039 A 
ATOM     29  C   UNL     1       5.690  -6.334  11.342  1.00  0.00     0.014 A 
ATOM     30  C   UNL     1       4.508  -7.271   9.440  1.00  0.00     0.014 A 
ATOM     31  C   UNL     1       5.673  -7.586  11.959  1.00  0.00     0.010 A 
ATOM     32  C   UNL     1       4.380  -8.468  10.108  1.00  0.00     0.010 A 
ATOM     33  C   UNL     1       4.987  -8.649  11.355  1.00  0.00    -0.014 A 
BRANCH  33  34
ATOM     34  C   UNL     1       4.785  -9.918  12.069  1.00  0.00     0.031 A 
ATOM     35  C   UNL     1       4.139  -9.838  13.420  1.00  0.00     0.074 A 
ATOM     36  C   UNL     1       4.891 -11.111  11.443  1.00  0.00     0.049 A 
ATOM     37  N   UNL     1       4.550 -10.335  14.544  1.00  0.00    -0.248 NA
ATOM     38  C   UNL     1       2.896  -9.056  13.546  1.00  0.00     0.031 C 
ATOM     39  C   UNL     1       5.208 -11.361  10.030  1.00  0.00     0.029 A 
ATOM     40  N   UNL     1       4.571 -12.354  11.900  1.00  0.00    -0.354 N 
ATOM     41  C   UNL     1       3.536 -10.100  15.476  1.00  0.00     0.074 A 
ATOM     42  C   UNL     1       2.613  -9.193  14.843  1.00  0.00     0.031 C 
ATOM     43  C   UNL     1       4.801 -12.602   9.693  1.00  0.00     0.029 A 
ATOM     44  C   UNL     1       4.367 -13.289  10.893  1.00  0.00     0.049 A 
ATOM     45  H   UNL     1       4.491 -12.569  12.857  1.00  0.00     0.167 HD
ATOM     46  C   UNL     1       3.424 -10.816  16.633  1.00  0.00     0.037 A 
ATOM     47  C   UNL     1       3.834 -14.528  11.018  1.00  0.00     0.037 A 
ATOM     48  C   UNL     1       4.641 -11.518  16.943  1.00  0.00     0.049 A 
ATOM     49  C   UNL     1       3.967 -14.922  12.442  1.00  0.00     0.074 A 
ATOM     50  C   UNL     1       5.952 -11.142  17.164  1.00  0.00     0.029 A 
ATOM     51  N   UNL     1       4.680 -12.875  16.735  1.00  0.00    -0.354 N 
ATOM     52  N   UNL     1       5.109 -15.131  13.038  1.00  0.00    -0.248 NA
ATOM     53  C   UNL     1       2.840 -14.678  13.329  1.00  0.00     0.031 C 
ATOM     54  C   UNL     1       6.736 -12.177  16.574  1.00  0.00     0.029 A 
ATOM     55  C   UNL     1       5.855 -13.139  16.079  1.00  0.00     0.049 A 
ATOM     56  H   UNL     1       3.997 -13.531  17.005  1.00  0.00     0.167 HD
ATOM     57  C   UNL     1       4.939 -14.630  14.319  1.00  0.00     0.074 A 
ATOM     58  C   UNL     1       3.496 -14.473  14.474  1.00  0.00     0.031 C 
ATOM     59  C   UNL     1       5.992 -14.126  15.031  1.00  0.00     0.037 A 
BRANCH  46  60
ATOM     60  C   UNL     1       2.116 -11.149  17.322  1.00  0.00     0.058 A 
ATOM     61  C   UNL     1       2.130 -11.732  18.609  1.00  0.00     0.135 A 
ATOM     62  C   UNL     1       0.873 -11.190  16.653  1.00  0.00     0.135 A 
ATOM     63  F   UNL     1       3.257 -11.754  19.338  1.00  0.00    -0.206 F 
ATOM     64  C   UNL     1       1.018 -12.383  19.150  1.00  0.00     0.059 A 
ATOM     65  C   UNL     1      -0.262 -11.785  17.197  1.00  0.00     0.059 A 
ATOM     66  F   UNL     1       0.726 -10.748  15.399  1.00  0.00    -0.206 F 
ATOM     67  C   UNL     1      -0.167 -12.424  18.423  1.00  0.00     0.060 A 
BRANCH  67  68
ATOM     68  S   UNL     1      -1.559 -13.386  19.044  1.00  0.00     0.124 S 
ATOM     69  O   UNL     1      -1.078 -14.748  18.843  1.00  0.00    -0.237 OA
ATOM     70  O   UNL     1      -1.648 -12.938  20.430  1.00  0.00    -0.237 OA
ATOM     71  O   UNL     1      -2.663 -12.970  18.185  1.00  0.00    -0.744 OA
ENDBRANCH  67  68
ENDBRANCH  46  60
BRANCH  47  72
ATOM     72  C   UNL     1       2.990 -15.259  10.039  1.00  0.00     0.058 A 
ATOM     73  C   UNL     1       2.756 -16.639  10.162  1.00  0.00     0.135 A 
ATOM     74  C   UNL     1       2.187 -14.574   9.102  1.00  0.00     0.135 A 
ATOM     75  F   UNL     1       3.457 -17.365  11.047  1.00  0.00    -0.206 F 
ATOM     76  C   UNL     1       1.759 -17.294   9.432  1.00  0.00     0.059 A 
ATOM     77  C   UNL     1       1.199 -15.207   8.351  1.00  0.00     0.059 A 
ATOM     78  F   UNL     1       2.278 -13.244   8.952  1.00  0.00    -0.206 F 
ATOM     79  C   UNL     1       0.972 -16.564   8.540  1.00  0.00     0.060 A 
BRANCH  79  80
ATOM     80  S   UNL     1      -0.427 -17.368   7.725  1.00  0.00     0.124 S 
ATOM     81  O   UNL     1       0.243 -18.272   6.797  1.00  0.00    -0.237 OA
ATOM     82  O   UNL     1      -1.115 -17.998   8.846  1.00  0.00    -0.237 OA
ATOM     83  O   UNL     1      -1.142 -16.255   7.105  1.00  0.00    -0.744 OA
ENDBRANCH  79  80
ENDBRANCH  47  72
BRANCH  59  84
ATOM     84  C   UNL     1       7.390 -14.389  14.532  1.00  0.00     0.058 A 
ATOM     85  C   UNL     1       7.896 -13.909  13.310  1.00  0.00     0.135 A 
ATOM     86  C   UNL     1       8.304 -15.006  15.399  1.00  0.00     0.135 A 
ATOM     87  F   UNL     1       7.123 -13.209  12.471  1.00  0.00    -0.206 F 
ATOM     88  C   UNL     1       9.233 -14.072  12.949  1.00  0.00     0.059 A 
ATOM     89  C   UNL     1       9.651 -15.152  15.074  1.00  0.00     0.059 A 
ATOM     90  F   UNL     1       7.902 -15.427  16.610  1.00  0.00    -0.206 F 
ATOM     91  C   UNL     1      10.106 -14.693  13.840  1.00  0.00     0.060 A 
BRANCH  91  92
ATOM     92  S   UNL     1      11.855 -14.818  13.408  1.00  0.00     0.124 S 
ATOM     93  O   UNL     1      11.847 -15.871  12.398  1.00  0.00    -0.237 OA
ATOM     94  O   UNL     1      12.162 -13.476  12.921  1.00  0.00    -0.237 OA
ATOM     95  O   UNL     1      12.494 -15.172  14.673  1.00  0.00    -0.744 OA
ENDBRANCH  91  92
ENDBRANCH  59  84
ENDBRANCH  33  34
ENDBRANCH  25  28
ENDBRANCH  23  24
ENDBRANCH  22  23
ENDBRANCH  21  22
ENDBRANCH   1  21
TORSDOF 19
