REMARK SMILES COC(=O)c1ccc(C[N@@H+](CC(=O)NCCCCNC(=O)c2ccc(-c3c4nc(c(-c5c(F)cc(S(=O)(=O)[O-])cc5F)c5ccc([nH]5)c(-c5c(F)cc(S(=O)(=O)[O-])cc5F)c5nc(c(-c6c(F)cc(S(=O)(=O)[O-])cc6F)c6ccc3[nH]6)C=C5)C=C4)cc2)C(C)(C)C)cc1
REMARK SMILES IDX 15 1 14 2 12 3 13 4 11 6 10 7 9 9 8 10 5 11 6 12 93 13 7 14
REMARK SMILES IDX 92 15 3 16 4 17 2 18 1 19 88 20 89 21 90 22 91 23 16 24
REMARK SMILES IDX 17 25 18 26 19 27 20 28 21 30 22 31 23 32 87 33 24 34 86 35
REMARK SMILES IDX 25 36 26 37 27 38 80 39 28 40 85 41 79 42 81 43 29 44 84 45
REMARK SMILES IDX 78 46 77 47 30 49 64 50 43 51 63 52 44 53 47 54 62 55 82 56
REMARK SMILES IDX 45 57 46 58 61 60 83 61 48 62 31 63 32 64 41 65 33 66 34 67
REMARK SMILES IDX 40 68 42 69 35 70 36 71 37 72 38 73 39 74 65 75 66 76 75 77
REMARK SMILES IDX 67 78 68 79 74 80 76 81 69 82 70 83 71 84 72 85 73 86 49 87
REMARK SMILES IDX 50 88 59 89 51 90 52 91 58 92 60 93 53 94 54 95 55 96 56 97
REMARK SMILES IDX 57 98
REMARK H PARENT 14 5 10 8 19 29 81 48 47 59
REMARK Flexibility Score: inf
ROOT
ATOM      1  C   UNL     1      -2.780  -2.708   8.544  1.00  0.00     0.116 C 
ENDROOT
BRANCH   1   2
ATOM      2  N   UNL     1      -3.425  -4.008   8.546  1.00  0.00    -0.351 N 
ATOM      3  C   UNL     1      -2.950  -5.261   8.289  1.00  0.00     0.275 C 
ATOM      4  O   UNL     1      -3.744  -6.193   8.475  1.00  0.00    -0.269 OA
ATOM      5  H   UNL     1      -4.381  -3.981   8.776  1.00  0.00     0.163 HD
BRANCH   3   6
ATOM      6  C   UNL     1      -1.500  -5.558   7.862  1.00  0.00     0.364 C 
BRANCH   6   7
ATOM      7  N   UNL     1      -1.121  -5.347   6.423  1.00  0.00    -0.319 N 
ATOM      8  H   UNL     1      -0.321  -5.919   6.154  1.00  0.00     0.349 HD
BRANCH   7   9
ATOM      9  C   UNL     1      -0.637  -3.976   6.270  1.00  0.00     0.299 C 
BRANCH   9  10
ATOM     10  C   UNL     1      -0.105  -3.411   4.982  1.00  0.00     0.006 A 
ATOM     11  C   UNL     1       0.902  -2.161   2.675  1.00  0.00     0.060 A 
ATOM     12  C   UNL     1       1.712  -3.022   3.428  1.00  0.00     0.016 A 
ATOM     13  C   UNL     1      -0.414  -1.920   3.079  1.00  0.00     0.016 A 
ATOM     14  C   UNL     1       1.213  -3.642   4.577  1.00  0.00     0.010 A 
ATOM     15  C   UNL     1      -0.908  -2.537   4.225  1.00  0.00     0.010 A 
BRANCH  11  16
ATOM     16  C   UNL     1       1.457  -1.546   1.445  1.00  0.00     0.337 C 
ATOM     17  O   UNL     1       2.481  -1.937   0.895  1.00  0.00    -0.246 OA
BRANCH  16  18
ATOM     18  O   UNL     1       0.679  -0.514   1.044  1.00  0.00    -0.465 OA
ATOM     19  C   UNL     1       1.096   0.120  -0.164  1.00  0.00     0.282 C 
ENDBRANCH  16  18
ENDBRANCH  11  16
ENDBRANCH   9  10
ENDBRANCH   7   9
BRANCH   7  20
ATOM     20  C   UNL     1      -1.975  -6.011   5.397  1.00  0.00     0.090 C 
ATOM     21  C   UNL     1      -3.415  -5.470   5.273  1.00  0.00     0.078 C 
ATOM     22  C   UNL     1      -1.362  -5.942   3.975  1.00  0.00     0.078 C 
ATOM     23  C   UNL     1      -2.050  -7.529   5.709  1.00  0.00     0.078 C 
ENDBRANCH   7  20
ENDBRANCH   6   7
ENDBRANCH   3   6
ENDBRANCH   1   2
BRANCH   1  24
ATOM     24  C   UNL     1      -3.096  -1.920   7.266  1.00  0.00     0.023 C 
BRANCH  24  25
ATOM     25  C   UNL     1      -4.358  -1.085   7.260  1.00  0.00     0.023 C 
BRANCH  25  26
ATOM     26  C   UNL     1      -4.375   0.038   8.272  1.00  0.00     0.116 C 
BRANCH  26  27
ATOM     27  N   UNL     1      -3.257   0.969   8.156  1.00  0.00    -0.352 N 
ATOM     28  C   UNL     1      -3.285   2.345   8.229  1.00  0.00     0.251 C 
ATOM     29  H   UNL     1      -2.372   0.564   8.006  1.00  0.00     0.163 HD
ATOM     30  O   UNL     1      -2.268   3.004   8.041  1.00  0.00    -0.269 OA
BRANCH  28  31
ATOM     31  C   UNL     1      -4.581   3.006   8.485  1.00  0.00     0.039 A 
ATOM     32  C   UNL     1      -5.011   4.022   7.630  1.00  0.00     0.014 A 
ATOM     33  C   UNL     1      -5.420   2.515   9.486  1.00  0.00     0.014 A 
ATOM     34  C   UNL     1      -6.327   4.477   7.722  1.00  0.00     0.010 A 
ATOM     35  C   UNL     1      -6.759   2.872   9.484  1.00  0.00     0.010 A 
ATOM     36  C   UNL     1      -7.226   3.866   8.613  1.00  0.00    -0.014 A 
BRANCH  36  37
ATOM     37  C   UNL     1      -8.655   4.262   8.679  1.00  0.00     0.031 A 
ATOM     38  C   UNL     1      -9.222   4.767   9.979  1.00  0.00     0.074 A 
ATOM     39  C   UNL     1      -9.457   4.087   7.609  1.00  0.00     0.049 A 
ATOM     40  N   UNL     1     -10.457   5.071  10.281  1.00  0.00    -0.248 NA
ATOM     41  C   UNL     1      -8.283   4.899  11.106  1.00  0.00     0.031 C 
ATOM     42  C   UNL     1      -9.042   3.533   6.317  1.00  0.00     0.029 A 
ATOM     43  N   UNL     1     -10.794   4.346   7.442  1.00  0.00    -0.354 N 
ATOM     44  C   UNL     1     -10.444   5.401  11.631  1.00  0.00     0.074 A 
ATOM     45  C   UNL     1      -9.098   5.183  12.108  1.00  0.00     0.031 C 
ATOM     46  C   UNL     1     -10.094   3.527   5.482  1.00  0.00     0.029 A 
ATOM     47  C   UNL     1     -11.265   4.039   6.187  1.00  0.00     0.049 A 
ATOM     48  H   UNL     1     -11.363   4.717   8.154  1.00  0.00     0.167 HD
ATOM     49  C   UNL     1     -11.452   5.879  12.397  1.00  0.00     0.037 A 
ATOM     50  C   UNL     1     -12.501   4.157   5.665  1.00  0.00     0.037 A 
ATOM     51  C   UNL     1     -12.776   6.136  11.901  1.00  0.00     0.049 A 
ATOM     52  C   UNL     1     -13.601   4.725   6.520  1.00  0.00     0.074 A 
ATOM     53  C   UNL     1     -13.852   6.692  12.567  1.00  0.00     0.029 A 
ATOM     54  N   UNL     1     -13.202   5.857  10.610  1.00  0.00    -0.354 N 
ATOM     55  N   UNL     1     -13.553   5.106   7.775  1.00  0.00    -0.248 NA
ATOM     56  C   UNL     1     -14.917   4.891   5.889  1.00  0.00     0.031 C 
ATOM     57  C   UNL     1     -14.942   6.712  11.690  1.00  0.00     0.029 A 
ATOM     58  C   UNL     1     -14.531   6.213  10.463  1.00  0.00     0.049 A 
ATOM     59  H   UNL     1     -12.641   5.464   9.902  1.00  0.00     0.167 HD
ATOM     60  C   UNL     1     -14.826   5.576   8.079  1.00  0.00     0.074 A 
ATOM     61  C   UNL     1     -15.617   5.444   6.871  1.00  0.00     0.031 C 
ATOM     62  C   UNL     1     -15.298   6.074   9.249  1.00  0.00     0.037 A 
BRANCH  49  63
ATOM     63  C   UNL     1     -11.144   6.160  13.843  1.00  0.00     0.058 A 
ATOM     64  C   UNL     1     -10.273   7.194  14.226  1.00  0.00     0.135 A 
ATOM     65  C   UNL     1     -11.714   5.378  14.860  1.00  0.00     0.135 A 
ATOM     66  F   UNL     1      -9.684   7.962  13.294  1.00  0.00    -0.206 F 
ATOM     67  C   UNL     1      -9.937   7.409  15.558  1.00  0.00     0.059 A 
ATOM     68  C   UNL     1     -11.420   5.597  16.202  1.00  0.00     0.059 A 
ATOM     69  F   UNL     1     -12.554   4.377  14.553  1.00  0.00    -0.206 F 
ATOM     70  C   UNL     1     -10.511   6.600  16.539  1.00  0.00     0.060 A 
BRANCH  70  71
ATOM     71  S   UNL     1     -10.047   6.874  18.261  1.00  0.00     0.124 S 
ATOM     72  O   UNL     1      -8.703   6.305  18.292  1.00  0.00    -0.237 OA
ATOM     73  O   UNL     1     -10.122   8.327  18.378  1.00  0.00    -0.237 OA
ATOM     74  O   UNL     1     -11.059   6.135  19.008  1.00  0.00    -0.744 OA
ENDBRANCH  70  71
ENDBRANCH  49  63
BRANCH  50  75
ATOM     75  C   UNL     1     -12.745   3.769   4.250  1.00  0.00     0.058 A 
ATOM     76  C   UNL     1     -12.955   4.742   3.262  1.00  0.00     0.135 A 
ATOM     77  C   UNL     1     -12.728   2.424   3.848  1.00  0.00     0.135 A 
ATOM     78  F   UNL     1     -12.986   6.041   3.597  1.00  0.00    -0.206 F 
ATOM     79  C   UNL     1     -13.143   4.399   1.927  1.00  0.00     0.059 A 
ATOM     80  C   UNL     1     -12.891   2.056   2.515  1.00  0.00     0.059 A 
ATOM     81  F   UNL     1     -12.514   1.455   4.752  1.00  0.00    -0.206 F 
ATOM     82  C   UNL     1     -13.101   3.052   1.562  1.00  0.00     0.060 A 
BRANCH  82  83
ATOM     83  S   UNL     1     -13.266   2.623  -0.185  1.00  0.00     0.124 S 
ATOM     84  O   UNL     1     -14.684   2.870  -0.417  1.00  0.00    -0.237 OA
ATOM     85  O   UNL     1     -12.342   3.560  -0.818  1.00  0.00    -0.237 OA
ATOM     86  O   UNL     1     -12.853   1.224  -0.228  1.00  0.00    -0.744 OA
ENDBRANCH  82  83
ENDBRANCH  50  75
BRANCH  62  87
ATOM     87  C   UNL     1     -16.727   6.538   9.277  1.00  0.00     0.058 A 
ATOM     88  C   UNL     1     -17.797   5.630   9.277  1.00  0.00     0.135 A 
ATOM     89  C   UNL     1     -17.026   7.907   9.370  1.00  0.00     0.135 A 
ATOM     90  F   UNL     1     -17.564   4.311   9.185  1.00  0.00    -0.206 F 
ATOM     91  C   UNL     1     -19.116   6.064   9.347  1.00  0.00     0.059 A 
ATOM     92  C   UNL     1     -18.336   8.362   9.469  1.00  0.00     0.059 A 
ATOM     93  F   UNL     1     -16.038   8.816   9.386  1.00  0.00    -0.206 F 
ATOM     94  C   UNL     1     -19.375   7.433   9.446  1.00  0.00     0.060 A 
BRANCH  94  95
ATOM     95  S   UNL     1     -21.090   7.981   9.575  1.00  0.00     0.124 S 
ATOM     96  O   UNL     1     -21.563   7.789   8.209  1.00  0.00    -0.237 OA
ATOM     97  O   UNL     1     -21.637   7.065  10.571  1.00  0.00    -0.237 OA
ATOM     98  O   UNL     1     -20.971   9.370  10.009  1.00  0.00    -0.744 OA
ENDBRANCH  94  95
ENDBRANCH  62  87
ENDBRANCH  36  37
ENDBRANCH  28  31
ENDBRANCH  26  27
ENDBRANCH  25  26
ENDBRANCH  24  25
ENDBRANCH   1  24
TORSDOF 20
