REMARK SMILES COCCNC(=O)c1cccc(NC(=O)[C@@H]2CCCC[C@H]2C(=O)NCCCCNC(=O)c2ccc(-c3c4nc(c(-c5c(F)cc(S(=O)(=O)[O-])cc5F)c5ccc([nH]5)c(-c5c(F)cc(S(=O)(=O)[O-])cc5F)c5nc(c(-c6c(F)cc(S(=O)(=O)[O-])cc6F)c6ccc3[nH]6)C=C5)C=C4)cc2)c1
REMARK SMILES IDX 25 1 24 2 22 3 23 4 21 6 16 7 17 8 18 9 20 10 19 11 14 12
REMARK SMILES IDX 13 13 15 15 12 16 8 17 9 18 98 19 10 20 11 21 6 22 5 23 7 25
REMARK SMILES IDX 4 26 3 27 2 28 1 29 26 30 27 31 28 32 29 33 30 34 31 36
REMARK SMILES IDX 32 37 33 38 97 39 34 40 96 41 35 42 36 43 37 44 90 45 38 46
REMARK SMILES IDX 95 47 89 48 91 49 39 50 94 51 88 52 87 53 40 55 74 56 53 57
REMARK SMILES IDX 73 58 54 59 57 60 72 61 92 62 55 63 56 64 71 66 93 67 58 68
REMARK SMILES IDX 41 69 42 70 51 71 43 72 44 73 50 74 52 75 45 76 46 77 47 78
REMARK SMILES IDX 48 79 49 80 75 81 76 82 85 83 77 84 78 85 84 86 86 87 79 88
REMARK SMILES IDX 80 89 81 90 82 91 83 92 59 93 60 94 69 95 61 96 62 97 68 98
REMARK SMILES IDX 70 99 63 100 64 101 65 102 66 103 67 104
REMARK H PARENT 24 5 13 14 5 24 29 35 91 54 57 65
REMARK Flexibility Score: inf
ROOT
ATOM      1  C   UNL     1       4.004   8.136   5.792  1.00  0.00     0.116 C 
ENDROOT
BRANCH   1   2
ATOM      2  N   UNL     1       2.782   8.887   6.015  1.00  0.00    -0.356 N 
ATOM      3  C   UNL     1       1.803   8.794   6.957  1.00  0.00     0.223 C 
ATOM      4  O   UNL     1       0.928   9.663   6.941  1.00  0.00    -0.275 OA
ATOM      5  H   UNL     1       2.631   9.604   5.357  1.00  0.00     0.163 HD
BRANCH   3   6
ATOM      6  C   UNL     1       1.802   7.719   8.047  1.00  0.00     0.091 C 
ATOM      7  C   UNL     1       1.835   6.283   7.490  1.00  0.00     0.091 C 
ATOM      8  C   UNL     1       1.933   5.265   8.632  1.00  0.00     0.014 C 
ATOM      9  C   UNL     1       3.191   5.512   9.449  1.00  0.00     0.001 C 
ATOM     10  C   UNL     1       2.930   8.006   9.059  1.00  0.00     0.014 C 
ATOM     11  C   UNL     1       3.147   6.895  10.084  1.00  0.00     0.001 C 
BRANCH   7  12
ATOM     12  C   UNL     1       0.648   5.927   6.619  1.00  0.00     0.228 C 
ATOM     13  N   UNL     1       0.673   4.857   5.768  1.00  0.00    -0.326 N 
ATOM     14  H   UNL     1      -0.198   4.713   5.332  1.00  0.00     0.169 HD
ATOM     15  O   UNL     1      -0.415   6.547   6.704  1.00  0.00    -0.274 OA
BRANCH  13  16
ATOM     16  C   UNL     1       1.633   3.907   5.355  1.00  0.00     0.041 A 
ATOM     17  C   UNL     1       2.000   1.860   4.076  1.00  0.00     0.041 A 
ATOM     18  C   UNL     1       3.357   1.877   4.393  1.00  0.00     0.014 A 
ATOM     19  C   UNL     1       1.144   2.857   4.567  1.00  0.00     0.040 A 
ATOM     20  C   UNL     1       3.856   2.911   5.172  1.00  0.00     0.003 A 
ATOM     21  C   UNL     1       2.999   3.913   5.647  1.00  0.00     0.026 A 
BRANCH  17  22
ATOM     22  C   UNL     1       1.466   0.704   3.331  1.00  0.00     0.251 C 
ATOM     23  N   UNL     1       0.593   0.885   2.294  1.00  0.00    -0.350 N 
ATOM     24  H   UNL     1       0.084   0.082   2.038  1.00  0.00     0.163 HD
ATOM     25  O   UNL     1       1.797  -0.430   3.666  1.00  0.00    -0.269 OA
BRANCH  23  26
ATOM     26  C   UNL     1       0.295   2.077   1.507  1.00  0.00     0.144 C 
BRANCH  26  27
ATOM     27  C   UNL     1       1.020   2.092   0.156  1.00  0.00     0.181 C 
BRANCH  27  28
ATOM     28  O   UNL     1       0.464   1.163  -0.777  1.00  0.00    -0.383 OA
ATOM     29  C   UNL     1       1.012  -0.144  -0.696  1.00  0.00     0.194 C 
ENDBRANCH  27  28
ENDBRANCH  26  27
ENDBRANCH  23  26
ENDBRANCH  17  22
ENDBRANCH  13  16
ENDBRANCH   7  12
ENDBRANCH   3   6
ENDBRANCH   1   2
BRANCH   1  30
ATOM     30  C   UNL     1       3.929   7.293   4.520  1.00  0.00     0.023 C 
BRANCH  30  31
ATOM     31  C   UNL     1       4.019   8.089   3.219  1.00  0.00     0.023 C 
BRANCH  31  32
ATOM     32  C   UNL     1       5.264   8.957   3.071  1.00  0.00     0.116 C 
BRANCH  32  33
ATOM     33  N   UNL     1       6.506   8.207   3.190  1.00  0.00    -0.352 N 
ATOM     34  C   UNL     1       7.654   8.320   2.440  1.00  0.00     0.251 C 
ATOM     35  H   UNL     1       6.527   7.527   3.902  1.00  0.00     0.163 HD
ATOM     36  O   UNL     1       8.575   7.527   2.601  1.00  0.00    -0.269 OA
BRANCH  34  37
ATOM     37  C   UNL     1       7.747   9.382   1.415  1.00  0.00     0.039 A 
ATOM     38  C   UNL     1       8.144   9.038   0.121  1.00  0.00     0.014 A 
ATOM     39  C   UNL     1       7.392  10.698   1.720  1.00  0.00     0.014 A 
ATOM     40  C   UNL     1       8.104  10.000  -0.891  1.00  0.00     0.010 A 
ATOM     41  C   UNL     1       7.287  11.637   0.698  1.00  0.00     0.010 A 
ATOM     42  C   UNL     1       7.632  11.295  -0.619  1.00  0.00    -0.014 A 
BRANCH  42  43
ATOM     43  C   UNL     1       7.461  12.301  -1.697  1.00  0.00     0.031 A 
ATOM     44  C   UNL     1       8.263  13.572  -1.677  1.00  0.00     0.074 A 
ATOM     45  C   UNL     1       6.514  12.112  -2.638  1.00  0.00     0.049 A 
ATOM     46  N   UNL     1       8.177  14.614  -2.461  1.00  0.00    -0.248 NA
ATOM     47  C   UNL     1       9.274  13.700  -0.615  1.00  0.00     0.031 C 
ATOM     48  C   UNL     1       5.633  10.946  -2.730  1.00  0.00     0.029 A 
ATOM     49  N   UNL     1       6.117  12.909  -3.683  1.00  0.00    -0.354 N 
ATOM     50  C   UNL     1       9.102  15.530  -1.977  1.00  0.00     0.074 A 
ATOM     51  C   UNL     1       9.710  14.937  -0.805  1.00  0.00     0.031 C 
ATOM     52  C   UNL     1       4.806  11.100  -3.776  1.00  0.00     0.029 A 
ATOM     53  C   UNL     1       5.069  12.390  -4.406  1.00  0.00     0.049 A 
ATOM     54  H   UNL     1       6.543  13.771  -3.894  1.00  0.00     0.167 HD
ATOM     55  C   UNL     1       9.428  16.747  -2.475  1.00  0.00     0.037 A 
ATOM     56  C   UNL     1       4.384  12.902  -5.447  1.00  0.00     0.037 A 
ATOM     57  C   UNL     1       8.843  17.316  -3.660  1.00  0.00     0.049 A 
ATOM     58  C   UNL     1       4.768  14.252  -5.987  1.00  0.00     0.074 A 
ATOM     59  C   UNL     1       9.173  18.498  -4.298  1.00  0.00     0.029 A 
ATOM     60  N   UNL     1       7.801  16.749  -4.380  1.00  0.00    -0.354 N 
ATOM     61  N   UNL     1       5.705  15.068  -5.568  1.00  0.00    -0.248 NA
ATOM     62  C   UNL     1       4.002  14.752  -7.137  1.00  0.00     0.031 C 
ATOM     63  C   UNL     1       8.300  18.669  -5.379  1.00  0.00     0.029 A 
ATOM     64  C   UNL     1       7.454  17.573  -5.438  1.00  0.00     0.049 A 
ATOM     65  H   UNL     1       7.372  15.888  -4.170  1.00  0.00     0.167 HD
ATOM     66  C   UNL     1       5.649  16.174  -6.409  1.00  0.00     0.074 A 
ATOM     67  C   UNL     1       4.598  15.914  -7.372  1.00  0.00     0.031 C 
ATOM     68  C   UNL     1       6.399  17.303  -6.383  1.00  0.00     0.037 A 
BRANCH  55  69
ATOM     69  C   UNL     1      10.468  17.543  -1.736  1.00  0.00     0.058 A 
ATOM     70  C   UNL     1      11.822  17.172  -1.740  1.00  0.00     0.135 A 
ATOM     71  C   UNL     1      10.109  18.706  -1.036  1.00  0.00     0.135 A 
ATOM     72  F   UNL     1      12.217  16.061  -2.382  1.00  0.00    -0.206 F 
ATOM     73  C   UNL     1      12.778  17.905  -1.046  1.00  0.00     0.059 A 
ATOM     74  C   UNL     1      11.054  19.470  -0.356  1.00  0.00     0.059 A 
ATOM     75  F   UNL     1       8.829  19.107  -1.000  1.00  0.00    -0.206 F 
ATOM     76  C   UNL     1      12.384  19.051  -0.353  1.00  0.00     0.060 A 
BRANCH  76  77
ATOM     77  S   UNL     1      13.636  19.986   0.551  1.00  0.00     0.124 S 
ATOM     78  O   UNL     1      13.863  19.123   1.707  1.00  0.00    -0.237 OA
ATOM     79  O   UNL     1      14.730  20.056  -0.411  1.00  0.00    -0.237 OA
ATOM     80  O   UNL     1      12.973  21.254   0.836  1.00  0.00    -0.744 OA
ENDBRANCH  76  77
ENDBRANCH  55  69
BRANCH  56  81
ATOM     81  C   UNL     1       3.267  12.126  -6.047  1.00  0.00     0.058 A 
ATOM     82  C   UNL     1       3.405  11.516  -7.302  1.00  0.00     0.135 A 
ATOM     83  C   UNL     1       2.055  11.947  -5.362  1.00  0.00     0.135 A 
ATOM     84  F   UNL     1       4.543  11.665  -7.998  1.00  0.00    -0.206 F 
ATOM     85  C   UNL     1       2.381  10.760  -7.861  1.00  0.00     0.059 A 
ATOM     86  C   UNL     1       1.024  11.178  -5.890  1.00  0.00     0.059 A 
ATOM     87  F   UNL     1       1.880  12.497  -4.150  1.00  0.00    -0.206 F 
ATOM     88  C   UNL     1       1.194  10.591  -7.144  1.00  0.00     0.060 A 
BRANCH  88  89
ATOM     89  S   UNL     1      -0.101   9.546  -7.845  1.00  0.00     0.124 S 
ATOM     90  O   UNL     1      -0.638  10.407  -8.892  1.00  0.00    -0.237 OA
ATOM     91  O   UNL     1       0.656   8.383  -8.299  1.00  0.00    -0.237 OA
ATOM     92  O   UNL     1      -0.985   9.303  -6.709  1.00  0.00    -0.744 OA
ENDBRANCH  88  89
ENDBRANCH  56  81
BRANCH  68  93
ATOM     93  C   UNL     1       6.114  18.347  -7.426  1.00  0.00     0.058 A 
ATOM     94  C   UNL     1       4.979  19.168  -7.348  1.00  0.00     0.135 A 
ATOM     95  C   UNL     1       7.019  18.575  -8.475  1.00  0.00     0.135 A 
ATOM     96  F   UNL     1       4.078  18.984  -6.369  1.00  0.00    -0.206 F 
ATOM     97  C   UNL     1       4.744  20.173  -8.280  1.00  0.00     0.059 A 
ATOM     98  C   UNL     1       6.816  19.590  -9.405  1.00  0.00     0.059 A 
ATOM     99  F   UNL     1       8.124  17.822  -8.590  1.00  0.00    -0.206 F 
ATOM    100  C   UNL     1       5.671  20.379  -9.303  1.00  0.00     0.060 A 
BRANCH 100 101
ATOM    101  S   UNL     1       5.381  21.720 -10.477  1.00  0.00     0.124 S 
ATOM    102  O   UNL     1       4.312  21.164 -11.300  1.00  0.00    -0.237 OA
ATOM    103  O   UNL     1       4.998  22.824  -9.602  1.00  0.00    -0.237 OA
ATOM    104  O   UNL     1       6.671  21.874 -11.142  1.00  0.00    -0.744 OA
ENDBRANCH 100 101
ENDBRANCH  68  93
ENDBRANCH  42  43
ENDBRANCH  34  37
ENDBRANCH  32  33
ENDBRANCH  31  32
ENDBRANCH  30  31
ENDBRANCH   1  30
TORSDOF 20
