REMARK SMILES [NH3+][C@]1(C(=O)NCCCCNC(=O)c2ccc(-c3c4nc(c(-c5c(F)cc(S(=O)(=O)[O-])cc5F)c5ccc([nH]5)c(-c5c(F)cc(S(=O)(=O)[O-])cc5F)c5nc(c(-c6c(F)cc(S(=O)(=O)[O-])cc6F)c6ccc3[nH]6)C=C5)C=C4)cc2)CC[C@H](Oc2ccccc2[N+](=O)[O-])C1
REMARK SMILES IDX 7 1 6 2 5 3 3 4 4 5 2 7 79 8 92 9 80 10 81 11 1 12 82 16
REMARK SMILES IDX 83 17 84 18 88 19 85 20 87 21 86 22 89 23 90 24 91 25 8 26
REMARK SMILES IDX 9 27 10 28 11 29 12 31 13 32 14 33 78 34 15 35 77 36 16 37
REMARK SMILES IDX 17 38 18 39 71 40 19 41 76 42 70 43 72 44 20 45 75 46 69 47
REMARK SMILES IDX 68 48 21 50 55 51 34 52 54 53 35 54 38 55 53 56 73 57 36 58
REMARK SMILES IDX 37 59 52 61 74 62 39 63 22 64 23 65 32 66 24 67 25 68 31 69
REMARK SMILES IDX 33 70 26 71 27 72 28 73 29 74 30 75 56 76 57 77 66 78 58 79
REMARK SMILES IDX 59 80 65 81 67 82 60 83 61 84 62 85 63 86 64 87 40 88 41 89
REMARK SMILES IDX 50 90 42 91 43 92 49 93 51 94 44 95 45 96 46 97 47 98 48 99
REMARK H PARENT 5 6 1 13 1 14 1 15 10 30 72 49 38 60
REMARK Flexibility Score: inf
ROOT
ATOM      1  C   UNL     1      -0.332   1.626   2.962  1.00  0.00     0.023 C 
ENDROOT
BRANCH   1   2
ATOM      2  C   UNL     1      -0.716   0.925   1.663  1.00  0.00     0.116 C 
BRANCH   2   3
ATOM      3  N   UNL     1       0.354   0.951   0.681  1.00  0.00    -0.351 N 
ATOM      4  C   UNL     1       0.815  -0.068  -0.107  1.00  0.00     0.281 C 
ATOM      5  O   UNL     1       1.640   0.205  -0.982  1.00  0.00    -0.268 OA
ATOM      6  H   UNL     1       0.807   1.817   0.567  1.00  0.00     0.163 HD
BRANCH   4   7
ATOM      7  C   UNL     1       0.330  -1.520   0.132  1.00  0.00     0.177 C 
ATOM      8  C   UNL     1       0.945  -2.501  -0.874  1.00  0.00     0.083 C 
ATOM      9  C   UNL     1       0.882  -2.080   1.456  1.00  0.00     0.124 C 
ATOM     10  C   UNL     1       0.762  -3.861  -0.217  1.00  0.00     0.052 C 
ATOM     11  C   UNL     1       0.913  -3.611   1.292  1.00  0.00     0.180 C 
BRANCH   7  12
ATOM     12  N   UNL     1      -1.145  -1.590   0.036  1.00  0.00    -0.345 N 
ATOM     13  H   UNL     1      -1.451  -2.550   0.195  1.00  0.00     0.345 HD
ATOM     14  H   UNL     1      -1.440  -1.289  -0.893  1.00  0.00     0.345 HD
ATOM     15  H   UNL     1      -1.562  -0.980   0.739  1.00  0.00     0.345 HD
ENDBRANCH   7  12
BRANCH  11  16
ATOM     16  O   UNL     1      -0.192  -4.127   2.040  1.00  0.00    -0.483 OA
BRANCH  16  17
ATOM     17  C   UNL     1      -0.301  -5.461   2.302  1.00  0.00     0.197 A 
ATOM     18  C   UNL     1       0.427  -6.443   1.620  1.00  0.00     0.054 A 
ATOM     19  C   UNL     1      -1.269  -5.882   3.232  1.00  0.00     0.310 A 
ATOM     20  C   UNL     1       0.136  -7.801   1.787  1.00  0.00     0.004 A 
ATOM     21  C   UNL     1      -1.562  -7.249   3.398  1.00  0.00     0.090 A 
ATOM     22  C   UNL     1      -0.871  -8.204   2.657  1.00  0.00     0.007 A 
BRANCH  19  23
ATOM     23  N   UNL     1      -1.991  -4.925   4.083  1.00  0.00     0.066 N 
ATOM     24  O   UNL     1      -3.075  -5.299   4.559  1.00  0.00    -0.258 OA
ATOM     25  O   UNL     1      -1.467  -3.831   4.332  1.00  0.00    -0.258 OA
ENDBRANCH  19  23
ENDBRANCH  16  17
ENDBRANCH  11  16
ENDBRANCH   4   7
ENDBRANCH   2   3
ENDBRANCH   1   2
BRANCH   1  26
ATOM     26  C   UNL     1      -0.106   3.131   2.842  1.00  0.00     0.023 C 
BRANCH  26  27
ATOM     27  C   UNL     1      -1.252   3.917   2.213  1.00  0.00     0.116 C 
BRANCH  27  28
ATOM     28  N   UNL     1      -2.513   3.759   2.923  1.00  0.00    -0.352 N 
ATOM     29  C   UNL     1      -3.384   4.724   3.371  1.00  0.00     0.251 C 
ATOM     30  H   UNL     1      -2.780   2.830   3.110  1.00  0.00     0.163 HD
ATOM     31  O   UNL     1      -4.348   4.410   4.065  1.00  0.00    -0.269 OA
BRANCH  29  32
ATOM     32  C   UNL     1      -3.137   6.144   3.042  1.00  0.00     0.039 A 
ATOM     33  C   UNL     1      -3.199   7.095   4.064  1.00  0.00     0.014 A 
ATOM     34  C   UNL     1      -2.815   6.532   1.739  1.00  0.00     0.014 A 
ATOM     35  C   UNL     1      -2.861   8.423   3.793  1.00  0.00     0.010 A 
ATOM     36  C   UNL     1      -2.407   7.839   1.488  1.00  0.00     0.010 A 
ATOM     37  C   UNL     1      -2.421   8.797   2.513  1.00  0.00    -0.014 A 
BRANCH  37  38
ATOM     38  C   UNL     1      -1.960  10.181   2.228  1.00  0.00     0.031 A 
ATOM     39  C   UNL     1      -2.698  11.032   1.230  1.00  0.00     0.074 A 
ATOM     40  C   UNL     1      -0.835  10.643   2.811  1.00  0.00     0.049 A 
ATOM     41  N   UNL     1      -2.404  12.228   0.788  1.00  0.00    -0.248 NA
ATOM     42  C   UNL     1      -3.911  10.453   0.628  1.00  0.00     0.031 C 
ATOM     43  C   UNL     1      -0.002   9.896   3.757  1.00  0.00     0.029 A 
ATOM     44  N   UNL     1      -0.190  11.848   2.687  1.00  0.00    -0.354 N 
ATOM     45  C   UNL     1      -3.378  12.534  -0.155  1.00  0.00     0.074 A 
ATOM     46  C   UNL     1      -4.248  11.382  -0.255  1.00  0.00     0.031 C 
ATOM     47  C   UNL     1       1.028  10.667   4.144  1.00  0.00     0.029 A 
ATOM     48  C   UNL     1       0.953  11.947   3.446  1.00  0.00     0.049 A 
ATOM     49  H   UNL     1      -0.515  12.575   2.108  1.00  0.00     0.167 HD
ATOM     50  C   UNL     1      -3.544  13.679  -0.859  1.00  0.00     0.037 A 
ATOM     51  C   UNL     1       1.844  12.951   3.562  1.00  0.00     0.037 A 
ATOM     52  C   UNL     1      -2.700  14.838  -0.725  1.00  0.00     0.049 A 
ATOM     53  C   UNL     1       1.629  14.216   2.775  1.00  0.00     0.074 A 
ATOM     54  C   UNL     1      -2.834  16.072  -1.337  1.00  0.00     0.029 A 
ATOM     55  N   UNL     1      -1.569  14.907   0.073  1.00  0.00    -0.354 N 
ATOM     56  N   UNL     1       0.661  14.514   1.941  1.00  0.00    -0.248 NA
ATOM     57  C   UNL     1       2.624  15.284   2.947  1.00  0.00     0.031 C 
ATOM     58  C   UNL     1      -1.760  16.875  -0.940  1.00  0.00     0.029 A 
ATOM     59  C   UNL     1      -0.983  16.156  -0.045  1.00  0.00     0.049 A 
ATOM     60  H   UNL     1      -1.232  14.177   0.641  1.00  0.00     0.167 HD
ATOM     61  C   UNL     1       0.913  15.814   1.516  1.00  0.00     0.074 A 
ATOM     62  C   UNL     1       2.119  16.248   2.190  1.00  0.00     0.031 C 
ATOM     63  C   UNL     1       0.209  16.579   0.646  1.00  0.00     0.037 A 
BRANCH  50  64
ATOM     64  C   UNL     1      -4.687  13.745  -1.834  1.00  0.00     0.058 A 
ATOM     65  C   UNL     1      -6.020  13.832  -1.403  1.00  0.00     0.135 A 
ATOM     66  C   UNL     1      -4.442  13.781  -3.217  1.00  0.00     0.135 A 
ATOM     67  F   UNL     1      -6.311  13.785  -0.093  1.00  0.00    -0.206 F 
ATOM     68  C   UNL     1      -7.072  13.933  -2.307  1.00  0.00     0.059 A 
ATOM     69  C   UNL     1      -5.477  13.909  -4.139  1.00  0.00     0.059 A 
ATOM     70  F   UNL     1      -3.187  13.700  -3.684  1.00  0.00    -0.206 F 
ATOM     71  C   UNL     1      -6.790  13.973  -3.674  1.00  0.00     0.060 A 
BRANCH  71  72
ATOM     72  S   UNL     1      -8.165  14.132  -4.833  1.00  0.00     0.124 S 
ATOM     73  O   UNL     1      -8.754  12.798  -4.770  1.00  0.00    -0.237 OA
ATOM     74  O   UNL     1      -8.956  15.202  -4.234  1.00  0.00    -0.237 OA
ATOM     75  O   UNL     1      -7.511  14.470  -6.093  1.00  0.00    -0.744 OA
ENDBRANCH  71  72
ENDBRANCH  50  64
BRANCH  51  76
ATOM     76  C   UNL     1       3.013  12.816   4.472  1.00  0.00     0.058 A 
ATOM     77  C   UNL     1       3.097  13.574   5.650  1.00  0.00     0.135 A 
ATOM     78  C   UNL     1       4.072  11.944   4.180  1.00  0.00     0.135 A 
ATOM     79  F   UNL     1       2.112  14.427   5.970  1.00  0.00    -0.206 F 
ATOM     80  C   UNL     1       4.201  13.493   6.492  1.00  0.00     0.059 A 
ATOM     81  C   UNL     1       5.175  11.826   5.020  1.00  0.00     0.059 A 
ATOM     82  F   UNL     1       4.032  11.184   3.075  1.00  0.00    -0.206 F 
ATOM     83  C   UNL     1       5.238  12.617   6.167  1.00  0.00     0.060 A 
BRANCH  83  84
ATOM     84  S   UNL     1       6.657  12.501   7.278  1.00  0.00     0.124 S 
ATOM     85  O   UNL     1       7.362  13.743   6.984  1.00  0.00    -0.237 OA
ATOM     86  O   UNL     1       6.017  12.425   8.588  1.00  0.00    -0.237 OA
ATOM     87  O   UNL     1       7.323  11.277   6.843  1.00  0.00    -0.744 OA
ENDBRANCH  83  84
ENDBRANCH  51  76
BRANCH  63  88
ATOM     88  C   UNL     1       0.696  17.981   0.405  1.00  0.00     0.058 A 
ATOM     89  C   UNL     1       1.842  18.243  -0.360  1.00  0.00     0.135 A 
ATOM     90  C   UNL     1      -0.028  19.078   0.902  1.00  0.00     0.135 A 
ATOM     91  F   UNL     1       2.572  17.230  -0.852  1.00  0.00    -0.206 F 
ATOM     92  C   UNL     1       2.268  19.544  -0.606  1.00  0.00     0.059 A 
ATOM     93  C   UNL     1       0.365  20.387   0.645  1.00  0.00     0.059 A 
ATOM     94  F   UNL     1      -1.138  18.881   1.630  1.00  0.00    -0.206 F 
ATOM     95  C   UNL     1       1.522  20.610  -0.101  1.00  0.00     0.060 A 
BRANCH  95  96
ATOM     96  S   UNL     1       2.064  22.295  -0.458  1.00  0.00     0.124 S 
ATOM     97  O   UNL     1       3.204  22.433   0.442  1.00  0.00    -0.237 OA
ATOM     98  O   UNL     1       2.383  22.226  -1.881  1.00  0.00    -0.237 OA
ATOM     99  O   UNL     1       0.897  23.105  -0.122  1.00  0.00    -0.744 OA
ENDBRANCH  95  96
ENDBRANCH  63  88
ENDBRANCH  37  38
ENDBRANCH  29  32
ENDBRANCH  27  28
ENDBRANCH  26  27
ENDBRANCH   1  26
TORSDOF 18
