REMARK SMILES CC[N@@H+](C)Cc1cc2c(cc1Cl)C=C(C(=O)NCCCCNC(=O)c1ccc(-c3c4nc(c(-c5c(F)cc(S(=O)(=O)[O-])cc5F)c5ccc([nH]5)c(-c5c(F)cc(S(=O)(=O)[O-])cc5F)c5nc(c(-c6c(F)cc(S(=O)(=O)[O-])cc6F)c6ccc3[nH]6)C=C5)C=C4)cc1)[C@@H](C(F)(F)F)O2
REMARK SMILES IDX 19 1 18 2 17 3 15 4 16 5 14 7 6 8 7 9 11 10 8 11 10 12 12 13
REMARK SMILES IDX 9 14 96 15 13 16 91 17 5 18 3 19 4 20 2 22 1 23 92 24 93 25
REMARK SMILES IDX 94 26 95 27 20 28 21 29 22 30 23 31 24 33 25 34 26 35 90 36
REMARK SMILES IDX 27 37 89 38 28 39 29 40 30 41 83 42 31 43 88 44 82 45 84 46
REMARK SMILES IDX 32 47 87 48 81 49 80 50 33 52 67 53 46 54 66 55 47 56 50 57
REMARK SMILES IDX 65 58 85 59 48 60 49 61 64 63 86 64 51 65 34 66 35 67 44 68
REMARK SMILES IDX 36 69 37 70 43 71 45 72 38 73 39 74 40 75 41 76 42 77 68 78
REMARK SMILES IDX 69 79 78 80 70 81 71 82 77 83 79 84 72 85 73 86 74 87 75 88
REMARK SMILES IDX 76 89 52 90 53 91 62 92 54 93 55 94 61 95 63 96 56 97 57 98
REMARK SMILES IDX 58 99 59 100 60 101
REMARK H PARENT 17 6 3 21 22 32 84 51 50 62
REMARK Flexibility Score: inf
ROOT
ATOM      1  C   UNL     1       8.970  -6.042   5.703  1.00  0.00     0.023 C 
ENDROOT
BRANCH   1   2
ATOM      2  C   UNL     1       8.835  -6.168   4.188  1.00  0.00     0.116 C 
BRANCH   2   3
ATOM      3  N   UNL     1       7.675  -6.947   3.797  1.00  0.00    -0.352 N 
ATOM      4  C   UNL     1       6.407  -6.685   3.405  1.00  0.00     0.251 C 
ATOM      5  O   UNL     1       5.706  -7.672   3.162  1.00  0.00    -0.270 OA
ATOM      6  H   UNL     1       7.858  -7.914   3.823  1.00  0.00     0.163 HD
BRANCH   4   7
ATOM      7  C   UNL     1       5.823  -5.319   3.254  1.00  0.00     0.067 C 
ATOM      8  C   UNL     1       2.527  -1.471   2.685  1.00  0.00     0.029 A 
ATOM      9  C   UNL     1       3.933  -1.603   2.838  1.00  0.00     0.058 A 
ATOM     10  C   UNL     1       1.784  -2.662   2.729  1.00  0.00     0.050 A 
ATOM     11  C   UNL     1       4.563  -2.836   3.003  1.00  0.00     0.128 A 
ATOM     12  C   UNL     1       2.432  -3.908   2.880  1.00  0.00     0.033 A 
ATOM     13  Cl  UNL     1       0.065  -2.788   2.650  1.00  0.00    -0.084 Cl
ATOM     14  C   UNL     1       3.816  -3.999   3.018  1.00  0.00     0.019 A 
ATOM     15  O   UNL     1       5.910  -2.808   3.193  1.00  0.00    -0.475 OA
ATOM     16  C   UNL     1       4.479  -5.278   3.216  1.00  0.00     0.025 C 
ATOM     17  C   UNL     1       6.637  -4.065   3.079  1.00  0.00     0.314 C 
BRANCH   8  18
ATOM     18  C   UNL     1       2.095  -0.016   2.550  1.00  0.00     0.300 C 
BRANCH  18  19
ATOM     19  N   UNL     1       0.743   0.425   2.242  1.00  0.00    -0.334 N 
ATOM     20  C   UNL     1      -0.160   0.454   3.376  1.00  0.00     0.333 C 
ATOM     21  H   UNL     1       0.893   1.415   2.048  1.00  0.00     0.348 HD
BRANCH  19  22
ATOM     22  C   UNL     1       0.182   0.075   0.947  1.00  0.00     0.258 C 
ATOM     23  C   UNL     1       0.873   0.812  -0.197  1.00  0.00     0.071 C 
ENDBRANCH  19  22
ENDBRANCH  18  19
ENDBRANCH   8  18
BRANCH  17  24
ATOM     24  C   UNL     1       7.427  -4.034   1.759  1.00  0.00     0.429 C 
ATOM     25  F   UNL     1       8.359  -3.048   1.794  1.00  0.00    -0.167 F 
ATOM     26  F   UNL     1       8.096  -5.183   1.516  1.00  0.00    -0.167 F 
ATOM     27  F   UNL     1       6.632  -3.800   0.690  1.00  0.00    -0.167 F 
ENDBRANCH  17  24
ENDBRANCH   4   7
ENDBRANCH   2   3
ENDBRANCH   1   2
BRANCH   1  28
ATOM     28  C   UNL     1       9.607  -7.254   6.388  1.00  0.00     0.023 C 
BRANCH  28  29
ATOM     29  C   UNL     1      10.934  -7.723   5.798  1.00  0.00     0.116 C 
BRANCH  29  30
ATOM     30  N   UNL     1      11.923  -6.667   5.625  1.00  0.00    -0.352 N 
ATOM     31  C   UNL     1      13.292  -6.810   5.488  1.00  0.00     0.251 C 
ATOM     32  H   UNL     1      11.577  -5.746   5.605  1.00  0.00     0.163 HD
ATOM     33  O   UNL     1      14.021  -5.845   5.404  1.00  0.00    -0.269 OA
BRANCH  31  34
ATOM     34  C   UNL     1      13.839  -8.185   5.511  1.00  0.00     0.039 A 
ATOM     35  C   UNL     1      13.355  -9.141   4.618  1.00  0.00     0.014 A 
ATOM     36  C   UNL     1      14.735  -8.535   6.523  1.00  0.00     0.014 A 
ATOM     37  C   UNL     1      13.630 -10.482   4.849  1.00  0.00     0.010 A 
ATOM     38  C   UNL     1      15.068  -9.879   6.706  1.00  0.00     0.010 A 
ATOM     39  C   UNL     1      14.468 -10.867   5.910  1.00  0.00    -0.014 A 
BRANCH  39  40
ATOM     40  C   UNL     1      14.662 -12.313   6.185  1.00  0.00     0.031 A 
ATOM     41  C   UNL     1      14.109 -12.938   7.439  1.00  0.00     0.074 A 
ATOM     42  C   UNL     1      15.260 -13.079   5.253  1.00  0.00     0.049 A 
ATOM     43  N   UNL     1      14.134 -14.191   7.813  1.00  0.00    -0.248 NA
ATOM     44  C   UNL     1      13.444 -12.043   8.401  1.00  0.00     0.031 C 
ATOM     45  C   UNL     1      15.819 -12.584   3.993  1.00  0.00     0.029 A 
ATOM     46  N   UNL     1      15.460 -14.434   5.198  1.00  0.00    -0.354 N 
ATOM     47  C   UNL     1      13.511 -14.234   9.055  1.00  0.00     0.074 A 
ATOM     48  C   UNL     1      13.133 -12.877   9.384  1.00  0.00     0.031 C 
ATOM     49  C   UNL     1      16.234 -13.627   3.259  1.00  0.00     0.029 A 
ATOM     50  C   UNL     1      16.021 -14.856   4.017  1.00  0.00     0.049 A 
ATOM     51  H   UNL     1      15.224 -15.045   5.933  1.00  0.00     0.167 HD
ATOM     52  C   UNL     1      13.268 -15.309   9.843  1.00  0.00     0.037 A 
ATOM     53  C   UNL     1      16.329 -16.095   3.589  1.00  0.00     0.037 A 
ATOM     54  C   UNL     1      13.616 -16.662   9.496  1.00  0.00     0.049 A 
ATOM     55  C   UNL     1      16.059 -17.267   4.485  1.00  0.00     0.074 A 
ATOM     56  C   UNL     1      13.403 -17.819  10.226  1.00  0.00     0.029 A 
ATOM     57  N   UNL     1      14.239 -17.041   8.317  1.00  0.00    -0.354 N 
ATOM     58  N   UNL     1      15.490 -17.283   5.666  1.00  0.00    -0.248 NA
ATOM     59  C   UNL     1      16.486 -18.586   4.000  1.00  0.00     0.031 C 
ATOM     60  C   UNL     1      13.921 -18.896   9.497  1.00  0.00     0.029 A 
ATOM     61  C   UNL     1      14.429 -18.413   8.303  1.00  0.00     0.049 A 
ATOM     62  H   UNL     1      14.507 -16.426   7.597  1.00  0.00     0.167 HD
ATOM     63  C   UNL     1      15.495 -18.612   6.070  1.00  0.00     0.074 A 
ATOM     64  C   UNL     1      16.103 -19.373   4.997  1.00  0.00     0.031 C 
ATOM     65  C   UNL     1      15.046 -19.150   7.229  1.00  0.00     0.037 A 
BRANCH  52  66
ATOM     66  C   UNL     1      12.598 -15.070  11.167  1.00  0.00     0.058 A 
ATOM     67  C   UNL     1      11.222 -14.814  11.258  1.00  0.00     0.135 A 
ATOM     68  C   UNL     1      13.332 -15.153  12.362  1.00  0.00     0.135 A 
ATOM     69  F   UNL     1      10.479 -14.707  10.146  1.00  0.00    -0.206 F 
ATOM     70  C   UNL     1      10.597 -14.636  12.489  1.00  0.00     0.059 A 
ATOM     71  C   UNL     1      12.724 -14.995  13.604  1.00  0.00     0.059 A 
ATOM     72  F   UNL     1      14.652 -15.393  12.328  1.00  0.00    -0.206 F 
ATOM     73  C   UNL     1      11.357 -14.727  13.657  1.00  0.00     0.060 A 
BRANCH  73  74
ATOM     74  S   UNL     1      10.530 -14.502  15.246  1.00  0.00     0.124 S 
ATOM     75  O   UNL     1      10.320 -13.057  15.261  1.00  0.00    -0.237 OA
ATOM     76  O   UNL     1       9.328 -15.315  15.092  1.00  0.00    -0.237 OA
ATOM     77  O   UNL     1      11.504 -15.004  16.210  1.00  0.00    -0.744 OA
ENDBRANCH  73  74
ENDBRANCH  52  66
BRANCH  53  78
ATOM     78  C   UNL     1      16.919 -16.273   2.240  1.00  0.00     0.058 A 
ATOM     79  C   UNL     1      16.157 -16.798   1.187  1.00  0.00     0.135 A 
ATOM     80  C   UNL     1      18.232 -15.864   1.962  1.00  0.00     0.135 A 
ATOM     81  F   UNL     1      14.898 -17.205   1.409  1.00  0.00    -0.206 F 
ATOM     82  C   UNL     1      16.673 -16.904  -0.100  1.00  0.00     0.059 A 
ATOM     83  C   UNL     1      18.764 -15.941   0.680  1.00  0.00     0.059 A 
ATOM     84  F   UNL     1      18.994 -15.341   2.936  1.00  0.00    -0.206 F 
ATOM     85  C   UNL     1      17.976 -16.466  -0.345  1.00  0.00     0.060 A 
BRANCH  85  86
ATOM     86  S   UNL     1      18.610 -16.522  -2.035  1.00  0.00     0.124 S 
ATOM     87  O   UNL     1      18.939 -17.936  -2.177  1.00  0.00    -0.237 OA
ATOM     88  O   UNL     1      17.466 -16.051  -2.811  1.00  0.00    -0.237 OA
ATOM     89  O   UNL     1      19.747 -15.608  -1.995  1.00  0.00    -0.744 OA
ENDBRANCH  85  86
ENDBRANCH  53  78
BRANCH  65  90
ATOM     90  C   UNL     1      15.203 -20.631   7.405  1.00  0.00     0.058 A 
ATOM     91  C   UNL     1      16.439 -21.190   7.761  1.00  0.00     0.135 A 
ATOM     92  C   UNL     1      14.099 -21.488   7.284  1.00  0.00     0.135 A 
ATOM     93  F   UNL     1      17.524 -20.409   7.881  1.00  0.00    -0.206 F 
ATOM     94  C   UNL     1      16.578 -22.555   7.985  1.00  0.00     0.059 A 
ATOM     95  C   UNL     1      14.211 -22.855   7.519  1.00  0.00     0.059 A 
ATOM     96  F   UNL     1      12.895 -20.997   6.952  1.00  0.00    -0.206 F 
ATOM     97  C   UNL     1      15.457 -23.379   7.864  1.00  0.00     0.060 A 
BRANCH  97  98
ATOM     98  S   UNL     1      15.640 -25.143   8.206  1.00  0.00     0.124 S 
ATOM     99  O   UNL     1      16.311 -25.608   6.996  1.00  0.00    -0.237 OA
ATOM    100  O   UNL     1      16.449 -25.145   9.421  1.00  0.00    -0.237 OA
ATOM    101  O   UNL     1      14.263 -25.599   8.376  1.00  0.00    -0.744 OA
ENDBRANCH  97  98
ENDBRANCH  65  90
ENDBRANCH  39  40
ENDBRANCH  31  34
ENDBRANCH  29  30
ENDBRANCH  28  29
ENDBRANCH   1  28
TORSDOF 18
