REMARK SMILES C[C@H](C(=O)NCCCCNC(=O)c1ccc(-c2c3nc(c(-c4c(F)cc(S(=O)(=O)[O-])cc4F)c4ccc([nH]4)c(-c4c(F)cc(S(=O)(=O)[O-])cc4F)c4nc(c(-c5c(F)cc(S(=O)(=O)[O-])cc5F)c5ccc2[nH]5)C=C4)C=C3)cc1)[C@H](C)[NH+]1CCN(c2ccccc2Cl)CC1
REMARK SMILES IDX 7 1 6 2 5 3 3 4 4 5 2 7 1 8 79 9 80 10 81 11 82 12 93 13
REMARK SMILES IDX 83 15 92 16 84 17 85 18 86 19 90 20 87 21 89 22 91 23 88 24
REMARK SMILES IDX 8 25 9 26 10 27 11 28 12 30 13 31 14 32 78 33 15 34 77 35
REMARK SMILES IDX 16 36 17 37 18 38 71 39 19 40 76 41 70 42 72 43 20 44 75 45
REMARK SMILES IDX 69 46 68 47 21 49 55 50 34 51 54 52 35 53 38 54 53 55 73 56
REMARK SMILES IDX 36 57 37 58 52 60 74 61 39 62 22 63 23 64 32 65 24 66 25 67
REMARK SMILES IDX 31 68 33 69 26 70 27 71 28 72 29 73 30 74 56 75 57 76 66 77
REMARK SMILES IDX 58 78 59 79 65 80 67 81 60 82 61 83 62 84 63 85 64 86 40 87
REMARK SMILES IDX 41 88 50 89 42 90 43 91 49 92 51 93 44 94 45 95 46 96 47 97
REMARK SMILES IDX 48 98
REMARK H PARENT 5 6 81 14 10 29 72 48 38 59
REMARK Flexibility Score: inf
ROOT
ATOM      1  C   UNL     1      -6.509   1.035   1.575  1.00  0.00     0.023 C 
ENDROOT
BRANCH   1   2
ATOM      2  C   UNL     1      -5.036   1.096   1.146  1.00  0.00     0.116 C 
BRANCH   2   3
ATOM      3  N   UNL     1      -4.055   0.569   2.096  1.00  0.00    -0.356 N 
ATOM      4  C   UNL     1      -2.715   0.277   2.022  1.00  0.00     0.228 C 
ATOM      5  O   UNL     1      -2.169   0.014   3.104  1.00  0.00    -0.275 OA
ATOM      6  H   UNL     1      -4.440   0.382   2.982  1.00  0.00     0.163 HD
BRANCH   4   7
ATOM      7  C   UNL     1      -1.844   0.244   0.735  1.00  0.00     0.133 C 
ATOM      8  C   UNL     1      -2.544  -0.513  -0.393  1.00  0.00     0.024 C 
BRANCH   7   9
ATOM      9  C   UNL     1      -0.876   1.437   0.205  1.00  0.00     0.193 C 
ATOM     10  C   UNL     1       0.579   1.185   0.657  1.00  0.00     0.076 C 
BRANCH   9  11
ATOM     11  N   UNL     1      -1.203   2.882   0.053  1.00  0.00    -0.329 N 
ATOM     12  C   UNL     1      -2.569   3.242   0.393  1.00  0.00     0.284 C 
ATOM     13  C   UNL     1      -0.326   3.950   0.616  1.00  0.00     0.284 C 
ATOM     14  H   UNL     1      -1.017   2.892  -0.950  1.00  0.00     0.348 HD
ATOM     15  C   UNL     1      -2.705   3.323   1.906  1.00  0.00     0.178 C 
ATOM     16  C   UNL     1      -0.500   4.356   2.128  1.00  0.00     0.178 C 
ATOM     17  N   UNL     1      -1.921   4.403   2.509  1.00  0.00    -0.359 N 
BRANCH  17  18
ATOM     18  C   UNL     1      -2.347   4.431   3.872  1.00  0.00     0.056 A 
ATOM     19  C   UNL     1      -2.009   3.363   4.731  1.00  0.00     0.027 A 
ATOM     20  C   UNL     1      -3.463   5.226   4.226  1.00  0.00     0.064 A 
ATOM     21  C   UNL     1      -2.849   3.003   5.792  1.00  0.00     0.002 A 
ATOM     22  C   UNL     1      -4.277   4.882   5.310  1.00  0.00     0.023 A 
ATOM     23  Cl  UNL     1      -3.969   6.546   3.225  1.00  0.00    -0.082 Cl
ATOM     24  C   UNL     1      -3.995   3.745   6.064  1.00  0.00     0.002 A 
ENDBRANCH  17  18
ENDBRANCH   9  11
ENDBRANCH   7   9
ENDBRANCH   4   7
ENDBRANCH   2   3
ENDBRANCH   1   2
BRANCH   1  25
ATOM     25  C   UNL     1      -6.953   1.897   2.773  1.00  0.00     0.023 C 
BRANCH  25  26
ATOM     26  C   UNL     1      -6.765   3.419   2.700  1.00  0.00     0.116 C 
BRANCH  26  27
ATOM     27  N   UNL     1      -7.626   4.102   1.746  1.00  0.00    -0.352 N 
ATOM     28  C   UNL     1      -8.638   5.025   1.952  1.00  0.00     0.251 C 
ATOM     29  H   UNL     1      -7.463   3.871   0.803  1.00  0.00     0.163 HD
ATOM     30  O   UNL     1      -9.260   5.468   1.008  1.00  0.00    -0.269 OA
BRANCH  28  31
ATOM     31  C   UNL     1      -9.004   5.433   3.332  1.00  0.00     0.039 A 
ATOM     32  C   UNL     1     -10.327   5.258   3.751  1.00  0.00     0.014 A 
ATOM     33  C   UNL     1      -8.065   5.983   4.205  1.00  0.00     0.014 A 
ATOM     34  C   UNL     1     -10.679   5.522   5.079  1.00  0.00     0.010 A 
ATOM     35  C   UNL     1      -8.405   6.195   5.544  1.00  0.00     0.010 A 
ATOM     36  C   UNL     1      -9.707   5.938   6.004  1.00  0.00    -0.014 A 
BRANCH  36  37
ATOM     37  C   UNL     1     -10.018   6.046   7.458  1.00  0.00     0.031 A 
ATOM     38  C   UNL     1      -9.928   7.368   8.169  1.00  0.00     0.074 A 
ATOM     39  C   UNL     1     -10.286   4.928   8.165  1.00  0.00     0.049 A 
ATOM     40  N   UNL     1     -10.053   7.629   9.446  1.00  0.00    -0.248 NA
ATOM     41  C   UNL     1      -9.636   8.545   7.339  1.00  0.00     0.031 C 
ATOM     42  C   UNL     1     -10.357   3.575   7.609  1.00  0.00     0.029 A 
ATOM     43  N   UNL     1     -10.522   4.745   9.507  1.00  0.00    -0.354 N 
ATOM     44  C   UNL     1      -9.832   8.995   9.578  1.00  0.00     0.074 A 
ATOM     45  C   UNL     1      -9.528   9.498   8.254  1.00  0.00     0.031 C 
ATOM     46  C   UNL     1     -10.614   2.705   8.598  1.00  0.00     0.029 A 
ATOM     47  C   UNL     1     -10.686   3.427   9.866  1.00  0.00     0.049 A 
ATOM     48  H   UNL     1     -10.570   5.488  10.152  1.00  0.00     0.167 HD
ATOM     49  C   UNL     1      -9.887   9.761  10.695  1.00  0.00     0.037 A 
ATOM     50  C   UNL     1     -10.852   2.854  11.075  1.00  0.00     0.037 A 
ATOM     51  C   UNL     1     -10.206   9.260  12.008  1.00  0.00     0.049 A 
ATOM     52  C   UNL     1     -10.915   3.719  12.304  1.00  0.00     0.074 A 
ATOM     53  C   UNL     1     -10.360   9.971  13.185  1.00  0.00     0.029 A 
ATOM     54  N   UNL     1     -10.406   7.923  12.321  1.00  0.00    -0.354 N 
ATOM     55  N   UNL     1     -10.783   5.021  12.398  1.00  0.00    -0.248 NA
ATOM     56  C   UNL     1     -11.154   3.046  13.588  1.00  0.00     0.031 C 
ATOM     57  C   UNL     1     -10.600   9.060  14.220  1.00  0.00     0.029 A 
ATOM     58  C   UNL     1     -10.653   7.786  13.678  1.00  0.00     0.049 A 
ATOM     59  H   UNL     1     -10.377   7.181  11.675  1.00  0.00     0.167 HD
ATOM     60  C   UNL     1     -10.947   5.325  13.745  1.00  0.00     0.074 A 
ATOM     61  C   UNL     1     -11.192   4.072  14.429  1.00  0.00     0.031 C 
ATOM     62  C   UNL     1     -10.905   6.535  14.354  1.00  0.00     0.037 A 
BRANCH  49  63
ATOM     63  C   UNL     1      -9.575  11.226  10.547  1.00  0.00     0.058 A 
ATOM     64  C   UNL     1     -10.435  12.102   9.865  1.00  0.00     0.135 A 
ATOM     65  C   UNL     1      -8.402  11.764  11.102  1.00  0.00     0.135 A 
ATOM     66  F   UNL     1     -11.567  11.642   9.309  1.00  0.00    -0.206 F 
ATOM     67  C   UNL     1     -10.119  13.447   9.694  1.00  0.00     0.059 A 
ATOM     68  C   UNL     1      -8.081  13.112  10.970  1.00  0.00     0.059 A 
ATOM     69  F   UNL     1      -7.548  10.976  11.773  1.00  0.00    -0.206 F 
ATOM     70  C   UNL     1      -8.935  13.940  10.243  1.00  0.00     0.060 A 
BRANCH  70  71
ATOM     71  S   UNL     1      -8.520  15.678   9.982  1.00  0.00     0.124 S 
ATOM     72  O   UNL     1      -8.114  15.671   8.580  1.00  0.00    -0.237 OA
ATOM     73  O   UNL     1      -9.784  16.348  10.271  1.00  0.00    -0.237 OA
ATOM     74  O   UNL     1      -7.451  15.921  10.945  1.00  0.00    -0.744 OA
ENDBRANCH  70  71
ENDBRANCH  49  63
BRANCH  50  75
ATOM     75  C   UNL     1     -10.970   1.373  11.171  1.00  0.00     0.058 A 
ATOM     76  C   UNL     1     -12.198   0.759  11.453  1.00  0.00     0.135 A 
ATOM     77  C   UNL     1      -9.865   0.543  10.925  1.00  0.00     0.135 A 
ATOM     78  F   UNL     1     -13.281   1.510  11.705  1.00  0.00    -0.206 F 
ATOM     79  C   UNL     1     -12.330  -0.626  11.484  1.00  0.00     0.059 A 
ATOM     80  C   UNL     1      -9.977  -0.844  10.927  1.00  0.00     0.059 A 
ATOM     81  F   UNL     1      -8.670   1.081  10.635  1.00  0.00    -0.206 F 
ATOM     82  C   UNL     1     -11.215  -1.419  11.209  1.00  0.00     0.060 A 
BRANCH  82  83
ATOM     83  S   UNL     1     -11.419  -3.214  11.158  1.00  0.00     0.124 S 
ATOM     84  O   UNL     1     -11.565  -3.533  12.573  1.00  0.00    -0.237 OA
ATOM     85  O   UNL     1     -12.619  -3.362  10.341  1.00  0.00    -0.237 OA
ATOM     86  O   UNL     1     -10.183  -3.674  10.530  1.00  0.00    -0.744 OA
ENDBRANCH  82  83
ENDBRANCH  50  75
BRANCH  62  87
ATOM     87  C   UNL     1     -11.159   6.589  15.836  1.00  0.00     0.058 A 
ATOM     88  C   UNL     1     -10.196   6.173  16.767  1.00  0.00     0.135 A 
ATOM     89  C   UNL     1     -12.344   7.160  16.329  1.00  0.00     0.135 A 
ATOM     90  F   UNL     1      -9.050   5.611  16.350  1.00  0.00    -0.206 F 
ATOM     91  C   UNL     1     -10.398   6.322  18.137  1.00  0.00     0.059 A 
ATOM     92  C   UNL     1     -12.557   7.341  17.692  1.00  0.00     0.059 A 
ATOM     93  F   UNL     1     -13.296   7.580  15.480  1.00  0.00    -0.206 F 
ATOM     94  C   UNL     1     -11.578   6.917  18.589  1.00  0.00     0.060 A 
BRANCH  94  95
ATOM     95  S   UNL     1     -11.793   7.175  20.364  1.00  0.00     0.124 S 
ATOM     96  O   UNL     1     -12.045   5.815  20.831  1.00  0.00    -0.237 OA
ATOM     97  O   UNL     1     -10.510   7.751  20.753  1.00  0.00    -0.237 OA
ATOM     98  O   UNL     1     -12.931   8.085  20.440  1.00  0.00    -0.744 OA
ENDBRANCH  94  95
ENDBRANCH  62  87
ENDBRANCH  36  37
ENDBRANCH  28  31
ENDBRANCH  26  27
ENDBRANCH  25  26
ENDBRANCH   1  25
TORSDOF 17
