REMARK SMILES CCn1ncc(NC(=O)[C@@H]2CCCC[C@@H]2C(=O)NCCCCNC(=O)c2ccc(-c3c4nc(c(-c5c(F)cc(S(=O)(=O)[O-])cc5F)c5ccc([nH]5)c(-c5c(F)cc(S(=O)(=O)[O-])cc5F)c5nc(c(-c6c(F)cc(S(=O)(=O)[O-])cc6F)c6ccc3[nH]6)C=C5)C=C4)cc2)c1C(=O)Nc1cnn(C)c1C
REMARK SMILES IDX 20 1 19 2 18 3 16 4 17 5 15 7 10 8 11 9 12 10 14 11 13 12
REMARK SMILES IDX 8 13 7 14 9 16 6 17 3 18 4 19 92 20 5 21 2 22 1 23 93 24
REMARK SMILES IDX 94 25 95 26 96 28 97 29 101 30 98 31 99 32 102 33 100 34
REMARK SMILES IDX 21 35 22 36 23 37 24 38 25 40 26 41 27 42 91 43 28 44 90 45
REMARK SMILES IDX 29 46 30 47 31 48 84 49 32 50 89 51 83 52 85 53 33 54 88 55
REMARK SMILES IDX 82 56 81 57 34 59 68 60 47 61 67 62 48 63 51 64 66 65 86 66
REMARK SMILES IDX 49 67 50 68 65 70 87 71 52 72 35 73 36 74 45 75 37 76 38 77
REMARK SMILES IDX 44 78 46 79 39 80 40 81 41 82 42 83 43 84 69 85 70 86 79 87
REMARK SMILES IDX 71 88 72 89 78 90 80 91 73 92 74 93 75 94 76 95 77 96 53 97
REMARK SMILES IDX 54 98 63 99 55 100 56 101 62 102 64 103 57 104 58 105 59 106
REMARK SMILES IDX 60 107 61 108
REMARK H PARENT 18 6 7 15 95 27 23 39 85 58 51 69
REMARK Flexibility Score: inf
ROOT
ATOM      1  C   UNL     1      -4.158 -10.287   0.903  1.00  0.00     0.023 C 
ENDROOT
BRANCH   1   2
ATOM      2  C   UNL     1      -3.893  -8.975   0.166  1.00  0.00     0.116 C 
BRANCH   2   3
ATOM      3  N   UNL     1      -3.643  -7.899   1.095  1.00  0.00    -0.356 N 
ATOM      4  C   UNL     1      -2.484  -7.242   1.352  1.00  0.00     0.223 C 
ATOM      5  O   UNL     1      -2.369  -6.772   2.486  1.00  0.00    -0.275 OA
ATOM      6  H   UNL     1      -4.423  -7.601   1.616  1.00  0.00     0.163 HD
BRANCH   4   7
ATOM      7  C   UNL     1      -1.399  -7.090   0.269  1.00  0.00     0.091 C 
ATOM      8  C   UNL     1      -0.462  -5.891   0.618  1.00  0.00     0.091 C 
ATOM      9  C   UNL     1      -1.327  -4.623   0.751  1.00  0.00     0.014 C 
ATOM     10  C   UNL     1      -2.001  -4.321  -0.580  1.00  0.00     0.001 C 
ATOM     11  C   UNL     1      -1.955  -6.776  -1.140  1.00  0.00     0.014 C 
ATOM     12  C   UNL     1      -2.779  -5.489  -1.160  1.00  0.00     0.001 C 
BRANCH   8  13
ATOM     13  C   UNL     1       0.540  -6.192   1.728  1.00  0.00     0.228 C 
ATOM     14  N   UNL     1       1.419  -5.256   2.199  1.00  0.00    -0.322 N 
ATOM     15  H   UNL     1       2.003  -5.592   2.917  1.00  0.00     0.170 HD
ATOM     16  O   UNL     1       0.625  -7.326   2.217  1.00  0.00    -0.274 OA
BRANCH  14  17
ATOM     17  C   UNL     1       1.656  -3.928   1.870  1.00  0.00     0.092 A 
ATOM     18  N   UNL     1       1.442  -1.901   1.157  1.00  0.00    -0.258 N 
ATOM     19  N   UNL     1       2.063  -1.746   2.354  1.00  0.00    -0.178 NA
ATOM     20  C   UNL     1       1.591  -3.196   0.672  1.00  0.00     0.150 A 
ATOM     21  C   UNL     1       2.086  -2.985   2.831  1.00  0.00     0.162 A 
BRANCH  18  22
ATOM     22  C   UNL     1       0.391  -0.933   0.866  1.00  0.00     0.142 C 
ATOM     23  C   UNL     1       0.927   0.476   0.694  1.00  0.00     0.029 C 
ENDBRANCH  18  22
BRANCH  20  24
ATOM     24  C   UNL     1       1.653  -3.713  -0.693  1.00  0.00     0.276 C 
ATOM     25  O   UNL     1       2.204  -4.795  -0.927  1.00  0.00    -0.267 OA
ATOM     26  N   UNL     1       0.944  -3.176  -1.747  1.00  0.00    -0.318 N 
ATOM     27  H   UNL     1       0.467  -3.837  -2.298  1.00  0.00     0.170 HD
BRANCH  26  28
ATOM     28  C   UNL     1       0.791  -1.875  -2.160  1.00  0.00     0.082 A 
ATOM     29  C   UNL     1       1.744  -0.845  -2.220  1.00  0.00     0.161 A 
ATOM     30  C   UNL     1      -0.369  -1.325  -2.683  1.00  0.00     0.059 A 
ATOM     31  N   UNL     1       1.219   0.302  -2.655  1.00  0.00    -0.179 NA
ATOM     32  N   UNL     1      -0.096   0.021  -2.793  1.00  0.00    -0.271 N 
ATOM     33  C   UNL     1      -1.736  -1.866  -2.910  1.00  0.00     0.068 C 
ATOM     34  C   UNL     1      -1.044   1.115  -2.889  1.00  0.00     0.174 C 
ENDBRANCH  26  28
ENDBRANCH  20  24
ENDBRANCH  14  17
ENDBRANCH   8  13
ENDBRANCH   4   7
ENDBRANCH   2   3
ENDBRANCH   1   2
BRANCH   1  35
ATOM     35  C   UNL     1      -5.324 -10.280   1.898  1.00  0.00     0.023 C 
BRANCH  35  36
ATOM     36  C   UNL     1      -6.649  -9.854   1.295  1.00  0.00     0.116 C 
BRANCH  36  37
ATOM     37  N   UNL     1      -7.102 -10.739   0.218  1.00  0.00    -0.352 N 
ATOM     38  C   UNL     1      -8.292 -10.662  -0.494  1.00  0.00     0.251 C 
ATOM     39  H   UNL     1      -6.494 -11.473  -0.029  1.00  0.00     0.163 HD
ATOM     40  O   UNL     1      -8.727 -11.610  -1.121  1.00  0.00    -0.269 OA
BRANCH  38  41
ATOM     41  C   UNL     1      -8.992  -9.365  -0.486  1.00  0.00     0.039 A 
ATOM     42  C   UNL     1     -10.369  -9.236  -0.288  1.00  0.00     0.014 A 
ATOM     43  C   UNL     1      -8.173  -8.250  -0.597  1.00  0.00     0.014 A 
ATOM     44  C   UNL     1     -10.897  -7.953  -0.148  1.00  0.00     0.010 A 
ATOM     45  C   UNL     1      -8.647  -7.042  -0.193  1.00  0.00     0.010 A 
ATOM     46  C   UNL     1     -10.018  -6.862  -0.102  1.00  0.00    -0.014 A 
BRANCH  46  47
ATOM     47  C   UNL     1     -10.460  -5.489   0.082  1.00  0.00     0.031 A 
ATOM     48  C   UNL     1     -11.201  -5.237   1.345  1.00  0.00     0.074 A 
ATOM     49  C   UNL     1      -9.964  -4.498  -0.696  1.00  0.00     0.049 A 
ATOM     50  N   UNL     1     -12.447  -4.930   1.486  1.00  0.00    -0.248 NA
ATOM     51  C   UNL     1     -10.513  -5.515   2.618  1.00  0.00     0.031 C 
ATOM     52  C   UNL     1      -8.953  -4.581  -1.765  1.00  0.00     0.029 A 
ATOM     53  N   UNL     1     -10.176  -3.161  -0.611  1.00  0.00    -0.354 N 
ATOM     54  C   UNL     1     -12.632  -4.722   2.851  1.00  0.00     0.074 A 
ATOM     55  C   UNL     1     -11.493  -5.313   3.501  1.00  0.00     0.031 C 
ATOM     56  C   UNL     1      -8.471  -3.349  -2.040  1.00  0.00     0.029 A 
ATOM     57  C   UNL     1      -9.268  -2.379  -1.319  1.00  0.00     0.049 A 
ATOM     58  H   UNL     1     -10.915  -2.774  -0.088  1.00  0.00     0.167 HD
ATOM     59  C   UNL     1     -13.567  -3.842   3.311  1.00  0.00     0.037 A 
ATOM     60  C   UNL     1      -9.174  -1.025  -1.285  1.00  0.00     0.037 A 
ATOM     61  C   UNL     1     -14.502  -3.493   2.267  1.00  0.00     0.049 A 
ATOM     62  C   UNL     1     -10.481  -0.528  -0.777  1.00  0.00     0.074 A 
ATOM     63  C   UNL     1     -15.374  -4.208   1.468  1.00  0.00     0.029 A 
ATOM     64  N   UNL     1     -14.325  -2.287   1.629  1.00  0.00    -0.354 N 
ATOM     65  N   UNL     1     -11.611  -0.692  -1.415  1.00  0.00    -0.248 NA
ATOM     66  C   UNL     1     -10.603  -0.316   0.657  1.00  0.00     0.031 C 
ATOM     67  C   UNL     1     -15.258  -3.614   0.176  1.00  0.00     0.029 A 
ATOM     68  C   UNL     1     -14.395  -2.521   0.278  1.00  0.00     0.049 A 
ATOM     69  H   UNL     1     -14.175  -1.415   2.062  1.00  0.00     0.167 HD
ATOM     70  C   UNL     1     -12.537  -1.021  -0.433  1.00  0.00     0.074 A 
ATOM     71  C   UNL     1     -11.868  -0.710   0.831  1.00  0.00     0.031 C 
ATOM     72  C   UNL     1     -13.635  -1.786  -0.713  1.00  0.00     0.037 A 
BRANCH  59  73
ATOM     73  C   UNL     1     -13.418  -3.010   4.566  1.00  0.00     0.058 A 
ATOM     74  C   UNL     1     -14.516  -2.248   5.019  1.00  0.00     0.135 A 
ATOM     75  C   UNL     1     -12.180  -2.709   5.177  1.00  0.00     0.135 A 
ATOM     76  F   UNL     1     -15.743  -2.448   4.511  1.00  0.00    -0.206 F 
ATOM     77  C   UNL     1     -14.377  -1.209   5.941  1.00  0.00     0.059 A 
ATOM     78  C   UNL     1     -12.030  -1.716   6.138  1.00  0.00     0.059 A 
ATOM     79  F   UNL     1     -11.033  -3.287   4.804  1.00  0.00    -0.206 F 
ATOM     80  C   UNL     1     -13.123  -0.939   6.479  1.00  0.00     0.060 A 
BRANCH  80  81
ATOM     81  S   UNL     1     -12.912   0.479   7.568  1.00  0.00     0.124 S 
ATOM     82  O   UNL     1     -13.124   1.587   6.643  1.00  0.00    -0.237 OA
ATOM     83  O   UNL     1     -13.961   0.259   8.557  1.00  0.00    -0.237 OA
ATOM     84  O   UNL     1     -11.547   0.322   8.063  1.00  0.00    -0.744 OA
ENDBRANCH  80  81
ENDBRANCH  59  73
BRANCH  60  85
ATOM     85  C   UNL     1      -7.924  -0.218  -1.259  1.00  0.00     0.058 A 
ATOM     86  C   UNL     1      -7.932   1.168  -1.493  1.00  0.00     0.135 A 
ATOM     87  C   UNL     1      -6.726  -0.749  -0.734  1.00  0.00     0.135 A 
ATOM     88  F   UNL     1      -9.038   1.762  -1.967  1.00  0.00    -0.206 F 
ATOM     89  C   UNL     1      -6.829   1.984  -1.200  1.00  0.00     0.059 A 
ATOM     90  C   UNL     1      -5.617   0.041  -0.437  1.00  0.00     0.059 A 
ATOM     91  F   UNL     1      -6.625  -2.049  -0.418  1.00  0.00    -0.206 F 
ATOM     92  C   UNL     1      -5.677   1.410  -0.660  1.00  0.00     0.060 A 
BRANCH  92  93
ATOM     93  S   UNL     1      -4.281   2.456  -0.181  1.00  0.00     0.124 S 
ATOM     94  O   UNL     1      -3.790   2.911  -1.478  1.00  0.00    -0.237 OA
ATOM     95  O   UNL     1      -4.919   3.463   0.658  1.00  0.00    -0.237 OA
ATOM     96  O   UNL     1      -3.388   1.531   0.514  1.00  0.00    -0.744 OA
ENDBRANCH  92  93
ENDBRANCH  60  85
BRANCH  72  97
ATOM     97  C   UNL     1     -13.967  -2.066  -2.162  1.00  0.00     0.058 A 
ATOM     98  C   UNL     1     -13.171  -2.831  -3.034  1.00  0.00     0.135 A 
ATOM     99  C   UNL     1     -15.229  -1.680  -2.635  1.00  0.00     0.135 A 
ATOM    100  F   UNL     1     -11.995  -3.330  -2.635  1.00  0.00    -0.206 F 
ATOM    101  C   UNL     1     -13.590  -3.162  -4.326  1.00  0.00     0.059 A 
ATOM    102  C   UNL     1     -15.681  -2.022  -3.908  1.00  0.00     0.059 A 
ATOM    103  F   UNL     1     -16.067  -1.004  -1.833  1.00  0.00    -0.206 F 
ATOM    104  C   UNL     1     -14.851  -2.752  -4.754  1.00  0.00     0.060 A 
BRANCH 104 105
ATOM    105  S   UNL     1     -15.421  -3.228  -6.401  1.00  0.00     0.124 S 
ATOM    106  O   UNL     1     -14.568  -2.421  -7.266  1.00  0.00    -0.237 OA
ATOM    107  O   UNL     1     -15.166  -4.666  -6.423  1.00  0.00    -0.237 OA
ATOM    108  O   UNL     1     -16.834  -2.855  -6.394  1.00  0.00    -0.744 OA
ENDBRANCH 104 105
ENDBRANCH  72  97
ENDBRANCH  46  47
ENDBRANCH  38  41
ENDBRANCH  36  37
ENDBRANCH  35  36
ENDBRANCH   1  35
TORSDOF 19
