REMARK SMILES O=C(/C=C/c1c(Cl)cccc1Cl)NCC(=O)NCCCCNC(=O)c1ccc(-c2c3nc(c(-c4c(F)cc(S(=O)(=O)[O-])cc4F)c4ccc([nH]4)c(-c4c(F)cc(S(=O)(=O)[O-])cc4F)c4nc(c(-c5c(F)cc(S(=O)(=O)[O-])cc5F)c5ccc2[nH]5)C=C4)C=C3)cc1
REMARK SMILES IDX 19 1 18 2 17 3 15 4 16 5 14 7 13 8 1 9 2 10 3 12 4 13 5 14
REMARK SMILES IDX 6 15 11 16 7 17 8 18 10 19 12 20 9 21 20 22 21 23 22 24
REMARK SMILES IDX 23 25 24 27 25 28 26 29 90 30 27 31 89 32 28 33 29 34 30 35
REMARK SMILES IDX 83 36 31 37 88 38 82 39 84 40 32 41 87 42 81 43 80 44 33 46
REMARK SMILES IDX 67 47 46 48 66 49 47 50 50 51 65 52 85 53 48 54 49 55 64 57
REMARK SMILES IDX 86 58 51 59 34 60 35 61 44 62 36 63 37 64 43 65 45 66 38 67
REMARK SMILES IDX 39 68 40 69 41 70 42 71 68 72 69 73 78 74 70 75 71 76 77 77
REMARK SMILES IDX 79 78 72 79 73 80 74 81 75 82 76 83 52 84 53 85 62 86 54 87
REMARK SMILES IDX 55 88 61 89 63 90 56 91 57 92 58 93 59 94 60 95
REMARK H PARENT 17 6 13 11 22 26 84 45 50 56
REMARK Flexibility Score: inf
ROOT
ATOM      1  C   UNL     1       2.644   3.140   1.162  1.00  0.00     0.023 C 
ENDROOT
BRANCH   1   2
ATOM      2  C   UNL     1       1.679   3.131  -0.023  1.00  0.00     0.116 C 
BRANCH   2   3
ATOM      3  N   UNL     1       2.354   3.440  -1.269  1.00  0.00    -0.355 N 
ATOM      4  C   UNL     1       2.728   2.590  -2.271  1.00  0.00     0.239 C 
ATOM      5  O   UNL     1       3.241   3.063  -3.286  1.00  0.00    -0.273 OA
ATOM      6  H   UNL     1       2.573   4.389  -1.411  1.00  0.00     0.163 HD
BRANCH   4   7
ATOM      7  C   UNL     1       2.439   1.091  -2.155  1.00  0.00     0.216 C 
BRANCH   7   8
ATOM      8  N   UNL     1       3.098   0.491  -1.007  1.00  0.00    -0.343 N 
ATOM      9  O   UNL     1       1.215  -0.520  -0.181  1.00  0.00    -0.270 OA
ATOM     10  C   UNL     1       2.413  -0.275  -0.105  1.00  0.00     0.244 C 
ATOM     11  H   UNL     1       4.062   0.639  -0.875  1.00  0.00     0.164 HD
BRANCH  10  12
ATOM     12  C   UNL     1       3.176  -0.744   1.076  1.00  0.00     0.072 C 
ATOM     13  C   UNL     1       4.500  -0.953   1.121  1.00  0.00     0.017 C 
BRANCH  13  14
ATOM     14  C   UNL     1       5.165  -1.464   2.337  1.00  0.00     0.012 A 
ATOM     15  C   UNL     1       4.895  -2.747   2.857  1.00  0.00     0.049 A 
ATOM     16  C   UNL     1       6.123  -0.675   3.005  1.00  0.00     0.049 A 
ATOM     17  Cl  UNL     1       3.792  -3.845   2.094  1.00  0.00    -0.084 Cl
ATOM     18  C   UNL     1       5.537  -3.207   4.013  1.00  0.00     0.021 A 
ATOM     19  C   UNL     1       6.769  -1.144   4.156  1.00  0.00     0.021 A 
ATOM     20  Cl  UNL     1       6.547   0.911   2.450  1.00  0.00    -0.084 Cl
ATOM     21  C   UNL     1       6.473  -2.407   4.662  1.00  0.00     0.003 A 
ENDBRANCH  13  14
ENDBRANCH  10  12
ENDBRANCH   7   8
ENDBRANCH   4   7
ENDBRANCH   2   3
ENDBRANCH   1   2
BRANCH   1  22
ATOM     22  C   UNL     1       3.174   4.528   1.539  1.00  0.00     0.023 C 
BRANCH  22  23
ATOM     23  C   UNL     1       2.108   5.560   1.897  1.00  0.00     0.116 C 
BRANCH  23  24
ATOM     24  N   UNL     1       1.275   5.157   3.019  1.00  0.00    -0.352 N 
ATOM     25  C   UNL     1       0.800   5.921   4.057  1.00  0.00     0.251 C 
ATOM     26  H   UNL     1       1.017   4.207   3.037  1.00  0.00     0.163 HD
ATOM     27  O   UNL     1       0.211   5.386   4.993  1.00  0.00    -0.269 OA
BRANCH  25  28
ATOM     28  C   UNL     1       1.032   7.383   4.062  1.00  0.00     0.039 A 
ATOM     29  C   UNL     1       1.506   7.985   5.230  1.00  0.00     0.014 A 
ATOM     30  C   UNL     1       0.801   8.152   2.919  1.00  0.00     0.014 A 
ATOM     31  C   UNL     1       1.815   9.348   5.231  1.00  0.00     0.010 A 
ATOM     32  C   UNL     1       1.171   9.495   2.901  1.00  0.00     0.010 A 
ATOM     33  C   UNL     1       1.685  10.106   4.055  1.00  0.00    -0.014 A 
BRANCH  33  34
ATOM     34  C   UNL     1       2.095  11.534   4.011  1.00  0.00     0.031 A 
ATOM     35  C   UNL     1       1.073  12.609   3.758  1.00  0.00     0.074 A 
ATOM     36  C   UNL     1       3.398  11.856   4.131  1.00  0.00     0.049 A 
ATOM     37  N   UNL     1       1.248  13.897   3.613  1.00  0.00    -0.248 NA
ATOM     38  C   UNL     1      -0.327  12.175   3.624  1.00  0.00     0.031 C 
ATOM     39  C   UNL     1       4.492  10.902   4.330  1.00  0.00     0.029 A 
ATOM     40  N   UNL     1       4.028  13.075   4.092  1.00  0.00    -0.354 N 
ATOM     41  C   UNL     1      -0.012  14.425   3.358  1.00  0.00     0.074 A 
ATOM     42  C   UNL     1      -0.935  13.312   3.318  1.00  0.00     0.031 C 
ATOM     43  C   UNL     1       5.652  11.572   4.413  1.00  0.00     0.029 A 
ATOM     44  C   UNL     1       5.394  12.998   4.238  1.00  0.00     0.049 A 
ATOM     45  H   UNL     1       3.548  13.926   3.970  1.00  0.00     0.167 HD
ATOM     46  C   UNL     1      -0.370  15.722   3.195  1.00  0.00     0.037 A 
ATOM     47  C   UNL     1       6.332  13.964   4.225  1.00  0.00     0.037 A 
ATOM     48  C   UNL     1       0.549  16.828   3.261  1.00  0.00     0.049 A 
ATOM     49  C   UNL     1       5.910  15.396   4.043  1.00  0.00     0.074 A 
ATOM     50  C   UNL     1       0.274  18.182   3.171  1.00  0.00     0.029 A 
ATOM     51  N   UNL     1       1.921  16.710   3.433  1.00  0.00    -0.354 N 
ATOM     52  N   UNL     1       4.705  15.884   3.869  1.00  0.00    -0.248 NA
ATOM     53  C   UNL     1       6.973  16.411   4.061  1.00  0.00     0.031 C 
ATOM     54  C   UNL     1       1.484  18.880   3.246  1.00  0.00     0.029 A 
ATOM     55  C   UNL     1       2.508  17.965   3.430  1.00  0.00     0.049 A 
ATOM     56  H   UNL     1       2.406  15.860   3.540  1.00  0.00     0.167 HD
ATOM     57  C   UNL     1       4.862  17.263   3.780  1.00  0.00     0.074 A 
ATOM     58  C   UNL     1       6.276  17.532   3.933  1.00  0.00     0.031 C 
ATOM     59  C   UNL     1       3.919  18.218   3.588  1.00  0.00     0.037 A 
BRANCH  46  60
ATOM     60  C   UNL     1      -1.822  16.015   2.934  1.00  0.00     0.058 A 
ATOM     61  C   UNL     1      -2.795  15.860   3.935  1.00  0.00     0.135 A 
ATOM     62  C   UNL     1      -2.243  16.487   1.680  1.00  0.00     0.135 A 
ATOM     63  F   UNL     1      -2.450  15.399   5.148  1.00  0.00    -0.206 F 
ATOM     64  C   UNL     1      -4.137  16.133   3.693  1.00  0.00     0.059 A 
ATOM     65  C   UNL     1      -3.577  16.793   1.425  1.00  0.00     0.059 A 
ATOM     66  F   UNL     1      -1.355  16.654   0.688  1.00  0.00    -0.206 F 
ATOM     67  C   UNL     1      -4.519  16.597   2.434  1.00  0.00     0.060 A 
BRANCH  67  68
ATOM     68  S   UNL     1      -6.265  16.948   2.137  1.00  0.00     0.124 S 
ATOM     69  O   UNL     1      -6.820  15.601   2.045  1.00  0.00    -0.237 OA
ATOM     70  O   UNL     1      -6.638  17.707   3.327  1.00  0.00    -0.237 OA
ATOM     71  O   UNL     1      -6.252  17.708   0.891  1.00  0.00    -0.744 OA
ENDBRANCH  67  68
ENDBRANCH  46  60
BRANCH  47  72
ATOM     72  C   UNL     1       7.765  13.610   4.410  1.00  0.00     0.058 A 
ATOM     73  C   UNL     1       8.441  13.940   5.594  1.00  0.00     0.135 A 
ATOM     74  C   UNL     1       8.482  12.926   3.417  1.00  0.00     0.135 A 
ATOM     75  F   UNL     1       7.800  14.600   6.571  1.00  0.00    -0.206 F 
ATOM     76  C   UNL     1       9.782  13.618   5.782  1.00  0.00     0.059 A 
ATOM     77  C   UNL     1       9.816  12.572   3.591  1.00  0.00     0.059 A 
ATOM     78  F   UNL     1       7.876  12.573   2.272  1.00  0.00    -0.206 F 
ATOM     79  C   UNL     1      10.461  12.931   4.774  1.00  0.00     0.060 A 
BRANCH  79  80
ATOM     80  S   UNL     1      12.186  12.473   5.048  1.00  0.00     0.124 S 
ATOM     81  O   UNL     1      12.858  13.758   4.896  1.00  0.00    -0.237 OA
ATOM     82  O   UNL     1      12.148  11.928   6.402  1.00  0.00    -0.237 OA
ATOM     83  O   UNL     1      12.444  11.496   3.995  1.00  0.00    -0.744 OA
ENDBRANCH  79  80
ENDBRANCH  47  72
BRANCH  59  84
ATOM     84  C   UNL     1       4.380  19.649   3.560  1.00  0.00     0.058 A 
ATOM     85  C   UNL     1       5.083  20.176   2.465  1.00  0.00     0.135 A 
ATOM     86  C   UNL     1       4.072  20.517   4.621  1.00  0.00     0.135 A 
ATOM     87  F   UNL     1       5.409  19.387   1.429  1.00  0.00    -0.206 F 
ATOM     88  C   UNL     1       5.482  21.508   2.432  1.00  0.00     0.059 A 
ATOM     89  C   UNL     1       4.439  21.859   4.596  1.00  0.00     0.059 A 
ATOM     90  F   UNL     1       3.394  20.066   5.688  1.00  0.00    -0.206 F 
ATOM     91  C   UNL     1       5.154  22.342   3.502  1.00  0.00     0.060 A 
BRANCH  91  92
ATOM     92  S   UNL     1       5.648  24.077   3.431  1.00  0.00     0.124 S 
ATOM     93  O   UNL     1       7.079  23.986   3.700  1.00  0.00    -0.237 OA
ATOM     94  O   UNL     1       5.282  24.452   2.068  1.00  0.00    -0.237 OA
ATOM     95  O   UNL     1       4.850  24.701   4.482  1.00  0.00    -0.744 OA
ENDBRANCH  91  92
ENDBRANCH  59  84
ENDBRANCH  33  34
ENDBRANCH  25  28
ENDBRANCH  23  24
ENDBRANCH  22  23
ENDBRANCH   1  22
TORSDOF 17
