REMARK SMILES O=C(CNC(=O)c1cccs1)N[C@@H]1C=C[C@H](C(=O)NCCCCNC(=O)c2ccc(-c3c4nc(c(-c5c(F)cc(S(=O)(=O)[O-])cc5F)c5ccc([nH]5)c(-c5c(F)cc(S(=O)(=O)[O-])cc5F)c5nc(c(-c6c(F)cc(S(=O)(=O)[O-])cc6F)c6ccc3[nH]6)C=C5)C=C4)cc2)C1
REMARK SMILES IDX 21 1 20 2 19 3 17 4 18 5 16 7 13 8 14 9 93 10 15 11 12 12
REMARK SMILES IDX 1 13 2 14 3 16 4 17 5 18 6 20 7 21 8 22 11 23 9 24 10 25
REMARK SMILES IDX 22 26 23 27 24 28 25 29 26 31 27 32 28 33 92 34 29 35 91 36
REMARK SMILES IDX 30 37 31 38 32 39 85 40 33 41 90 42 84 43 86 44 34 45 89 46
REMARK SMILES IDX 83 47 82 48 35 50 69 51 48 52 68 53 49 54 52 55 67 56 87 57
REMARK SMILES IDX 50 58 51 59 66 61 88 62 53 63 36 64 37 65 46 66 38 67 39 68
REMARK SMILES IDX 45 69 47 70 40 71 41 72 42 73 43 74 44 75 70 76 71 77 80 78
REMARK SMILES IDX 72 79 73 80 79 81 81 82 74 83 75 84 76 85 77 86 78 87 54 88
REMARK SMILES IDX 55 89 64 90 56 91 57 92 63 93 65 94 58 95 59 96 60 97 61 98
REMARK SMILES IDX 62 99
REMARK H PARENT 19 6 12 15 4 19 24 30 86 49 52 60
REMARK Flexibility Score: inf
ROOT
ATOM      1  C   UNL     1      -1.020  -1.992   4.322  1.00  0.00     0.023 C 
ENDROOT
BRANCH   1   2
ATOM      2  C   UNL     1      -0.103  -0.790   4.501  1.00  0.00     0.116 C 
BRANCH   2   3
ATOM      3  N   UNL     1       0.724  -0.859   5.682  1.00  0.00    -0.356 N 
ATOM      4  C   UNL     1       2.073  -1.000   5.801  1.00  0.00     0.227 C 
ATOM      5  O   UNL     1       2.543  -0.980   6.944  1.00  0.00    -0.274 OA
ATOM      6  H   UNL     1       0.236  -0.792   6.535  1.00  0.00     0.163 HD
BRANCH   4   7
ATOM      7  C   UNL     1       3.004  -1.219   4.600  1.00  0.00     0.103 C 
ATOM      8  C   UNL     1       2.836  -0.929   2.149  1.00  0.00     0.106 C 
ATOM      9  C   UNL     1       2.646  -2.349   2.576  1.00  0.00    -0.006 C 
ATOM     10  C   UNL     1       2.985  -0.163   3.481  1.00  0.00     0.047 C 
ATOM     11  C   UNL     1       2.733  -2.511   3.899  1.00  0.00    -0.016 C 
BRANCH   8  12
ATOM     12  N   UNL     1       1.687  -0.525   1.371  1.00  0.00    -0.348 N 
ATOM     13  O   UNL     1       2.333  -1.579  -0.566  1.00  0.00    -0.273 OA
ATOM     14  C   UNL     1       1.507  -0.925   0.064  1.00  0.00     0.239 C 
ATOM     15  H   UNL     1       1.009   0.055   1.788  1.00  0.00     0.164 HD
BRANCH  14  16
ATOM     16  C   UNL     1       0.226  -0.403  -0.575  1.00  0.00     0.216 C 
BRANCH  16  17
ATOM     17  N   UNL     1      -0.954  -0.834   0.155  1.00  0.00    -0.342 N 
ATOM     18  C   UNL     1      -2.152  -0.156   0.106  1.00  0.00     0.261 C 
ATOM     19  H   UNL     1      -0.895  -1.646   0.709  1.00  0.00     0.164 HD
ATOM     20  O   UNL     1      -3.151  -0.830  -0.141  1.00  0.00    -0.268 OA
BRANCH  18  21
ATOM     21  C   UNL     1      -2.165   1.278   0.348  1.00  0.00     0.092 A 
ATOM     22  C   UNL     1      -3.068   2.199  -0.152  1.00  0.00     0.025 A 
ATOM     23  S   UNL     1      -1.132   2.002   1.518  1.00  0.00    -0.139 S 
ATOM     24  C   UNL     1      -2.917   3.491   0.431  1.00  0.00     0.012 A 
ATOM     25  C   UNL     1      -1.906   3.519   1.365  1.00  0.00     0.065 A 
ENDBRANCH  18  21
ENDBRANCH  16  17
ENDBRANCH  14  16
ENDBRANCH   8  12
ENDBRANCH   4   7
ENDBRANCH   2   3
ENDBRANCH   1   2
BRANCH   1  26
ATOM     26  C   UNL     1      -2.287  -1.972   5.178  1.00  0.00     0.023 C 
BRANCH  26  27
ATOM     27  C   UNL     1      -3.100  -0.679   5.132  1.00  0.00     0.116 C 
BRANCH  27  28
ATOM     28  N   UNL     1      -3.324  -0.180   3.784  1.00  0.00    -0.352 N 
ATOM     29  C   UNL     1      -4.435   0.423   3.255  1.00  0.00     0.251 C 
ATOM     30  H   UNL     1      -2.569  -0.293   3.162  1.00  0.00     0.163 HD
ATOM     31  O   UNL     1      -4.492   0.715   2.069  1.00  0.00    -0.269 OA
BRANCH  29  32
ATOM     32  C   UNL     1      -5.602   0.698   4.090  1.00  0.00     0.039 A 
ATOM     33  C   UNL     1      -6.855   0.340   3.582  1.00  0.00     0.014 A 
ATOM     34  C   UNL     1      -5.467   1.305   5.339  1.00  0.00     0.014 A 
ATOM     35  C   UNL     1      -7.982   0.512   4.369  1.00  0.00     0.010 A 
ATOM     36  C   UNL     1      -6.583   1.424   6.146  1.00  0.00     0.010 A 
ATOM     37  C   UNL     1      -7.838   1.012   5.668  1.00  0.00    -0.014 A 
BRANCH  37  38
ATOM     38  C   UNL     1      -8.986   1.079   6.585  1.00  0.00     0.031 A 
ATOM     39  C   UNL     1      -9.495   2.418   7.008  1.00  0.00     0.074 A 
ATOM     40  C   UNL     1      -9.445  -0.073   7.106  1.00  0.00     0.049 A 
ATOM     41  N   UNL     1     -10.336   2.715   7.959  1.00  0.00    -0.248 NA
ATOM     42  C   UNL     1      -8.950   3.584   6.293  1.00  0.00     0.031 C 
ATOM     43  C   UNL     1      -8.954  -1.412   6.760  1.00  0.00     0.029 A 
ATOM     44  N   UNL     1     -10.398  -0.305   8.058  1.00  0.00    -0.354 N 
ATOM     45  C   UNL     1     -10.394   4.102   7.986  1.00  0.00     0.074 A 
ATOM     46  C   UNL     1      -9.486   4.589   6.970  1.00  0.00     0.031 C 
ATOM     47  C   UNL     1      -9.610  -2.325   7.492  1.00  0.00     0.029 A 
ATOM     48  C   UNL     1     -10.532  -1.633   8.384  1.00  0.00     0.049 A 
ATOM     49  H   UNL     1     -10.936   0.409   8.469  1.00  0.00     0.167 HD
ATOM     50  C   UNL     1     -11.146   4.885   8.793  1.00  0.00     0.037 A 
ATOM     51  C   UNL     1     -11.303  -2.216   9.318  1.00  0.00     0.037 A 
ATOM     52  C   UNL     1     -12.055   4.351   9.772  1.00  0.00     0.049 A 
ATOM     53  C   UNL     1     -12.180  -1.328  10.153  1.00  0.00     0.074 A 
ATOM     54  C   UNL     1     -12.905   5.026  10.627  1.00  0.00     0.029 A 
ATOM     55  N   UNL     1     -12.236   2.993  10.014  1.00  0.00    -0.354 N 
ATOM     56  N   UNL     1     -12.245  -0.016  10.159  1.00  0.00    -0.248 NA
ATOM     57  C   UNL     1     -13.089  -1.987  11.095  1.00  0.00     0.031 C 
ATOM     58  C   UNL     1     -13.588   4.077  11.398  1.00  0.00     0.029 A 
ATOM     59  C   UNL     1     -13.187   2.809  11.001  1.00  0.00     0.049 A 
ATOM     60  H   UNL     1     -11.757   2.269   9.551  1.00  0.00     0.167 HD
ATOM     61  C   UNL     1     -13.215   0.311  11.095  1.00  0.00     0.074 A 
ATOM     62  C   UNL     1     -13.718  -0.945  11.623  1.00  0.00     0.031 C 
ATOM     63  C   UNL     1     -13.653   1.533  11.488  1.00  0.00     0.037 A 
BRANCH  50  64
ATOM     64  C   UNL     1     -10.998   6.375   8.650  1.00  0.00     0.058 A 
ATOM     65  C   UNL     1     -11.463   7.058   7.515  1.00  0.00     0.135 A 
ATOM     66  C   UNL     1     -10.368   7.130   9.653  1.00  0.00     0.135 A 
ATOM     67  F   UNL     1     -12.053   6.384   6.515  1.00  0.00    -0.206 F 
ATOM     68  C   UNL     1     -11.279   8.429   7.362  1.00  0.00     0.059 A 
ATOM     69  C   UNL     1     -10.195   8.507   9.532  1.00  0.00     0.059 A 
ATOM     70  F   UNL     1      -9.896   6.530  10.757  1.00  0.00    -0.206 F 
ATOM     71  C   UNL     1     -10.637   9.145   8.373  1.00  0.00     0.060 A 
BRANCH  71  72
ATOM     72  S   UNL     1     -10.388  10.920   8.156  1.00  0.00     0.124 S 
ATOM     73  O   UNL     1      -9.270  10.944   7.218  1.00  0.00    -0.237 OA
ATOM     74  O   UNL     1     -11.673  11.355   7.618  1.00  0.00    -0.237 OA
ATOM     75  O   UNL     1     -10.087  11.388   9.505  1.00  0.00    -0.744 OA
ENDBRANCH  71  72
ENDBRANCH  50  64
BRANCH  51  76
ATOM     76  C   UNL     1     -11.291  -3.693   9.470  1.00  0.00     0.058 A 
ATOM     77  C   UNL     1     -12.359  -4.469   8.998  1.00  0.00     0.135 A 
ATOM     78  C   UNL     1     -10.185  -4.365  10.014  1.00  0.00     0.135 A 
ATOM     79  F   UNL     1     -13.436  -3.873   8.465  1.00  0.00    -0.206 F 
ATOM     80  C   UNL     1     -12.336  -5.859   9.062  1.00  0.00     0.059 A 
ATOM     81  C   UNL     1     -10.130  -5.755  10.073  1.00  0.00     0.059 A 
ATOM     82  F   UNL     1      -9.126  -3.669  10.456  1.00  0.00    -0.206 F 
ATOM     83  C   UNL     1     -11.213  -6.494   9.597  1.00  0.00     0.060 A 
BRANCH  83  84
ATOM     84  S   UNL     1     -11.160  -8.300   9.604  1.00  0.00     0.124 S 
ATOM     85  O   UNL     1     -12.066  -8.616  10.702  1.00  0.00    -0.237 OA
ATOM     86  O   UNL     1     -11.640  -8.628   8.265  1.00  0.00    -0.237 OA
ATOM     87  O   UNL     1      -9.750  -8.592   9.844  1.00  0.00    -0.744 OA
ENDBRANCH  83  84
ENDBRANCH  51  76
BRANCH  63  88
ATOM     88  C   UNL     1     -14.742   1.553  12.517  1.00  0.00     0.058 A 
ATOM     89  C   UNL     1     -14.468   1.318  13.872  1.00  0.00     0.135 A 
ATOM     90  C   UNL     1     -16.060   1.857  12.146  1.00  0.00     0.135 A 
ATOM     91  F   UNL     1     -13.221   1.016  14.267  1.00  0.00    -0.206 F 
ATOM     92  C   UNL     1     -15.474   1.366  14.828  1.00  0.00     0.059 A 
ATOM     93  C   UNL     1     -17.077   1.931  13.088  1.00  0.00     0.059 A 
ATOM     94  F   UNL     1     -16.363   2.096  10.860  1.00  0.00    -0.206 F 
ATOM     95  C   UNL     1     -16.776   1.673  14.426  1.00  0.00     0.060 A 
BRANCH  95  96
ATOM     96  S   UNL     1     -18.069   1.769  15.680  1.00  0.00     0.124 S 
ATOM     97  O   UNL     1     -18.351   0.357  15.916  1.00  0.00    -0.237 OA
ATOM     98  O   UNL     1     -17.401   2.473  16.769  1.00  0.00    -0.237 OA
ATOM     99  O   UNL     1     -19.129   2.520  15.014  1.00  0.00    -0.744 OA
ENDBRANCH  95  96
ENDBRANCH  63  88
ENDBRANCH  37  38
ENDBRANCH  29  32
ENDBRANCH  27  28
ENDBRANCH  26  27
ENDBRANCH   1  26
TORSDOF 18
