REMARK SMILES CC(C)(C)c1cc2c(cc1Cl)C=C(C(=O)NCCCCNC(=O)c1ccc(-c3c4nc(c(-c5c(F)cc(S(=O)(=O)[O-])cc5F)c5ccc([nH]5)c(-c5c(F)cc(S(=O)(=O)[O-])cc5F)c5nc(c(-c6c(F)cc(S(=O)(=O)[O-])cc6F)c6ccc3[nH]6)C=C5)C=C4)cc1)[C@H](C(F)(F)F)O2
REMARK SMILES IDX 19 1 18 2 17 3 16 4 14 5 15 6 13 8 5 9 6 10 10 11 7 12 9 13
REMARK SMILES IDX 11 14 8 15 95 16 12 17 90 18 2 19 1 20 3 21 4 22 91 23 92 24
REMARK SMILES IDX 93 25 94 26 20 27 21 28 22 29 23 31 24 32 25 33 89 34 26 35
REMARK SMILES IDX 88 36 27 37 28 38 29 39 82 40 30 41 87 42 81 43 83 44 31 45
REMARK SMILES IDX 86 46 80 47 79 48 32 50 66 51 45 52 65 53 46 54 49 55 64 56
REMARK SMILES IDX 84 57 47 58 48 59 63 61 85 62 50 63 33 64 34 65 43 66 35 67
REMARK SMILES IDX 36 68 42 69 44 70 37 71 38 72 39 73 40 74 41 75 67 76 68 77
REMARK SMILES IDX 77 78 69 79 70 80 76 81 78 82 71 83 72 84 73 85 74 86 75 87
REMARK SMILES IDX 51 88 52 89 61 90 53 91 54 92 60 93 62 94 55 95 56 96 57 97
REMARK SMILES IDX 58 98 59 99
REMARK H PARENT 16 7 21 30 83 49 49 60
REMARK Flexibility Score: inf
ROOT
ATOM      1  C   UNL     1      -1.409  11.781   0.061  1.00  0.00     0.023 C 
ENDROOT
BRANCH   1   2
ATOM      2  C   UNL     1      -1.190  10.376  -0.505  1.00  0.00     0.023 C 
BRANCH   2   3
ATOM      3  C   UNL     1       0.195  10.132  -1.106  1.00  0.00     0.116 C 
BRANCH   3   4
ATOM      4  N   UNL     1       1.164   9.752  -0.094  1.00  0.00    -0.352 N 
ATOM      5  C   UNL     1       1.717   8.600   0.350  1.00  0.00     0.251 C 
ATOM      6  O   UNL     1       2.620   8.734   1.183  1.00  0.00    -0.270 OA
ATOM      7  H   UNL     1       1.508  10.535   0.394  1.00  0.00     0.163 HD
BRANCH   5   8
ATOM      8  C   UNL     1       1.319   7.226  -0.078  1.00  0.00     0.067 C 
ATOM      9  C   UNL     1       1.037   2.167  -0.570  1.00  0.00    -0.020 A 
ATOM     10  C   UNL     1       0.392   3.288  -1.155  1.00  0.00     0.053 A 
ATOM     11  C   UNL     1       2.137   2.462   0.268  1.00  0.00     0.045 A 
ATOM     12  C   UNL     1       0.752   4.602  -0.856  1.00  0.00     0.128 A 
ATOM     13  C   UNL     1       2.507   3.794   0.546  1.00  0.00     0.032 A 
ATOM     14  Cl  UNL     1       3.175   1.287   0.995  1.00  0.00    -0.084 Cl
ATOM     15  C   UNL     1       1.810   4.866  -0.003  1.00  0.00     0.019 A 
ATOM     16  O   UNL     1       0.038   5.599  -1.461  1.00  0.00    -0.475 OA
ATOM     17  C   UNL     1       2.179   6.248   0.270  1.00  0.00     0.025 C 
ATOM     18  C   UNL     1       0.012   6.866  -0.734  1.00  0.00     0.314 C 
BRANCH   9  19
ATOM     19  C   UNL     1       0.496   0.763  -0.949  1.00  0.00    -0.012 C 
ATOM     20  C   UNL     1       0.875  -0.408  -0.016  1.00  0.00     0.016 C 
ATOM     21  C   UNL     1       1.006   0.421  -2.364  1.00  0.00     0.016 C 
ATOM     22  C   UNL     1      -1.060   0.757  -0.969  1.00  0.00     0.016 C 
ENDBRANCH   9  19
BRANCH  18  23
ATOM     23  C   UNL     1      -1.193   6.898   0.223  1.00  0.00     0.429 C 
ATOM     24  F   UNL     1      -1.514   5.675   0.704  1.00  0.00    -0.167 F 
ATOM     25  F   UNL     1      -0.993   7.700   1.291  1.00  0.00    -0.167 F 
ATOM     26  F   UNL     1      -2.289   7.369  -0.427  1.00  0.00    -0.167 F 
ENDBRANCH  18  23
ENDBRANCH   5   8
ENDBRANCH   3   4
ENDBRANCH   2   3
ENDBRANCH   1   2
BRANCH   1  27
ATOM     27  C   UNL     1      -1.331  12.911  -0.959  1.00  0.00     0.116 C 
BRANCH  27  28
ATOM     28  N   UNL     1      -2.249  12.767  -2.083  1.00  0.00    -0.352 N 
ATOM     29  C   UNL     1      -2.709  13.761  -2.921  1.00  0.00     0.251 C 
ATOM     30  H   UNL     1      -2.578  11.857  -2.263  1.00  0.00     0.163 HD
ATOM     31  O   UNL     1      -3.535  13.516  -3.793  1.00  0.00    -0.269 OA
BRANCH  29  32
ATOM     32  C   UNL     1      -2.233  15.141  -2.695  1.00  0.00     0.039 A 
ATOM     33  C   UNL     1      -0.865  15.400  -2.610  1.00  0.00     0.014 A 
ATOM     34  C   UNL     1      -3.167  16.143  -2.422  1.00  0.00     0.014 A 
ATOM     35  C   UNL     1      -0.435  16.598  -2.056  1.00  0.00     0.010 A 
ATOM     36  C   UNL     1      -2.726  17.379  -1.942  1.00  0.00     0.010 A 
ATOM     37  C   UNL     1      -1.362  17.588  -1.684  1.00  0.00    -0.014 A 
BRANCH  37  38
ATOM     38  C   UNL     1      -0.877  18.789  -0.956  1.00  0.00     0.031 A 
ATOM     39  C   UNL     1      -1.259  19.013   0.486  1.00  0.00     0.074 A 
ATOM     40  C   UNL     1      -0.003  19.618  -1.558  1.00  0.00     0.049 A 
ATOM     41  N   UNL     1      -0.878  19.966   1.300  1.00  0.00    -0.248 NA
ATOM     42  C   UNL     1      -2.186  18.046   1.097  1.00  0.00     0.031 C 
ATOM     43  C   UNL     1       0.461  19.490  -2.942  1.00  0.00     0.029 A 
ATOM     44  N   UNL     1       0.686  20.700  -1.075  1.00  0.00    -0.354 N 
ATOM     45  C   UNL     1      -1.534  19.728   2.502  1.00  0.00     0.074 A 
ATOM     46  C   UNL     1      -2.354  18.553   2.311  1.00  0.00     0.031 C 
ATOM     47  C   UNL     1       1.413  20.407  -3.171  1.00  0.00     0.029 A 
ATOM     48  C   UNL     1       1.586  21.223  -1.973  1.00  0.00     0.049 A 
ATOM     49  H   UNL     1       0.549  21.067  -0.172  1.00  0.00     0.167 HD
ATOM     50  C   UNL     1      -1.449  20.417   3.665  1.00  0.00     0.037 A 
ATOM     51  C   UNL     1       2.455  22.244  -1.847  1.00  0.00     0.037 A 
ATOM     52  C   UNL     1      -0.597  21.558   3.871  1.00  0.00     0.049 A 
ATOM     53  C   UNL     1       2.506  23.011  -0.558  1.00  0.00     0.074 A 
ATOM     54  C   UNL     1      -0.420  22.303   5.024  1.00  0.00     0.029 A 
ATOM     55  N   UNL     1       0.227  22.113   2.905  1.00  0.00    -0.354 N 
ATOM     56  N   UNL     1       1.862  22.782   0.560  1.00  0.00    -0.248 NA
ATOM     57  C   UNL     1       3.380  24.192  -0.523  1.00  0.00     0.031 C 
ATOM     58  C   UNL     1       0.492  23.326   4.747  1.00  0.00     0.029 A 
ATOM     59  C   UNL     1       0.900  23.204   3.429  1.00  0.00     0.049 A 
ATOM     60  H   UNL     1       0.320  21.781   1.983  1.00  0.00     0.167 HD
ATOM     61  C   UNL     1       2.239  23.798   1.428  1.00  0.00     0.074 A 
ATOM     62  C   UNL     1       3.190  24.628   0.716  1.00  0.00     0.031 C 
ATOM     63  C   UNL     1       1.825  24.029   2.697  1.00  0.00     0.037 A 
BRANCH  50  64
ATOM     64  C   UNL     1      -2.302  19.960   4.814  1.00  0.00     0.058 A 
ATOM     65  C   UNL     1      -1.954  18.841   5.585  1.00  0.00     0.135 A 
ATOM     66  C   UNL     1      -3.449  20.682   5.180  1.00  0.00     0.135 A 
ATOM     67  F   UNL     1      -0.877  18.108   5.265  1.00  0.00    -0.206 F 
ATOM     68  C   UNL     1      -2.723  18.445   6.675  1.00  0.00     0.059 A 
ATOM     69  C   UNL     1      -4.223  20.313   6.276  1.00  0.00     0.059 A 
ATOM     70  F   UNL     1      -3.824  21.758   4.471  1.00  0.00    -0.206 F 
ATOM     71  C   UNL     1      -3.857  19.187   7.012  1.00  0.00     0.060 A 
BRANCH  71  72
ATOM     72  S   UNL     1      -4.839  18.667   8.436  1.00  0.00     0.124 S 
ATOM     73  O   UNL     1      -5.532  17.500   7.898  1.00  0.00    -0.237 OA
ATOM     74  O   UNL     1      -3.816  18.389   9.438  1.00  0.00    -0.237 OA
ATOM     75  O   UNL     1      -5.681  19.827   8.709  1.00  0.00    -0.744 OA
ENDBRANCH  71  72
ENDBRANCH  50  64
BRANCH  51  76
ATOM     76  C   UNL     1       3.341  22.596  -2.983  1.00  0.00     0.058 A 
ATOM     77  C   UNL     1       4.708  22.288  -2.949  1.00  0.00     0.135 A 
ATOM     78  C   UNL     1       2.831  23.205  -4.140  1.00  0.00     0.135 A 
ATOM     79  F   UNL     1       5.239  21.711  -1.860  1.00  0.00    -0.206 F 
ATOM     80  C   UNL     1       5.541  22.568  -4.026  1.00  0.00     0.059 A 
ATOM     81  C   UNL     1       3.640  23.477  -5.237  1.00  0.00     0.059 A 
ATOM     82  F   UNL     1       1.526  23.505  -4.221  1.00  0.00    -0.206 F 
ATOM     83  C   UNL     1       4.997  23.158  -5.168  1.00  0.00     0.060 A 
BRANCH  83  84
ATOM     84  S   UNL     1       6.066  23.447  -6.595  1.00  0.00     0.124 S 
ATOM     85  O   UNL     1       6.773  24.657  -6.189  1.00  0.00    -0.237 OA
ATOM     86  O   UNL     1       6.863  22.225  -6.638  1.00  0.00    -0.237 OA
ATOM     87  O   UNL     1       5.118  23.605  -7.694  1.00  0.00    -0.744 OA
ENDBRANCH  83  84
ENDBRANCH  51  76
BRANCH  63  88
ATOM     88  C   UNL     1       2.368  25.244   3.389  1.00  0.00     0.058 A 
ATOM     89  C   UNL     1       1.837  26.515   3.126  1.00  0.00     0.135 A 
ATOM     90  C   UNL     1       3.362  25.131   4.371  1.00  0.00     0.135 A 
ATOM     91  F   UNL     1       0.889  26.672   2.188  1.00  0.00    -0.206 F 
ATOM     92  C   UNL     1       2.276  27.639   3.817  1.00  0.00     0.059 A 
ATOM     93  C   UNL     1       3.806  26.239   5.085  1.00  0.00     0.059 A 
ATOM     94  F   UNL     1       3.895  23.933   4.659  1.00  0.00    -0.206 F 
ATOM     95  C   UNL     1       3.257  27.490   4.799  1.00  0.00     0.060 A 
BRANCH  95  96
ATOM     96  S   UNL     1       3.775  28.947   5.731  1.00  0.00     0.124 S 
ATOM     97  O   UNL     1       4.618  29.634   4.758  1.00  0.00    -0.237 OA
ATOM     98  O   UNL     1       2.502  29.594   6.034  1.00  0.00    -0.237 OA
ATOM     99  O   UNL     1       4.473  28.382   6.882  1.00  0.00    -0.744 OA
ENDBRANCH  95  96
ENDBRANCH  63  88
ENDBRANCH  37  38
ENDBRANCH  29  32
ENDBRANCH  27  28
ENDBRANCH   1  27
TORSDOF 16
