REMARK SMILES CC(=O)N[C@@H](C(=O)NCCCCNC(=O)c1ccc(-c2c3nc(c(-c4c(F)cc(S(=O)(=O)[O-])cc4F)c4ccc([nH]4)c(-c4c(F)cc(S(=O)(=O)[O-])cc4F)c4nc(c(-c5c(F)cc(S(=O)(=O)[O-])cc5F)c5ccc2[nH]5)C=C4)C=C3)cc1)C(c1ccccc1)c1ccccc1
REMARK SMILES IDX 11 1 10 2 9 3 8 4 6 5 7 6 5 8 4 9 1 10 2 11 3 12 82 14 83 15
REMARK SMILES IDX 84 16 88 17 85 18 87 19 86 20 89 21 90 22 94 23 91 24 93 25
REMARK SMILES IDX 92 26 12 27 13 28 14 29 15 31 16 32 17 33 81 34 18 35 80 36
REMARK SMILES IDX 19 37 20 38 21 39 74 40 22 41 79 42 73 43 75 44 23 45 78 46
REMARK SMILES IDX 72 47 71 48 24 50 58 51 37 52 57 53 38 54 41 55 56 56 76 57
REMARK SMILES IDX 39 58 40 59 55 61 77 62 42 63 25 64 26 65 35 66 27 67 28 68
REMARK SMILES IDX 34 69 36 70 29 71 30 72 31 73 32 74 33 75 59 76 60 77 69 78
REMARK SMILES IDX 61 79 62 80 68 81 70 82 63 83 64 84 65 85 66 86 67 87 43 88
REMARK SMILES IDX 44 89 53 90 45 91 46 92 52 93 54 94 47 95 48 96 49 97 50 98
REMARK SMILES IDX 51 99
REMARK H PARENT 8 7 4 13 13 30 75 49 41 60
REMARK Flexibility Score: inf
ROOT
ATOM      1  C   UNL     1       4.471   3.848  -1.161  1.00  0.00     0.023 C 
ENDROOT
BRANCH   1   2
ATOM      2  C   UNL     1       3.370   2.830  -0.846  1.00  0.00     0.023 C 
BRANCH   2   3
ATOM      3  C   UNL     1       3.746   1.809   0.231  1.00  0.00     0.116 C 
BRANCH   3   4
ATOM      4  N   UNL     1       3.752   2.418   1.544  1.00  0.00    -0.354 N 
ATOM      5  C   UNL     1       2.781   2.390   2.507  1.00  0.00     0.243 C 
ATOM      6  O   UNL     1       2.838   3.263   3.376  1.00  0.00    -0.273 OA
ATOM      7  H   UNL     1       4.565   2.922   1.776  1.00  0.00     0.163 HD
BRANCH   5   8
ATOM      8  C   UNL     1       1.617   1.365   2.416  1.00  0.00     0.183 C 
BRANCH   8   9
ATOM      9  N   UNL     1       0.742   1.885   1.342  1.00  0.00    -0.344 N 
ATOM     10  C   UNL     1       0.438  -0.196   0.024  1.00  0.00     0.114 C 
ATOM     11  C   UNL     1       0.198   1.269   0.260  1.00  0.00     0.217 C 
ATOM     12  O   UNL     1      -0.490   1.932  -0.517  1.00  0.00    -0.275 OA
ATOM     13  H   UNL     1       0.515   2.840   1.426  1.00  0.00     0.164 HD
ENDBRANCH   8   9
BRANCH   8  14
ATOM     14  C   UNL     1       0.855   1.287   3.783  1.00  0.00     0.081 C 
BRANCH  14  15
ATOM     15  C   UNL     1      -0.498   0.562   3.686  1.00  0.00    -0.038 A 
ATOM     16  C   UNL     1      -1.679   1.277   3.951  1.00  0.00     0.004 A 
ATOM     17  C   UNL     1      -0.617  -0.786   3.316  1.00  0.00     0.004 A 
ATOM     18  C   UNL     1      -2.930   0.662   3.852  1.00  0.00     0.000 A 
ATOM     19  C   UNL     1      -1.866  -1.406   3.235  1.00  0.00     0.000 A 
ATOM     20  C   UNL     1      -3.023  -0.681   3.501  1.00  0.00     0.000 A 
ENDBRANCH  14  15
BRANCH  14  21
ATOM     21  C   UNL     1       1.710   0.802   4.966  1.00  0.00    -0.038 A 
ATOM     22  C   UNL     1       2.107  -0.531   5.145  1.00  0.00     0.004 A 
ATOM     23  C   UNL     1       2.125   1.737   5.934  1.00  0.00     0.004 A 
ATOM     24  C   UNL     1       2.843  -0.923   6.269  1.00  0.00     0.000 A 
ATOM     25  C   UNL     1       2.885   1.352   7.042  1.00  0.00     0.000 A 
ATOM     26  C   UNL     1       3.232   0.018   7.217  1.00  0.00     0.000 A 
ENDBRANCH  14  21
ENDBRANCH   8  14
ENDBRANCH   5   8
ENDBRANCH   3   4
ENDBRANCH   2   3
ENDBRANCH   1   2
BRANCH   1  27
ATOM     27  C   UNL     1       5.798   3.248  -1.615  1.00  0.00     0.116 C 
BRANCH  27  28
ATOM     28  N   UNL     1       5.670   2.398  -2.789  1.00  0.00    -0.352 N 
ATOM     29  C   UNL     1       6.556   2.240  -3.828  1.00  0.00     0.251 C 
ATOM     30  H   UNL     1       4.843   1.867  -2.846  1.00  0.00     0.163 HD
ATOM     31  O   UNL     1       6.249   1.562  -4.804  1.00  0.00    -0.269 OA
BRANCH  29  32
ATOM     32  C   UNL     1       7.862   2.927  -3.774  1.00  0.00     0.039 A 
ATOM     33  C   UNL     1       8.266   3.695  -4.868  1.00  0.00     0.014 A 
ATOM     34  C   UNL     1       8.662   2.847  -2.631  1.00  0.00     0.014 A 
ATOM     35  C   UNL     1       9.445   4.439  -4.789  1.00  0.00     0.010 A 
ATOM     36  C   UNL     1       9.800   3.641  -2.529  1.00  0.00     0.010 A 
ATOM     37  C   UNL     1      10.202   4.447  -3.606  1.00  0.00    -0.014 A 
BRANCH  37  38
ATOM     38  C   UNL     1      11.412   5.296  -3.471  1.00  0.00     0.031 A 
ATOM     39  C   UNL     1      12.761   4.660  -3.278  1.00  0.00     0.074 A 
ATOM     40  C   UNL     1      11.286   6.638  -3.449  1.00  0.00     0.049 A 
ATOM     41  N   UNL     1      13.919   5.229  -3.065  1.00  0.00    -0.248 NA
ATOM     42  C   UNL     1      12.810   3.189  -3.299  1.00  0.00     0.031 C 
ATOM     43  C   UNL     1      10.023   7.372  -3.572  1.00  0.00     0.029 A 
ATOM     44  N   UNL     1      12.228   7.625  -3.303  1.00  0.00    -0.354 N 
ATOM     45  C   UNL     1      14.829   4.190  -2.910  1.00  0.00     0.074 A 
ATOM     46  C   UNL     1      14.081   2.956  -3.004  1.00  0.00     0.031 C 
ATOM     47  C   UNL     1      10.273   8.690  -3.515  1.00  0.00     0.029 A 
ATOM     48  C   UNL     1      11.704   8.896  -3.316  1.00  0.00     0.049 A 
ATOM     49  H   UNL     1      13.189   7.440  -3.197  1.00  0.00     0.167 HD
ATOM     50  C   UNL     1      16.170   4.259  -2.730  1.00  0.00     0.037 A 
ATOM     51  C   UNL     1      12.308  10.093  -3.178  1.00  0.00     0.037 A 
ATOM     52  C   UNL     1      16.913   5.490  -2.669  1.00  0.00     0.049 A 
ATOM     53  C   UNL     1      13.800  10.144  -2.992  1.00  0.00     0.074 A 
ATOM     54  C   UNL     1      18.280   5.665  -2.554  1.00  0.00     0.029 A 
ATOM     55  N   UNL     1      16.350   6.758  -2.719  1.00  0.00    -0.354 N 
ATOM     56  N   UNL     1      14.654   9.151  -2.914  1.00  0.00    -0.248 NA
ATOM     57  C   UNL     1      14.412  11.475  -2.883  1.00  0.00     0.031 C 
ATOM     58  C   UNL     1      18.542   7.038  -2.495  1.00  0.00     0.029 A 
ATOM     59  C   UNL     1      17.342   7.720  -2.619  1.00  0.00     0.049 A 
ATOM     60  H   UNL     1      15.389   6.946  -2.811  1.00  0.00     0.167 HD
ATOM     61  C   UNL     1      15.907   9.738  -2.772  1.00  0.00     0.074 A 
ATOM     62  C   UNL     1      15.700  11.172  -2.787  1.00  0.00     0.031 C 
ATOM     63  C   UNL     1      17.119   9.144  -2.643  1.00  0.00     0.037 A 
BRANCH  50  64
ATOM     64  C   UNL     1      16.921   2.963  -2.594  1.00  0.00     0.058 A 
ATOM     65  C   UNL     1      17.098   2.097  -3.685  1.00  0.00     0.135 A 
ATOM     66  C   UNL     1      17.496   2.596  -1.367  1.00  0.00     0.135 A 
ATOM     67  F   UNL     1      16.556   2.391  -4.877  1.00  0.00    -0.206 F 
ATOM     68  C   UNL     1      17.792   0.898  -3.557  1.00  0.00     0.059 A 
ATOM     69  C   UNL     1      18.218   1.414  -1.223  1.00  0.00     0.059 A 
ATOM     70  F   UNL     1      17.357   3.386  -0.291  1.00  0.00    -0.206 F 
ATOM     71  C   UNL     1      18.347   0.564  -2.321  1.00  0.00     0.060 A 
BRANCH  71  72
ATOM     72  S   UNL     1      19.245  -0.994  -2.171  1.00  0.00     0.124 S 
ATOM     73  O   UNL     1      18.151  -1.961  -2.177  1.00  0.00    -0.237 OA
ATOM     74  O   UNL     1      20.088  -0.986  -3.363  1.00  0.00    -0.237 OA
ATOM     75  O   UNL     1      19.955  -0.858  -0.904  1.00  0.00    -0.744 OA
ENDBRANCH  71  72
ENDBRANCH  50  64
BRANCH  51  76
ATOM     76  C   UNL     1      11.503  11.342  -3.235  1.00  0.00     0.058 A 
ATOM     77  C   UNL     1      11.588  12.204  -4.338  1.00  0.00     0.135 A 
ATOM     78  C   UNL     1      10.623  11.691  -2.199  1.00  0.00     0.135 A 
ATOM     79  F   UNL     1      12.420  11.915  -5.351  1.00  0.00    -0.206 F 
ATOM     80  C   UNL     1      10.843  13.376  -4.407  1.00  0.00     0.059 A 
ATOM     81  C   UNL     1       9.849  12.846  -2.256  1.00  0.00     0.059 A 
ATOM     82  F   UNL     1      10.491  10.891  -1.130  1.00  0.00    -0.206 F 
ATOM     83  C   UNL     1       9.974  13.688  -3.360  1.00  0.00     0.060 A 
BRANCH  83  84
ATOM     84  S   UNL     1       8.975  15.188  -3.481  1.00  0.00     0.124 S 
ATOM     85  O   UNL     1       9.968  16.224  -3.224  1.00  0.00    -0.237 OA
ATOM     86  O   UNL     1       8.471  15.111  -4.849  1.00  0.00    -0.237 OA
ATOM     87  O   UNL     1       7.968  15.004  -2.440  1.00  0.00    -0.744 OA
ENDBRANCH  83  84
ENDBRANCH  51  76
BRANCH  63  88
ATOM     88  C   UNL     1      18.321  10.040  -2.540  1.00  0.00     0.058 A 
ATOM     89  C   UNL     1      18.602  10.766  -1.372  1.00  0.00     0.135 A 
ATOM     90  C   UNL     1      19.233  10.130  -3.604  1.00  0.00     0.135 A 
ATOM     91  F   UNL     1      17.759  10.720  -0.329  1.00  0.00    -0.206 F 
ATOM     92  C   UNL     1      19.735  11.567  -1.271  1.00  0.00     0.059 A 
ATOM     93  C   UNL     1      20.385  10.903  -3.515  1.00  0.00     0.059 A 
ATOM     94  F   UNL     1      19.016   9.447  -4.740  1.00  0.00    -0.206 F 
ATOM     95  C   UNL     1      20.622  11.627  -2.348  1.00  0.00     0.060 A 
BRANCH  95  96
ATOM     96  S   UNL     1      22.108  12.640  -2.190  1.00  0.00     0.124 S 
ATOM     97  O   UNL     1      21.563  13.986  -2.330  1.00  0.00    -0.237 OA
ATOM     98  O   UNL     1      22.589  12.287  -0.857  1.00  0.00    -0.237 OA
ATOM     99  O   UNL     1      22.948  12.184  -3.293  1.00  0.00    -0.744 OA
ENDBRANCH  95  96
ENDBRANCH  63  88
ENDBRANCH  37  38
ENDBRANCH  29  32
ENDBRANCH  27  28
ENDBRANCH   1  27
TORSDOF 18
