REMARK SMILES COc1cc(/C=N/NC(=O)c2cc(Cl)ccc2O)ccc1OCC(=O)NCCCCNC(=O)c1ccc(-c2c3nc(c(-c4c(F)cc(S(=O)(=O)[O-])cc4F)c4ccc([nH]4)c(-c4c(F)cc(S(=O)(=O)[O-])cc4F)c4nc(c(-c5c(F)cc(S(=O)(=O)[O-])cc5F)c5ccc2[nH]5)C=C4)C=C3)cc1
REMARK SMILES IDX 27 1 26 2 24 3 25 4 23 6 22 7 21 8 3 9 4 10 5 11 20 12 19 13
REMARK SMILES IDX 2 14 1 15 6 16 7 17 8 18 9 19 10 21 11 22 12 23 17 24 13 25
REMARK SMILES IDX 16 26 14 27 15 28 18 29 28 31 29 32 30 33 31 34 32 35 33 37
REMARK SMILES IDX 34 38 35 39 99 40 36 41 98 42 37 43 38 44 39 45 92 46 40 47
REMARK SMILES IDX 97 48 91 49 93 50 41 51 96 52 90 53 89 54 42 56 76 57 55 58
REMARK SMILES IDX 75 59 56 60 59 61 74 62 94 63 57 64 58 65 73 67 95 68 60 69
REMARK SMILES IDX 43 70 44 71 53 72 45 73 46 74 52 75 54 76 47 77 48 78 49 79
REMARK SMILES IDX 50 80 51 81 77 82 78 83 87 84 79 85 80 86 86 87 88 88 81 89
REMARK SMILES IDX 82 90 83 91 84 92 85 93 61 94 62 95 71 96 63 97 64 98 70 99
REMARK SMILES IDX 72 100 65 101 66 102 67 103 68 104 69 105
REMARK H PARENT 26 5 8 20 18 30 31 36 93 55 59 66
REMARK Flexibility Score: inf
ROOT
ATOM      1  C   UNL     1       3.432  -2.822  -1.641  1.00  0.00     0.116 C 
ENDROOT
BRANCH   1   2
ATOM      2  N   UNL     1       2.357  -1.869  -1.825  1.00  0.00    -0.353 N 
ATOM      3  C   UNL     1       2.171  -0.668  -1.203  1.00  0.00     0.257 C 
ATOM      4  O   UNL     1       1.321   0.096  -1.665  1.00  0.00    -0.271 OA
ATOM      5  H   UNL     1       1.671  -2.120  -2.484  1.00  0.00     0.163 HD
BRANCH   3   6
ATOM      6  C   UNL     1       3.059  -0.273  -0.014  1.00  0.00     0.329 C 
BRANCH   6   7
ATOM      7  O   UNL     1       3.241  -1.216   1.029  1.00  0.00    -0.480 OA
BRANCH   7   8
ATOM      8  C   UNL     1       2.154  -1.662   1.730  1.00  0.00     0.161 A 
ATOM      9  C   UNL     1       0.935  -1.007   1.948  1.00  0.00     0.161 A 
ATOM     10  C   UNL     1      -0.047  -1.609   2.748  1.00  0.00     0.060 A 
ATOM     11  C   UNL     1       0.170  -2.880   3.285  1.00  0.00    -0.002 A 
ATOM     12  C   UNL     1       2.362  -2.925   2.304  1.00  0.00     0.051 A 
ATOM     13  C   UNL     1       1.368  -3.550   3.056  1.00  0.00     0.014 A 
BRANCH   9  14
ATOM     14  O   UNL     1       0.751   0.270   1.489  1.00  0.00    -0.493 OA
ATOM     15  C   UNL     1      -0.456   0.431   0.739  1.00  0.00     0.278 C 
ENDBRANCH   9  14
BRANCH  11  16
ATOM     16  C   UNL     1      -0.809  -3.501   4.195  1.00  0.00     0.141 C 
ATOM     17  N   UNL     1      -1.564  -2.769   4.956  1.00  0.00    -0.180 NA
BRANCH  17  18
ATOM     18  N   UNL     1      -2.332  -3.413   5.882  1.00  0.00    -0.243 N 
ATOM     19  C   UNL     1      -1.960  -4.361   6.822  1.00  0.00     0.275 C 
ATOM     20  H   UNL     1      -3.286  -3.170   5.882  1.00  0.00     0.194 HD
ATOM     21  O   UNL     1      -2.805  -4.869   7.559  1.00  0.00    -0.267 OA
BRANCH  19  22
ATOM     22  C   UNL     1      -0.545  -4.774   6.971  1.00  0.00     0.084 A 
ATOM     23  C   UNL     1      -0.302  -6.145   7.141  1.00  0.00     0.038 A 
ATOM     24  C   UNL     1       0.532  -3.879   6.974  1.00  0.00     0.128 A 
ATOM     25  C   UNL     1       1.007  -6.609   7.251  1.00  0.00     0.042 A 
ATOM     26  C   UNL     1       1.840  -4.351   7.082  1.00  0.00     0.048 A 
ATOM     27  Cl  UNL     1       1.305  -8.293   7.431  1.00  0.00    -0.084 Cl
ATOM     28  C   UNL     1       2.080  -5.720   7.207  1.00  0.00     0.024 A 
BRANCH  24  29
ATOM     29  O   UNL     1       0.392  -2.523   6.865  1.00  0.00    -0.507 OA
ATOM     30  H   UNL     1      -0.462  -2.145   6.789  1.00  0.00     0.293 HD
ENDBRANCH  24  29
ENDBRANCH  19  22
ENDBRANCH  17  18
ENDBRANCH  11  16
ENDBRANCH   7   8
ENDBRANCH   6   7
ENDBRANCH   3   6
ENDBRANCH   1   2
BRANCH   1  31
ATOM     31  C   UNL     1       2.944  -4.194  -1.182  1.00  0.00     0.023 C 
BRANCH  31  32
ATOM     32  C   UNL     1       1.924  -4.879  -2.092  1.00  0.00     0.023 C 
BRANCH  32  33
ATOM     33  C   UNL     1       2.271  -4.913  -3.575  1.00  0.00     0.116 C 
BRANCH  33  34
ATOM     34  N   UNL     1       3.560  -5.525  -3.849  1.00  0.00    -0.352 N 
ATOM     35  C   UNL     1       3.893  -6.487  -4.776  1.00  0.00     0.251 C 
ATOM     36  H   UNL     1       4.304  -5.205  -3.289  1.00  0.00     0.163 HD
ATOM     37  O   UNL     1       5.021  -6.954  -4.789  1.00  0.00    -0.269 OA
BRANCH  35  38
ATOM     38  C   UNL     1       2.868  -6.978  -5.725  1.00  0.00     0.039 A 
ATOM     39  C   UNL     1       2.721  -8.356  -5.896  1.00  0.00     0.014 A 
ATOM     40  C   UNL     1       2.045  -6.091  -6.424  1.00  0.00     0.014 A 
ATOM     41  C   UNL     1       1.698  -8.848  -6.711  1.00  0.00     0.010 A 
ATOM     42  C   UNL     1       0.983  -6.583  -7.178  1.00  0.00     0.010 A 
ATOM     43  C   UNL     1       0.795  -7.966  -7.326  1.00  0.00    -0.014 A 
BRANCH  43  44
ATOM     44  C   UNL     1      -0.359  -8.468  -8.118  1.00  0.00     0.031 A 
ATOM     45  C   UNL     1      -0.459  -8.152  -9.587  1.00  0.00     0.074 A 
ATOM     46  C   UNL     1      -1.353  -9.138  -7.500  1.00  0.00     0.049 A 
ATOM     47  N   UNL     1      -1.434  -8.406 -10.420  1.00  0.00    -0.248 NA
ATOM     48  C   UNL     1       0.674  -7.432 -10.192  1.00  0.00     0.031 C 
ATOM     49  C   UNL     1      -1.397  -9.462  -6.072  1.00  0.00     0.029 A 
ATOM     50  N   UNL     1      -2.531  -9.649  -7.989  1.00  0.00    -0.354 N 
ATOM     51  C   UNL     1      -1.045  -7.859 -11.638  1.00  0.00     0.074 A 
ATOM     52  C   UNL     1       0.238  -7.226 -11.427  1.00  0.00     0.031 C 
ATOM     53  C   UNL     1      -2.536 -10.121  -5.804  1.00  0.00     0.029 A 
ATOM     54  C   UNL     1      -3.323 -10.233  -7.028  1.00  0.00     0.049 A 
ATOM     55  H   UNL     1      -2.784  -9.601  -8.939  1.00  0.00     0.167 HD
ATOM     56  C   UNL     1      -1.691  -7.899 -12.827  1.00  0.00     0.037 A 
ATOM     57  C   UNL     1      -4.551 -10.781  -7.117  1.00  0.00     0.037 A 
ATOM     58  C   UNL     1      -2.947  -8.570 -13.041  1.00  0.00     0.049 A 
ATOM     59  C   UNL     1      -5.239 -10.825  -8.457  1.00  0.00     0.074 A 
ATOM     60  C   UNL     1      -3.641  -8.732 -14.228  1.00  0.00     0.029 A 
ATOM     61  N   UNL     1      -3.696  -9.189 -12.052  1.00  0.00    -0.354 N 
ATOM     62  N   UNL     1      -4.821 -10.367  -9.613  1.00  0.00    -0.248 NA
ATOM     63  C   UNL     1      -6.562 -11.463  -8.508  1.00  0.00     0.031 C 
ATOM     64  C   UNL     1      -4.831  -9.410 -13.949  1.00  0.00     0.029 A 
ATOM     65  C   UNL     1      -4.854  -9.716 -12.598  1.00  0.00     0.049 A 
ATOM     66  H   UNL     1      -3.441  -9.245 -11.102  1.00  0.00     0.167 HD
ATOM     67  C   UNL     1      -5.813 -10.692 -10.531  1.00  0.00     0.074 A 
ATOM     68  C   UNL     1      -6.848 -11.393  -9.800  1.00  0.00     0.031 C 
ATOM     69  C   UNL     1      -5.864 -10.432 -11.861  1.00  0.00     0.037 A 
BRANCH  56  70
ATOM     70  C   UNL     1      -1.054  -7.212 -14.003  1.00  0.00     0.058 A 
ATOM     71  C   UNL     1       0.083  -7.737 -14.635  1.00  0.00     0.135 A 
ATOM     72  C   UNL     1      -1.638  -6.060 -14.555  1.00  0.00     0.135 A 
ATOM     73  F   UNL     1       0.691  -8.826 -14.138  1.00  0.00    -0.206 F 
ATOM     74  C   UNL     1       0.625  -7.140 -15.768  1.00  0.00     0.059 A 
ATOM     75  C   UNL     1      -1.128  -5.461 -15.702  1.00  0.00     0.059 A 
ATOM     76  F   UNL     1      -2.726  -5.515 -13.987  1.00  0.00    -0.206 F 
ATOM     77  C   UNL     1       0.008  -6.005 -16.299  1.00  0.00     0.060 A 
BRANCH  77  78
ATOM     78  S   UNL     1       0.699  -5.271 -17.796  1.00  0.00     0.124 S 
ATOM     79  O   UNL     1       1.922  -4.660 -17.282  1.00  0.00    -0.237 OA
ATOM     80  O   UNL     1       0.885  -6.434 -18.656  1.00  0.00    -0.237 OA
ATOM     81  O   UNL     1      -0.336  -4.335 -18.225  1.00  0.00    -0.744 OA
ENDBRANCH  77  78
ENDBRANCH  56  70
BRANCH  57  82
ATOM     82  C   UNL     1      -5.219 -11.333  -5.907  1.00  0.00     0.058 A 
ATOM     83  C   UNL     1      -5.437 -12.712  -5.765  1.00  0.00     0.135 A 
ATOM     84  C   UNL     1      -5.676 -10.491  -4.881  1.00  0.00     0.135 A 
ATOM     85  F   UNL     1      -5.023 -13.558  -6.721  1.00  0.00    -0.206 F 
ATOM     86  C   UNL     1      -6.115 -13.234  -4.668  1.00  0.00     0.059 A 
ATOM     87  C   UNL     1      -6.331 -10.992  -3.760  1.00  0.00     0.059 A 
ATOM     88  F   UNL     1      -5.475  -9.166  -4.958  1.00  0.00    -0.206 F 
ATOM     89  C   UNL     1      -6.562 -12.364  -3.672  1.00  0.00     0.060 A 
BRANCH  89  90
ATOM     90  S   UNL     1      -7.429 -13.050  -2.244  1.00  0.00     0.124 S 
ATOM     91  O   UNL     1      -8.733 -13.363  -2.818  1.00  0.00    -0.237 OA
ATOM     92  O   UNL     1      -6.593 -14.194  -1.896  1.00  0.00    -0.237 OA
ATOM     93  O   UNL     1      -7.408 -11.952  -1.282  1.00  0.00    -0.744 OA
ENDBRANCH  89  90
ENDBRANCH  57  82
BRANCH  69  94
ATOM     94  C   UNL     1      -7.049 -10.948 -12.628  1.00  0.00     0.058 A 
ATOM     95  C   UNL     1      -8.317 -10.358 -12.513  1.00  0.00     0.135 A 
ATOM     96  C   UNL     1      -6.896 -12.004 -13.541  1.00  0.00     0.135 A 
ATOM     97  F   UNL     1      -8.518  -9.350 -11.649  1.00  0.00    -0.206 F 
ATOM     98  C   UNL     1      -9.397 -10.809 -13.265  1.00  0.00     0.059 A 
ATOM     99  C   UNL     1      -7.955 -12.452 -14.323  1.00  0.00     0.059 A 
ATOM    100  F   UNL     1      -5.700 -12.595 -13.696  1.00  0.00    -0.206 F 
ATOM    101  C   UNL     1      -9.205 -11.854 -14.171  1.00  0.00     0.060 A 
BRANCH 101 102
ATOM    102  S   UNL     1     -10.603 -12.399 -15.175  1.00  0.00     0.124 S 
ATOM    103  O   UNL     1     -11.400 -13.130 -14.196  1.00  0.00    -0.237 OA
ATOM    104  O   UNL     1     -11.169 -11.134 -15.635  1.00  0.00    -0.237 OA
ATOM    105  O   UNL     1      -9.980 -13.214 -16.213  1.00  0.00    -0.744 OA
ENDBRANCH 101 102
ENDBRANCH  69  94
ENDBRANCH  43  44
ENDBRANCH  35  38
ENDBRANCH  33  34
ENDBRANCH  32  33
ENDBRANCH  31  32
ENDBRANCH   1  31
TORSDOF 21
