REMARK SMILES O=C(CCC(=O)c1c[nH]c2ccccc12)NCCCCNC(=O)c1ccc(-c2c3nc(c(-c4c(F)cc(S(=O)(=O)[O-])cc4F)c4ccc([nH]4)c(-c4c(F)cc(S(=O)(=O)[O-])cc4F)c4nc(c(-c5c(F)cc(S(=O)(=O)[O-])cc5F)c5ccc2[nH]5)C=C4)C=C3)cc1
REMARK SMILES IDX 18 1 17 2 16 3 1 4 2 5 3 7 4 8 5 9 6 10 7 11 8 12 15 13 9 14
REMARK SMILES IDX 10 15 14 16 11 18 13 19 12 20 19 21 20 22 21 23 22 24 23 26
REMARK SMILES IDX 24 27 25 28 89 29 26 30 88 31 27 32 28 33 29 34 82 35 30 36
REMARK SMILES IDX 87 37 81 38 83 39 31 40 86 41 80 42 79 43 32 45 66 46 45 47
REMARK SMILES IDX 65 48 46 49 49 50 64 51 84 52 47 53 48 54 63 56 85 57 50 58
REMARK SMILES IDX 33 59 34 60 43 61 35 62 36 63 42 64 44 65 37 66 38 67 39 68
REMARK SMILES IDX 40 69 41 70 67 71 68 72 77 73 69 74 70 75 76 76 78 77 71 78
REMARK SMILES IDX 72 79 73 80 74 81 75 82 51 83 52 84 61 85 53 86 54 87 60 88
REMARK SMILES IDX 62 89 55 90 56 91 57 92 58 93 59 94
REMARK H PARENT 16 6 9 17 21 25 83 44 49 55
REMARK Flexibility Score: inf
ROOT
ATOM      1  C   UNL     1       2.604   1.068  -3.303  1.00  0.00     0.023 C 
ENDROOT
BRANCH   1   2
ATOM      2  C   UNL     1       1.466  -0.222  -1.932  1.00  0.00     0.116 C 
BRANCH   2   3
ATOM      3  N   UNL     1       1.822  -0.847  -0.491  1.00  0.00    -0.356 N 
ATOM      4  O   UNL     1       0.765   0.507   1.023  1.00  0.00    -0.275 OA
ATOM      5  C   UNL     1       1.694  -0.243   0.731  1.00  0.00     0.220 C 
ATOM      6  H   UNL     1       2.172  -1.767  -0.489  1.00  0.00     0.163 HD
BRANCH   5   7
ATOM      7  C   UNL     1       2.910  -0.384   1.648  1.00  0.00     0.108 C 
BRANCH   7   8
ATOM      8  C   UNL     1       4.025  -1.351   1.254  1.00  0.00     0.091 C 
BRANCH   8   9
ATOM      9  C   UNL     1       4.995  -0.833   0.178  1.00  0.00     0.165 C 
ATOM     10  O   UNL     1       6.138  -0.490   0.462  1.00  0.00    -0.294 OA
BRANCH   9  11
ATOM     11  C   UNL     1       4.532  -0.889  -1.206  1.00  0.00     0.043 A 
ATOM     12  C   UNL     1       4.746  -1.970  -2.064  1.00  0.00     0.095 A 
ATOM     13  C   UNL     1       3.553  -0.038  -1.796  1.00  0.00     0.010 A 
ATOM     14  N   UNL     1       3.896  -2.024  -3.165  1.00  0.00    -0.360 N 
ATOM     15  C   UNL     1       2.988  -0.993  -3.157  1.00  0.00     0.046 A 
ATOM     16  C   UNL     1       2.586   1.414  -1.272  1.00  0.00     0.011 A 
ATOM     17  H   UNL     1       3.939  -2.717  -3.863  1.00  0.00     0.166 HD
ATOM     18  C   UNL     1       1.474  -0.559  -4.034  1.00  0.00     0.027 A 
ATOM     19  C   UNL     1       1.035   1.837  -2.094  1.00  0.00     0.001 A 
ATOM     20  C   UNL     1       0.498   0.851  -3.479  1.00  0.00     0.002 A 
ENDBRANCH   9  11
ENDBRANCH   8   9
ENDBRANCH   7   8
ENDBRANCH   5   7
ENDBRANCH   2   3
ENDBRANCH   1   2
BRANCH   1  21
ATOM     21  C   UNL     1       4.238   1.351  -3.733  1.00  0.00     0.023 C 
BRANCH  21  22
ATOM     22  C   UNL     1       4.932   0.541  -4.824  1.00  0.00     0.116 C 
BRANCH  22  23
ATOM     23  N   UNL     1       4.128   0.216  -5.992  1.00  0.00    -0.352 N 
ATOM     24  C   UNL     1       4.575  -0.257  -7.205  1.00  0.00     0.251 C 
ATOM     25  H   UNL     1       3.156   0.350  -5.905  1.00  0.00     0.163 HD
ATOM     26  O   UNL     1       3.801  -0.452  -8.135  1.00  0.00    -0.269 OA
BRANCH  24  27
ATOM     27  C   UNL     1       6.027  -0.467  -7.371  1.00  0.00     0.039 A 
ATOM     28  C   UNL     1       6.703   0.252  -8.358  1.00  0.00     0.014 A 
ATOM     29  C   UNL     1       6.726  -1.269  -6.467  1.00  0.00     0.014 A 
ATOM     30  C   UNL     1       8.098   0.231  -8.382  1.00  0.00     0.010 A 
ATOM     31  C   UNL     1       8.113  -1.219  -6.439  1.00  0.00     0.010 A 
ATOM     32  C   UNL     1       8.813  -0.465  -7.393  1.00  0.00    -0.014 A 
BRANCH  32  33
ATOM     33  C   UNL     1      10.295  -0.408  -7.333  1.00  0.00     0.031 A 
ATOM     34  C   UNL     1      11.099  -1.663  -7.527  1.00  0.00     0.074 A 
ATOM     35  C   UNL     1      10.906   0.756  -7.035  1.00  0.00     0.049 A 
ATOM     36  N   UNL     1      12.394  -1.832  -7.461  1.00  0.00    -0.248 NA
ATOM     37  C   UNL     1      10.346  -2.898  -7.800  1.00  0.00     0.031 C 
ATOM     38  C   UNL     1      10.226   2.024  -6.756  1.00  0.00     0.029 A 
ATOM     39  N   UNL     1      12.238   1.062  -6.908  1.00  0.00    -0.354 N 
ATOM     40  C   UNL     1      12.609  -3.188  -7.672  1.00  0.00     0.074 A 
ATOM     41  C   UNL     1      11.309  -3.808  -7.805  1.00  0.00     0.031 C 
ATOM     42  C   UNL     1      11.145   2.974  -6.518  1.00  0.00     0.029 A 
ATOM     43  C   UNL     1      12.476   2.380  -6.596  1.00  0.00     0.049 A 
ATOM     44  H   UNL     1      12.956   0.399  -7.029  1.00  0.00     0.167 HD
ATOM     45  C   UNL     1      13.784  -3.852  -7.777  1.00  0.00     0.037 A 
ATOM     46  C   UNL     1      13.636   3.034  -6.396  1.00  0.00     0.037 A 
ATOM     47  C   UNL     1      15.072  -3.222  -7.671  1.00  0.00     0.049 A 
ATOM     48  C   UNL     1      14.931   2.280  -6.539  1.00  0.00     0.074 A 
ATOM     49  C   UNL     1      16.325  -3.791  -7.819  1.00  0.00     0.029 A 
ATOM     50  N   UNL     1      15.274  -1.877  -7.393  1.00  0.00    -0.354 N 
ATOM     51  N   UNL     1      15.118   1.010  -6.814  1.00  0.00    -0.248 NA
ATOM     52  C   UNL     1      16.172   3.045  -6.356  1.00  0.00     0.031 C 
ATOM     53  C   UNL     1      17.284  -2.798  -7.595  1.00  0.00     0.029 A 
ATOM     54  C   UNL     1      16.630  -1.601  -7.351  1.00  0.00     0.049 A 
ATOM     55  H   UNL     1      14.558  -1.218  -7.246  1.00  0.00     0.167 HD
ATOM     56  C   UNL     1      16.496   0.830  -6.861  1.00  0.00     0.074 A 
ATOM     57  C   UNL     1      17.094   2.124  -6.600  1.00  0.00     0.031 C 
ATOM     58  C   UNL     1      17.203  -0.302  -7.099  1.00  0.00     0.037 A 
BRANCH  45  59
ATOM     59  C   UNL     1      13.722  -5.332  -8.034  1.00  0.00     0.058 A 
ATOM     60  C   UNL     1      13.285  -5.846  -9.266  1.00  0.00     0.135 A 
ATOM     61  C   UNL     1      14.115  -6.249  -7.046  1.00  0.00     0.135 A 
ATOM     62  F   UNL     1      12.880  -5.015 -10.240  1.00  0.00    -0.206 F 
ATOM     63  C   UNL     1      13.206  -7.215  -9.498  1.00  0.00     0.059 A 
ATOM     64  C   UNL     1      14.072  -7.623  -7.266  1.00  0.00     0.059 A 
ATOM     65  F   UNL     1      14.539  -5.814  -5.849  1.00  0.00    -0.206 F 
ATOM     66  C   UNL     1      13.599  -8.096  -8.490  1.00  0.00     0.060 A 
BRANCH  66  67
ATOM     67  S   UNL     1      13.484  -9.870  -8.803  1.00  0.00     0.124 S 
ATOM     68  O   UNL     1      12.042 -10.085  -8.720  1.00  0.00    -0.237 OA
ATOM     69  O   UNL     1      14.066  -9.991 -10.136  1.00  0.00    -0.237 OA
ATOM     70  O   UNL     1      14.269 -10.458  -7.723  1.00  0.00    -0.744 OA
ENDBRANCH  66  67
ENDBRANCH  45  59
BRANCH  46  71
ATOM     71  C   UNL     1      13.628   4.487  -6.075  1.00  0.00     0.058 A 
ATOM     72  C   UNL     1      14.060   5.435  -7.014  1.00  0.00     0.135 A 
ATOM     73  C   UNL     1      13.179   4.958  -4.832  1.00  0.00     0.135 A 
ATOM     74  F   UNL     1      14.503   5.035  -8.216  1.00  0.00    -0.206 F 
ATOM     75  C   UNL     1      14.063   6.797  -6.729  1.00  0.00     0.059 A 
ATOM     76  C   UNL     1      13.150   6.317  -4.531  1.00  0.00     0.059 A 
ATOM     77  F   UNL     1      12.739   4.093  -3.904  1.00  0.00    -0.206 F 
ATOM     78  C   UNL     1      13.604   7.228  -5.483  1.00  0.00     0.060 A 
BRANCH  78  79
ATOM     79  S   UNL     1      13.569   9.002  -5.139  1.00  0.00     0.124 S 
ATOM     80  O   UNL     1      14.985   9.290  -4.940  1.00  0.00    -0.237 OA
ATOM     81  O   UNL     1      12.974   9.539  -6.359  1.00  0.00    -0.237 OA
ATOM     82  O   UNL     1      12.731   9.095  -3.948  1.00  0.00    -0.744 OA
ENDBRANCH  78  79
ENDBRANCH  46  71
BRANCH  58  83
ATOM     83  C   UNL     1      18.701  -0.189  -7.121  1.00  0.00     0.058 A 
ATOM     84  C   UNL     1      19.445  -0.028  -5.943  1.00  0.00     0.135 A 
ATOM     85  C   UNL     1      19.403  -0.305  -8.332  1.00  0.00     0.135 A 
ATOM     86  F   UNL     1      18.821   0.093  -4.761  1.00  0.00    -0.206 F 
ATOM     87  C   UNL     1      20.835   0.035  -5.966  1.00  0.00     0.059 A 
ATOM     88  C   UNL     1      20.793  -0.272  -8.375  1.00  0.00     0.059 A 
ATOM     89  F   UNL     1      18.738  -0.472  -9.486  1.00  0.00    -0.206 F 
ATOM     90  C   UNL     1      21.500  -0.091  -7.187  1.00  0.00     0.060 A 
BRANCH  90  91
ATOM     91  S   UNL     1      23.304  -0.049  -7.199  1.00  0.00     0.124 S 
ATOM     92  O   UNL     1      23.567   1.372  -6.998  1.00  0.00    -0.237 OA
ATOM     93  O   UNL     1      23.646  -0.921  -6.079  1.00  0.00    -0.237 OA
ATOM     94  O   UNL     1      23.647  -0.571  -8.518  1.00  0.00    -0.744 OA
ENDBRANCH  90  91
ENDBRANCH  58  83
ENDBRANCH  32  33
ENDBRANCH  24  27
ENDBRANCH  22  23
ENDBRANCH  21  22
ENDBRANCH   1  21
TORSDOF 17
