REMARK SMILES O=C(NCCCCNC(=O)c1cccc(NC(=O)c2ccc(N3C(=O)CCC3=O)cc2)c1)c1ccc(-c2c3nc(c(-c4c(F)cc(S(=O)(=O)[O-])cc4F)c4ccc([nH]4)c(-c4c(F)cc(S(=O)(=O)[O-])cc4F)c4nc(c(-c5c(F)cc(S(=O)(=O)[O-])cc5F)c5ccc2[nH]5)C=C4)C=C3)cc1
REMARK SMILES IDX 5 1 4 2 3 3 1 4 2 5 33 7 34 8 98 9 35 10 97 11 36 12 37 13
REMARK SMILES IDX 38 14 91 15 39 16 96 17 90 18 92 19 40 20 95 21 89 22 88 23
REMARK SMILES IDX 41 25 75 26 54 27 74 28 55 29 58 30 73 31 93 32 56 33 57 34
REMARK SMILES IDX 72 36 94 37 59 38 42 39 43 40 52 41 44 42 45 43 51 44 53 45
REMARK SMILES IDX 46 46 47 47 48 48 49 49 50 50 76 51 77 52 86 53 78 54 79 55
REMARK SMILES IDX 85 56 87 57 80 58 81 59 82 60 83 61 84 62 60 63 61 64 70 65
REMARK SMILES IDX 62 66 63 67 69 68 71 69 64 70 65 71 66 72 67 73 68 74 6 75
REMARK SMILES IDX 7 76 8 77 9 78 10 80 11 81 12 82 32 83 13 84 15 85 14 86
REMARK SMILES IDX 16 87 17 88 18 90 19 91 20 92 31 93 21 94 30 95 22 96 23 97
REMARK SMILES IDX 24 98 28 99 25 100 26 101 27 102 29 103
REMARK H PARENT 3 6 92 24 58 35 8 79 16 89
REMARK Flexibility Score: inf
ROOT
ATOM      1  C   UNL     1       4.949  -2.372   0.824  1.00  0.00     0.023 C 
ENDROOT
BRANCH   1   2
ATOM      2  C   UNL     1       4.619  -1.203  -0.093  1.00  0.00     0.116 C 
BRANCH   2   3
ATOM      3  N   UNL     1       3.188  -1.011  -0.279  1.00  0.00    -0.352 N 
ATOM      4  O   UNL     1       1.195   0.030  -0.097  1.00  0.00    -0.269 OA
ATOM      5  C   UNL     1       2.417   0.096  -0.009  1.00  0.00     0.251 C 
ATOM      6  H   UNL     1       2.704  -1.783  -0.650  1.00  0.00     0.163 HD
BRANCH   5   7
ATOM      7  C   UNL     1       3.070   1.351   0.421  1.00  0.00     0.039 A 
ATOM      8  C   UNL     1       4.205   1.821  -0.242  1.00  0.00     0.014 A 
ATOM      9  C   UNL     1       2.564   2.042   1.525  1.00  0.00     0.014 A 
ATOM     10  C   UNL     1       4.938   2.866   0.307  1.00  0.00     0.010 A 
ATOM     11  C   UNL     1       3.247   3.161   2.012  1.00  0.00     0.010 A 
ATOM     12  C   UNL     1       4.465   3.555   1.435  1.00  0.00    -0.014 A 
BRANCH  12  13
ATOM     13  C   UNL     1       5.244   4.704   1.967  1.00  0.00     0.031 A 
ATOM     14  C   UNL     1       5.825   4.679   3.355  1.00  0.00     0.074 A 
ATOM     15  C   UNL     1       5.450   5.770   1.168  1.00  0.00     0.049 A 
ATOM     16  N   UNL     1       6.547   5.587   3.963  1.00  0.00    -0.248 NA
ATOM     17  C   UNL     1       5.556   3.486   4.172  1.00  0.00     0.031 C 
ATOM     18  C   UNL     1       4.934   5.910  -0.196  1.00  0.00     0.029 A 
ATOM     19  N   UNL     1       6.159   6.925   1.373  1.00  0.00    -0.354 N 
ATOM     20  C   UNL     1       6.796   5.091   5.238  1.00  0.00     0.074 A 
ATOM     21  C   UNL     1       6.123   3.812   5.326  1.00  0.00     0.031 C 
ATOM     22  C   UNL     1       5.388   7.055  -0.724  1.00  0.00     0.029 A 
ATOM     23  C   UNL     1       6.166   7.765   0.285  1.00  0.00     0.049 A 
ATOM     24  H   UNL     1       6.620   7.133   2.218  1.00  0.00     0.167 HD
ATOM     25  C   UNL     1       7.521   5.649   6.239  1.00  0.00     0.037 A 
ATOM     26  C   UNL     1       6.721   8.979   0.118  1.00  0.00     0.037 A 
ATOM     27  C   UNL     1       8.195   6.920   6.135  1.00  0.00     0.049 A 
ATOM     28  C   UNL     1       7.494   9.589   1.251  1.00  0.00     0.074 A 
ATOM     29  C   UNL     1       8.987   7.555   7.076  1.00  0.00     0.029 A 
ATOM     30  N   UNL     1       8.146   7.758   5.029  1.00  0.00    -0.354 N 
ATOM     31  N   UNL     1       7.745   9.091   2.438  1.00  0.00    -0.248 NA
ATOM     32  C   UNL     1       8.058  10.924   1.023  1.00  0.00     0.031 C 
ATOM     33  C   UNL     1       9.367   8.800   6.563  1.00  0.00     0.029 A 
ATOM     34  C   UNL     1       8.870   8.915   5.275  1.00  0.00     0.049 A 
ATOM     35  H   UNL     1       7.668   7.560   4.191  1.00  0.00     0.167 HD
ATOM     36  C   UNL     1       8.526  10.040   3.089  1.00  0.00     0.074 A 
ATOM     37  C   UNL     1       8.708  11.136   2.159  1.00  0.00     0.031 C 
ATOM     38  C   UNL     1       9.048  10.000   4.340  1.00  0.00     0.037 A 
BRANCH  25  39
ATOM     39  C   UNL     1       7.594   4.905   7.549  1.00  0.00     0.058 A 
ATOM     40  C   UNL     1       8.286   3.690   7.683  1.00  0.00     0.135 A 
ATOM     41  C   UNL     1       6.972   5.427   8.696  1.00  0.00     0.135 A 
ATOM     42  F   UNL     1       8.894   3.137   6.621  1.00  0.00    -0.206 F 
ATOM     43  C   UNL     1       8.318   2.998   8.890  1.00  0.00     0.059 A 
ATOM     44  C   UNL     1       7.018   4.768   9.922  1.00  0.00     0.059 A 
ATOM     45  F   UNL     1       6.301   6.588   8.633  1.00  0.00    -0.206 F 
ATOM     46  C   UNL     1       7.675   3.542  10.003  1.00  0.00     0.060 A 
BRANCH  46  47
ATOM     47  S   UNL     1       7.696   2.615  11.553  1.00  0.00     0.124 S 
ATOM     48  O   UNL     1       6.782   1.518  11.247  1.00  0.00    -0.237 OA
ATOM     49  O   UNL     1       9.103   2.249  11.680  1.00  0.00    -0.237 OA
ATOM     50  O   UNL     1       7.211   3.580  12.534  1.00  0.00    -0.744 OA
ENDBRANCH  46  47
ENDBRANCH  25  39
BRANCH  26  51
ATOM     51  C   UNL     1       6.573   9.679  -1.185  1.00  0.00     0.058 A 
ATOM     52  C   UNL     1       7.671   9.847  -2.041  1.00  0.00     0.135 A 
ATOM     53  C   UNL     1       5.324  10.150  -1.622  1.00  0.00     0.135 A 
ATOM     54  F   UNL     1       8.886   9.417  -1.665  1.00  0.00    -0.206 F 
ATOM     55  C   UNL     1       7.539  10.461  -3.281  1.00  0.00     0.059 A 
ATOM     56  C   UNL     1       5.162  10.740  -2.870  1.00  0.00     0.059 A 
ATOM     57  F   UNL     1       4.239   9.996  -0.847  1.00  0.00    -0.206 F 
ATOM     58  C   UNL     1       6.277  10.897  -3.690  1.00  0.00     0.060 A 
BRANCH  58  59
ATOM     59  S   UNL     1       6.108  11.630  -5.331  1.00  0.00     0.124 S 
ATOM     60  O   UNL     1       6.775  12.914  -5.150  1.00  0.00    -0.237 OA
ATOM     61  O   UNL     1       6.803  10.660  -6.171  1.00  0.00    -0.237 OA
ATOM     62  O   UNL     1       4.662  11.692  -5.524  1.00  0.00    -0.744 OA
ENDBRANCH  58  59
ENDBRANCH  26  51
BRANCH  38  63
ATOM     63  C   UNL     1       9.914  11.158   4.761  1.00  0.00     0.058 A 
ATOM     64  C   UNL     1       9.383  12.430   5.022  1.00  0.00     0.135 A 
ATOM     65  C   UNL     1      11.296  10.977   4.936  1.00  0.00     0.135 A 
ATOM     66  F   UNL     1       8.070  12.662   4.863  1.00  0.00    -0.206 F 
ATOM     67  C   UNL     1      10.196  13.491   5.412  1.00  0.00     0.059 A 
ATOM     68  C   UNL     1      12.122  12.014   5.356  1.00  0.00     0.059 A 
ATOM     69  F   UNL     1      11.856   9.778   4.708  1.00  0.00    -0.206 F 
ATOM     70  C   UNL     1      11.565  13.272   5.577  1.00  0.00     0.060 A 
BRANCH  70  71
ATOM     71  S   UNL     1      12.605  14.649   6.106  1.00  0.00     0.124 S 
ATOM     72  O   UNL     1      12.655  15.461   4.895  1.00  0.00    -0.237 OA
ATOM     73  O   UNL     1      11.840  15.210   7.215  1.00  0.00    -0.237 OA
ATOM     74  O   UNL     1      13.860  14.004   6.481  1.00  0.00    -0.744 OA
ENDBRANCH  70  71
ENDBRANCH  38  63
ENDBRANCH  12  13
ENDBRANCH   5   7
ENDBRANCH   2   3
ENDBRANCH   1   2
BRANCH   1  75
ATOM     75  C   UNL     1       4.487  -3.737   0.323  1.00  0.00     0.023 C 
BRANCH  75  76
ATOM     76  C   UNL     1       4.906  -4.080  -1.102  1.00  0.00     0.116 C 
BRANCH  76  77
ATOM     77  N   UNL     1       6.349  -4.048  -1.281  1.00  0.00    -0.352 N 
ATOM     78  C   UNL     1       7.200  -5.030  -1.714  1.00  0.00     0.251 C 
ATOM     79  H   UNL     1       6.779  -3.191  -1.056  1.00  0.00     0.163 HD
ATOM     80  O   UNL     1       8.415  -4.876  -1.631  1.00  0.00    -0.269 OA
BRANCH  78  81
ATOM     81  C   UNL     1       6.667  -6.287  -2.275  1.00  0.00     0.041 A 
ATOM     82  C   UNL     1       7.234  -7.490  -1.857  1.00  0.00     0.014 A 
ATOM     83  C   UNL     1       5.649  -6.278  -3.237  1.00  0.00     0.040 A 
ATOM     84  C   UNL     1       6.777  -8.682  -2.404  1.00  0.00     0.003 A 
ATOM     85  C   UNL     1       5.123  -7.477  -3.726  1.00  0.00     0.042 A 
ATOM     86  C   UNL     1       5.739  -8.671  -3.342  1.00  0.00     0.026 A 
BRANCH  85  87
ATOM     87  N   UNL     1       3.999  -7.367  -4.571  1.00  0.00    -0.322 N 
ATOM     88  C   UNL     1       3.094  -8.281  -5.058  1.00  0.00     0.255 C 
ATOM     89  H   UNL     1       3.827  -6.446  -4.874  1.00  0.00     0.170 HD
ATOM     90  O   UNL     1       2.240  -7.936  -5.872  1.00  0.00    -0.269 OA
BRANCH  88  91
ATOM     91  C   UNL     1       3.109  -9.681  -4.620  1.00  0.00     0.040 A 
ATOM     92  C   UNL     1       3.449 -10.655  -5.555  1.00  0.00     0.016 A 
ATOM     93  C   UNL     1       2.850 -10.031  -3.293  1.00  0.00     0.016 A 
ATOM     94  C   UNL     1       3.645 -11.971  -5.134  1.00  0.00     0.027 A 
ATOM     95  C   UNL     1       3.030 -11.358  -2.884  1.00  0.00     0.027 A 
ATOM     96  C   UNL     1       3.472 -12.339  -3.788  1.00  0.00     0.052 A 
BRANCH  96  97
ATOM     97  N   UNL     1       3.774 -13.662  -3.357  1.00  0.00    -0.251 N 
ATOM     98  C   UNL     1       3.206 -14.276  -2.266  1.00  0.00     0.234 C 
ATOM     99  C   UNL     1       4.714 -14.467  -3.962  1.00  0.00     0.234 C 
ATOM    100  O   UNL     1       2.351 -13.849  -1.499  1.00  0.00    -0.274 OA
ATOM    101  C   UNL     1       3.734 -15.675  -2.163  1.00  0.00     0.111 C 
ATOM    102  C   UNL     1       4.820 -15.754  -3.204  1.00  0.00     0.111 C 
ATOM    103  O   UNL     1       5.445 -14.219  -4.912  1.00  0.00    -0.274 OA
ENDBRANCH  96  97
ENDBRANCH  88  91
ENDBRANCH  85  87
ENDBRANCH  78  81
ENDBRANCH  76  77
ENDBRANCH  75  76
ENDBRANCH   1  75
TORSDOF 17
