REMARK SMILES C[C@H](C(=O)NCCCCNC(=O)c1ccc(-c2c3nc(c(-c4c(F)cc(S(=O)(=O)[O-])cc4F)c4ccc([nH]4)c(-c4c(F)cc(S(=O)(=O)[O-])cc4F)c4nc(c(-c5c(F)cc(S(=O)(=O)[O-])cc5F)c5ccc2[nH]5)C=C4)C=C3)cc1)c1ccc2c(c1)[nH]c1ccc(Cl)cc12
REMARK SMILES IDX 8 1 7 2 6 3 5 4 3 5 4 6 2 8 1 9 79 10 80 11 84 12 81 13
REMARK SMILES IDX 83 14 82 15 85 16 92 17 86 18 91 20 87 21 89 22 88 23 90 24
REMARK SMILES IDX 9 25 10 26 11 27 12 29 13 30 14 31 78 32 15 33 77 34 16 35
REMARK SMILES IDX 17 36 18 37 71 38 19 39 76 40 70 41 72 42 20 43 75 44 69 45
REMARK SMILES IDX 68 46 21 48 55 49 34 50 54 51 35 52 38 53 53 54 73 55 36 56
REMARK SMILES IDX 37 57 52 59 74 60 39 61 22 62 23 63 32 64 24 65 25 66 31 67
REMARK SMILES IDX 33 68 26 69 27 70 28 71 29 72 30 73 56 74 57 75 66 76 58 77
REMARK SMILES IDX 59 78 65 79 67 80 60 81 61 82 62 83 63 84 64 85 40 86 41 87
REMARK SMILES IDX 50 88 42 89 43 90 49 91 51 92 44 93 45 94 46 95 47 96 48 97
REMARK H PARENT 5 7 85 19 10 28 72 47 38 58
REMARK Flexibility Score: inf
ROOT
ATOM      1  C   UNL     1       2.619  -1.358  -3.683  1.00  0.00     0.023 C 
ENDROOT
BRANCH   1   2
ATOM      2  C   UNL     1       1.419  -0.426  -3.508  1.00  0.00     0.023 C 
BRANCH   2   3
ATOM      3  C   UNL     1       0.559  -0.721  -2.281  1.00  0.00     0.116 C 
BRANCH   3   4
ATOM      4  N   UNL     1       1.304  -0.557  -1.047  1.00  0.00    -0.356 N 
ATOM      5  C   UNL     1       1.213   0.409  -0.089  1.00  0.00     0.227 C 
ATOM      6  O   UNL     1       1.927   0.290   0.911  1.00  0.00    -0.274 OA
ATOM      7  H   UNL     1       1.981  -1.251  -0.875  1.00  0.00     0.163 HD
BRANCH   5   8
ATOM      8  C   UNL     1       0.246   1.590  -0.224  1.00  0.00     0.105 C 
ATOM      9  C   UNL     1       0.641   2.459  -1.424  1.00  0.00     0.023 C 
BRANCH   8  10
ATOM     10  C   UNL     1      -1.238   1.219  -0.143  1.00  0.00    -0.034 A 
ATOM     11  C   UNL     1      -2.227   2.141  -0.520  1.00  0.00     0.005 A 
ATOM     12  C   UNL     1      -1.640  -0.027   0.377  1.00  0.00     0.031 A 
ATOM     13  C   UNL     1      -3.595   1.833  -0.434  1.00  0.00     0.011 A 
ATOM     14  C   UNL     1      -3.006  -0.321   0.447  1.00  0.00     0.047 A 
ATOM     15  C   UNL     1      -3.995   0.575   0.055  1.00  0.00     0.007 A 
ATOM     16  N   UNL     1      -3.637  -1.458   0.891  1.00  0.00    -0.355 N 
ATOM     17  C   UNL     1      -5.259  -0.054   0.294  1.00  0.00     0.009 A 
ATOM     18  C   UNL     1      -5.002  -1.314   0.836  1.00  0.00     0.047 A 
ATOM     19  H   UNL     1      -3.173  -2.267   1.206  1.00  0.00     0.167 HD
ATOM     20  C   UNL     1      -6.601   0.341   0.116  1.00  0.00     0.031 A 
ATOM     21  C   UNL     1      -6.014  -2.198   1.229  1.00  0.00     0.028 A 
ATOM     22  C   UNL     1      -7.622  -0.532   0.506  1.00  0.00     0.041 A 
ATOM     23  C   UNL     1      -7.336  -1.778   1.059  1.00  0.00     0.022 A 
ATOM     24  Cl  UNL     1      -9.265  -0.052   0.307  1.00  0.00    -0.084 Cl
ENDBRANCH   8  10
ENDBRANCH   5   8
ENDBRANCH   3   4
ENDBRANCH   2   3
ENDBRANCH   1   2
BRANCH   1  25
ATOM     25  C   UNL     1       2.279  -2.841  -3.787  1.00  0.00     0.116 C 
BRANCH  25  26
ATOM     26  N   UNL     1       1.449  -3.149  -4.942  1.00  0.00    -0.352 N 
ATOM     27  C   UNL     1       1.655  -4.081  -5.935  1.00  0.00     0.251 C 
ATOM     28  H   UNL     1       0.624  -2.618  -5.025  1.00  0.00     0.163 HD
ATOM     29  O   UNL     1       0.926  -4.108  -6.916  1.00  0.00    -0.269 OA
BRANCH  27  30
ATOM     30  C   UNL     1       2.785  -5.029  -5.816  1.00  0.00     0.039 A 
ATOM     31  C   UNL     1       3.653  -5.190  -6.899  1.00  0.00     0.014 A 
ATOM     32  C   UNL     1       3.005  -5.725  -4.625  1.00  0.00     0.014 A 
ATOM     33  C   UNL     1       4.792  -5.987  -6.758  1.00  0.00     0.010 A 
ATOM     34  C   UNL     1       4.175  -6.459  -4.463  1.00  0.00     0.010 A 
ATOM     35  C   UNL     1       5.085  -6.591  -5.525  1.00  0.00    -0.014 A 
BRANCH  35  36
ATOM     36  C   UNL     1       6.341  -7.353  -5.303  1.00  0.00     0.031 A 
ATOM     37  C   UNL     1       6.281  -8.813  -4.952  1.00  0.00     0.074 A 
ATOM     38  C   UNL     1       7.524  -6.706  -5.300  1.00  0.00     0.049 A 
ATOM     39  N   UNL     1       7.242  -9.612  -4.569  1.00  0.00    -0.248 NA
ATOM     40  C   UNL     1       4.954  -9.448  -5.004  1.00  0.00     0.031 C 
ATOM     41  C   UNL     1       7.708  -5.279  -5.571  1.00  0.00     0.029 A 
ATOM     42  N   UNL     1       8.792  -7.157  -5.027  1.00  0.00    -0.354 N 
ATOM     43  C   UNL     1       6.635 -10.833  -4.303  1.00  0.00     0.074 A 
ATOM     44  C   UNL     1       5.216 -10.658  -4.532  1.00  0.00     0.031 C 
ATOM     45  C   UNL     1       9.010  -4.972  -5.447  1.00  0.00     0.029 A 
ATOM     46  C   UNL     1       9.746  -6.168  -5.049  1.00  0.00     0.049 A 
ATOM     47  H   UNL     1       8.998  -8.101  -4.835  1.00  0.00     0.167 HD
ATOM     48  C   UNL     1       7.209 -11.998  -3.917  1.00  0.00     0.037 A 
ATOM     49  C   UNL     1      11.062  -6.210  -4.757  1.00  0.00     0.037 A 
ATOM     50  C   UNL     1       8.624 -12.172  -3.725  1.00  0.00     0.049 A 
ATOM     51  C   UNL     1      11.685  -7.518  -4.356  1.00  0.00     0.074 A 
ATOM     52  C   UNL     1       9.314 -13.332  -3.418  1.00  0.00     0.029 A 
ATOM     53  N   UNL     1       9.567 -11.158  -3.816  1.00  0.00    -0.354 N 
ATOM     54  N   UNL     1      11.109  -8.684  -4.184  1.00  0.00    -0.248 NA
ATOM     55  C   UNL     1      13.135  -7.522  -4.114  1.00  0.00     0.031 C 
ATOM     56  C   UNL     1      10.668 -13.011  -3.283  1.00  0.00     0.029 A 
ATOM     57  C   UNL     1      10.830 -11.661  -3.550  1.00  0.00     0.049 A 
ATOM     58  H   UNL     1       9.368 -10.220  -4.037  1.00  0.00     0.167 HD
ATOM     59  C   UNL     1      12.127  -9.564  -3.837  1.00  0.00     0.074 A 
ATOM     60  C   UNL     1      13.357  -8.798  -3.827  1.00  0.00     0.031 C 
ATOM     61  C   UNL     1      12.048 -10.888  -3.554  1.00  0.00     0.037 A 
BRANCH  48  62
ATOM     62  C   UNL     1       6.300 -13.170  -3.669  1.00  0.00     0.058 A 
ATOM     63  C   UNL     1       5.630 -13.821  -4.717  1.00  0.00     0.135 A 
ATOM     64  C   UNL     1       6.099 -13.651  -2.365  1.00  0.00     0.135 A 
ATOM     65  F   UNL     1       5.776 -13.394  -5.982  1.00  0.00    -0.206 F 
ATOM     66  C   UNL     1       4.757 -14.877  -4.477  1.00  0.00     0.059 A 
ATOM     67  C   UNL     1       5.253 -14.726  -2.105  1.00  0.00     0.059 A 
ATOM     68  F   UNL     1       6.718 -13.069  -1.326  1.00  0.00    -0.206 F 
ATOM     69  C   UNL     1       4.569 -15.317  -3.166  1.00  0.00     0.060 A 
BRANCH  69  70
ATOM     70  S   UNL     1       3.411 -16.668  -2.865  1.00  0.00     0.124 S 
ATOM     71  O   UNL     1       2.128 -15.987  -3.012  1.00  0.00    -0.237 OA
ATOM     72  O   UNL     1       3.749 -17.614  -3.924  1.00  0.00    -0.237 OA
ATOM     73  O   UNL     1       3.740 -17.103  -1.512  1.00  0.00    -0.744 OA
ENDBRANCH  69  70
ENDBRANCH  48  62
BRANCH  49  74
ATOM     74  C   UNL     1      11.870  -4.965  -4.846  1.00  0.00     0.058 A 
ATOM     75  C   UNL     1      12.772  -4.764  -5.901  1.00  0.00     0.135 A 
ATOM     76  C   UNL     1      11.716  -3.931  -3.910  1.00  0.00     0.135 A 
ATOM     77  F   UNL     1      12.958  -5.727  -6.816  1.00  0.00    -0.206 F 
ATOM     78  C   UNL     1      13.493  -3.581  -6.026  1.00  0.00     0.059 A 
ATOM     79  C   UNL     1      12.410  -2.731  -4.026  1.00  0.00     0.059 A 
ATOM     80  F   UNL     1      10.852  -4.069  -2.892  1.00  0.00    -0.206 F 
ATOM     81  C   UNL     1      13.299  -2.566  -5.087  1.00  0.00     0.060 A 
BRANCH  81  82
ATOM     82  S   UNL     1      14.177  -1.003  -5.307  1.00  0.00     0.124 S 
ATOM     83  O   UNL     1      15.532  -1.369  -4.913  1.00  0.00    -0.237 OA
ATOM     84  O   UNL     1      13.974  -0.735  -6.727  1.00  0.00    -0.237 OA
ATOM     85  O   UNL     1      13.477  -0.096  -4.401  1.00  0.00    -0.744 OA
ENDBRANCH  81  82
ENDBRANCH  49  74
BRANCH  61  86
ATOM     86  C   UNL     1      13.325 -11.614  -3.239  1.00  0.00     0.058 A 
ATOM     87  C   UNL     1      13.960 -11.480  -1.996  1.00  0.00     0.135 A 
ATOM     88  C   UNL     1      13.864 -12.529  -4.159  1.00  0.00     0.135 A 
ATOM     89  F   UNL     1      13.490 -10.613  -1.086  1.00  0.00    -0.206 F 
ATOM     90  C   UNL     1      15.088 -12.229  -1.674  1.00  0.00     0.059 A 
ATOM     91  C   UNL     1      14.977 -13.304  -3.850  1.00  0.00     0.059 A 
ATOM     92  F   UNL     1      13.288 -12.698  -5.360  1.00  0.00    -0.206 F 
ATOM     93  C   UNL     1      15.584 -13.145  -2.605  1.00  0.00     0.060 A 
BRANCH  93  94
ATOM     94  S   UNL     1      17.002 -14.165  -2.147  1.00  0.00     0.124 S 
ATOM     95  O   UNL     1      18.096 -13.203  -2.231  1.00  0.00    -0.237 OA
ATOM     96  O   UNL     1      16.648 -14.606  -0.801  1.00  0.00    -0.237 OA
ATOM     97  O   UNL     1      17.008 -15.214  -3.162  1.00  0.00    -0.744 OA
ENDBRANCH  93  94
ENDBRANCH  61  86
ENDBRANCH  35  36
ENDBRANCH  27  30
ENDBRANCH  25  26
ENDBRANCH   1  25
TORSDOF 15
