REMARK SMILES Cc1ccn(CC(=O)N2CCC3(CC2)NC(=O)C[C@@H]3C(=O)NCCCCNC(=O)c2ccc(-c3c4nc(c(-c5c(F)cc(S(=O)(=O)[O-])cc5F)c5ccc([nH]5)c(-c5c(F)cc(S(=O)(=O)[O-])cc5F)c5nc(c(-c6c(F)cc(S(=O)(=O)[O-])cc6F)c6ccc3[nH]6)C=C5)C=C4)cc2)n1
REMARK SMILES IDX 25 1 24 2 23 3 22 4 20 5 21 6 19 8 7 9 8 10 9 11 10 12 14 13
REMARK SMILES IDX 11 14 13 15 12 16 15 17 16 18 18 20 17 21 6 22 5 23 1 24
REMARK SMILES IDX 2 25 3 26 96 27 4 28 26 29 27 30 28 31 29 33 30 34 31 35
REMARK SMILES IDX 95 36 32 37 94 38 33 39 34 40 35 41 88 42 36 43 93 44 87 45
REMARK SMILES IDX 89 46 37 47 92 48 86 49 85 50 38 52 72 53 51 54 71 55 52 56
REMARK SMILES IDX 55 57 70 58 90 59 53 60 54 61 69 63 91 64 56 65 39 66 40 67
REMARK SMILES IDX 49 68 41 69 42 70 48 71 50 72 43 73 44 74 45 75 46 76 47 77
REMARK SMILES IDX 73 78 74 79 83 80 75 81 76 82 82 83 84 84 77 85 78 86 79 87
REMARK SMILES IDX 80 88 81 89 57 90 58 91 67 92 59 93 60 94 66 95 68 96 61 97
REMARK SMILES IDX 62 98 63 99 64 100 65 101
REMARK H PARENT 22 7 15 19 27 32 89 51 55 62
REMARK Flexibility Score: inf
ROOT
ATOM      1  C   UNL     1      -8.531   4.656  -1.693  1.00  0.00     0.023 C 
ENDROOT
BRANCH   1   2
ATOM      2  C   UNL     1      -7.712   3.958  -2.791  1.00  0.00     0.023 C 
BRANCH   2   3
ATOM      3  C   UNL     1      -6.833   4.841  -3.687  1.00  0.00     0.116 C 
BRANCH   3   4
ATOM      4  N   UNL     1      -5.865   5.591  -2.917  1.00  0.00    -0.356 N 
ATOM      5  C   UNL     1      -4.608   5.218  -2.566  1.00  0.00     0.226 C 
ATOM      6  O   UNL     1      -4.325   5.400  -1.385  1.00  0.00    -0.275 OA
ATOM      7  H   UNL     1      -6.154   6.481  -2.609  1.00  0.00     0.163 HD
BRANCH   5   8
ATOM      8  C   UNL     1      -3.663   4.510  -3.530  1.00  0.00     0.113 C 
ATOM      9  C   UNL     1      -0.474   5.486   0.648  1.00  0.00     0.244 C 
ATOM     10  O   UNL     1      -0.804   6.436   1.363  1.00  0.00    -0.273 OA
ATOM     11  N   UNL     1      -1.060   5.266  -0.598  1.00  0.00    -0.341 N 
ATOM     12  C   UNL     1      -1.646   6.410  -1.290  1.00  0.00     0.122 C 
ATOM     13  C   UNL     1      -1.607   3.968  -0.961  1.00  0.00     0.122 C 
ATOM     14  C   UNL     1      -1.736   6.204  -2.812  1.00  0.00     0.051 C 
ATOM     15  C   UNL     1      -1.447   3.710  -2.438  1.00  0.00     0.051 C 
ATOM     16  C   UNL     1      -2.129   4.782  -3.298  1.00  0.00     0.055 C 
ATOM     17  N   UNL     1      -1.601   4.607  -4.651  1.00  0.00    -0.350 N 
ATOM     18  C   UNL     1      -2.541   4.643  -5.645  1.00  0.00     0.221 C 
ATOM     19  H   UNL     1      -0.642   4.474  -4.832  1.00  0.00     0.164 HD
ATOM     20  C   UNL     1      -3.876   4.882  -5.006  1.00  0.00     0.116 C 
ATOM     21  O   UNL     1      -2.321   4.501  -6.825  1.00  0.00    -0.275 OA
BRANCH   9  22
ATOM     22  C   UNL     1       0.757   4.674   1.002  1.00  0.00     0.244 C 
BRANCH  22  23
ATOM     23  N   UNL     1       0.532   3.264   1.237  1.00  0.00    -0.263 N 
ATOM     24  C   UNL     1       0.976  -0.042   0.064  1.00  0.00     0.069 C 
ATOM     25  C   UNL     1       0.619   1.187   0.810  1.00  0.00     0.059 A 
ATOM     26  C   UNL     1      -0.271   1.337   1.898  1.00  0.00     0.045 A 
ATOM     27  N   UNL     1       1.144   2.360   0.441  1.00  0.00    -0.178 NA
ATOM     28  C   UNL     1      -0.287   2.687   2.166  1.00  0.00     0.109 A 
ENDBRANCH  22  23
ENDBRANCH   9  22
ENDBRANCH   5   8
ENDBRANCH   3   4
ENDBRANCH   2   3
ENDBRANCH   1   2
BRANCH   1  29
ATOM     29  C   UNL     1      -9.433   5.784  -2.167  1.00  0.00     0.116 C 
BRANCH  29  30
ATOM     30  N   UNL     1     -10.425   5.372  -3.168  1.00  0.00    -0.352 N 
ATOM     31  C   UNL     1     -11.299   6.173  -3.896  1.00  0.00     0.251 C 
ATOM     32  H   UNL     1     -10.478   4.405  -3.347  1.00  0.00     0.163 HD
ATOM     33  O   UNL     1     -12.308   5.702  -4.405  1.00  0.00    -0.269 OA
BRANCH  31  34
ATOM     34  C   UNL     1     -10.969   7.601  -4.050  1.00  0.00     0.039 A 
ATOM     35  C   UNL     1     -11.911   8.632  -4.005  1.00  0.00     0.014 A 
ATOM     36  C   UNL     1      -9.621   7.890  -4.173  1.00  0.00     0.014 A 
ATOM     37  C   UNL     1     -11.450   9.951  -4.009  1.00  0.00     0.010 A 
ATOM     38  C   UNL     1      -9.178   9.134  -3.855  1.00  0.00     0.010 A 
ATOM     39  C   UNL     1     -10.069  10.188  -3.923  1.00  0.00    -0.014 A 
BRANCH  39  40
ATOM     40  C   UNL     1      -9.481  11.518  -3.858  1.00  0.00     0.031 A 
ATOM     41  C   UNL     1      -9.958  12.331  -2.716  1.00  0.00     0.074 A 
ATOM     42  C   UNL     1      -8.393  11.857  -4.592  1.00  0.00     0.049 A 
ATOM     43  N   UNL     1     -10.797  13.311  -2.741  1.00  0.00    -0.248 NA
ATOM     44  C   UNL     1      -9.602  11.891  -1.355  1.00  0.00     0.031 C 
ATOM     45  C   UNL     1      -7.589  10.988  -5.473  1.00  0.00     0.029 A 
ATOM     46  N   UNL     1      -7.690  13.022  -4.621  1.00  0.00    -0.354 N 
ATOM     47  C   UNL     1     -10.822  13.799  -1.438  1.00  0.00     0.074 A 
ATOM     48  C   UNL     1     -10.305  12.746  -0.607  1.00  0.00     0.031 C 
ATOM     49  C   UNL     1      -6.398  11.567  -5.731  1.00  0.00     0.029 A 
ATOM     50  C   UNL     1      -6.442  12.925  -5.230  1.00  0.00     0.049 A 
ATOM     51  H   UNL     1      -8.035  13.863  -4.242  1.00  0.00     0.167 HD
ATOM     52  C   UNL     1     -10.920  15.139  -1.204  1.00  0.00     0.037 A 
ATOM     53  C   UNL     1      -5.506  13.897  -5.340  1.00  0.00     0.037 A 
ATOM     54  C   UNL     1     -11.215  15.842  -2.428  1.00  0.00     0.049 A 
ATOM     55  C   UNL     1      -6.214  15.192  -5.198  1.00  0.00     0.074 A 
ATOM     56  C   UNL     1     -12.312  16.031  -3.237  1.00  0.00     0.029 A 
ATOM     57  N   UNL     1     -10.100  16.143  -3.168  1.00  0.00    -0.354 N 
ATOM     58  N   UNL     1      -7.136  15.600  -6.030  1.00  0.00    -0.248 NA
ATOM     59  C   UNL     1      -6.188  15.880  -3.913  1.00  0.00     0.031 C 
ATOM     60  C   UNL     1     -11.802  16.299  -4.543  1.00  0.00     0.029 A 
ATOM     61  C   UNL     1     -10.410  16.314  -4.491  1.00  0.00     0.049 A 
ATOM     62  H   UNL     1      -9.193  16.226  -2.795  1.00  0.00     0.167 HD
ATOM     63  C   UNL     1      -8.045  16.272  -5.237  1.00  0.00     0.074 A 
ATOM     64  C   UNL     1      -7.335  16.560  -3.997  1.00  0.00     0.031 C 
ATOM     65  C   UNL     1      -9.382  16.241  -5.511  1.00  0.00     0.037 A 
BRANCH  52  66
ATOM     66  C   UNL     1     -10.288  15.875  -0.041  1.00  0.00     0.058 A 
ATOM     67  C   UNL     1     -10.638  17.223   0.188  1.00  0.00     0.135 A 
ATOM     68  C   UNL     1      -9.156  15.416   0.669  1.00  0.00     0.135 A 
ATOM     69  F   UNL     1     -11.687  17.772  -0.447  1.00  0.00    -0.206 F 
ATOM     70  C   UNL     1      -9.891  18.062   1.019  1.00  0.00     0.059 A 
ATOM     71  C   UNL     1      -8.431  16.218   1.544  1.00  0.00     0.059 A 
ATOM     72  F   UNL     1      -8.635  14.199   0.476  1.00  0.00    -0.206 F 
ATOM     73  C   UNL     1      -8.782  17.550   1.685  1.00  0.00     0.060 A 
BRANCH  73  74
ATOM     74  S   UNL     1      -7.769  18.643   2.696  1.00  0.00     0.124 S 
ATOM     75  O   UNL     1      -7.152  19.491   1.682  1.00  0.00    -0.237 OA
ATOM     76  O   UNL     1      -8.768  19.283   3.545  1.00  0.00    -0.237 OA
ATOM     77  O   UNL     1      -6.868  17.723   3.385  1.00  0.00    -0.744 OA
ENDBRANCH  73  74
ENDBRANCH  52  66
BRANCH  53  78
ATOM     78  C   UNL     1      -4.032  13.754  -5.252  1.00  0.00     0.058 A 
ATOM     79  C   UNL     1      -3.163  14.750  -5.726  1.00  0.00     0.135 A 
ATOM     80  C   UNL     1      -3.454  12.755  -4.440  1.00  0.00     0.135 A 
ATOM     81  F   UNL     1      -3.635  15.745  -6.491  1.00  0.00    -0.206 F 
ATOM     82  C   UNL     1      -1.807  14.783  -5.378  1.00  0.00     0.059 A 
ATOM     83  C   UNL     1      -2.107  12.766  -4.081  1.00  0.00     0.059 A 
ATOM     84  F   UNL     1      -4.210  11.785  -3.902  1.00  0.00    -0.206 F 
ATOM     85  C   UNL     1      -1.292  13.797  -4.536  1.00  0.00     0.060 A 
BRANCH  85  86
ATOM     86  S   UNL     1       0.417  13.926  -3.956  1.00  0.00     0.124 S 
ATOM     87  O   UNL     1       1.170  13.696  -5.184  1.00  0.00    -0.237 OA
ATOM     88  O   UNL     1       0.461  15.284  -3.426  1.00  0.00    -0.237 OA
ATOM     89  O   UNL     1       0.517  12.864  -2.957  1.00  0.00    -0.744 OA
ENDBRANCH  85  86
ENDBRANCH  53  78
BRANCH  65  90
ATOM     90  C   UNL     1      -9.809  15.988  -6.928  1.00  0.00     0.058 A 
ATOM     91  C   UNL     1      -9.684  14.767  -7.611  1.00  0.00     0.135 A 
ATOM     92  C   UNL     1     -10.471  17.030  -7.593  1.00  0.00     0.135 A 
ATOM     93  F   UNL     1      -9.129  13.700  -7.019  1.00  0.00    -0.206 F 
ATOM     94  C   UNL     1     -10.177  14.600  -8.908  1.00  0.00     0.059 A 
ATOM     95  C   UNL     1     -10.994  16.879  -8.872  1.00  0.00     0.059 A 
ATOM     96  F   UNL     1     -10.659  18.209  -6.975  1.00  0.00    -0.206 F 
ATOM     97  C   UNL     1     -10.833  15.663  -9.530  1.00  0.00     0.060 A 
BRANCH  97  98
ATOM     98  S   UNL     1     -11.528  15.433 -11.181  1.00  0.00     0.124 S 
ATOM     99  O   UNL     1     -10.330  15.339 -12.008  1.00  0.00    -0.237 OA
ATOM    100  O   UNL     1     -12.295  14.200 -11.032  1.00  0.00    -0.237 OA
ATOM    101  O   UNL     1     -12.332  16.636 -11.384  1.00  0.00    -0.744 OA
ENDBRANCH  97  98
ENDBRANCH  65  90
ENDBRANCH  39  40
ENDBRANCH  31  34
ENDBRANCH  29  30
ENDBRANCH   1  29
TORSDOF 16
