REMARK SMILES O=C(NCCCCNC(=O)c1cccn1CC(=O)N1CC[C@H]2CCCC[C@H]2C1)c1ccc(-c2c3nc(c(-c4c(F)cc(S(=O)(=O)[O-])cc4F)c4ccc([nH]4)c(-c4c(F)cc(S(=O)(=O)[O-])cc4F)c4nc(c(-c5c(F)cc(S(=O)(=O)[O-])cc5F)c5ccc2[nH]5)C=C4)C=C3)cc1
REMARK SMILES IDX 5 1 4 2 3 3 1 4 2 5 29 7 30 8 94 9 31 10 93 11 32 12 33 13
REMARK SMILES IDX 34 14 87 15 35 16 92 17 86 18 88 19 36 20 91 21 85 22 84 23
REMARK SMILES IDX 37 25 71 26 50 27 70 28 51 29 54 30 69 31 89 32 52 33 53 34
REMARK SMILES IDX 68 36 90 37 55 38 38 39 39 40 48 41 40 42 41 43 47 44 49 45
REMARK SMILES IDX 42 46 43 47 44 48 45 49 46 50 72 51 73 52 82 53 74 54 75 55
REMARK SMILES IDX 81 56 83 57 76 58 77 59 78 60 79 61 80 62 56 63 57 64 66 65
REMARK SMILES IDX 58 66 59 67 65 68 67 69 60 70 61 71 62 72 63 73 64 74 6 75
REMARK SMILES IDX 7 76 8 77 9 78 10 80 11 81 12 82 15 83 13 84 14 85 16 86
REMARK SMILES IDX 17 87 18 88 19 89 20 90 28 91 21 92 27 93 22 94 26 95 23 96
REMARK SMILES IDX 25 97 24 98
REMARK H PARENT 3 6 88 24 54 35 8 79
REMARK Flexibility Score: inf
ROOT
ATOM      1  C   UNL     1       5.096  -1.607  -0.496  1.00  0.00     0.023 C 
ENDROOT
BRANCH   1   2
ATOM      2  C   UNL     1       4.538  -0.260  -0.937  1.00  0.00     0.116 C 
BRANCH   2   3
ATOM      3  N   UNL     1       3.094  -0.114  -0.925  1.00  0.00    -0.352 N 
ATOM      4  O   UNL     1       1.027   0.383  -0.297  1.00  0.00    -0.269 OA
ATOM      5  C   UNL     1       2.148   0.019   0.061  1.00  0.00     0.251 C 
ATOM      6  H   UNL     1       2.704  -0.108  -1.829  1.00  0.00     0.163 HD
BRANCH   5   7
ATOM      7  C   UNL     1       2.370  -0.344   1.486  1.00  0.00     0.039 A 
ATOM      8  C   UNL     1       3.617  -0.367   2.106  1.00  0.00     0.014 A 
ATOM      9  C   UNL     1       1.236  -0.703   2.239  1.00  0.00     0.014 A 
ATOM     10  C   UNL     1       3.758  -0.879   3.391  1.00  0.00     0.010 A 
ATOM     11  C   UNL     1       1.359  -1.163   3.553  1.00  0.00     0.010 A 
ATOM     12  C   UNL     1       2.629  -1.266   4.124  1.00  0.00    -0.014 A 
BRANCH  12  13
ATOM     13  C   UNL     1       2.822  -1.440   5.584  1.00  0.00     0.031 A 
ATOM     14  C   UNL     1       2.991  -0.038   6.246  1.00  0.00     0.074 A 
ATOM     15  C   UNL     1       2.915  -2.720   6.074  1.00  0.00     0.049 A 
ATOM     16  N   UNL     1       3.722   0.333   7.252  1.00  0.00    -0.248 NA
ATOM     17  C   UNL     1       2.342   1.154   5.615  1.00  0.00     0.031 C 
ATOM     18  C   UNL     1       2.678  -3.954   5.287  1.00  0.00     0.029 A 
ATOM     19  N   UNL     1       3.222  -3.264   7.312  1.00  0.00    -0.354 N 
ATOM     20  C   UNL     1       3.418   1.692   7.528  1.00  0.00     0.074 A 
ATOM     21  C   UNL     1       2.703   2.178   6.393  1.00  0.00     0.031 C 
ATOM     22  C   UNL     1       2.930  -5.066   6.021  1.00  0.00     0.029 A 
ATOM     23  C   UNL     1       3.333  -4.690   7.363  1.00  0.00     0.049 A 
ATOM     24  H   UNL     1       3.356  -2.702   8.109  1.00  0.00     0.167 HD
ATOM     25  C   UNL     1       3.620   2.267   8.754  1.00  0.00     0.037 A 
ATOM     26  C   UNL     1       3.750  -5.495   8.401  1.00  0.00     0.037 A 
ATOM     27  C   UNL     1       4.190   1.296   9.623  1.00  0.00     0.049 A 
ATOM     28  C   UNL     1       3.847  -4.583   9.545  1.00  0.00     0.074 A 
ATOM     29  C   UNL     1       5.420   0.696   9.655  1.00  0.00     0.029 A 
ATOM     30  N   UNL     1       3.296   0.561  10.366  1.00  0.00    -0.354 N 
ATOM     31  N   UNL     1       2.827  -4.085  10.176  1.00  0.00    -0.248 NA
ATOM     32  C   UNL     1       5.177  -4.139   9.981  1.00  0.00     0.031 C 
ATOM     33  C   UNL     1       5.101  -0.636   9.974  1.00  0.00     0.029 A 
ATOM     34  C   UNL     1       3.768  -0.721  10.399  1.00  0.00     0.049 A 
ATOM     35  H   UNL     1       2.473   0.895  10.792  1.00  0.00     0.167 HD
ATOM     36  C   UNL     1       3.390  -3.016  10.821  1.00  0.00     0.074 A 
ATOM     37  C   UNL     1       4.806  -3.299  10.943  1.00  0.00     0.031 C 
ATOM     38  C   UNL     1       2.833  -1.790  10.657  1.00  0.00     0.037 A 
BRANCH  25  39
ATOM     39  C   UNL     1       3.095   3.517   9.425  1.00  0.00     0.058 A 
ATOM     40  C   UNL     1       3.677   3.873  10.673  1.00  0.00     0.135 A 
ATOM     41  C   UNL     1       1.856   4.102   9.140  1.00  0.00     0.135 A 
ATOM     42  F   UNL     1       4.907   3.446  11.008  1.00  0.00    -0.206 F 
ATOM     43  C   UNL     1       2.986   4.579  11.650  1.00  0.00     0.059 A 
ATOM     44  C   UNL     1       1.166   4.865  10.090  1.00  0.00     0.059 A 
ATOM     45  F   UNL     1       1.240   3.890   7.971  1.00  0.00    -0.206 F 
ATOM     46  C   UNL     1       1.707   5.034  11.363  1.00  0.00     0.060 A 
BRANCH  46  47
ATOM     47  S   UNL     1       0.760   5.805  12.692  1.00  0.00     0.124 S 
ATOM     48  O   UNL     1       0.400   4.650  13.506  1.00  0.00    -0.237 OA
ATOM     49  O   UNL     1       1.739   6.713  13.283  1.00  0.00    -0.237 OA
ATOM     50  O   UNL     1      -0.338   6.455  11.985  1.00  0.00    -0.744 OA
ENDBRANCH  46  47
ENDBRANCH  25  39
BRANCH  26  51
ATOM     51  C   UNL     1       4.191  -6.928   8.707  1.00  0.00     0.058 A 
ATOM     52  C   UNL     1       4.228  -8.006   7.815  1.00  0.00     0.135 A 
ATOM     53  C   UNL     1       4.784  -7.224   9.978  1.00  0.00     0.135 A 
ATOM     54  F   UNL     1       3.587  -7.944   6.641  1.00  0.00    -0.206 F 
ATOM     55  C   UNL     1       4.947  -9.194   8.094  1.00  0.00     0.059 A 
ATOM     56  C   UNL     1       5.554  -8.352  10.251  1.00  0.00     0.059 A 
ATOM     57  F   UNL     1       4.674  -6.393  11.025  1.00  0.00    -0.206 F 
ATOM     58  C   UNL     1       5.666  -9.325   9.284  1.00  0.00     0.060 A 
BRANCH  58  59
ATOM     59  S   UNL     1       6.860 -10.663   9.527  1.00  0.00     0.124 S 
ATOM     60  O   UNL     1       6.012 -11.755   9.990  1.00  0.00    -0.237 OA
ATOM     61  O   UNL     1       7.429 -10.819   8.192  1.00  0.00    -0.237 OA
ATOM     62  O   UNL     1       7.780 -10.116  10.522  1.00  0.00    -0.744 OA
ENDBRANCH  58  59
ENDBRANCH  26  51
BRANCH  38  63
ATOM     63  C   UNL     1       1.335  -1.786  10.385  1.00  0.00     0.058 A 
ATOM     64  C   UNL     1       0.455  -2.355  11.321  1.00  0.00     0.135 A 
ATOM     65  C   UNL     1       0.738  -1.315   9.202  1.00  0.00     0.135 A 
ATOM     66  F   UNL     1       0.931  -2.823  12.486  1.00  0.00    -0.206 F 
ATOM     67  C   UNL     1      -0.923  -2.452  11.097  1.00  0.00     0.059 A 
ATOM     68  C   UNL     1      -0.638  -1.395   8.950  1.00  0.00     0.059 A 
ATOM     69  F   UNL     1       1.481  -0.759   8.246  1.00  0.00    -0.206 F 
ATOM     70  C   UNL     1      -1.465  -1.967   9.908  1.00  0.00     0.060 A 
BRANCH  70  71
ATOM     71  S   UNL     1      -3.253  -2.071   9.652  1.00  0.00     0.124 S 
ATOM     72  O   UNL     1      -3.499  -3.507   9.729  1.00  0.00    -0.237 OA
ATOM     73  O   UNL     1      -3.768  -1.283  10.768  1.00  0.00    -0.237 OA
ATOM     74  O   UNL     1      -3.450  -1.480   8.330  1.00  0.00    -0.744 OA
ENDBRANCH  70  71
ENDBRANCH  38  63
ENDBRANCH  12  13
ENDBRANCH   5   7
ENDBRANCH   2   3
ENDBRANCH   1   2
BRANCH   1  75
ATOM     75  C   UNL     1       4.544  -2.814  -1.232  1.00  0.00     0.023 C 
BRANCH  75  76
ATOM     76  C   UNL     1       4.940  -2.962  -2.699  1.00  0.00     0.116 C 
BRANCH  76  77
ATOM     77  N   UNL     1       6.363  -3.215  -2.869  1.00  0.00    -0.351 N 
ATOM     78  C   UNL     1       7.020  -4.245  -3.502  1.00  0.00     0.267 C 
ATOM     79  H   UNL     1       6.952  -2.538  -2.464  1.00  0.00     0.163 HD
ATOM     80  O   UNL     1       8.239  -4.301  -3.373  1.00  0.00    -0.268 OA
BRANCH  78  81
ATOM     81  C   UNL     1       6.269  -5.216  -4.279  1.00  0.00     0.107 A 
ATOM     82  C   UNL     1       5.287  -4.979  -5.232  1.00  0.00     0.033 A 
ATOM     83  N   UNL     1       6.472  -6.593  -4.264  1.00  0.00    -0.334 N 
ATOM     84  C   UNL     1       4.900  -6.212  -5.801  1.00  0.00     0.020 A 
ATOM     85  C   UNL     1       5.670  -7.187  -5.213  1.00  0.00     0.087 A 
BRANCH  83  86
ATOM     86  C   UNL     1       7.451  -7.318  -3.457  1.00  0.00     0.222 C 
BRANCH  86  87
ATOM     87  C   UNL     1       6.989  -8.436  -2.521  1.00  0.00     0.242 C 
ATOM     88  O   UNL     1       7.666  -9.471  -2.464  1.00  0.00    -0.273 OA
BRANCH  87  89
ATOM     89  N   UNL     1       6.004  -8.195  -1.579  1.00  0.00    -0.341 N 
ATOM     90  C   UNL     1       4.811  -7.409  -1.785  1.00  0.00     0.120 C 
ATOM     91  C   UNL     1       6.182  -8.620  -0.188  1.00  0.00     0.123 C 
ATOM     92  C   UNL     1       4.966  -6.104  -1.041  1.00  0.00     0.025 C 
ATOM     93  C   UNL     1       6.310  -7.365   0.713  1.00  0.00     0.012 C 
ATOM     94  C   UNL     1       5.210  -6.310   0.464  1.00  0.00    -0.005 C 
ATOM     95  C   UNL     1       6.378  -7.684   2.205  1.00  0.00     0.006 C 
ATOM     96  C   UNL     1       3.868  -6.544   1.172  1.00  0.00     0.004 C 
ATOM     97  C   UNL     1       5.071  -8.251   2.732  1.00  0.00     0.000 C 
ATOM     98  C   UNL     1       3.855  -7.381   2.445  1.00  0.00     0.000 C 
ENDBRANCH  87  89
ENDBRANCH  86  87
ENDBRANCH  83  86
ENDBRANCH  78  81
ENDBRANCH  76  77
ENDBRANCH  75  76
ENDBRANCH   1  75
TORSDOF 17
