REMARK SMILES COc1ccc(/C=C2\SC(=S)[NH+]=C2NCCCCNC(=O)c2ccc(-c3c4nc(c(-c5c(F)cc(S(=O)(=O)[O-])cc5F)c5ccc([nH]5)c(-c5c(F)cc(S(=O)(=O)[O-])cc5F)c5nc(c(-c6c(F)cc(S(=O)(=O)[O-])cc6F)c6ccc3[nH]6)C=C5)C=C4)cc2)c(C(=O)[O-])c1OC
REMARK SMILES IDX 17 1 16 2 15 3 14 4 7 5 8 6 9 7 13 8 10 9 12 10 11 11 6 14
REMARK SMILES IDX 3 15 4 16 92 17 5 18 88 19 2 20 1 21 93 22 94 23 89 24 90 25
REMARK SMILES IDX 91 26 18 27 19 28 20 29 21 31 22 32 23 33 87 34 24 35 86 36
REMARK SMILES IDX 25 37 26 38 27 39 80 40 28 41 85 42 79 43 81 44 29 45 84 46
REMARK SMILES IDX 78 47 77 48 30 50 64 51 43 52 63 53 44 54 47 55 62 56 82 57
REMARK SMILES IDX 45 58 46 59 61 61 83 62 48 63 31 64 32 65 41 66 33 67 34 68
REMARK SMILES IDX 40 69 42 70 35 71 36 72 37 73 38 74 39 75 65 76 66 77 75 78
REMARK SMILES IDX 67 79 68 80 74 81 76 82 69 83 70 84 71 85 72 86 73 87 49 88
REMARK SMILES IDX 50 89 59 90 51 91 52 92 58 93 60 94 53 95 54 96 55 97 56 98
REMARK SMILES IDX 57 99
REMARK H PARENT 12 12 14 13 19 30 81 49 47 60
REMARK Flexibility Score: inf
ROOT
ATOM      1  C   UNL     1       3.794   9.882  -4.362  1.00  0.00     0.025 C 
ENDROOT
BRANCH   1   2
ATOM      2  C   UNL     1       2.640   9.805  -5.363  1.00  0.00     0.048 C 
BRANCH   2   3
ATOM      3  C   UNL     1       2.698   8.613  -6.318  1.00  0.00     0.234 C 
BRANCH   3   4
ATOM      4  N   UNL     1       2.445   7.360  -5.615  1.00  0.00    -0.273 N 
ATOM      5  C   UNL     1       1.772   4.631  -4.240  1.00  0.00     0.033 C 
ATOM      6  C   UNL     1       0.970   5.306  -5.093  1.00  0.00     0.106 C 
ATOM      7  S   UNL     1      -0.615   4.870  -5.639  1.00  0.00    -0.027 SA
ATOM      8  C   UNL     1       1.315   6.601  -5.821  1.00  0.00     0.288 C 
ATOM      9  C   UNL     1      -0.636   6.165  -6.819  1.00  0.00     0.230 C 
ATOM     10  N   UNL     1       0.438   7.006  -6.709  1.00  0.00    -0.225 N 
ATOM     11  S   UNL     1      -1.853   6.295  -7.959  1.00  0.00    -0.026 S 
ATOM     12  H   UNL     1       0.541   7.828  -7.240  1.00  0.00     0.314 HD
ATOM     13  H   UNL     1       3.112   7.044  -4.964  1.00  0.00     0.305 HD
BRANCH   5  14
ATOM     14  C   UNL     1       1.576   3.339  -3.480  1.00  0.00    -0.011 A 
ATOM     15  C   UNL     1       1.067   0.950  -1.980  1.00  0.00     0.161 A 
ATOM     16  C   UNL     1       0.029   1.660  -2.569  1.00  0.00     0.051 A 
ATOM     17  C   UNL     1       2.388   1.369  -2.172  1.00  0.00     0.170 A 
ATOM     18  C   UNL     1       0.281   2.835  -3.276  1.00  0.00     0.013 A 
ATOM     19  C   UNL     1       2.637   2.584  -2.889  1.00  0.00     0.050 A 
BRANCH  15  20
ATOM     20  O   UNL     1       0.741  -0.209  -1.327  1.00  0.00    -0.493 OA
ATOM     21  C   UNL     1       0.023   0.044  -0.114  1.00  0.00     0.278 C 
ENDBRANCH  15  20
BRANCH  17  22
ATOM     22  O   UNL     1       3.488   0.621  -1.817  1.00  0.00    -0.492 OA
ATOM     23  C   UNL     1       3.402  -0.190  -0.652  1.00  0.00     0.278 C 
ENDBRANCH  17  22
BRANCH  19  24
ATOM     24  C   UNL     1       4.051   3.039  -3.026  1.00  0.00     0.076 C 
ATOM     25  O   UNL     1       4.558   3.533  -4.013  1.00  0.00    -0.545 OA
ATOM     26  O   UNL     1       4.740   2.928  -1.872  1.00  0.00    -0.545 OA
ENDBRANCH  19  24
ENDBRANCH   5  14
ENDBRANCH   3   4
ENDBRANCH   2   3
ENDBRANCH   1   2
BRANCH   1  27
ATOM     27  C   UNL     1       5.191   9.912  -4.974  1.00  0.00     0.116 C 
BRANCH  27  28
ATOM     28  N   UNL     1       5.419  11.067  -5.827  1.00  0.00    -0.352 N 
ATOM     29  C   UNL     1       6.489  11.930  -5.866  1.00  0.00     0.251 C 
ATOM     30  H   UNL     1       4.700  11.260  -6.472  1.00  0.00     0.163 HD
ATOM     31  O   UNL     1       6.431  12.931  -6.576  1.00  0.00    -0.269 OA
BRANCH  29  32
ATOM     32  C   UNL     1       7.689  11.683  -5.032  1.00  0.00     0.039 A 
ATOM     33  C   UNL     1       8.277  12.765  -4.372  1.00  0.00     0.014 A 
ATOM     34  C   UNL     1       8.239  10.405  -4.894  1.00  0.00     0.014 A 
ATOM     35  C   UNL     1       9.363  12.553  -3.519  1.00  0.00     0.010 A 
ATOM     36  C   UNL     1       9.270  10.183  -3.981  1.00  0.00     0.010 A 
ATOM     37  C   UNL     1       9.841  11.254  -3.278  1.00  0.00    -0.014 A 
BRANCH  37  38
ATOM     38  C   UNL     1      10.902  11.014  -2.262  1.00  0.00     0.031 A 
ATOM     39  C   UNL     1      12.238  10.440  -2.652  1.00  0.00     0.074 A 
ATOM     40  C   UNL     1      10.643  11.287  -0.966  1.00  0.00     0.049 A 
ATOM     41  N   UNL     1      13.279  10.190  -1.898  1.00  0.00    -0.248 NA
ATOM     42  C   UNL     1      12.424  10.080  -4.066  1.00  0.00     0.031 C 
ATOM     43  C   UNL     1       9.366  11.786  -0.449  1.00  0.00     0.029 A 
ATOM     44  N   UNL     1      11.434  11.188   0.151  1.00  0.00    -0.354 N 
ATOM     45  C   UNL     1      14.240   9.644  -2.742  1.00  0.00     0.074 A 
ATOM     46  C   UNL     1      13.636   9.543  -4.053  1.00  0.00     0.031 C 
ATOM     47  C   UNL     1       9.475  11.989   0.873  1.00  0.00     0.029 A 
ATOM     48  C   UNL     1      10.811  11.597   1.308  1.00  0.00     0.049 A 
ATOM     49  H   UNL     1      12.361  10.856   0.127  1.00  0.00     0.167 HD
ATOM     50  C   UNL     1      15.516   9.284  -2.456  1.00  0.00     0.037 A 
ATOM     51  C   UNL     1      11.261  11.651   2.577  1.00  0.00     0.037 A 
ATOM     52  C   UNL     1      16.113   9.392  -1.148  1.00  0.00     0.049 A 
ATOM     53  C   UNL     1      12.677  11.239   2.870  1.00  0.00     0.074 A 
ATOM     54  C   UNL     1      17.414   9.107  -0.770  1.00  0.00     0.029 A 
ATOM     55  N   UNL     1      15.449   9.807  -0.002  1.00  0.00    -0.354 N 
ATOM     56  N   UNL     1      13.597  10.802   2.043  1.00  0.00    -0.248 NA
ATOM     57  C   UNL     1      13.119  11.334   4.267  1.00  0.00     0.031 C 
ATOM     58  C   UNL     1      17.520   9.291   0.613  1.00  0.00     0.029 A 
ATOM     59  C   UNL     1      16.304   9.754   1.089  1.00  0.00     0.049 A 
ATOM     60  H   UNL     1      14.509  10.097   0.032  1.00  0.00     0.167 HD
ATOM     61  C   UNL     1      14.733  10.591   2.816  1.00  0.00     0.074 A 
ATOM     62  C   UNL     1      14.390  10.971   4.171  1.00  0.00     0.031 C 
ATOM     63  C   UNL     1      15.950  10.122   2.438  1.00  0.00     0.037 A 
BRANCH  50  64
ATOM     64  C   UNL     1      16.356   8.734  -3.580  1.00  0.00     0.058 A 
ATOM     65  C   UNL     1      16.776   9.539  -4.653  1.00  0.00     0.135 A 
ATOM     66  C   UNL     1      16.781   7.395  -3.567  1.00  0.00     0.135 A 
ATOM     67  F   UNL     1      16.392  10.823  -4.726  1.00  0.00    -0.206 F 
ATOM     68  C   UNL     1      17.557   9.029  -5.686  1.00  0.00     0.059 A 
ATOM     69  C   UNL     1      17.590   6.872  -4.573  1.00  0.00     0.059 A 
ATOM     70  F   UNL     1      16.413   6.579  -2.567  1.00  0.00    -0.206 F 
ATOM     71  C   UNL     1      17.960   7.694  -5.636  1.00  0.00     0.060 A 
BRANCH  71  72
ATOM     72  S   UNL     1      18.973   7.050  -6.984  1.00  0.00     0.124 S 
ATOM     73  O   UNL     1      18.008   7.005  -8.079  1.00  0.00    -0.237 OA
ATOM     74  O   UNL     1      20.016   8.065  -7.101  1.00  0.00    -0.237 OA
ATOM     75  O   UNL     1      19.418   5.752  -6.487  1.00  0.00    -0.744 OA
ENDBRANCH  71  72
ENDBRANCH  50  64
BRANCH  51  76
ATOM     76  C   UNL     1      10.364  12.137   3.661  1.00  0.00     0.058 A 
ATOM     77  C   UNL     1      10.600  13.363   4.302  1.00  0.00     0.135 A 
ATOM     78  C   UNL     1       9.242  11.396   4.063  1.00  0.00     0.135 A 
ATOM     79  F   UNL     1      11.664  14.105   3.959  1.00  0.00    -0.206 F 
ATOM     80  C   UNL     1       9.765  13.830   5.312  1.00  0.00     0.059 A 
ATOM     81  C   UNL     1       8.376  11.856   5.050  1.00  0.00     0.059 A 
ATOM     82  F   UNL     1       8.961  10.225   3.471  1.00  0.00    -0.206 F 
ATOM     83  C   UNL     1       8.651  13.071   5.675  1.00  0.00     0.060 A 
BRANCH  83  84
ATOM     84  S   UNL     1       7.542  13.714   6.947  1.00  0.00     0.124 S 
ATOM     85  O   UNL     1       8.353  13.562   8.149  1.00  0.00    -0.237 OA
ATOM     86  O   UNL     1       7.320  15.083   6.494  1.00  0.00    -0.237 OA
ATOM     87  O   UNL     1       6.380  12.835   6.854  1.00  0.00    -0.744 OA
ENDBRANCH  83  84
ENDBRANCH  51  76
BRANCH  63  88
ATOM     88  C   UNL     1      17.007  10.012   3.506  1.00  0.00     0.058 A 
ATOM     89  C   UNL     1      16.922   9.062   4.536  1.00  0.00     0.135 A 
ATOM     90  C   UNL     1      18.129  10.857   3.489  1.00  0.00     0.135 A 
ATOM     91  F   UNL     1      15.870   8.231   4.605  1.00  0.00    -0.206 F 
ATOM     92  C   UNL     1      17.890   8.980   5.533  1.00  0.00     0.059 A 
ATOM     93  C   UNL     1      19.126  10.770   4.455  1.00  0.00     0.059 A 
ATOM     94  F   UNL     1      18.269  11.777   2.520  1.00  0.00    -0.206 F 
ATOM     95  C   UNL     1      18.988   9.841   5.485  1.00  0.00     0.060 A 
BRANCH  95  96
ATOM     96  S   UNL     1      20.237   9.722   6.783  1.00  0.00     0.124 S 
ATOM     97  O   UNL     1      19.532  10.298   7.923  1.00  0.00    -0.237 OA
ATOM     98  O   UNL     1      20.481   8.284   6.848  1.00  0.00    -0.237 OA
ATOM     99  O   UNL     1      21.345  10.517   6.263  1.00  0.00    -0.744 OA
ENDBRANCH  95  96
ENDBRANCH  63  88
ENDBRANCH  37  38
ENDBRANCH  29  32
ENDBRANCH  27  28
ENDBRANCH   1  27
TORSDOF 17
