REMARK SMILES CS(=O)(=O)c1ccc(/C=C(/C(=O)NCCCCNC(=O)c2ccc(-c3c4nc(c(-c5c(F)cc(S(=O)(=O)[O-])cc5F)c5ccc([nH]5)c(-c5c(F)cc(S(=O)(=O)[O-])cc5F)c5nc(c(-c6c(F)cc(S(=O)(=O)[O-])cc6F)c6ccc3[nH]6)C=C5)C=C4)cc2)c2ccc(-c3ccc(F)cc3F)cc2)cc1
REMARK SMILES IDX 16 1 15 2 14 3 13 4 11 5 12 6 10 8 9 9 8 10 5 11 6 12 102 13
REMARK SMILES IDX 7 14 101 15 2 16 1 17 3 18 4 19 87 20 88 21 100 22 89 23
REMARK SMILES IDX 99 24 90 25 91 26 92 27 97 28 93 29 96 30 98 31 94 32 95 33
REMARK SMILES IDX 17 34 18 35 19 36 20 38 21 39 22 40 86 41 23 42 85 43 24 44
REMARK SMILES IDX 25 45 26 46 79 47 27 48 84 49 78 50 80 51 28 52 83 53 77 54
REMARK SMILES IDX 76 55 29 57 63 58 42 59 62 60 43 61 46 62 61 63 81 64 44 65
REMARK SMILES IDX 45 66 60 68 82 69 47 70 30 71 31 72 40 73 32 74 33 75 39 76
REMARK SMILES IDX 41 77 34 78 35 79 36 80 37 81 38 82 64 83 65 84 74 85 66 86
REMARK SMILES IDX 67 87 73 88 75 89 68 90 69 91 70 92 71 93 72 94 48 95 49 96
REMARK SMILES IDX 58 97 50 98 51 99 57 100 59 101 52 102 53 103 54 104 55 105
REMARK SMILES IDX 56 106
REMARK H PARENT 13 7 18 37 80 56 46 67
REMARK Flexibility Score: inf
ROOT
ATOM      1  C   UNL     1       2.049   9.359  -5.128  1.00  0.00     0.023 C 
ENDROOT
BRANCH   1   2
ATOM      2  C   UNL     1       1.711   7.936  -4.671  1.00  0.00     0.023 C 
BRANCH   2   3
ATOM      3  C   UNL     1       1.244   7.019  -5.804  1.00  0.00     0.116 C 
BRANCH   3   4
ATOM      4  N   UNL     1       2.368   6.665  -6.644  1.00  0.00    -0.352 N 
ATOM      5  C   UNL     1       3.192   5.588  -6.707  1.00  0.00     0.251 C 
ATOM      6  O   UNL     1       4.117   5.665  -7.519  1.00  0.00    -0.269 OA
ATOM      7  H   UNL     1       2.581   7.355  -7.314  1.00  0.00     0.163 HD
BRANCH   5   8
ATOM      8  C   UNL     1       2.974   4.315  -5.915  1.00  0.00     0.047 C 
ATOM      9  C   UNL     1       2.412   4.305  -4.684  1.00  0.00     0.022 C 
BRANCH   9  10
ATOM     10  C   UNL     1       1.980   3.168  -3.837  1.00  0.00    -0.025 A 
ATOM     11  C   UNL     1       0.901   1.030  -2.372  1.00  0.00     0.067 A 
ATOM     12  C   UNL     1       2.158   0.903  -2.963  1.00  0.00     0.021 A 
ATOM     13  C   UNL     1       0.188   2.223  -2.471  1.00  0.00     0.021 A 
ATOM     14  C   UNL     1       2.708   1.986  -3.656  1.00  0.00     0.009 A 
ATOM     15  C   UNL     1       0.731   3.285  -3.201  1.00  0.00     0.009 A 
BRANCH  11  16
ATOM     16  S   UNL     1       0.196  -0.354  -1.514  1.00  0.00     0.175 S 
ATOM     17  C   UNL     1       0.845  -0.171   0.125  1.00  0.00     0.163 C 
ATOM     18  O   UNL     1       0.754  -1.561  -2.090  1.00  0.00    -0.224 OA
ATOM     19  O   UNL     1      -1.241  -0.154  -1.453  1.00  0.00    -0.224 OA
ENDBRANCH  11  16
ENDBRANCH   9  10
BRANCH   8  20
ATOM     20  C   UNL     1       3.605   3.086  -6.459  1.00  0.00    -0.013 A 
ATOM     21  C   UNL     1       5.005   3.039  -6.489  1.00  0.00     0.009 A 
ATOM     22  C   UNL     1       2.886   1.944  -6.822  1.00  0.00     0.009 A 
ATOM     23  C   UNL     1       5.674   1.858  -6.798  1.00  0.00     0.009 A 
ATOM     24  C   UNL     1       3.564   0.747  -7.101  1.00  0.00     0.009 A 
ATOM     25  C   UNL     1       4.969   0.674  -7.059  1.00  0.00    -0.015 A 
BRANCH  25  26
ATOM     26  C   UNL     1       5.702  -0.595  -7.231  1.00  0.00     0.018 A 
ATOM     27  C   UNL     1       6.781  -0.911  -6.376  1.00  0.00     0.015 A 
ATOM     28  C   UNL     1       5.381  -1.526  -8.231  1.00  0.00     0.133 A 
ATOM     29  C   UNL     1       7.513  -2.090  -6.535  1.00  0.00     0.040 A 
ATOM     30  C   UNL     1       6.103  -2.706  -8.395  1.00  0.00     0.079 A 
ATOM     31  F   UNL     1       4.364  -1.293  -9.075  1.00  0.00    -0.206 F 
ATOM     32  C   UNL     1       7.167  -2.974  -7.547  1.00  0.00     0.126 A 
ATOM     33  F   UNL     1       7.872  -4.101  -7.704  1.00  0.00    -0.207 F 
ENDBRANCH  25  26
ENDBRANCH   8  20
ENDBRANCH   5   8
ENDBRANCH   3   4
ENDBRANCH   2   3
ENDBRANCH   1   2
BRANCH   1  34
ATOM     34  C   UNL     1       0.892  10.108  -5.776  1.00  0.00     0.116 C 
BRANCH  34  35
ATOM     35  N   UNL     1      -0.272  10.216  -4.907  1.00  0.00    -0.352 N 
ATOM     36  C   UNL     1      -1.141  11.277  -4.795  1.00  0.00     0.251 C 
ATOM     37  H   UNL     1      -0.459   9.439  -4.332  1.00  0.00     0.163 HD
ATOM     38  O   UNL     1      -2.009  11.291  -3.931  1.00  0.00    -0.269 OA
BRANCH  36  39
ATOM     39  C   UNL     1      -0.971  12.409  -5.724  1.00  0.00     0.039 A 
ATOM     40  C   UNL     1      -0.775  13.693  -5.211  1.00  0.00     0.014 A 
ATOM     41  C   UNL     1      -0.899  12.166  -7.098  1.00  0.00     0.014 A 
ATOM     42  C   UNL     1      -0.431  14.730  -6.079  1.00  0.00     0.010 A 
ATOM     43  C   UNL     1      -0.480  13.181  -7.946  1.00  0.00     0.010 A 
ATOM     44  C   UNL     1      -0.241  14.472  -7.446  1.00  0.00    -0.014 A 
BRANCH  44  45
ATOM     45  C   UNL     1       0.190  15.526  -8.399  1.00  0.00     0.031 A 
ATOM     46  C   UNL     1      -0.718  15.892  -9.540  1.00  0.00     0.074 A 
ATOM     47  C   UNL     1       1.422  16.064  -8.307  1.00  0.00     0.049 A 
ATOM     48  N   UNL     1      -0.472  16.632 -10.588  1.00  0.00    -0.248 NA
ATOM     49  C   UNL     1      -2.074  15.316  -9.514  1.00  0.00     0.031 C 
ATOM     50  C   UNL     1       2.401  15.770  -7.258  1.00  0.00     0.029 A 
ATOM     51  N   UNL     1       2.074  16.952  -9.127  1.00  0.00    -0.354 N 
ATOM     52  C   UNL     1      -1.628  16.587 -11.359  1.00  0.00     0.074 A 
ATOM     53  C   UNL     1      -2.556  15.707 -10.684  1.00  0.00     0.031 C 
ATOM     54  C   UNL     1       3.524  16.469  -7.495  1.00  0.00     0.029 A 
ATOM     55  C   UNL     1       3.367  17.217  -8.739  1.00  0.00     0.049 A 
ATOM     56  H   UNL     1       1.655  17.361  -9.918  1.00  0.00     0.167 HD
ATOM     57  C   UNL     1      -1.896  17.236 -12.515  1.00  0.00     0.037 A 
ATOM     58  C   UNL     1       4.325  17.957  -9.333  1.00  0.00     0.037 A 
ATOM     59  C   UNL     1      -0.974  18.130 -13.162  1.00  0.00     0.049 A 
ATOM     60  C   UNL     1       4.013  18.652 -10.634  1.00  0.00     0.074 A 
ATOM     61  C   UNL     1      -1.165  18.877 -14.311  1.00  0.00     0.029 A 
ATOM     62  N   UNL     1       0.314  18.397 -12.719  1.00  0.00    -0.354 N 
ATOM     63  N   UNL     1       2.900  18.636 -11.328  1.00  0.00    -0.248 NA
ATOM     64  C   UNL     1       5.081  19.465 -11.233  1.00  0.00     0.031 C 
ATOM     65  C   UNL     1       0.024  19.554 -14.592  1.00  0.00     0.029 A 
ATOM     66  C   UNL     1       0.934  19.283 -13.582  1.00  0.00     0.049 A 
ATOM     67  H   UNL     1       0.724  18.013 -11.911  1.00  0.00     0.167 HD
ATOM     68  C   UNL     1       3.119  19.470 -12.420  1.00  0.00     0.074 A 
ATOM     69  C   UNL     1       4.473  19.969 -12.299  1.00  0.00     0.031 C 
ATOM     70  C   UNL     1       2.272  19.798 -13.425  1.00  0.00     0.037 A 
BRANCH  57  71
ATOM     71  C   UNL     1      -3.236  17.002 -13.156  1.00  0.00     0.058 A 
ATOM     72  C   UNL     1      -4.426  17.468 -12.574  1.00  0.00     0.135 A 
ATOM     73  C   UNL     1      -3.329  16.332 -14.387  1.00  0.00     0.135 A 
ATOM     74  F   UNL     1      -4.398  18.100 -11.389  1.00  0.00    -0.206 F 
ATOM     75  C   UNL     1      -5.662  17.252 -13.173  1.00  0.00     0.059 A 
ATOM     76  C   UNL     1      -4.552  16.135 -15.021  1.00  0.00     0.059 A 
ATOM     77  F   UNL     1      -2.224  15.864 -14.988  1.00  0.00    -0.206 F 
ATOM     78  C   UNL     1      -5.715  16.585 -14.398  1.00  0.00     0.060 A 
BRANCH  78  79
ATOM     79  S   UNL     1      -7.327  16.320 -15.163  1.00  0.00     0.124 S 
ATOM     80  O   UNL     1      -7.903  15.306 -14.285  1.00  0.00    -0.237 OA
ATOM     81  O   UNL     1      -7.931  17.646 -15.082  1.00  0.00    -0.237 OA
ATOM     82  O   UNL     1      -6.995  15.867 -16.510  1.00  0.00    -0.744 OA
ENDBRANCH  78  79
ENDBRANCH  57  71
BRANCH  58  83
ATOM     83  C   UNL     1       5.668  18.087  -8.702  1.00  0.00     0.058 A 
ATOM     84  C   UNL     1       6.095  19.309  -8.161  1.00  0.00     0.135 A 
ATOM     85  C   UNL     1       6.547  16.995  -8.619  1.00  0.00     0.135 A 
ATOM     86  F   UNL     1       5.295  20.384  -8.221  1.00  0.00    -0.206 F 
ATOM     87  C   UNL     1       7.350  19.451  -7.577  1.00  0.00     0.059 A 
ATOM     88  C   UNL     1       7.796  17.105  -8.014  1.00  0.00     0.059 A 
ATOM     89  F   UNL     1       6.183  15.799  -9.106  1.00  0.00    -0.206 F 
ATOM     90  C   UNL     1       8.193  18.341  -7.506  1.00  0.00     0.060 A 
BRANCH  90  91
ATOM     91  S   UNL     1       9.802  18.528  -6.707  1.00  0.00     0.124 S 
ATOM     92  O   UNL     1      10.521  19.341  -7.680  1.00  0.00    -0.237 OA
ATOM     93  O   UNL     1       9.446  19.193  -5.457  1.00  0.00    -0.237 OA
ATOM     94  O   UNL     1      10.268  17.152  -6.565  1.00  0.00    -0.744 OA
ENDBRANCH  90  91
ENDBRANCH  58  83
BRANCH  70  95
ATOM     95  C   UNL     1       2.737  20.799 -14.448  1.00  0.00     0.058 A 
ATOM     96  C   UNL     1       3.656  20.463 -15.452  1.00  0.00     0.135 A 
ATOM     97  C   UNL     1       2.150  22.075 -14.492  1.00  0.00     0.135 A 
ATOM     98  F   UNL     1       4.252  19.261 -15.450  1.00  0.00    -0.206 F 
ATOM     99  C   UNL     1       3.971  21.357 -16.471  1.00  0.00     0.059 A 
ATOM    100  C   UNL     1       2.429  22.972 -15.516  1.00  0.00     0.059 A 
ATOM    101  F   UNL     1       1.258  22.441 -13.556  1.00  0.00    -0.206 F 
ATOM    102  C   UNL     1       3.341  22.603 -16.503  1.00  0.00     0.060 A 
BRANCH 102 103
ATOM    103  S   UNL     1       3.687  23.713 -17.885  1.00  0.00     0.124 S 
ATOM    104  O   UNL     1       5.053  24.133 -17.591  1.00  0.00    -0.237 OA
ATOM    105  O   UNL     1       3.528  22.831 -19.038  1.00  0.00    -0.237 OA
ATOM    106  O   UNL     1       2.668  24.751 -17.752  1.00  0.00    -0.744 OA
ENDBRANCH 102 103
ENDBRANCH  70  95
ENDBRANCH  44  45
ENDBRANCH  36  39
ENDBRANCH  34  35
ENDBRANCH   1  34
TORSDOF 18
