REMARK SMILES O=C(NCCCCNC(=O)c1cccc(OCC(F)F)c1)c1ccc(-c2c3nc(c(-c4c(F)cc(S(=O)(=O)[O-])cc4F)c4ccc([nH]4)c(-c4c(F)cc(S(=O)(=O)[O-])cc4F)c4nc(c(-c5c(F)cc(S(=O)(=O)[O-])cc5F)c5ccc2[nH]5)C=C4)C=C3)cc1
REMARK SMILES IDX 5 1 4 2 3 3 1 4 2 5 22 7 23 8 87 9 24 10 86 11 25 12 26 13
REMARK SMILES IDX 27 14 80 15 28 16 85 17 79 18 81 19 29 20 84 21 78 22 77 23
REMARK SMILES IDX 30 25 64 26 43 27 63 28 44 29 47 30 62 31 82 32 45 33 46 34
REMARK SMILES IDX 61 36 83 37 48 38 31 39 32 40 41 41 33 42 34 43 40 44 42 45
REMARK SMILES IDX 35 46 36 47 37 48 38 49 39 50 65 51 66 52 75 53 67 54 68 55
REMARK SMILES IDX 74 56 76 57 69 58 70 59 71 60 72 61 73 62 49 63 50 64 59 65
REMARK SMILES IDX 51 66 52 67 58 68 60 69 53 70 54 71 55 72 56 73 57 74 6 75
REMARK SMILES IDX 7 76 8 77 9 78 10 80 11 81 12 82 21 83 13 84 15 85 14 86
REMARK SMILES IDX 16 87 17 88 18 89 19 90 20 91
REMARK H PARENT 3 6 81 24 47 35 8 79
REMARK Flexibility Score: inf
ROOT
ATOM      1  C   UNL     1       5.100   2.569   0.165  1.00  0.00     0.023 C 
ENDROOT
BRANCH   1   2
ATOM      2  C   UNL     1       4.720   1.160   0.600  1.00  0.00     0.116 C 
BRANCH   2   3
ATOM      3  N   UNL     1       3.281   0.943   0.597  1.00  0.00    -0.352 N 
ATOM      4  O   UNL     1       1.315   0.132  -0.150  1.00  0.00    -0.269 OA
ATOM      5  C   UNL     1       2.541   0.053  -0.145  1.00  0.00     0.251 C 
ATOM      6  H   UNL     1       2.766   1.513   1.212  1.00  0.00     0.163 HD
BRANCH   5   7
ATOM      7  C   UNL     1       3.222  -0.987  -0.948  1.00  0.00     0.039 A 
ATOM      8  C   UNL     1       4.277  -1.726  -0.407  1.00  0.00     0.014 A 
ATOM      9  C   UNL     1       2.784  -1.243  -2.251  1.00  0.00     0.014 A 
ATOM     10  C   UNL     1       4.973  -2.628  -1.204  1.00  0.00     0.010 A 
ATOM     11  C   UNL     1       3.432  -2.212  -3.025  1.00  0.00     0.010 A 
ATOM     12  C   UNL     1       4.541  -2.901  -2.512  1.00  0.00    -0.014 A 
BRANCH  12  13
ATOM     13  C   UNL     1       5.187  -4.000  -3.274  1.00  0.00     0.031 A 
ATOM     14  C   UNL     1       5.968  -3.735  -4.530  1.00  0.00     0.074 A 
ATOM     15  C   UNL     1       5.049  -5.258  -2.807  1.00  0.00     0.049 A 
ATOM     16  N   UNL     1       6.573  -4.591  -5.312  1.00  0.00    -0.248 NA
ATOM     17  C   UNL     1       6.082  -2.336  -4.972  1.00  0.00     0.031 C 
ATOM     18  C   UNL     1       4.286  -5.632  -1.611  1.00  0.00     0.029 A 
ATOM     19  N   UNL     1       5.537  -6.451  -3.272  1.00  0.00    -0.354 N 
ATOM     20  C   UNL     1       7.120  -3.845  -6.349  1.00  0.00     0.074 A 
ATOM     21  C   UNL     1       6.769  -2.463  -6.103  1.00  0.00     0.031 C 
ATOM     22  C   UNL     1       4.375  -6.956  -1.426  1.00  0.00     0.029 A 
ATOM     23  C   UNL     1       5.147  -7.534  -2.519  1.00  0.00     0.049 A 
ATOM     24  H   UNL     1       6.112  -6.526  -4.067  1.00  0.00     0.167 HD
ATOM     25  C   UNL     1       7.849  -4.281  -7.404  1.00  0.00     0.037 A 
ATOM     26  C   UNL     1       5.352  -8.851  -2.705  1.00  0.00     0.037 A 
ATOM     27  C   UNL     1       8.217  -5.658  -7.619  1.00  0.00     0.049 A 
ATOM     28  C   UNL     1       6.148  -9.301  -3.895  1.00  0.00     0.074 A 
ATOM     29  C   UNL     1       9.034  -6.184  -8.606  1.00  0.00     0.029 A 
ATOM     30  N   UNL     1       7.785  -6.727  -6.849  1.00  0.00    -0.354 N 
ATOM     31  N   UNL     1       6.722  -8.572  -4.821  1.00  0.00    -0.248 NA
ATOM     32  C   UNL     1       6.314 -10.749  -4.074  1.00  0.00     0.031 C 
ATOM     33  C   UNL     1       9.053  -7.575  -8.465  1.00  0.00     0.029 A 
ATOM     34  C   UNL     1       8.282  -7.914  -7.364  1.00  0.00     0.049 A 
ATOM     35  H   UNL     1       7.210  -6.654  -6.053  1.00  0.00     0.167 HD
ATOM     36  C   UNL     1       7.317  -9.472  -5.695  1.00  0.00     0.074 A 
ATOM     37  C   UNL     1       7.059 -10.798  -5.170  1.00  0.00     0.031 C 
ATOM     38  C   UNL     1       8.005  -9.225  -6.835  1.00  0.00     0.037 A 
BRANCH  25  39
ATOM     39  C   UNL     1       8.302  -3.278  -8.428  1.00  0.00     0.058 A 
ATOM     40  C   UNL     1       9.380  -2.413  -8.188  1.00  0.00     0.135 A 
ATOM     41  C   UNL     1       7.726  -3.268  -9.710  1.00  0.00     0.135 A 
ATOM     42  F   UNL     1       9.959  -2.374  -6.978  1.00  0.00    -0.206 F 
ATOM     43  C   UNL     1       9.874  -1.575  -9.184  1.00  0.00     0.059 A 
ATOM     44  C   UNL     1       8.215  -2.452 -10.726  1.00  0.00     0.059 A 
ATOM     45  F   UNL     1       6.692  -4.076  -9.991  1.00  0.00    -0.206 F 
ATOM     46  C   UNL     1       9.290  -1.607 -10.452  1.00  0.00     0.060 A 
BRANCH  46  47
ATOM     47  S   UNL     1       9.980  -0.555 -11.748  1.00  0.00     0.124 S 
ATOM     48  O   UNL     1       9.530   0.766 -11.322  1.00  0.00    -0.237 OA
ATOM     49  O   UNL     1      11.412  -0.806 -11.624  1.00  0.00    -0.237 OA
ATOM     50  O   UNL     1       9.361  -1.065 -12.968  1.00  0.00    -0.744 OA
ENDBRANCH  46  47
ENDBRANCH  25  39
BRANCH  26  51
ATOM     51  C   UNL     1       4.749  -9.834  -1.769  1.00  0.00     0.058 A 
ATOM     52  C   UNL     1       5.543 -10.600  -0.905  1.00  0.00     0.135 A 
ATOM     53  C   UNL     1       3.358 -10.025  -1.724  1.00  0.00     0.135 A 
ATOM     54  F   UNL     1       6.877 -10.455  -0.914  1.00  0.00    -0.206 F 
ATOM     55  C   UNL     1       4.983 -11.538  -0.044  1.00  0.00     0.059 A 
ATOM     56  C   UNL     1       2.773 -10.935  -0.852  1.00  0.00     0.059 A 
ATOM     57  F   UNL     1       2.553  -9.301  -2.518  1.00  0.00    -0.206 F 
ATOM     58  C   UNL     1       3.596 -11.700  -0.028  1.00  0.00     0.060 A 
BRANCH  58  59
ATOM     59  S   UNL     1       2.871 -12.903   1.107  1.00  0.00     0.124 S 
ATOM     60  O   UNL     1       3.133 -14.156   0.409  1.00  0.00    -0.237 OA
ATOM     61  O   UNL     1       3.639 -12.680   2.328  1.00  0.00    -0.237 OA
ATOM     62  O   UNL     1       1.471 -12.496   1.174  1.00  0.00    -0.744 OA
ENDBRANCH  58  59
ENDBRANCH  26  51
BRANCH  38  63
ATOM     63  C   UNL     1       8.521 -10.413  -7.594  1.00  0.00     0.058 A 
ATOM     64  C   UNL     1       7.658 -11.224  -8.347  1.00  0.00     0.135 A 
ATOM     65  C   UNL     1       9.890 -10.720  -7.603  1.00  0.00     0.135 A 
ATOM     66  F   UNL     1       6.338 -10.978  -8.359  1.00  0.00    -0.206 F 
ATOM     67  C   UNL     1       8.133 -12.310  -9.072  1.00  0.00     0.059 A 
ATOM     68  C   UNL     1      10.391 -11.787  -8.341  1.00  0.00     0.059 A 
ATOM     69  F   UNL     1      10.756  -9.970  -6.902  1.00  0.00    -0.206 F 
ATOM     70  C   UNL     1       9.503 -12.582  -9.065  1.00  0.00     0.060 A 
BRANCH  70  71
ATOM     71  S   UNL     1      10.113 -13.972 -10.042  1.00  0.00     0.124 S 
ATOM     72  O   UNL     1       9.704 -15.108  -9.224  1.00  0.00    -0.237 OA
ATOM     73  O   UNL     1       9.397 -13.807 -11.303  1.00  0.00    -0.237 OA
ATOM     74  O   UNL     1      11.552 -13.732 -10.110  1.00  0.00    -0.744 OA
ENDBRANCH  70  71
ENDBRANCH  38  63
ENDBRANCH  12  13
ENDBRANCH   5   7
ENDBRANCH   2   3
ENDBRANCH   1   2
BRANCH   1  75
ATOM     75  C   UNL     1       4.656   3.680   1.112  1.00  0.00     0.023 C 
BRANCH  75  76
ATOM     76  C   UNL     1       5.093   3.515   2.564  1.00  0.00     0.116 C 
BRANCH  76  77
ATOM     77  N   UNL     1       6.535   3.435   2.730  1.00  0.00    -0.352 N 
ATOM     78  C   UNL     1       7.325   4.057   3.666  1.00  0.00     0.251 C 
ATOM     79  H   UNL     1       7.008   2.859   2.086  1.00  0.00     0.163 HD
ATOM     80  O   UNL     1       8.547   3.960   3.622  1.00  0.00    -0.269 OA
BRANCH  78  81
ATOM     81  C   UNL     1       6.695   4.878   4.719  1.00  0.00     0.043 A 
ATOM     82  C   UNL     1       7.131   6.193   4.888  1.00  0.00     0.014 A 
ATOM     83  C   UNL     1       5.672   4.351   5.521  1.00  0.00     0.060 A 
ATOM     84  C   UNL     1       6.499   7.005   5.826  1.00  0.00     0.005 A 
ATOM     85  C   UNL     1       5.015   5.171   6.433  1.00  0.00     0.120 A 
ATOM     86  C   UNL     1       5.440   6.497   6.584  1.00  0.00     0.046 A 
BRANCH  85  87
ATOM     87  O   UNL     1       3.956   4.817   7.221  1.00  0.00    -0.488 OA
BRANCH  87  88
ATOM     88  C   UNL     1       3.352   3.532   7.028  1.00  0.00     0.302 C 
BRANCH  88  89
ATOM     89  C   UNL     1       2.336   3.526   5.894  1.00  0.00     0.379 C 
ATOM     90  F   UNL     1       2.961   3.425   4.693  1.00  0.00    -0.207 F 
ATOM     91  F   UNL     1       1.548   2.425   6.000  1.00  0.00    -0.207 F 
ENDBRANCH  88  89
ENDBRANCH  87  88
ENDBRANCH  85  87
ENDBRANCH  78  81
ENDBRANCH  76  77
ENDBRANCH  75  76
ENDBRANCH   1  75
TORSDOF 17
