REMARK SMILES O=C(Cc1ccc(NC(=O)Nc2ccc(Br)cc2)cc1)NCCCCNC(=O)c1ccc(-c2c3nc(c(-c4c(F)cc(S(=O)(=O)[O-])cc4F)c4ccc([nH]4)c(-c4c(F)cc(S(=O)(=O)[O-])cc4F)c4nc(c(-c5c(F)cc(S(=O)(=O)[O-])cc5F)c5ccc2[nH]5)C=C4)C=C3)cc1
REMARK SMILES IDX 23 1 22 2 21 3 1 4 2 5 3 7 4 8 5 9 20 10 6 11 19 12 7 13
REMARK SMILES IDX 8 14 9 15 10 17 11 18 12 20 13 21 18 22 14 23 17 24 15 25
REMARK SMILES IDX 16 26 24 27 25 28 26 29 27 30 28 32 29 33 30 34 94 35 31 36
REMARK SMILES IDX 93 37 32 38 33 39 34 40 87 41 35 42 92 43 86 44 88 45 36 46
REMARK SMILES IDX 91 47 85 48 84 49 37 51 71 52 50 53 70 54 51 55 54 56 69 57
REMARK SMILES IDX 89 58 52 59 53 60 68 62 90 63 55 64 38 65 39 66 48 67 40 68
REMARK SMILES IDX 41 69 47 70 49 71 42 72 43 73 44 74 45 75 46 76 72 77 73 78
REMARK SMILES IDX 82 79 74 80 75 81 81 82 83 83 76 84 77 85 78 86 79 87 80 88
REMARK SMILES IDX 56 89 57 90 66 91 58 92 59 93 65 94 67 95 60 96 61 97 62 98
REMARK SMILES IDX 63 99 64 100
REMARK H PARENT 21 6 8 16 11 19 26 31 88 50 54 61
REMARK Flexibility Score: inf
ROOT
ATOM      1  C   UNL     1       2.470  -0.411   3.636  1.00  0.00     0.023 C 
ENDROOT
BRANCH   1   2
ATOM      2  C   UNL     1       1.935   0.571   2.599  1.00  0.00     0.116 C 
BRANCH   2   3
ATOM      3  N   UNL     1       2.559   0.380   1.312  1.00  0.00    -0.356 N 
ATOM      4  O   UNL     1       0.647  -0.106   0.131  1.00  0.00    -0.275 OA
ATOM      5  C   UNL     1       1.858   0.093   0.163  1.00  0.00     0.224 C 
ATOM      6  H   UNL     1       3.539   0.459   1.253  1.00  0.00     0.163 HD
BRANCH   5   7
ATOM      7  C   UNL     1       2.725  -0.028  -1.073  1.00  0.00     0.135 C 
BRANCH   7   8
ATOM      8  C   UNL     1       3.642   1.152  -1.291  1.00  0.00    -0.039 A 
ATOM      9  C   UNL     1       4.973   1.105  -0.862  1.00  0.00     0.006 A 
ATOM     10  C   UNL     1       3.179   2.307  -1.931  1.00  0.00     0.006 A 
ATOM     11  C   UNL     1       5.853   2.135  -1.193  1.00  0.00     0.026 A 
ATOM     12  C   UNL     1       4.076   3.313  -2.300  1.00  0.00     0.026 A 
ATOM     13  C   UNL     1       5.439   3.159  -2.040  1.00  0.00     0.042 A 
BRANCH  13  14
ATOM     14  N   UNL     1       6.330   4.004  -2.724  1.00  0.00    -0.308 N 
ATOM     15  C   UNL     1       7.639   3.867  -3.067  1.00  0.00     0.323 C 
ATOM     16  H   UNL     1       5.931   4.857  -3.010  1.00  0.00     0.171 HD
ATOM     17  O   UNL     1       8.269   4.885  -3.367  1.00  0.00    -0.248 OA
ATOM     18  N   UNL     1       8.286   2.673  -3.081  1.00  0.00    -0.308 N 
ATOM     19  H   UNL     1       9.256   2.737  -2.926  1.00  0.00     0.171 HD
BRANCH  18  20
ATOM     20  C   UNL     1       7.818   1.361  -3.276  1.00  0.00     0.042 A 
ATOM     21  C   UNL     1       8.504   0.331  -2.624  1.00  0.00     0.027 A 
ATOM     22  C   UNL     1       6.666   1.064  -4.012  1.00  0.00     0.027 A 
ATOM     23  C   UNL     1       7.955  -0.954  -2.574  1.00  0.00     0.018 A 
ATOM     24  C   UNL     1       6.129  -0.227  -3.984  1.00  0.00     0.018 A 
ATOM     25  C   UNL     1       6.756  -1.219  -3.233  1.00  0.00     0.018 A 
ATOM     26  Br  UNL     1       5.942  -2.916  -3.055  1.00  0.00    -0.051 Br
ENDBRANCH  18  20
ENDBRANCH  13  14
ENDBRANCH   7   8
ENDBRANCH   5   7
ENDBRANCH   2   3
ENDBRANCH   1   2
BRANCH   1  27
ATOM     27  C   UNL     1       3.986  -0.362   3.863  1.00  0.00     0.023 C 
BRANCH  27  28
ATOM     28  C   UNL     1       4.559   1.009   4.211  1.00  0.00     0.116 C 
BRANCH  28  29
ATOM     29  N   UNL     1       3.983   1.569   5.422  1.00  0.00    -0.352 N 
ATOM     30  C   UNL     1       4.599   2.018   6.564  1.00  0.00     0.251 C 
ATOM     31  H   UNL     1       3.000   1.636   5.424  1.00  0.00     0.163 HD
ATOM     32  O   UNL     1       3.914   2.307   7.546  1.00  0.00    -0.269 OA
BRANCH  30  33
ATOM     33  C   UNL     1       6.073   2.130   6.634  1.00  0.00     0.039 A 
ATOM     34  C   UNL     1       6.727   1.689   7.787  1.00  0.00     0.014 A 
ATOM     35  C   UNL     1       6.811   2.678   5.581  1.00  0.00     0.014 A 
ATOM     36  C   UNL     1       8.122   1.733   7.856  1.00  0.00     0.010 A 
ATOM     37  C   UNL     1       8.205   2.651   5.621  1.00  0.00     0.010 A 
ATOM     38  C   UNL     1       8.877   2.176   6.758  1.00  0.00    -0.014 A 
BRANCH  38  39
ATOM     39  C   UNL     1      10.364   2.135   6.778  1.00  0.00     0.031 A 
ATOM     40  C   UNL     1      11.165   3.406   6.670  1.00  0.00     0.074 A 
ATOM     41  C   UNL     1      10.998   0.946   6.832  1.00  0.00     0.049 A 
ATOM     42  N   UNL     1      12.462   3.562   6.601  1.00  0.00    -0.248 NA
ATOM     43  C   UNL     1      10.406   4.666   6.608  1.00  0.00     0.031 C 
ATOM     44  C   UNL     1      10.338  -0.360   6.894  1.00  0.00     0.029 A 
ATOM     45  N   UNL     1      12.336   0.639   6.832  1.00  0.00    -0.354 N 
ATOM     46  C   UNL     1      12.676   4.931   6.481  1.00  0.00     0.074 A 
ATOM     47  C   UNL     1      11.372   5.556   6.428  1.00  0.00     0.031 C 
ATOM     48  C   UNL     1      11.271  -1.324   6.948  1.00  0.00     0.029 A 
ATOM     49  C   UNL     1      12.594  -0.712   6.878  1.00  0.00     0.049 A 
ATOM     50  H   UNL     1      13.045   1.322   6.801  1.00  0.00     0.167 HD
ATOM     51  C   UNL     1      13.850   5.607   6.445  1.00  0.00     0.037 A 
ATOM     52  C   UNL     1      13.762  -1.385   6.855  1.00  0.00     0.037 A 
ATOM     53  C   UNL     1      15.145   4.980   6.512  1.00  0.00     0.049 A 
ATOM     54  C   UNL     1      15.053  -0.614   6.793  1.00  0.00     0.074 A 
ATOM     55  C   UNL     1      16.392   5.582   6.527  1.00  0.00     0.029 A 
ATOM     56  N   UNL     1      15.364   3.611   6.572  1.00  0.00    -0.354 N 
ATOM     57  N   UNL     1      15.236   0.684   6.737  1.00  0.00    -0.248 NA
ATOM     58  C   UNL     1      16.297  -1.396   6.798  1.00  0.00     0.031 C 
ATOM     59  C   UNL     1      17.364   4.577   6.541  1.00  0.00     0.029 A 
ATOM     60  C   UNL     1      16.725   3.349   6.598  1.00  0.00     0.049 A 
ATOM     61  H   UNL     1      14.657   2.926   6.592  1.00  0.00     0.167 HD
ATOM     62  C   UNL     1      16.613   0.875   6.730  1.00  0.00     0.074 A 
ATOM     63  C   UNL     1      17.216  -0.440   6.800  1.00  0.00     0.031 C 
ATOM     64  C   UNL     1      17.315   2.034   6.673  1.00  0.00     0.037 A 
BRANCH  51  65
ATOM     65  C   UNL     1      13.789   7.107   6.329  1.00  0.00     0.058 A 
ATOM     66  C   UNL     1      13.317   7.910   7.382  1.00  0.00     0.135 A 
ATOM     67  C   UNL     1      14.244   7.756   5.169  1.00  0.00     0.135 A 
ATOM     68  F   UNL     1      12.857   7.344   8.509  1.00  0.00    -0.206 F 
ATOM     69  C   UNL     1      13.269   9.296   7.277  1.00  0.00     0.059 A 
ATOM     70  C   UNL     1      14.236   9.143   5.055  1.00  0.00     0.059 A 
ATOM     71  F   UNL     1      14.707   7.040   4.132  1.00  0.00    -0.206 F 
ATOM     72  C   UNL     1      13.732   9.904   6.109  1.00  0.00     0.060 A 
BRANCH  72  73
ATOM     73  S   UNL     1      13.667  11.704   5.993  1.00  0.00     0.124 S 
ATOM     74  O   UNL     1      12.231  11.935   5.863  1.00  0.00    -0.237 OA
ATOM     75  O   UNL     1      14.263  12.119   7.259  1.00  0.00    -0.237 OA
ATOM     76  O   UNL     1      14.459  11.998   4.803  1.00  0.00    -0.744 OA
ENDBRANCH  72  73
ENDBRANCH  51  65
BRANCH  52  77
ATOM     77  C   UNL     1      13.762  -2.872   6.902  1.00  0.00     0.058 A 
ATOM     78  C   UNL     1      14.230  -3.562   8.030  1.00  0.00     0.135 A 
ATOM     79  C   UNL     1      13.281  -3.634   5.825  1.00  0.00     0.135 A 
ATOM     80  F   UNL     1      14.707  -2.880   9.082  1.00  0.00    -0.206 F 
ATOM     81  C   UNL     1      14.237  -4.952   8.085  1.00  0.00     0.059 A 
ATOM     82  C   UNL     1      13.251  -5.024   5.867  1.00  0.00     0.059 A 
ATOM     83  F   UNL     1      12.807  -3.024   4.727  1.00  0.00    -0.206 F 
ATOM     84  C   UNL     1      13.741  -5.675   6.998  1.00  0.00     0.060 A 
BRANCH  84  85
ATOM     85  S   UNL     1      13.707  -7.478   7.100  1.00  0.00     0.124 S 
ATOM     86  O   UNL     1      15.123  -7.805   6.989  1.00  0.00    -0.237 OA
ATOM     87  O   UNL     1      13.101  -7.698   8.410  1.00  0.00    -0.237 OA
ATOM     88  O   UNL     1      12.878  -7.862   5.962  1.00  0.00    -0.744 OA
ENDBRANCH  84  85
ENDBRANCH  52  77
BRANCH  64  89
ATOM     89  C   UNL     1      18.817   1.942   6.721  1.00  0.00     0.058 A 
ATOM     90  C   UNL     1      19.564   1.448   5.641  1.00  0.00     0.135 A 
ATOM     91  C   UNL     1      19.520   2.407   7.845  1.00  0.00     0.135 A 
ATOM     92  F   UNL     1      18.944   0.985   4.545  1.00  0.00    -0.206 F 
ATOM     93  C   UNL     1      20.954   1.394   5.684  1.00  0.00     0.059 A 
ATOM     94  C   UNL     1      20.910   2.392   7.897  1.00  0.00     0.059 A 
ATOM     95  F   UNL     1      18.855   2.900   8.903  1.00  0.00    -0.206 F 
ATOM     96  C   UNL     1      21.619   1.872   6.815  1.00  0.00     0.060 A 
BRANCH  96  97
ATOM     97  S   UNL     1      23.423   1.827   6.841  1.00  0.00     0.124 S 
ATOM     98  O   UNL     1      23.680   0.400   6.997  1.00  0.00    -0.237 OA
ATOM     99  O   UNL     1      23.767   2.395   5.541  1.00  0.00    -0.237 OA
ATOM    100  O   UNL     1      23.768   2.657   7.992  1.00  0.00    -0.744 OA
ENDBRANCH  96  97
ENDBRANCH  64  89
ENDBRANCH  38  39
ENDBRANCH  30  33
ENDBRANCH  28  29
ENDBRANCH  27  28
ENDBRANCH   1  27
TORSDOF 17
