REMARK SMILES C[C@@H](C(=O)NCCCCNC(=O)c1ccc(-c2c3nc(c(-c4c(F)cc(S(=O)(=O)[O-])cc4F)c4ccc([nH]4)c(-c4c(F)cc(S(=O)(=O)[O-])cc4F)c4nc(c(-c5c(F)cc(S(=O)(=O)[O-])cc5F)c5ccc2[nH]5)C=C4)C=C3)cc1)c1ccc(N[C@H]2CCC[C@@H]2O)cc1F
REMARK SMILES IDX 7 1 6 2 5 3 3 4 4 5 2 7 1 8 79 9 80 10 91 11 81 12 90 13
REMARK SMILES IDX 92 14 82 15 83 16 84 18 85 19 88 20 86 21 87 22 89 23 8 25
REMARK SMILES IDX 9 26 10 27 11 28 12 30 13 31 14 32 78 33 15 34 77 35 16 36
REMARK SMILES IDX 17 37 18 38 71 39 19 40 76 41 70 42 72 43 20 44 75 45 69 46
REMARK SMILES IDX 68 47 21 49 55 50 34 51 54 52 35 53 38 54 53 55 73 56 36 57
REMARK SMILES IDX 37 58 52 60 74 61 39 62 22 63 23 64 32 65 24 66 25 67 31 68
REMARK SMILES IDX 33 69 26 70 27 71 28 72 29 73 30 74 56 75 57 76 66 77 58 78
REMARK SMILES IDX 59 79 65 80 67 81 60 82 61 83 62 84 63 85 64 86 40 87 41 88
REMARK SMILES IDX 50 89 42 90 43 91 49 92 51 93 44 94 45 95 46 96 47 97 48 98
REMARK H PARENT 5 6 83 17 89 24 10 29 72 48 38 59
REMARK Flexibility Score: inf
ROOT
ATOM      1  C   UNL     1       4.196   0.651   0.953  1.00  0.00     0.023 C 
ENDROOT
BRANCH   1   2
ATOM      2  C   UNL     1       3.497  -0.448   1.754  1.00  0.00     0.116 C 
BRANCH   2   3
ATOM      3  N   UNL     1       2.472   0.114   2.601  1.00  0.00    -0.356 N 
ATOM      4  C   UNL     1       1.124   0.165   2.430  1.00  0.00     0.227 C 
ATOM      5  O   UNL     1       0.499   0.793   3.288  1.00  0.00    -0.274 OA
ATOM      6  H   UNL     1       2.801   0.526   3.433  1.00  0.00     0.163 HD
BRANCH   4   7
ATOM      7  C   UNL     1       0.450  -0.575   1.255  1.00  0.00     0.108 C 
ATOM      8  C   UNL     1       0.815  -0.015  -0.125  1.00  0.00     0.023 C 
BRANCH   7   9
ATOM      9  C   UNL     1      -1.064  -0.547   1.373  1.00  0.00     0.000 A 
ATOM     10  C   UNL     1      -1.741   0.672   1.464  1.00  0.00     0.009 A 
ATOM     11  C   UNL     1      -1.824  -1.713   1.364  1.00  0.00     0.129 A 
ATOM     12  C   UNL     1      -3.128   0.710   1.569  1.00  0.00     0.026 A 
ATOM     13  C   UNL     1      -3.218  -1.669   1.436  1.00  0.00     0.065 A 
ATOM     14  F   UNL     1      -1.221  -2.907   1.261  1.00  0.00    -0.207 F 
ATOM     15  C   UNL     1      -3.902  -0.450   1.542  1.00  0.00     0.037 A 
BRANCH  15  16
ATOM     16  N   UNL     1      -5.282  -0.448   1.557  1.00  0.00    -0.380 N 
ATOM     17  H   UNL     1      -5.715  -1.331   1.510  1.00  0.00     0.160 HD
BRANCH  16  18
ATOM     18  C   UNL     1      -6.178   0.703   1.633  1.00  0.00     0.107 C 
ATOM     19  C   UNL     1      -6.046   1.522   2.922  1.00  0.00     0.027 C 
ATOM     20  C   UNL     1      -6.041   1.703   0.471  1.00  0.00     0.136 C 
ATOM     21  C   UNL     1      -6.096   2.989   2.487  1.00  0.00     0.005 C 
ATOM     22  C   UNL     1      -6.627   2.978   1.059  1.00  0.00     0.034 C 
BRANCH  20  23
ATOM     23  O   UNL     1      -6.758   1.278  -0.680  1.00  0.00    -0.391 OA
ATOM     24  H   UNL     1      -7.692   1.151  -0.451  1.00  0.00     0.211 HD
ENDBRANCH  20  23
ENDBRANCH  16  18
ENDBRANCH  15  16
ENDBRANCH   7   9
ENDBRANCH   4   7
ENDBRANCH   2   3
ENDBRANCH   1   2
BRANCH   1  25
ATOM     25  C   UNL     1       4.949   1.677   1.806  1.00  0.00     0.023 C 
BRANCH  25  26
ATOM     26  C   UNL     1       5.946   1.084   2.791  1.00  0.00     0.116 C 
BRANCH  26  27
ATOM     27  N   UNL     1       6.927   0.231   2.142  1.00  0.00    -0.352 N 
ATOM     28  C   UNL     1       8.275   0.140   2.367  1.00  0.00     0.251 C 
ATOM     29  H   UNL     1       6.573  -0.365   1.442  1.00  0.00     0.163 HD
ATOM     30  O   UNL     1       8.973  -0.525   1.604  1.00  0.00    -0.269 OA
BRANCH  28  31
ATOM     31  C   UNL     1       8.886   0.858   3.506  1.00  0.00     0.039 A 
ATOM     32  C   UNL     1      10.110   1.503   3.314  1.00  0.00     0.014 A 
ATOM     33  C   UNL     1       8.269   0.882   4.760  1.00  0.00     0.014 A 
ATOM     34  C   UNL     1      10.700   2.193   4.373  1.00  0.00     0.010 A 
ATOM     35  C   UNL     1       8.815   1.644   5.788  1.00  0.00     0.010 A 
ATOM     36  C   UNL     1      10.050   2.284   5.615  1.00  0.00    -0.014 A 
BRANCH  36  37
ATOM     37  C   UNL     1      10.679   3.001   6.753  1.00  0.00     0.031 A 
ATOM     38  C   UNL     1      11.067   2.246   7.998  1.00  0.00     0.074 A 
ATOM     39  C   UNL     1      10.879   4.331   6.676  1.00  0.00     0.049 A 
ATOM     40  N   UNL     1      11.632   2.689   9.091  1.00  0.00    -0.248 NA
ATOM     41  C   UNL     1      10.753   0.807   8.031  1.00  0.00     0.031 C 
ATOM     42  C   UNL     1      10.498   5.181   5.545  1.00  0.00     0.029 A 
ATOM     43  N   UNL     1      11.456   5.203   7.565  1.00  0.00    -0.354 N 
ATOM     44  C   UNL     1      11.726   1.594   9.942  1.00  0.00     0.074 A 
ATOM     45  C   UNL     1      11.104   0.479   9.265  1.00  0.00     0.031 C 
ATOM     46  C   UNL     1      10.888   6.442   5.791  1.00  0.00     0.029 A 
ATOM     47  C   UNL     1      11.513   6.499   7.109  1.00  0.00     0.049 A 
ATOM     48  H   UNL     1      11.796   4.927   8.446  1.00  0.00     0.167 HD
ATOM     49  C   UNL     1      12.304   1.516  11.164  1.00  0.00     0.037 A 
ATOM     50  C   UNL     1      12.020   7.606   7.686  1.00  0.00     0.037 A 
ATOM     51  C   UNL     1      12.949   2.625  11.818  1.00  0.00     0.049 A 
ATOM     52  C   UNL     1      12.668   7.492   9.040  1.00  0.00     0.074 A 
ATOM     53  C   UNL     1      13.621   2.639  13.027  1.00  0.00     0.029 A 
ATOM     54  N   UNL     1      12.999   3.918  11.318  1.00  0.00    -0.354 N 
ATOM     55  N   UNL     1      12.815   6.431   9.799  1.00  0.00    -0.248 NA
ATOM     56  C   UNL     1      13.233   8.722   9.609  1.00  0.00     0.031 C 
ATOM     57  C   UNL     1      14.031   3.951  13.284  1.00  0.00     0.029 A 
ATOM     58  C   UNL     1      13.671   4.743  12.205  1.00  0.00     0.049 A 
ATOM     59  H   UNL     1      12.613   4.208  10.460  1.00  0.00     0.167 HD
ATOM     60  C   UNL     1      13.524   6.859  10.917  1.00  0.00     0.074 A 
ATOM     61  C   UNL     1      13.783   8.272  10.728  1.00  0.00     0.031 C 
ATOM     62  C   UNL     1      13.930   6.147  11.998  1.00  0.00     0.037 A 
BRANCH  49  63
ATOM     63  C   UNL     1      12.264   0.188  11.875  1.00  0.00     0.058 A 
ATOM     64  C   UNL     1      12.989  -0.923  11.414  1.00  0.00     0.135 A 
ATOM     65  C   UNL     1      11.511   0.033  13.050  1.00  0.00     0.135 A 
ATOM     66  F   UNL     1      13.714  -0.839  10.287  1.00  0.00    -0.206 F 
ATOM     67  C   UNL     1      12.943  -2.148  12.073  1.00  0.00     0.059 A 
ATOM     68  C   UNL     1      11.477  -1.173  13.744  1.00  0.00     0.059 A 
ATOM     69  F   UNL     1      10.798   1.060  13.537  1.00  0.00    -0.206 F 
ATOM     70  C   UNL     1      12.184  -2.263  13.238  1.00  0.00     0.060 A 
BRANCH  70  71
ATOM     71  S   UNL     1      12.138  -3.858  14.082  1.00  0.00     0.124 S 
ATOM     72  O   UNL     1      11.319  -4.647  13.168  1.00  0.00    -0.237 OA
ATOM     73  O   UNL     1      13.550  -4.220  14.141  1.00  0.00    -0.237 OA
ATOM     74  O   UNL     1      11.520  -3.545  15.367  1.00  0.00    -0.744 OA
ENDBRANCH  70  71
ENDBRANCH  49  63
BRANCH  50  75
ATOM     75  C   UNL     1      11.976   8.909   6.968  1.00  0.00     0.058 A 
ATOM     76  C   UNL     1      13.149   9.508   6.485  1.00  0.00     0.135 A 
ATOM     77  C   UNL     1      10.763   9.579   6.745  1.00  0.00     0.135 A 
ATOM     78  F   UNL     1      14.335   8.909   6.676  1.00  0.00    -0.206 F 
ATOM     79  C   UNL     1      13.127  10.734   5.829  1.00  0.00     0.059 A 
ATOM     80  C   UNL     1      10.711  10.793   6.066  1.00  0.00     0.059 A 
ATOM     81  F   UNL     1       9.609   9.041   7.169  1.00  0.00    -0.206 F 
ATOM     82  C   UNL     1      11.901  11.368   5.622  1.00  0.00     0.060 A 
BRANCH  82  83
ATOM     83  S   UNL     1      11.880  12.940   4.733  1.00  0.00     0.124 S 
ATOM     84  O   UNL     1      12.463  13.843   5.718  1.00  0.00    -0.237 OA
ATOM     85  O   UNL     1      12.708  12.644   3.568  1.00  0.00    -0.237 OA
ATOM     86  O   UNL     1      10.463  13.146   4.448  1.00  0.00    -0.744 OA
ENDBRANCH  82  83
ENDBRANCH  50  75
BRANCH  62  87
ATOM     87  C   UNL     1      14.746   6.870  13.036  1.00  0.00     0.058 A 
ATOM     88  C   UNL     1      14.189   7.847  13.875  1.00  0.00     0.135 A 
ATOM     89  C   UNL     1      16.104   6.554  13.210  1.00  0.00     0.135 A 
ATOM     90  F   UNL     1      12.897   8.190  13.750  1.00  0.00    -0.206 F 
ATOM     91  C   UNL     1      14.959   8.516  14.822  1.00  0.00     0.059 A 
ATOM     92  C   UNL     1      16.884   7.185  14.174  1.00  0.00     0.059 A 
ATOM     93  F   UNL     1      16.684   5.615  12.446  1.00  0.00    -0.206 F 
ATOM     94  C   UNL     1      16.307   8.179  14.961  1.00  0.00     0.060 A 
BRANCH  94  95
ATOM     95  S   UNL     1      17.294   9.050  16.197  1.00  0.00     0.124 S 
ATOM     96  O   UNL     1      17.464  10.356  15.569  1.00  0.00    -0.237 OA
ATOM     97  O   UNL     1      16.425   9.018  17.370  1.00  0.00    -0.237 OA
ATOM     98  O   UNL     1      18.504   8.239  16.298  1.00  0.00    -0.744 OA
ENDBRANCH  94  95
ENDBRANCH  62  87
ENDBRANCH  36  37
ENDBRANCH  28  31
ENDBRANCH  26  27
ENDBRANCH  25  26
ENDBRANCH   1  25
TORSDOF 18
