REMARK SMILES O=C(NCCCCNC(=O)[C@H]1C=C[C@H](NC(=O)[C@]23C[C@H]4C[C@H](C[C@H](C4)C2)C3)C1)c1ccc(-c2c3nc(c(-c4c(F)cc(S(=O)(=O)[O-])cc4F)c4ccc([nH]4)c(-c4c(F)cc(S(=O)(=O)[O-])cc4F)c4nc(c(-c5c(F)cc(S(=O)(=O)[O-])cc5F)c5ccc2[nH]5)C=C4)C=C3)cc1
REMARK SMILES IDX 5 1 4 2 3 3 1 4 2 5 29 7 30 8 94 9 31 10 93 11 32 12 33 13
REMARK SMILES IDX 34 14 87 15 35 16 92 17 86 18 88 19 36 20 91 21 85 22 84 23
REMARK SMILES IDX 37 25 71 26 50 27 70 28 51 29 54 30 69 31 89 32 52 33 53 34
REMARK SMILES IDX 68 36 90 37 55 38 38 39 39 40 48 41 40 42 41 43 47 44 49 45
REMARK SMILES IDX 42 46 43 47 44 48 45 49 46 50 72 51 73 52 82 53 74 54 75 55
REMARK SMILES IDX 81 56 83 57 76 58 77 59 78 60 79 61 80 62 56 63 57 64 66 65
REMARK SMILES IDX 58 66 59 67 65 68 67 69 60 70 61 71 62 72 63 73 64 74 6 75
REMARK SMILES IDX 7 76 8 77 9 78 10 80 11 81 12 82 28 83 13 84 14 85 15 86
REMARK SMILES IDX 16 87 17 89 18 90 19 91 26 92 27 93 20 94 24 95 22 96 21 97
REMARK SMILES IDX 25 98 23 99
REMARK H PARENT 3 6 88 24 54 35 8 79 15 88
REMARK Flexibility Score: inf
ROOT
ATOM      1  C   UNL     1       4.429  -2.417  -0.846  1.00  0.00     0.023 C 
ENDROOT
BRANCH   1   2
ATOM      2  C   UNL     1       4.151  -1.102  -0.136  1.00  0.00     0.116 C 
BRANCH   2   3
ATOM      3  N   UNL     1       2.802  -0.601  -0.365  1.00  0.00    -0.352 N 
ATOM      4  O   UNL     1       0.981   0.659   0.102  1.00  0.00    -0.269 OA
ATOM      5  C   UNL     1       2.149   0.379   0.340  1.00  0.00     0.251 C 
ATOM      6  H   UNL     1       2.303  -1.012  -1.109  1.00  0.00     0.163 HD
BRANCH   5   7
ATOM      7  C   UNL     1       2.886   1.033   1.432  1.00  0.00     0.039 A 
ATOM      8  C   UNL     1       4.114   1.643   1.168  1.00  0.00     0.014 A 
ATOM      9  C   UNL     1       2.402   0.912   2.735  1.00  0.00     0.014 A 
ATOM     10  C   UNL     1       4.925   2.012   2.229  1.00  0.00     0.010 A 
ATOM     11  C   UNL     1       3.187   1.360   3.796  1.00  0.00     0.010 A 
ATOM     12  C   UNL     1       4.468   1.879   3.551  1.00  0.00    -0.014 A 
BRANCH  12  13
ATOM     13  C   UNL     1       5.333   2.338   4.661  1.00  0.00     0.031 A 
ATOM     14  C   UNL     1       5.904   1.367   5.653  1.00  0.00     0.074 A 
ATOM     15  C   UNL     1       5.621   3.651   4.734  1.00  0.00     0.049 A 
ATOM     16  N   UNL     1       6.688   1.603   6.673  1.00  0.00    -0.248 NA
ATOM     17  C   UNL     1       5.544  -0.050   5.490  1.00  0.00     0.031 C 
ATOM     18  C   UNL     1       5.107   4.676   3.820  1.00  0.00     0.029 A 
ATOM     19  N   UNL     1       6.431   4.346   5.590  1.00  0.00    -0.354 N 
ATOM     20  C   UNL     1       6.887   0.377   7.296  1.00  0.00     0.074 A 
ATOM     21  C   UNL     1       6.136  -0.604   6.541  1.00  0.00     0.031 C 
ATOM     22  C   UNL     1       5.663   5.856   4.126  1.00  0.00     0.029 A 
ATOM     23  C   UNL     1       6.519   5.684   5.292  1.00  0.00     0.049 A 
ATOM     24  H   UNL     1       6.904   3.928   6.345  1.00  0.00     0.167 HD
ATOM     25  C   UNL     1       7.627   0.102   8.396  1.00  0.00     0.037 A 
ATOM     26  C   UNL     1       7.209   6.667   5.898  1.00  0.00     0.037 A 
ATOM     27  C   UNL     1       8.395   1.087   9.116  1.00  0.00     0.049 A 
ATOM     28  C   UNL     1       8.039   6.329   7.099  1.00  0.00     0.074 A 
ATOM     29  C   UNL     1       9.210   0.908  10.220  1.00  0.00     0.029 A 
ATOM     30  N   UNL     1       8.445   2.437   8.798  1.00  0.00    -0.354 N 
ATOM     31  N   UNL     1       8.222   5.162   7.669  1.00  0.00    -0.248 NA
ATOM     32  C   UNL     1       8.747   7.440   7.745  1.00  0.00     0.031 C 
ATOM     33  C   UNL     1       9.728   2.156  10.588  1.00  0.00     0.029 A 
ATOM     34  C   UNL     1       9.264   3.106   9.692  1.00  0.00     0.049 A 
ATOM     35  H   UNL     1       7.968   2.858   8.047  1.00  0.00     0.167 HD
ATOM     36  C   UNL     1       9.073   5.395   8.740  1.00  0.00     0.074 A 
ATOM     37  C   UNL     1       9.384   6.812   8.725  1.00  0.00     0.031 C 
ATOM     38  C   UNL     1       9.551   4.518   9.657  1.00  0.00     0.037 A 
BRANCH  25  39
ATOM     39  C   UNL     1       7.621  -1.312   8.907  1.00  0.00     0.058 A 
ATOM     40  C   UNL     1       8.319  -2.341   8.256  1.00  0.00     0.135 A 
ATOM     41  C   UNL     1       6.928  -1.637  10.085  1.00  0.00     0.135 A 
ATOM     42  F   UNL     1       8.985  -2.090   7.117  1.00  0.00    -0.206 F 
ATOM     43  C   UNL     1       8.309  -3.647   8.739  1.00  0.00     0.059 A 
ATOM     44  C   UNL     1       6.920  -2.931  10.598  1.00  0.00     0.059 A 
ATOM     45  F   UNL     1       6.242  -0.691  10.747  1.00  0.00    -0.206 F 
ATOM     46  C   UNL     1       7.602  -3.933   9.908  1.00  0.00     0.060 A 
BRANCH  46  47
ATOM     47  S   UNL     1       7.587  -5.632  10.522  1.00  0.00     0.124 S 
ATOM     48  O   UNL     1       6.633  -6.259   9.613  1.00  0.00    -0.237 OA
ATOM     49  O   UNL     1       8.979  -6.039  10.357  1.00  0.00    -0.237 OA
ATOM     50  O   UNL     1       7.138  -5.489  11.903  1.00  0.00    -0.744 OA
ENDBRANCH  46  47
ENDBRANCH  25  39
BRANCH  26  51
ATOM     51  C   UNL     1       7.143   8.047   5.358  1.00  0.00     0.058 A 
ATOM     52  C   UNL     1       8.235   8.606   4.680  1.00  0.00     0.135 A 
ATOM     53  C   UNL     1       5.968   8.809   5.453  1.00  0.00     0.135 A 
ATOM     54  F   UNL     1       9.378   7.913   4.564  1.00  0.00    -0.206 F 
ATOM     55  C   UNL     1       8.167   9.875   4.117  1.00  0.00     0.059 A 
ATOM     56  C   UNL     1       5.868  10.070   4.877  1.00  0.00     0.059 A 
ATOM     57  F   UNL     1       4.889   8.305   6.072  1.00  0.00    -0.206 F 
ATOM     58  C   UNL     1       6.977  10.598   4.217  1.00  0.00     0.060 A 
BRANCH  58  59
ATOM     59  S   UNL     1       6.868  12.213   3.417  1.00  0.00     0.124 S 
ATOM     60  O   UNL     1       7.572  13.060   4.372  1.00  0.00    -0.237 OA
ATOM     61  O   UNL     1       7.549  11.978   2.147  1.00  0.00    -0.237 OA
ATOM     62  O   UNL     1       5.429  12.436   3.312  1.00  0.00    -0.744 OA
ENDBRANCH  58  59
ENDBRANCH  26  51
BRANCH  38  63
ATOM     63  C   UNL     1      10.471   5.075  10.703  1.00  0.00     0.058 A 
ATOM     64  C   UNL     1       9.983   5.837  11.775  1.00  0.00     0.135 A 
ATOM     65  C   UNL     1      11.852   4.837  10.635  1.00  0.00     0.135 A 
ATOM     66  F   UNL     1       8.670   6.099  11.876  1.00  0.00    -0.206 F 
ATOM     67  C   UNL     1      10.839   6.370  12.733  1.00  0.00     0.059 A 
ATOM     68  C   UNL     1      12.724   5.342  11.593  1.00  0.00     0.059 A 
ATOM     69  F   UNL     1      12.364   4.108   9.631  1.00  0.00    -0.206 F 
ATOM     70  C   UNL     1      12.209   6.121  12.629  1.00  0.00     0.060 A 
BRANCH  70  71
ATOM     71  S   UNL     1      13.315   6.809  13.879  1.00  0.00     0.124 S 
ATOM     72  O   UNL     1      13.438   8.192  13.431  1.00  0.00    -0.237 OA
ATOM     73  O   UNL     1      12.562   6.607  15.114  1.00  0.00    -0.237 OA
ATOM     74  O   UNL     1      14.519   5.995  13.748  1.00  0.00    -0.744 OA
ENDBRANCH  70  71
ENDBRANCH  38  63
ENDBRANCH  12  13
ENDBRANCH   5   7
ENDBRANCH   2   3
ENDBRANCH   1   2
BRANCH   1  75
ATOM     75  C   UNL     1       4.074  -2.407  -2.333  1.00  0.00     0.023 C 
BRANCH  75  76
ATOM     76  C   UNL     1       4.805  -1.332  -3.137  1.00  0.00     0.116 C 
BRANCH  76  77
ATOM     77  N   UNL     1       6.194  -1.666  -3.320  1.00  0.00    -0.356 N 
ATOM     78  C   UNL     1       6.778  -2.655  -4.031  1.00  0.00     0.227 C 
ATOM     79  H   UNL     1       6.823  -1.075  -2.847  1.00  0.00     0.163 HD
ATOM     80  O   UNL     1       8.004  -2.773  -3.897  1.00  0.00    -0.274 OA
BRANCH  78  81
ATOM     81  C   UNL     1       6.034  -3.636  -4.942  1.00  0.00     0.103 C 
ATOM     82  C   UNL     1       5.817  -5.012  -4.377  1.00  0.00    -0.016 C 
ATOM     83  C   UNL     1       4.704  -3.344  -5.639  1.00  0.00     0.047 C 
ATOM     84  C   UNL     1       4.815  -5.636  -5.016  1.00  0.00    -0.006 C 
ATOM     85  C   UNL     1       4.117  -4.718  -5.958  1.00  0.00     0.106 C 
BRANCH  85  86
ATOM     86  N   UNL     1       4.081  -5.153  -7.345  1.00  0.00    -0.349 N 
ATOM     87  C   UNL     1       4.857  -5.325  -8.436  1.00  0.00     0.226 C 
ATOM     88  H   UNL     1       3.159  -5.416  -7.569  1.00  0.00     0.164 HD
ATOM     89  O   UNL     1       4.208  -5.642  -9.446  1.00  0.00    -0.274 OA
BRANCH  87  90
ATOM     90  C   UNL     1       6.385  -5.157  -8.543  1.00  0.00     0.050 C 
ATOM     91  C   UNL     1       6.851  -5.665  -9.952  1.00  0.00     0.020 C 
ATOM     92  C   UNL     1       7.137  -6.027  -7.520  1.00  0.00     0.020 C 
ATOM     93  C   UNL     1       6.821  -3.678  -8.488  1.00  0.00     0.020 C 
ATOM     94  C   UNL     1       8.379  -5.538 -10.122  1.00  0.00    -0.010 C 
ATOM     95  C   UNL     1       8.657  -5.869  -7.654  1.00  0.00    -0.010 C 
ATOM     96  C   UNL     1       8.351  -3.546  -8.594  1.00  0.00    -0.010 C 
ATOM     97  C   UNL     1       8.790  -4.065  -9.970  1.00  0.00     0.007 C 
ATOM     98  C   UNL     1       9.081  -6.369  -9.039  1.00  0.00     0.007 C 
ATOM     99  C   UNL     1       9.039  -4.387  -7.504  1.00  0.00     0.007 C 
ENDBRANCH  87  90
ENDBRANCH  85  86
ENDBRANCH  78  81
ENDBRANCH  76  77
ENDBRANCH  75  76
ENDBRANCH   1  75
TORSDOF 16
