REMARK SMILES CC[C@@H]1CCc2c(sc(NC(=O)COCC(=O)NCCCCNC(=O)c3ccc(-c4c5nc(c(-c6c(F)cc(S(=O)(=O)[O-])cc6F)c6ccc([nH]6)c(-c6c(F)cc(S(=O)(=O)[O-])cc6F)c6nc(c(-c7c(F)cc(S(=O)(=O)[O-])cc7F)c7ccc4[nH]7)C=C6)C=C5)cc3)c2C(N)=O)C1
REMARK SMILES IDX 19 1 18 2 16 3 17 4 15 6 14 7 13 8 11 9 10 10 12 12 9 13
REMARK SMILES IDX 3 14 4 15 96 16 5 17 7 18 6 19 8 20 92 21 2 22 1 23 93 24
REMARK SMILES IDX 94 25 95 26 20 29 21 30 22 31 23 32 24 33 25 35 26 36 27 37
REMARK SMILES IDX 91 38 28 39 90 40 29 41 30 42 31 43 84 44 32 45 89 46 83 47
REMARK SMILES IDX 85 48 33 49 88 50 82 51 81 52 34 54 68 55 47 56 67 57 48 58
REMARK SMILES IDX 51 59 66 60 86 61 49 62 50 63 65 65 87 66 52 67 35 68 36 69
REMARK SMILES IDX 45 70 37 71 38 72 44 73 46 74 39 75 40 76 41 77 42 78 43 79
REMARK SMILES IDX 69 80 70 81 79 82 71 83 72 84 78 85 80 86 73 87 74 88 75 89
REMARK SMILES IDX 76 90 77 91 53 92 54 93 63 94 55 95 56 96 62 97 64 98 57 99
REMARK SMILES IDX 58 100 59 101 60 102 61 103
REMARK H PARENT 18 5 10 11 94 27 94 28 23 34 85 53 51 64
REMARK Flexibility Score: inf
ROOT
ATOM      1  C   UNL     1      -0.797  -3.150   6.931  1.00  0.00     0.116 C 
ENDROOT
BRANCH   1   2
ATOM      2  N   UNL     1      -0.931  -2.950   8.364  1.00  0.00    -0.354 N 
ATOM      3  C   UNL     1      -0.923  -1.774   9.060  1.00  0.00     0.246 C 
ATOM      4  O   UNL     1      -1.045  -1.797  10.286  1.00  0.00    -0.272 OA
ATOM      5  H   UNL     1      -1.041  -3.767   8.902  1.00  0.00     0.163 HD
BRANCH   3   6
ATOM      6  C   UNL     1      -0.769  -0.458   8.300  1.00  0.00     0.260 C 
BRANCH   6   7
ATOM      7  O   UNL     1       0.516  -0.344   7.706  1.00  0.00    -0.362 OA
BRANCH   7   8
ATOM      8  C   UNL     1       1.473   0.243   8.566  1.00  0.00     0.261 C 
BRANCH   8   9
ATOM      9  C   UNL     1       1.605   1.743   8.372  1.00  0.00     0.251 C 
ATOM     10  N   UNL     1       1.622   2.354   7.161  1.00  0.00    -0.315 N 
ATOM     11  H   UNL     1       1.575   3.334   7.242  1.00  0.00     0.170 HD
ATOM     12  O   UNL     1       1.691   2.479   9.365  1.00  0.00    -0.272 OA
BRANCH  10  13
ATOM     13  C   UNL     1       1.688   1.946   5.848  1.00  0.00     0.108 A 
ATOM     14  C   UNL     1       1.472   2.043   0.926  1.00  0.00    -0.006 C 
ATOM     15  C   UNL     1       2.600   1.038   1.262  1.00  0.00     0.009 C 
ATOM     16  C   UNL     1       1.337   3.083   2.076  1.00  0.00     0.050 C 
ATOM     17  C   UNL     1       2.297   0.235   2.537  1.00  0.00     0.038 C 
ATOM     18  C   UNL     1       1.513   2.451   3.428  1.00  0.00     0.011 A 
ATOM     19  C   UNL     1       1.920   1.157   3.664  1.00  0.00    -0.019 A 
ATOM     20  S   UNL     1       1.334   3.321   4.865  1.00  0.00    -0.122 S 
ATOM     21  C   UNL     1       1.944   0.824   5.079  1.00  0.00     0.077 A 
BRANCH  14  22
ATOM     22  C   UNL     1       0.119   1.354   0.637  1.00  0.00     0.000 C 
ATOM     23  C   UNL     1       0.133   0.444  -0.589  1.00  0.00     0.004 C 
ENDBRANCH  14  22
BRANCH  21  24
ATOM     24  C   UNL     1       2.252  -0.538   5.478  1.00  0.00     0.251 C 
ATOM     25  N   UNL     1       3.369  -0.697   6.241  1.00  0.00    -0.365 N 
ATOM     26  O   UNL     1       1.656  -1.505   5.026  1.00  0.00    -0.269 OA
ATOM     27  H   UNL     1       3.838   0.092   6.598  1.00  0.00     0.159 HD
ATOM     28  H   UNL     1       3.708  -1.601   6.436  1.00  0.00     0.159 HD
ENDBRANCH  21  24
ENDBRANCH  10  13
ENDBRANCH   8   9
ENDBRANCH   7   8
ENDBRANCH   6   7
ENDBRANCH   3   6
ENDBRANCH   1   2
BRANCH   1  29
ATOM     29  C   UNL     1       0.509  -3.844   6.553  1.00  0.00     0.023 C 
BRANCH  29  30
ATOM     30  C   UNL     1       0.749  -5.215   7.181  1.00  0.00     0.023 C 
BRANCH  30  31
ATOM     31  C   UNL     1      -0.383  -6.222   7.030  1.00  0.00     0.116 C 
BRANCH  31  32
ATOM     32  N   UNL     1      -0.666  -6.578   5.650  1.00  0.00    -0.352 N 
ATOM     33  C   UNL     1      -0.930  -7.821   5.119  1.00  0.00     0.251 C 
ATOM     34  H   UNL     1      -0.669  -5.831   5.008  1.00  0.00     0.163 HD
ATOM     35  O   UNL     1      -1.058  -7.956   3.905  1.00  0.00    -0.269 OA
BRANCH  33  36
ATOM     36  C   UNL     1      -1.012  -9.003   6.010  1.00  0.00     0.039 A 
ATOM     37  C   UNL     1      -0.329 -10.168   5.649  1.00  0.00     0.014 A 
ATOM     38  C   UNL     1      -1.733  -8.959   7.206  1.00  0.00     0.014 A 
ATOM     39  C   UNL     1      -0.303 -11.258   6.523  1.00  0.00     0.010 A 
ATOM     40  C   UNL     1      -1.647 -10.018   8.107  1.00  0.00     0.010 A 
ATOM     41  C   UNL     1      -0.928 -11.177   7.777  1.00  0.00    -0.014 A 
BRANCH  41  42
ATOM     42  C   UNL     1      -0.847 -12.290   8.760  1.00  0.00     0.031 A 
ATOM     43  C   UNL     1      -2.097 -13.011   9.186  1.00  0.00     0.074 A 
ATOM     44  C   UNL     1       0.335 -12.599   9.329  1.00  0.00     0.049 A 
ATOM     45  N   UNL     1      -2.249 -13.929  10.106  1.00  0.00    -0.248 NA
ATOM     46  C   UNL     1      -3.346 -12.626   8.510  1.00  0.00     0.031 C 
ATOM     47  C   UNL     1       1.613 -11.941   9.042  1.00  0.00     0.029 A 
ATOM     48  N   UNL     1       0.653 -13.537  10.279  1.00  0.00    -0.354 N 
ATOM     49  C   UNL     1      -3.610 -14.210  10.139  1.00  0.00     0.074 A 
ATOM     50  C   UNL     1      -4.245 -13.338   9.174  1.00  0.00     0.031 C 
ATOM     51  C   UNL     1       2.576 -12.507   9.787  1.00  0.00     0.029 A 
ATOM     52  C   UNL     1       1.984 -13.544  10.627  1.00  0.00     0.049 A 
ATOM     53  H   UNL     1      -0.009 -14.148  10.675  1.00  0.00     0.167 HD
ATOM     54  C   UNL     1      -4.269 -15.125  10.890  1.00  0.00     0.037 A 
ATOM     55  C   UNL     1       2.651 -14.296  11.524  1.00  0.00     0.037 A 
ATOM     56  C   UNL     1      -3.631 -16.023  11.816  1.00  0.00     0.049 A 
ATOM     57  C   UNL     1       1.905 -15.334  12.316  1.00  0.00     0.074 A 
ATOM     58  C   UNL     1      -4.205 -17.027  12.576  1.00  0.00     0.029 A 
ATOM     59  N   UNL     1      -2.274 -16.032  12.101  1.00  0.00    -0.354 N 
ATOM     60  N   UNL     1       0.625 -15.618  12.299  1.00  0.00    -0.248 NA
ATOM     61  C   UNL     1       2.693 -16.156  13.245  1.00  0.00     0.031 C 
ATOM     62  C   UNL     1      -3.198 -17.630  13.337  1.00  0.00     0.029 A 
ATOM     63  C   UNL     1      -1.992 -17.020  13.029  1.00  0.00     0.049 A 
ATOM     64  H   UNL     1      -1.609 -15.425  11.703  1.00  0.00     0.167 HD
ATOM     65  C   UNL     1       0.457 -16.667  13.196  1.00  0.00     0.074 A 
ATOM     66  C   UNL     1       1.768 -16.972  13.733  1.00  0.00     0.031 C 
ATOM     67  C   UNL     1      -0.680 -17.318  13.543  1.00  0.00     0.037 A 
BRANCH  54  68
ATOM     68  C   UNL     1      -5.761 -15.204  10.729  1.00  0.00     0.058 A 
ATOM     69  C   UNL     1      -6.347 -15.753   9.578  1.00  0.00     0.135 A 
ATOM     70  C   UNL     1      -6.615 -14.741  11.743  1.00  0.00     0.135 A 
ATOM     71  F   UNL     1      -5.575 -16.194   8.572  1.00  0.00    -0.206 F 
ATOM     72  C   UNL     1      -7.727 -15.810   9.422  1.00  0.00     0.059 A 
ATOM     73  C   UNL     1      -7.999 -14.811  11.618  1.00  0.00     0.059 A 
ATOM     74  F   UNL     1      -6.106 -14.207  12.865  1.00  0.00    -0.206 F 
ATOM     75  C   UNL     1      -8.546 -15.331  10.446  1.00  0.00     0.060 A 
BRANCH  75  76
ATOM     76  S   UNL     1     -10.337 -15.404  10.229  1.00  0.00     0.124 S 
ATOM     77  O   UNL     1     -10.566 -14.271   9.337  1.00  0.00    -0.237 OA
ATOM     78  O   UNL     1     -10.530 -16.724   9.637  1.00  0.00    -0.237 OA
ATOM     79  O   UNL     1     -10.848 -15.248  11.586  1.00  0.00    -0.744 OA
ENDBRANCH  75  76
ENDBRANCH  54  68
BRANCH  55  80
ATOM     80  C   UNL     1       4.115 -14.115  11.698  1.00  0.00     0.058 A 
ATOM     81  C   UNL     1       5.019 -15.061  11.193  1.00  0.00     0.135 A 
ATOM     82  C   UNL     1       4.639 -12.991  12.354  1.00  0.00     0.135 A 
ATOM     83  F   UNL     1       4.563 -16.155  10.565  1.00  0.00    -0.206 F 
ATOM     84  C   UNL     1       6.393 -14.906  11.340  1.00  0.00     0.059 A 
ATOM     85  C   UNL     1       6.011 -12.804  12.496  1.00  0.00     0.059 A 
ATOM     86  F   UNL     1       3.815 -12.051  12.841  1.00  0.00    -0.206 F 
ATOM     87  C   UNL     1       6.880 -13.772  11.993  1.00  0.00     0.060 A 
BRANCH  87  88
ATOM     88  S   UNL     1       8.667 -13.547  12.129  1.00  0.00     0.124 S 
ATOM     89  O   UNL     1       8.996 -14.461  13.216  1.00  0.00    -0.237 OA
ATOM     90  O   UNL     1       9.131 -13.941  10.802  1.00  0.00    -0.237 OA
ATOM     91  O   UNL     1       8.802 -12.126  12.433  1.00  0.00    -0.744 OA
ENDBRANCH  87  88
ENDBRANCH  55  80
BRANCH  67  92
ATOM     92  C   UNL     1      -0.555 -18.447  14.525  1.00  0.00     0.058 A 
ATOM     93  C   UNL     1      -0.382 -18.211  15.897  1.00  0.00     0.135 A 
ATOM     94  C   UNL     1      -0.664 -19.778  14.094  1.00  0.00     0.135 A 
ATOM     95  F   UNL     1      -0.265 -16.955  16.357  1.00  0.00    -0.206 F 
ATOM     96  C   UNL     1      -0.304 -19.258  16.809  1.00  0.00     0.059 A 
ATOM     97  C   UNL     1      -0.609 -20.841  14.990  1.00  0.00     0.059 A 
ATOM     98  F   UNL     1      -0.840 -20.055  12.792  1.00  0.00    -0.206 F 
ATOM     99  C   UNL     1      -0.419 -20.571  16.345  1.00  0.00     0.060 A 
BRANCH  99 100
ATOM    100  S   UNL     1      -0.356 -21.924  17.540  1.00  0.00     0.124 S 
ATOM    101  O   UNL     1       1.077 -22.024  17.794  1.00  0.00    -0.237 OA
ATOM    102  O   UNL     1      -1.162 -21.410  18.643  1.00  0.00    -0.237 OA
ATOM    103  O   UNL     1      -0.946 -23.044  16.812  1.00  0.00    -0.744 OA
ENDBRANCH  99 100
ENDBRANCH  67  92
ENDBRANCH  41  42
ENDBRANCH  33  36
ENDBRANCH  31  32
ENDBRANCH  30  31
ENDBRANCH  29  30
ENDBRANCH   1  29
TORSDOF 20
