REMARK SMILES Cc1nc(-c2ccc3c(c2)CCN3S(=O)(=O)c2ccc(F)c(C(=O)NCCCCNC(=O)c3ccc(-c4c5nc(c(-c6c(F)cc(S(=O)(=O)[O-])cc6F)c6ccc([nH]6)c(-c6c(F)cc(S(=O)(=O)[O-])cc6F)c6nc(c(-c7c(F)cc(S(=O)(=O)[O-])cc7F)c7ccc4[nH]7)C=C6)C=C5)cc3)c2)cs1
REMARK SMILES IDX 27 1 26 2 25 3 23 4 24 5 22 7 17 8 18 9 99 10 19 11 20 12
REMARK SMILES IDX 21 13 14 14 15 15 16 16 13 17 5 18 6 19 10 20 7 21 9 22 8 23
REMARK SMILES IDX 11 24 12 25 4 26 1 27 2 28 3 29 101 30 100 31 28 32 29 33
REMARK SMILES IDX 30 34 31 35 32 37 33 38 34 39 98 40 35 41 97 42 36 43 37 44
REMARK SMILES IDX 38 45 91 46 39 47 96 48 90 49 92 50 40 51 95 52 89 53 88 54
REMARK SMILES IDX 41 56 75 57 54 58 74 59 55 60 58 61 73 62 93 63 56 64 57 65
REMARK SMILES IDX 72 67 94 68 59 69 42 70 43 71 52 72 44 73 45 74 51 75 53 76
REMARK SMILES IDX 46 77 47 78 48 79 49 80 50 81 76 82 77 83 86 84 78 85 79 86
REMARK SMILES IDX 85 87 87 88 80 89 81 90 82 91 83 92 84 93 60 94 61 95 70 96
REMARK SMILES IDX 62 97 63 98 69 99 71 100 64 101 65 102 66 103 67 104 68 105
REMARK H PARENT 25 6 30 36 92 55 58 66
REMARK Flexibility Score: inf
ROOT
ATOM      1  C   UNL     1       0.066  -8.726  -7.275  1.00  0.00     0.023 C 
ENDROOT
BRANCH   1   2
ATOM      2  C   UNL     1       0.030  -7.953  -5.967  1.00  0.00     0.116 C 
BRANCH   2   3
ATOM      3  N   UNL     1       0.152  -8.754  -4.761  1.00  0.00    -0.352 N 
ATOM      4  C   UNL     1       0.917  -8.585  -3.628  1.00  0.00     0.254 C 
ATOM      5  O   UNL     1       0.766  -9.391  -2.708  1.00  0.00    -0.269 OA
ATOM      6  H   UNL     1      -0.413  -9.560  -4.752  1.00  0.00     0.163 HD
BRANCH   4   7
ATOM      7  C   UNL     1       1.970  -7.541  -3.478  1.00  0.00     0.076 A 
ATOM      8  C   UNL     1       4.027  -6.821  -2.410  1.00  0.00     0.089 A 
ATOM      9  C   UNL     1       4.131  -5.742  -3.296  1.00  0.00     0.025 A 
ATOM     10  C   UNL     1       3.013  -7.776  -2.557  1.00  0.00     0.039 A 
ATOM     11  C   UNL     1       3.065  -5.465  -4.136  1.00  0.00     0.041 A 
ATOM     12  C   UNL     1       1.956  -6.308  -4.135  1.00  0.00     0.136 A 
ATOM     13  F   UNL     1       0.836  -5.814  -4.680  1.00  0.00    -0.206 F 
BRANCH   8  14
ATOM     14  S   UNL     1       5.145  -6.845  -1.033  1.00  0.00     0.264 S 
ATOM     15  O   UNL     1       6.344  -6.159  -1.474  1.00  0.00    -0.201 OA
ATOM     16  O   UNL     1       5.236  -8.209  -0.550  1.00  0.00    -0.201 OA
BRANCH  14  17
ATOM     17  N   UNL     1       4.425  -5.912   0.219  1.00  0.00    -0.266 N 
ATOM     18  C   UNL     1       2.086  -2.387   0.075  1.00  0.00     0.001 A 
ATOM     19  C   UNL     1       1.759  -3.431  -0.802  1.00  0.00     0.012 A 
ATOM     20  C   UNL     1       3.153  -2.558   0.967  1.00  0.00     0.016 A 
ATOM     21  C   UNL     1       2.493  -4.621  -0.810  1.00  0.00     0.028 A 
ATOM     22  C   UNL     1       3.887  -3.747   0.918  1.00  0.00    -0.021 A 
ATOM     23  C   UNL     1       3.616  -4.746  -0.016  1.00  0.00     0.055 A 
ATOM     24  C   UNL     1       4.885  -4.226   1.924  1.00  0.00     0.060 C 
ATOM     25  C   UNL     1       5.438  -5.497   1.262  1.00  0.00     0.140 C 
BRANCH  18  26
ATOM     26  C   UNL     1       1.223  -1.216   0.107  1.00  0.00     0.081 A 
ATOM     27  C   UNL     1      -2.209   0.026  -0.009  1.00  0.00     0.079 C 
ATOM     28  C   UNL     1      -0.736  -0.181   0.048  1.00  0.00     0.090 A 
ATOM     29  N   UNL     1      -0.152  -1.358   0.009  1.00  0.00    -0.242 NA
ATOM     30  S   UNL     1       0.330   1.163   0.168  1.00  0.00    -0.127 S 
ATOM     31  C   UNL     1       1.669   0.086   0.189  1.00  0.00     0.095 A 
ENDBRANCH  18  26
ENDBRANCH  14  17
ENDBRANCH   8  14
ENDBRANCH   4   7
ENDBRANCH   2   3
ENDBRANCH   1   2
BRANCH   1  32
ATOM     32  C   UNL     1      -1.120  -9.628  -7.572  1.00  0.00     0.023 C 
BRANCH  32  33
ATOM     33  C   UNL     1      -2.496  -8.987  -7.441  1.00  0.00     0.116 C 
BRANCH  33  34
ATOM     34  N   UNL     1      -2.672  -7.785  -8.248  1.00  0.00    -0.352 N 
ATOM     35  C   UNL     1      -3.665  -7.480  -9.152  1.00  0.00     0.251 C 
ATOM     36  H   UNL     1      -1.983  -7.093  -8.129  1.00  0.00     0.163 HD
ATOM     37  O   UNL     1      -3.604  -6.446  -9.810  1.00  0.00    -0.269 OA
BRANCH  35  38
ATOM     38  C   UNL     1      -4.782  -8.428  -9.353  1.00  0.00     0.039 A 
ATOM     39  C   UNL     1      -5.128  -8.806 -10.652  1.00  0.00     0.014 A 
ATOM     40  C   UNL     1      -5.441  -8.988  -8.257  1.00  0.00     0.014 A 
ATOM     41  C   UNL     1      -6.070  -9.819 -10.845  1.00  0.00     0.010 A 
ATOM     42  C   UNL     1      -6.304 -10.060  -8.448  1.00  0.00     0.010 A 
ATOM     43  C   UNL     1      -6.627 -10.491  -9.744  1.00  0.00    -0.014 A 
BRANCH  43  44
ATOM     44  C   UNL     1      -7.542 -11.649  -9.921  1.00  0.00     0.031 A 
ATOM     45  C   UNL     1      -8.952 -11.579  -9.400  1.00  0.00     0.074 A 
ATOM     46  C   UNL     1      -7.088 -12.782 -10.493  1.00  0.00     0.049 A 
ATOM     47  N   UNL     1      -9.877 -12.504  -9.396  1.00  0.00    -0.248 NA
ATOM     48  C   UNL     1      -9.369 -10.311  -8.778  1.00  0.00     0.031 C 
ATOM     49  C   UNL     1      -5.730 -12.988 -11.003  1.00  0.00     0.029 A 
ATOM     50  N   UNL     1      -7.717 -13.976 -10.744  1.00  0.00    -0.354 N 
ATOM     51  C   UNL     1     -10.979 -11.932  -8.774  1.00  0.00     0.074 A 
ATOM     52  C   UNL     1     -10.586 -10.608  -8.346  1.00  0.00     0.031 C 
ATOM     53  C   UNL     1      -5.642 -14.213 -11.543  1.00  0.00     0.029 A 
ATOM     54  C   UNL     1      -6.919 -14.901 -11.377  1.00  0.00     0.049 A 
ATOM     55  H   UNL     1      -8.653 -14.154 -10.495  1.00  0.00     0.167 HD
ATOM     56  C   UNL     1     -12.220 -12.448  -8.605  1.00  0.00     0.037 A 
ATOM     57  C   UNL     1      -7.184 -16.161 -11.779  1.00  0.00     0.037 A 
ATOM     58  C   UNL     1     -12.609 -13.762  -9.046  1.00  0.00     0.049 A 
ATOM     59  C   UNL     1      -8.557 -16.731 -11.543  1.00  0.00     0.074 A 
ATOM     60  C   UNL     1     -13.849 -14.367  -8.948  1.00  0.00     0.029 A 
ATOM     61  N   UNL     1     -11.767 -14.673  -9.667  1.00  0.00    -0.354 N 
ATOM     62  N   UNL     1      -9.600 -16.161 -10.988  1.00  0.00    -0.248 NA
ATOM     63  C   UNL     1      -8.790 -18.112 -11.986  1.00  0.00     0.031 C 
ATOM     64  C   UNL     1     -13.745 -15.662  -9.465  1.00  0.00     0.029 A 
ATOM     65  C   UNL     1     -12.455 -15.844  -9.940  1.00  0.00     0.049 A 
ATOM     66  H   UNL     1     -10.820 -14.511  -9.883  1.00  0.00     0.167 HD
ATOM     67  C   UNL     1     -10.621 -17.104 -11.040  1.00  0.00     0.074 A 
ATOM     68  C   UNL     1     -10.072 -18.278 -11.688  1.00  0.00     0.031 C 
ATOM     69  C   UNL     1     -11.898 -17.004 -10.592  1.00  0.00     0.037 A 
BRANCH  56  70
ATOM     70  C   UNL     1     -13.251 -11.583  -7.931  1.00  0.00     0.058 A 
ATOM     71  C   UNL     1     -13.762 -11.923  -6.669  1.00  0.00     0.135 A 
ATOM     72  C   UNL     1     -13.764 -10.434  -8.556  1.00  0.00     0.135 A 
ATOM     73  F   UNL     1     -13.306 -13.007  -6.022  1.00  0.00    -0.206 F 
ATOM     74  C   UNL     1     -14.751 -11.161  -6.055  1.00  0.00     0.059 A 
ATOM     75  C   UNL     1     -14.730  -9.639  -7.947  1.00  0.00     0.059 A 
ATOM     76  F   UNL     1     -13.296 -10.049  -9.754  1.00  0.00    -0.206 F 
ATOM     77  C   UNL     1     -15.227 -10.018  -6.701  1.00  0.00     0.060 A 
BRANCH  77  78
ATOM     78  S   UNL     1     -16.475  -9.014  -5.869  1.00  0.00     0.124 S 
ATOM     79  O   UNL     1     -17.643  -9.886  -5.917  1.00  0.00    -0.237 OA
ATOM     80  O   UNL     1     -15.880  -8.818  -4.551  1.00  0.00    -0.237 OA
ATOM     81  O   UNL     1     -16.550  -7.814  -6.697  1.00  0.00    -0.744 OA
ENDBRANCH  77  78
ENDBRANCH  56  70
BRANCH  57  82
ATOM     82  C   UNL     1      -6.136 -16.944 -12.488  1.00  0.00     0.058 A 
ATOM     83  C   UNL     1      -4.978 -17.388 -11.832  1.00  0.00     0.135 A 
ATOM     84  C   UNL     1      -6.253 -17.218 -13.860  1.00  0.00     0.135 A 
ATOM     85  F   UNL     1      -4.811 -17.145 -10.522  1.00  0.00    -0.206 F 
ATOM     86  C   UNL     1      -3.960 -18.045 -12.514  1.00  0.00     0.059 A 
ATOM     87  C   UNL     1      -5.260 -17.898 -14.559  1.00  0.00     0.059 A 
ATOM     88  F   UNL     1      -7.348 -16.826 -14.529  1.00  0.00    -0.206 F 
ATOM     89  C   UNL     1      -4.107 -18.290 -13.880  1.00  0.00     0.060 A 
BRANCH  89  90
ATOM     90  S   UNL     1      -2.758 -19.112 -14.754  1.00  0.00     0.124 S 
ATOM     91  O   UNL     1      -1.705 -18.104 -14.679  1.00  0.00    -0.237 OA
ATOM     92  O   UNL     1      -2.553 -20.306 -13.942  1.00  0.00    -0.237 OA
ATOM     93  O   UNL     1      -3.308 -19.346 -16.085  1.00  0.00    -0.744 OA
ENDBRANCH  89  90
ENDBRANCH  57  82
BRANCH  69  94
ATOM     94  C   UNL     1     -12.811 -18.181 -10.801  1.00  0.00     0.058 A 
ATOM     95  C   UNL     1     -13.891 -18.091 -11.696  1.00  0.00     0.135 A 
ATOM     96  C   UNL     1     -12.679 -19.360 -10.051  1.00  0.00     0.135 A 
ATOM     97  F   UNL     1     -14.068 -16.983 -12.434  1.00  0.00    -0.206 F 
ATOM     98  C   UNL     1     -14.822 -19.116 -11.819  1.00  0.00     0.059 A 
ATOM     99  C   UNL     1     -13.582 -20.412 -10.181  1.00  0.00     0.059 A 
ATOM    100  F   UNL     1     -11.659 -19.501  -9.191  1.00  0.00    -0.206 F 
ATOM    101  C   UNL     1     -14.661 -20.271 -11.054  1.00  0.00     0.060 A 
BRANCH 101 102
ATOM    102  S   UNL     1     -15.882 -21.590 -11.225  1.00  0.00     0.124 S 
ATOM    103  O   UNL     1     -17.066 -20.982 -10.627  1.00  0.00    -0.237 OA
ATOM    104  O   UNL     1     -15.928 -21.780 -12.671  1.00  0.00    -0.237 OA
ATOM    105  O   UNL     1     -15.296 -22.696 -10.473  1.00  0.00    -0.744 OA
ENDBRANCH 101 102
ENDBRANCH  69  94
ENDBRANCH  43  44
ENDBRANCH  35  38
ENDBRANCH  33  34
ENDBRANCH  32  33
ENDBRANCH   1  32
TORSDOF 17
