REMARK SMILES CCCc1cc(OC(F)(F)F)cc2c1O[C@H](C(F)(F)F)C(C(=O)NCCCCNC(=O)c1ccc(-c3c4nc(c(-c5c(F)cc(S(=O)(=O)[O-])cc5F)c5ccc([nH]5)c(-c5c(F)cc(S(=O)(=O)[O-])cc5F)c5nc(c(-c6c(F)cc(S(=O)(=O)[O-])cc6F)c6ccc3[nH]6)C=C5)C=C4)cc1)=C2
REMARK SMILES IDX 27 1 26 2 25 3 24 4 22 5 23 6 21 8 4 9 5 10 14 11 6 12 13 13
REMARK SMILES IDX 15 14 12 15 98 16 16 17 3 18 2 19 1 20 7 21 8 22 9 23 10 24
REMARK SMILES IDX 11 25 17 26 18 27 19 28 20 29 28 30 29 31 30 32 31 34 32 35
REMARK SMILES IDX 33 36 97 37 34 38 96 39 35 40 36 41 37 42 90 43 38 44 95 45
REMARK SMILES IDX 89 46 91 47 39 48 94 49 88 50 87 51 40 53 74 54 53 55 73 56
REMARK SMILES IDX 54 57 57 58 72 59 92 60 55 61 56 62 71 64 93 65 58 66 41 67
REMARK SMILES IDX 42 68 51 69 43 70 44 71 50 72 52 73 45 74 46 75 47 76 48 77
REMARK SMILES IDX 49 78 75 79 76 80 85 81 77 82 78 83 84 84 86 85 79 86 80 87
REMARK SMILES IDX 81 88 82 89 83 90 59 91 60 92 69 93 61 94 62 95 68 96 70 97
REMARK SMILES IDX 63 98 64 99 65 100 66 101 67 102
REMARK H PARENT 24 7 29 33 91 52 57 63
REMARK Flexibility Score: inf
ROOT
ATOM      1  C   UNL     1      -4.906   6.786  -2.719  1.00  0.00     0.023 C 
ENDROOT
BRANCH   1   2
ATOM      2  C   UNL     1      -4.013   6.190  -1.628  1.00  0.00     0.023 C 
BRANCH   2   3
ATOM      3  C   UNL     1      -4.734   5.232  -0.678  1.00  0.00     0.116 C 
BRANCH   3   4
ATOM      4  N   UNL     1      -4.864   3.916  -1.268  1.00  0.00    -0.352 N 
ATOM      5  C   UNL     1      -4.065   2.821  -1.258  1.00  0.00     0.251 C 
ATOM      6  O   UNL     1      -4.492   1.809  -1.815  1.00  0.00    -0.270 OA
ATOM      7  H   UNL     1      -5.697   3.793  -1.779  1.00  0.00     0.163 HD
BRANCH   5   8
ATOM      8  C   UNL     1      -2.757   2.749  -0.540  1.00  0.00     0.067 C 
ATOM      9  C   UNL     1       0.561   1.917   1.922  1.00  0.00    -0.002 A 
ATOM     10  C   UNL     1       1.361   2.999   2.353  1.00  0.00     0.054 A 
ATOM     11  C   UNL     1      -0.553   2.190   1.114  1.00  0.00     0.131 A 
ATOM     12  C   UNL     1       1.077   4.311   1.967  1.00  0.00     0.130 A 
ATOM     13  C   UNL     1      -0.826   3.497   0.698  1.00  0.00     0.021 A 
ATOM     14  O   UNL     1      -1.408   1.163   0.816  1.00  0.00    -0.475 OA
ATOM     15  C   UNL     1      -0.008   4.548   1.123  1.00  0.00     0.058 A 
ATOM     16  C   UNL     1      -2.020   3.775  -0.092  1.00  0.00     0.025 C 
ATOM     17  C   UNL     1      -2.245   1.329  -0.364  1.00  0.00     0.314 C 
BRANCH   9  18
ATOM     18  C   UNL     1       0.913   0.527   2.414  1.00  0.00     0.039 C 
BRANCH  18  19
ATOM     19  C   UNL     1       0.864  -0.628   1.404  1.00  0.00     0.001 C 
ATOM     20  C   UNL     1       1.710  -0.398   0.160  1.00  0.00     0.004 C 
ENDBRANCH  18  19
ENDBRANCH   9  18
BRANCH  12  21
ATOM     21  O   UNL     1       1.751   5.437   2.342  1.00  0.00    -0.406 OA
BRANCH  21  22
ATOM     22  C   UNL     1       2.809   5.302   3.274  1.00  0.00     0.573 C 
ATOM     23  F   UNL     1       2.379   4.751   4.430  1.00  0.00    -0.132 F 
ATOM     24  F   UNL     1       3.812   4.555   2.764  1.00  0.00    -0.132 F 
ATOM     25  F   UNL     1       3.301   6.530   3.554  1.00  0.00    -0.132 F 
ENDBRANCH  21  22
ENDBRANCH  12  21
BRANCH  17  26
ATOM     26  C   UNL     1      -1.509   0.802  -1.614  1.00  0.00     0.429 C 
ATOM     27  F   UNL     1      -2.271   0.794  -2.728  1.00  0.00    -0.167 F 
ATOM     28  F   UNL     1      -0.406   1.538  -1.900  1.00  0.00    -0.167 F 
ATOM     29  F   UNL     1      -1.091  -0.476  -1.424  1.00  0.00    -0.167 F 
ENDBRANCH  17  26
ENDBRANCH   5   8
ENDBRANCH   3   4
ENDBRANCH   2   3
ENDBRANCH   1   2
BRANCH   1  30
ATOM     30  C   UNL     1      -6.066   7.633  -2.206  1.00  0.00     0.116 C 
BRANCH  30  31
ATOM     31  N   UNL     1      -5.646   8.716  -1.331  1.00  0.00    -0.352 N 
ATOM     32  C   UNL     1      -6.297   9.900  -1.076  1.00  0.00     0.251 C 
ATOM     33  H   UNL     1      -4.789   8.585  -0.863  1.00  0.00     0.163 HD
ATOM     34  O   UNL     1      -5.768  10.763  -0.388  1.00  0.00    -0.269 OA
BRANCH  32  35
ATOM     35  C   UNL     1      -7.620  10.130  -1.690  1.00  0.00     0.039 A 
ATOM     36  C   UNL     1      -7.818  11.290  -2.441  1.00  0.00     0.014 A 
ATOM     37  C   UNL     1      -8.636   9.178  -1.568  1.00  0.00     0.014 A 
ATOM     38  C   UNL     1      -9.019  11.464  -3.130  1.00  0.00     0.010 A 
ATOM     39  C   UNL     1      -9.806   9.324  -2.303  1.00  0.00     0.010 A 
ATOM     40  C   UNL     1     -10.007  10.466  -3.094  1.00  0.00    -0.014 A 
BRANCH  40  41
ATOM     41  C   UNL     1     -11.255  10.594  -3.884  1.00  0.00     0.031 A 
ATOM     42  C   UNL     1     -12.578  10.723  -3.183  1.00  0.00     0.074 A 
ATOM     43  C   UNL     1     -11.200  10.520  -5.228  1.00  0.00     0.049 A 
ATOM     44  N   UNL     1     -13.781  10.769  -3.692  1.00  0.00    -0.248 NA
ATOM     45  C   UNL     1     -12.545  10.777  -1.712  1.00  0.00     0.031 C 
ATOM     46  C   UNL     1      -9.979  10.339  -6.017  1.00  0.00     0.029 A 
ATOM     47  N   UNL     1     -12.197  10.574  -6.168  1.00  0.00    -0.354 N 
ATOM     48  C   UNL     1     -14.648  10.840  -2.609  1.00  0.00     0.074 A 
ATOM     49  C   UNL     1     -13.836  10.784  -1.413  1.00  0.00     0.031 C 
ATOM     50  C   UNL     1     -10.299  10.315  -7.322  1.00  0.00     0.029 A 
ATOM     51  C   UNL     1     -11.745  10.448  -7.460  1.00  0.00     0.049 A 
ATOM     52  H   UNL     1     -13.148  10.691  -5.939  1.00  0.00     0.167 HD
ATOM     53  C   UNL     1     -15.996  10.964  -2.613  1.00  0.00     0.037 A 
ATOM     54  C   UNL     1     -12.422  10.439  -8.625  1.00  0.00     0.037 A 
ATOM     55  C   UNL     1     -16.794  11.052  -3.807  1.00  0.00     0.049 A 
ATOM     56  C   UNL     1     -13.917  10.603  -8.604  1.00  0.00     0.074 A 
ATOM     57  C   UNL     1     -18.160  11.241  -3.919  1.00  0.00     0.029 A 
ATOM     58  N   UNL     1     -16.296  10.960  -5.099  1.00  0.00    -0.354 N 
ATOM     59  N   UNL     1     -14.716  10.732  -7.572  1.00  0.00    -0.248 NA
ATOM     60  C   UNL     1     -14.601  10.629  -9.904  1.00  0.00     0.031 C 
ATOM     61  C   UNL     1     -18.492  11.234  -5.278  1.00  0.00     0.029 A 
ATOM     62  C   UNL     1     -17.328  11.077  -6.014  1.00  0.00     0.049 A 
ATOM     63  H   UNL     1     -15.348  10.831  -5.330  1.00  0.00     0.167 HD
ATOM     64  C   UNL     1     -15.994  10.877  -8.098  1.00  0.00     0.074 A 
ATOM     65  C   UNL     1     -15.861  10.830  -9.540  1.00  0.00     0.031 C 
ATOM     66  C   UNL     1     -17.173  11.036  -7.446  1.00  0.00     0.037 A 
BRANCH  53  67
ATOM     67  C   UNL     1     -16.689  11.020  -1.280  1.00  0.00     0.058 A 
ATOM     68  C   UNL     1     -16.588  12.146  -0.448  1.00  0.00     0.135 A 
ATOM     69  C   UNL     1     -17.476   9.945  -0.837  1.00  0.00     0.135 A 
ATOM     70  F   UNL     1     -15.834  13.194  -0.817  1.00  0.00    -0.206 F 
ATOM     71  C   UNL     1     -17.215  12.192   0.793  1.00  0.00     0.059 A 
ATOM     72  C   UNL     1     -18.133   9.980   0.390  1.00  0.00     0.059 A 
ATOM     73  F   UNL     1     -17.605   8.844  -1.593  1.00  0.00    -0.206 F 
ATOM     74  C   UNL     1     -17.982  11.101   1.205  1.00  0.00     0.060 A 
BRANCH  74  75
ATOM     75  S   UNL     1     -18.785  11.171   2.820  1.00  0.00     0.124 S 
ATOM     76  O   UNL     1     -17.657  10.928   3.714  1.00  0.00    -0.237 OA
ATOM     77  O   UNL     1     -19.330  12.524   2.843  1.00  0.00    -0.237 OA
ATOM     78  O   UNL     1     -19.775  10.101   2.753  1.00  0.00    -0.744 OA
ENDBRANCH  74  75
ENDBRANCH  53  67
BRANCH  54  79
ATOM     79  C   UNL     1     -11.686  10.300  -9.908  1.00  0.00     0.058 A 
ATOM     80  C   UNL     1     -11.531  11.397 -10.769  1.00  0.00     0.135 A 
ATOM     81  C   UNL     1     -11.108   9.080 -10.290  1.00  0.00     0.135 A 
ATOM     82  F   UNL     1     -12.071  12.582 -10.447  1.00  0.00    -0.206 F 
ATOM     83  C   UNL     1     -10.839  11.288 -11.970  1.00  0.00     0.059 A 
ATOM     84  C   UNL     1     -10.393   8.951 -11.477  1.00  0.00     0.059 A 
ATOM     85  F   UNL     1     -11.213   8.007  -9.491  1.00  0.00    -0.206 F 
ATOM     86  C   UNL     1     -10.272  10.059 -12.315  1.00  0.00     0.060 A 
BRANCH  86  87
ATOM     87  S   UNL     1      -9.329   9.941 -13.851  1.00  0.00     0.124 S 
ATOM     88  O   UNL     1     -10.393   9.905 -14.847  1.00  0.00    -0.237 OA
ATOM     89  O   UNL     1      -8.527  11.160 -13.816  1.00  0.00    -0.237 OA
ATOM     90  O   UNL     1      -8.575   8.701 -13.684  1.00  0.00    -0.744 OA
ENDBRANCH  86  87
ENDBRANCH  54  79
BRANCH  66  91
ATOM     91  C   UNL     1     -18.407  11.199  -8.286  1.00  0.00     0.058 A 
ATOM     92  C   UNL     1     -18.998  10.110  -8.943  1.00  0.00     0.135 A 
ATOM     93  C   UNL     1     -19.035  12.450  -8.388  1.00  0.00     0.135 A 
ATOM     94  F   UNL     1     -18.431   8.895  -8.881  1.00  0.00    -0.206 F 
ATOM     95  C   UNL     1     -20.162  10.258  -9.690  1.00  0.00     0.059 A 
ATOM     96  C   UNL     1     -20.212  12.618  -9.111  1.00  0.00     0.059 A 
ATOM     97  F   UNL     1     -18.514  13.522  -7.770  1.00  0.00    -0.206 F 
ATOM     98  C   UNL     1     -20.762  11.517  -9.767  1.00  0.00     0.060 A 
BRANCH  98  99
ATOM     99  S   UNL     1     -22.294  11.691 -10.706  1.00  0.00     0.124 S 
ATOM    100  O   UNL     1     -21.798  11.690 -12.078  1.00  0.00    -0.237 OA
ATOM    101  O   UNL     1     -23.047  10.508 -10.303  1.00  0.00    -0.237 OA
ATOM    102  O   UNL     1     -22.837  12.962 -10.234  1.00  0.00    -0.744 OA
ENDBRANCH  98  99
ENDBRANCH  66  91
ENDBRANCH  40  41
ENDBRANCH  32  35
ENDBRANCH  30  31
ENDBRANCH   1  30
TORSDOF 19
