REMARK SMILES O=C(NCCCCNC(=O)[C@@H]1CCCN(c2ccc3cc(S(=O)(=O)N4CCCCC4)ccc3n2)C1)c1ccc(-c2c3nc(c(-c4c(F)cc(S(=O)(=O)[O-])cc4F)c4ccc([nH]4)c(-c4c(F)cc(S(=O)(=O)[O-])cc4F)c4nc(c(-c5c(F)cc(S(=O)(=O)[O-])cc5F)c5ccc2[nH]5)C=C4)C=C3)cc1
REMARK SMILES IDX 5 1 4 2 3 3 1 4 2 5 36 7 37 8 101 9 38 10 100 11 39 12 40 13
REMARK SMILES IDX 41 14 94 15 42 16 99 17 93 18 95 19 43 20 98 21 92 22 91 23
REMARK SMILES IDX 44 25 78 26 57 27 77 28 58 29 61 30 76 31 96 32 59 33 60 34
REMARK SMILES IDX 75 36 97 37 62 38 45 39 46 40 55 41 47 42 48 43 54 44 56 45
REMARK SMILES IDX 49 46 50 47 51 48 52 49 53 50 79 51 80 52 89 53 81 54 82 55
REMARK SMILES IDX 88 56 90 57 83 58 84 59 85 60 86 61 87 62 63 63 64 64 73 65
REMARK SMILES IDX 65 66 66 67 72 68 74 69 67 70 68 71 69 72 70 73 71 74 6 75
REMARK SMILES IDX 7 76 8 77 9 78 10 80 11 81 12 82 35 83 13 84 15 85 14 86
REMARK SMILES IDX 16 87 17 88 34 89 18 90 33 91 19 92 32 93 20 94 31 95 21 96
REMARK SMILES IDX 22 97 23 98 24 99 25 100 26 101 30 102 27 103 29 104 28 105
REMARK H PARENT 3 6 95 24 61 35 8 79
REMARK Flexibility Score: inf
ROOT
ATOM      1  C   UNL     1       5.080  -1.304  -1.727  1.00  0.00     0.023 C 
ENDROOT
BRANCH   1   2
ATOM      2  C   UNL     1       4.574  -0.254  -0.756  1.00  0.00     0.116 C 
BRANCH   2   3
ATOM      3  N   UNL     1       3.126  -0.064  -0.802  1.00  0.00    -0.352 N 
ATOM      4  O   UNL     1       1.044   0.099   0.082  1.00  0.00    -0.269 OA
ATOM      5  C   UNL     1       2.255   0.045   0.258  1.00  0.00     0.251 C 
ATOM      6  H   UNL     1       2.725  -0.007  -1.699  1.00  0.00     0.163 HD
BRANCH   5   7
ATOM      7  C   UNL     1       2.831   0.059   1.615  1.00  0.00     0.039 A 
ATOM      8  C   UNL     1       3.904   0.909   1.882  1.00  0.00     0.014 A 
ATOM      9  C   UNL     1       2.399  -0.874   2.559  1.00  0.00     0.014 A 
ATOM     10  C   UNL     1       4.669   0.692   3.014  1.00  0.00     0.010 A 
ATOM     11  C   UNL     1       3.099  -1.001   3.760  1.00  0.00     0.010 A 
ATOM     12  C   UNL     1       4.262  -0.245   3.980  1.00  0.00    -0.014 A 
BRANCH  12  13
ATOM     13  C   UNL     1       5.038  -0.346   5.239  1.00  0.00     0.031 A 
ATOM     14  C   UNL     1       5.729  -1.619   5.642  1.00  0.00     0.074 A 
ATOM     15  C   UNL     1       5.146   0.765   5.995  1.00  0.00     0.049 A 
ATOM     16  N   UNL     1       6.437  -1.859   6.716  1.00  0.00    -0.248 NA
ATOM     17  C   UNL     1       5.607  -2.772   4.736  1.00  0.00     0.031 C 
ATOM     18  C   UNL     1       4.508   2.051   5.693  1.00  0.00     0.029 A 
ATOM     19  N   UNL     1       5.847   1.009   7.145  1.00  0.00    -0.354 N 
ATOM     20  C   UNL     1       6.815  -3.195   6.636  1.00  0.00     0.074 A 
ATOM     21  C   UNL     1       6.251  -3.717   5.410  1.00  0.00     0.031 C 
ATOM     22  C   UNL     1       4.904   2.963   6.589  1.00  0.00     0.029 A 
ATOM     23  C   UNL     1       5.743   2.308   7.581  1.00  0.00     0.049 A 
ATOM     24  H   UNL     1       6.374   0.322   7.613  1.00  0.00     0.167 HD
ATOM     25  C   UNL     1       7.563  -3.911   7.511  1.00  0.00     0.037 A 
ATOM     26  C   UNL     1       6.242   2.905   8.678  1.00  0.00     0.037 A 
ATOM     27  C   UNL     1       8.137  -3.362   8.715  1.00  0.00     0.049 A 
ATOM     28  C   UNL     1       7.060   2.087   9.628  1.00  0.00     0.074 A 
ATOM     29  C   UNL     1       8.929  -3.994   9.658  1.00  0.00     0.029 A 
ATOM     30  N   UNL     1       7.982  -2.050   9.142  1.00  0.00    -0.354 N 
ATOM     31  N   UNL     1       7.401   0.824   9.539  1.00  0.00    -0.248 NA
ATOM     32  C   UNL     1       7.548   2.766  10.833  1.00  0.00     0.031 C 
ATOM     33  C   UNL     1       9.222  -3.075  10.672  1.00  0.00     0.029 A 
ATOM     34  C   UNL     1       8.650  -1.857  10.341  1.00  0.00     0.049 A 
ATOM     35  H   UNL     1       7.474  -1.357   8.662  1.00  0.00     0.167 HD
ATOM     36  C   UNL     1       8.149   0.554  10.676  1.00  0.00     0.074 A 
ATOM     37  C   UNL     1       8.230   1.794  11.424  1.00  0.00     0.031 C 
ATOM     38  C   UNL     1       8.711  -0.615  11.070  1.00  0.00     0.037 A 
BRANCH  25  39
ATOM     39  C   UNL     1       7.785  -5.372   7.220  1.00  0.00     0.058 A 
ATOM     40  C   UNL     1       8.649  -5.806   6.203  1.00  0.00     0.135 A 
ATOM     41  C   UNL     1       7.162  -6.353   8.010  1.00  0.00     0.135 A 
ATOM     42  F   UNL     1       9.260  -4.912   5.409  1.00  0.00    -0.206 F 
ATOM     43  C   UNL     1       8.874  -7.160   5.967  1.00  0.00     0.059 A 
ATOM     44  C   UNL     1       7.391  -7.712   7.807  1.00  0.00     0.059 A 
ATOM     45  F   UNL     1       6.326  -5.996   8.998  1.00  0.00    -0.206 F 
ATOM     46  C   UNL     1       8.240  -8.106   6.775  1.00  0.00     0.060 A 
BRANCH  46  47
ATOM     47  S   UNL     1       8.553  -9.859   6.472  1.00  0.00     0.124 S 
ATOM     48  O   UNL     1       7.761 -10.092   5.268  1.00  0.00    -0.237 OA
ATOM     49  O   UNL     1      10.001  -9.894   6.295  1.00  0.00    -0.237 OA
ATOM     50  O   UNL     1       8.058 -10.507   7.683  1.00  0.00    -0.744 OA
ENDBRANCH  46  47
ENDBRANCH  25  39
BRANCH  26  51
ATOM     51  C   UNL     1       5.947   4.339   8.928  1.00  0.00     0.058 A 
ATOM     52  C   UNL     1       6.947   5.314   8.818  1.00  0.00     0.135 A 
ATOM     53  C   UNL     1       4.643   4.767   9.225  1.00  0.00     0.135 A 
ATOM     54  F   UNL     1       8.208   4.952   8.535  1.00  0.00    -0.206 F 
ATOM     55  C   UNL     1       6.668   6.664   8.999  1.00  0.00     0.059 A 
ATOM     56  C   UNL     1       4.333   6.112   9.381  1.00  0.00     0.059 A 
ATOM     57  F   UNL     1       3.645   3.873   9.317  1.00  0.00    -0.206 F 
ATOM     58  C   UNL     1       5.355   7.053   9.275  1.00  0.00     0.060 A 
BRANCH  58  59
ATOM     59  S   UNL     1       4.987   8.813   9.445  1.00  0.00     0.124 S 
ATOM     60  O   UNL     1       5.501   9.091  10.780  1.00  0.00    -0.237 OA
ATOM     61  O   UNL     1       5.737   9.394   8.336  1.00  0.00    -0.237 OA
ATOM     62  O   UNL     1       3.534   8.864   9.302  1.00  0.00    -0.744 OA
ENDBRANCH  58  59
ENDBRANCH  26  51
BRANCH  38  63
ATOM     63  C   UNL     1       9.476  -0.593  12.361  1.00  0.00     0.058 A 
ATOM     64  C   UNL     1       8.820  -0.537  13.600  1.00  0.00     0.135 A 
ATOM     65  C   UNL     1      10.878  -0.650  12.357  1.00  0.00     0.135 A 
ATOM     66  F   UNL     1       7.480  -0.469  13.654  1.00  0.00    -0.206 F 
ATOM     67  C   UNL     1       9.531  -0.512  14.794  1.00  0.00     0.059 A 
ATOM     68  C   UNL     1      11.608  -0.651  13.540  1.00  0.00     0.059 A 
ATOM     69  F   UNL     1      11.549  -0.710  11.196  1.00  0.00    -0.206 F 
ATOM     70  C   UNL     1      10.926  -0.568  14.753  1.00  0.00     0.060 A 
BRANCH  70  71
ATOM     71  S   UNL     1      11.838  -0.556  16.310  1.00  0.00     0.124 S 
ATOM     72  O   UNL     1      11.747   0.849  16.693  1.00  0.00    -0.237 OA
ATOM     73  O   UNL     1      11.072  -1.488  17.131  1.00  0.00    -0.237 OA
ATOM     74  O   UNL     1      13.169  -1.017  15.926  1.00  0.00    -0.744 OA
ENDBRANCH  70  71
ENDBRANCH  38  63
ENDBRANCH  12  13
ENDBRANCH   5   7
ENDBRANCH   2   3
ENDBRANCH   1   2
BRANCH   1  75
ATOM     75  C   UNL     1       4.670  -1.062  -3.170  1.00  0.00     0.023 C 
BRANCH  75  76
ATOM     76  C   UNL     1       5.115   0.274  -3.753  1.00  0.00     0.116 C 
BRANCH  76  77
ATOM     77  N   UNL     1       6.493   0.295  -4.191  1.00  0.00    -0.356 N 
ATOM     78  C   UNL     1       7.053   0.412  -5.420  1.00  0.00     0.224 C 
ATOM     79  H   UNL     1       7.146   0.209  -3.460  1.00  0.00     0.163 HD
ATOM     80  O   UNL     1       8.291   0.474  -5.447  1.00  0.00    -0.275 OA
BRANCH  78  81
ATOM     81  C   UNL     1       6.303   0.367  -6.755  1.00  0.00     0.098 C 
ATOM     82  C   UNL     1       4.925   1.007  -6.906  1.00  0.00     0.017 C 
ATOM     83  C   UNL     1       6.312  -1.050  -7.301  1.00  0.00     0.131 C 
ATOM     84  C   UNL     1       3.703   0.062  -6.909  1.00  0.00     0.022 C 
ATOM     85  N   UNL     1       5.310  -1.822  -6.595  1.00  0.00    -0.356 N 
ATOM     86  C   UNL     1       3.919  -1.463  -6.810  1.00  0.00     0.118 C 
BRANCH  85  87
ATOM     87  C   UNL     1       5.630  -2.996  -5.935  1.00  0.00     0.129 A 
ATOM     88  C   UNL     1       6.876  -3.159  -5.324  1.00  0.00     0.047 A 
ATOM     89  N   UNL     1       4.677  -3.945  -5.792  1.00  0.00    -0.231 NA
ATOM     90  C   UNL     1       7.147  -4.284  -4.555  1.00  0.00     0.014 A 
ATOM     91  C   UNL     1       4.943  -5.056  -5.075  1.00  0.00     0.073 A 
ATOM     92  C   UNL     1       6.175  -5.266  -4.429  1.00  0.00     0.002 A 
ATOM     93  C   UNL     1       3.983  -6.053  -4.960  1.00  0.00     0.030 A 
ATOM     94  C   UNL     1       6.420  -6.434  -3.691  1.00  0.00     0.032 A 
ATOM     95  C   UNL     1       4.221  -7.238  -4.247  1.00  0.00     0.024 A 
ATOM     96  C   UNL     1       5.446  -7.431  -3.614  1.00  0.00     0.083 A 
BRANCH  96  97
ATOM     97  S   UNL     1       5.908  -8.914  -2.731  1.00  0.00     0.243 S 
ATOM     98  O   UNL     1       7.110  -9.393  -3.390  1.00  0.00    -0.207 OA
ATOM     99  O   UNL     1       5.897  -8.560  -1.333  1.00  0.00    -0.207 OA
BRANCH  97 100
ATOM    100  N   UNL     1       4.691 -10.078  -3.000  1.00  0.00    -0.198 NA
ATOM    101  C   UNL     1       3.448  -9.917  -2.209  1.00  0.00     0.102 C 
ATOM    102  C   UNL     1       4.603 -10.626  -4.372  1.00  0.00     0.102 C 
ATOM    103  C   UNL     1       2.492 -11.089  -2.385  1.00  0.00     0.017 C 
ATOM    104  C   UNL     1       3.627 -11.788  -4.467  1.00  0.00     0.017 C 
ATOM    105  C   UNL     1       2.285 -11.427  -3.852  1.00  0.00     0.003 C 
ENDBRANCH  97 100
ENDBRANCH  96  97
ENDBRANCH  85  87
ENDBRANCH  78  81
ENDBRANCH  76  77
ENDBRANCH  75  76
ENDBRANCH   1  75
TORSDOF 17
