REMARK SMILES COc1ccc(-c2ccc(/C=C3\SC(=S)N([C@H](Cc4ccccc4)C(=O)NCCCCNC(=O)c4ccc(-c5c6nc(c(-c7c(F)cc(S(=O)(=O)[O-])cc7F)c7ccc([nH]7)c(-c7c(F)cc(S(=O)(=O)[O-])cc7F)c7nc(c(-c8c(F)cc(S(=O)(=O)[O-])cc8F)c8ccc5[nH]8)C=C7)C=C6)cc4)C3=O)o2)cc1
REMARK SMILES IDX 29 1 28 2 27 3 25 4 26 5 17 7 16 8 11 9 12 10 13 11 101 12
REMARK SMILES IDX 14 13 102 14 15 15 10 16 7 17 8 18 103 19 9 20 6 21 3 22
REMARK SMILES IDX 4 23 105 24 5 25 104 26 2 27 1 28 18 29 19 30 20 31 24 32
REMARK SMILES IDX 21 33 23 34 22 35 30 36 31 37 32 38 33 39 34 41 35 42 36 43
REMARK SMILES IDX 100 44 37 45 99 46 38 47 39 48 40 49 93 50 41 51 98 52 92 53
REMARK SMILES IDX 94 54 42 55 97 56 91 57 90 58 43 60 77 61 56 62 76 63 57 64
REMARK SMILES IDX 60 65 75 66 95 67 58 68 59 69 74 71 96 72 61 73 44 74 45 75
REMARK SMILES IDX 54 76 46 77 47 78 53 79 55 80 48 81 49 82 50 83 51 84 52 85
REMARK SMILES IDX 78 86 79 87 88 88 80 89 81 90 87 91 89 92 82 93 83 94 84 95
REMARK SMILES IDX 85 96 86 97 62 98 63 99 72 100 64 101 65 102 71 103 73 104
REMARK SMILES IDX 66 105 67 106 68 107 69 108 70 109
REMARK H PARENT 27 6 32 40 94 59 60 70
REMARK Flexibility Score: inf
ROOT
ATOM      1  C   UNL     1       3.030  10.409   7.117  1.00  0.00     0.023 C 
ENDROOT
BRANCH   1   2
ATOM      2  C   UNL     1       2.125  11.565   7.524  1.00  0.00     0.116 C 
BRANCH   2   3
ATOM      3  N   UNL     1       2.642  12.853   7.092  1.00  0.00    -0.354 N 
ATOM      4  C   UNL     1       2.021  13.873   6.419  1.00  0.00     0.243 C 
ATOM      5  O   UNL     1       2.636  14.934   6.279  1.00  0.00    -0.273 OA
ATOM      6  H   UNL     1       3.586  13.019   7.318  1.00  0.00     0.163 HD
BRANCH   4   7
ATOM      7  C   UNL     1       0.638  13.682   5.745  1.00  0.00     0.185 C 
BRANCH   7   8
ATOM      8  N   UNL     1      -0.538  13.518   6.656  1.00  0.00    -0.280 N 
ATOM      9  C   UNL     1      -1.709  12.743   9.984  1.00  0.00     0.068 C 
ATOM     10  C   UNL     1      -1.659  13.031   8.678  1.00  0.00     0.084 C 
ATOM     11  S   UNL     1      -2.905  12.943   7.512  1.00  0.00    -0.054 SA
ATOM     12  C   UNL     1      -0.405  13.491   8.034  1.00  0.00     0.267 C 
ATOM     13  C   UNL     1      -1.856  13.559   6.240  1.00  0.00     0.149 C 
ATOM     14  O   UNL     1       0.569  13.821   8.698  1.00  0.00    -0.268 OA
ATOM     15  S   UNL     1      -2.516  14.132   4.824  1.00  0.00    -0.052 S 
BRANCH   9  16
ATOM     16  C   UNL     1      -2.863  12.207  10.610  1.00  0.00     0.128 A 
ATOM     17  C   UNL     1      -4.574  12.066  12.014  1.00  0.00     0.134 A 
ATOM     18  C   UNL     1      -4.602  10.914  11.264  1.00  0.00     0.051 A 
ATOM     19  O   UNL     1      -3.521  12.842  11.635  1.00  0.00    -0.457 OA
ATOM     20  C   UNL     1      -3.517  11.005  10.366  1.00  0.00     0.051 A 
BRANCH  17  21
ATOM     21  C   UNL     1      -5.413  12.587  13.077  1.00  0.00     0.017 A 
ATOM     22  C   UNL     1      -7.161  13.546  15.065  1.00  0.00     0.118 A 
ATOM     23  C   UNL     1      -6.687  14.399  14.066  1.00  0.00     0.047 A 
ATOM     24  C   UNL     1      -6.753  12.213  15.075  1.00  0.00     0.047 A 
ATOM     25  C   UNL     1      -5.808  13.929  13.087  1.00  0.00     0.016 A 
ATOM     26  C   UNL     1      -5.889  11.736  14.082  1.00  0.00     0.016 A 
BRANCH  22  27
ATOM     27  O   UNL     1      -8.036  14.119  15.946  1.00  0.00    -0.497 OA
ATOM     28  C   UNL     1      -8.238  13.427  17.172  1.00  0.00     0.278 C 
ENDBRANCH  22  27
ENDBRANCH  17  21
ENDBRANCH   9  16
ENDBRANCH   7   8
BRANCH   7  29
ATOM     29  C   UNL     1       0.823  12.504   4.731  1.00  0.00     0.071 C 
BRANCH  29  30
ATOM     30  C   UNL     1       0.182  12.594   3.366  1.00  0.00    -0.045 A 
ATOM     31  C   UNL     1       0.263  13.749   2.578  1.00  0.00     0.004 A 
ATOM     32  C   UNL     1      -0.458  11.460   2.838  1.00  0.00     0.004 A 
ATOM     33  C   UNL     1      -0.358  13.794   1.328  1.00  0.00     0.000 A 
ATOM     34  C   UNL     1      -1.064  11.503   1.582  1.00  0.00     0.000 A 
ATOM     35  C   UNL     1      -1.027  12.675   0.834  1.00  0.00     0.000 A 
ENDBRANCH  29  30
ENDBRANCH   7  29
ENDBRANCH   4   7
ENDBRANCH   2   3
ENDBRANCH   1   2
BRANCH   1  36
ATOM     36  C   UNL     1       4.348  10.340   7.890  1.00  0.00     0.023 C 
BRANCH  36  37
ATOM     37  C   UNL     1       4.209  10.290   9.409  1.00  0.00     0.116 C 
BRANCH  37  38
ATOM     38  N   UNL     1       3.413   9.163   9.874  1.00  0.00    -0.352 N 
ATOM     39  C   UNL     1       3.667   8.316  10.928  1.00  0.00     0.251 C 
ATOM     40  H   UNL     1       2.586   8.985   9.370  1.00  0.00     0.163 HD
ATOM     41  O   UNL     1       2.957   7.334  11.119  1.00  0.00    -0.269 OA
BRANCH  39  42
ATOM     42  C   UNL     1       4.827   8.588  11.800  1.00  0.00     0.039 A 
ATOM     43  C   UNL     1       5.758   7.573  12.030  1.00  0.00     0.014 A 
ATOM     44  C   UNL     1       5.022   9.865  12.334  1.00  0.00     0.014 A 
ATOM     45  C   UNL     1       6.927   7.860  12.739  1.00  0.00     0.010 A 
ATOM     46  C   UNL     1       6.218  10.166  12.976  1.00  0.00     0.010 A 
ATOM     47  C   UNL     1       7.184   9.168  13.182  1.00  0.00    -0.014 A 
BRANCH  47  48
ATOM     48  C   UNL     1       8.456   9.521  13.864  1.00  0.00     0.031 A 
ATOM     49  C   UNL     1       8.431  10.007  15.287  1.00  0.00     0.074 A 
ATOM     50  C   UNL     1       9.617   9.483  13.180  1.00  0.00     0.049 A 
ATOM     51  N   UNL     1       9.412  10.463  16.022  1.00  0.00    -0.248 NA
ATOM     52  C   UNL     1       7.123  10.008  15.964  1.00  0.00     0.031 C 
ATOM     53  C   UNL     1       9.764   9.075  11.781  1.00  0.00     0.029 A 
ATOM     54  N   UNL     1      10.893   9.810  13.564  1.00  0.00    -0.354 N 
ATOM     55  C   UNL     1       8.839  10.823  17.236  1.00  0.00     0.074 A 
ATOM     56  C   UNL     1       7.418  10.579  17.122  1.00  0.00     0.031 C 
ATOM     57  C   UNL     1      11.057   9.161  11.431  1.00  0.00     0.029 A 
ATOM     58  C   UNL     1      11.826   9.665  12.564  1.00  0.00     0.049 A 
ATOM     59  H   UNL     1      11.120  10.118  14.471  1.00  0.00     0.167 HD
ATOM     60  C   UNL     1       9.446  11.293  18.352  1.00  0.00     0.037 A 
ATOM     61  C   UNL     1      13.149   9.922  12.557  1.00  0.00     0.037 A 
ATOM     62  C   UNL     1      10.865  11.505  18.468  1.00  0.00     0.049 A 
ATOM     63  C   UNL     1      13.803  10.439  13.810  1.00  0.00     0.074 A 
ATOM     64  C   UNL     1      11.585  11.922  19.573  1.00  0.00     0.029 A 
ATOM     65  N   UNL     1      11.780  11.315  17.443  1.00  0.00    -0.354 N 
ATOM     66  N   UNL     1      13.255  10.718  14.970  1.00  0.00    -0.248 NA
ATOM     67  C   UNL     1      15.253  10.671  13.759  1.00  0.00     0.031 C 
ATOM     68  C   UNL     1      12.931  12.021  19.206  1.00  0.00     0.029 A 
ATOM     69  C   UNL     1      13.056  11.620  17.886  1.00  0.00     0.049 A 
ATOM     70  H   UNL     1      11.556  11.008  16.535  1.00  0.00     0.167 HD
ATOM     71  C   UNL     1      14.297  11.128  15.794  1.00  0.00     0.074 A 
ATOM     72  C   UNL     1      15.508  11.055  15.003  1.00  0.00     0.031 C 
ATOM     73  C   UNL     1      14.255  11.526  17.089  1.00  0.00     0.037 A 
BRANCH  60  74
ATOM     74  C   UNL     1       8.576  11.603  19.538  1.00  0.00     0.058 A 
ATOM     75  C   UNL     1       7.957  10.585  20.282  1.00  0.00     0.135 A 
ATOM     76  C   UNL     1       8.382  12.929  19.956  1.00  0.00     0.135 A 
ATOM     77  F   UNL     1       8.096   9.301  19.918  1.00  0.00    -0.206 F 
ATOM     78  C   UNL     1       7.151  10.873  21.378  1.00  0.00     0.059 A 
ATOM     79  C   UNL     1       7.602  13.239  21.067  1.00  0.00     0.059 A 
ATOM     80  F   UNL     1       8.951  13.941  19.282  1.00  0.00    -0.206 F 
ATOM     81  C   UNL     1       6.978  12.204  21.762  1.00  0.00     0.060 A 
BRANCH  81  82
ATOM     82  S   UNL     1       5.930  12.560  23.188  1.00  0.00     0.124 S 
ATOM     83  O   UNL     1       4.600  12.321  22.638  1.00  0.00    -0.237 OA
ATOM     84  O   UNL     1       6.394  11.583  24.168  1.00  0.00    -0.237 OA
ATOM     85  O   UNL     1       6.240  13.951  23.500  1.00  0.00    -0.744 OA
ENDBRANCH  81  82
ENDBRANCH  60  74
BRANCH  61  86
ATOM     86  C   UNL     1      13.949   9.672  11.328  1.00  0.00     0.058 A 
ATOM     87  C   UNL     1      14.864   8.610  11.268  1.00  0.00     0.135 A 
ATOM     88  C   UNL     1      13.808  10.477  10.187  1.00  0.00     0.135 A 
ATOM     89  F   UNL     1      15.039   7.816  12.335  1.00  0.00    -0.206 F 
ATOM     90  C   UNL     1      15.623   8.364  10.129  1.00  0.00     0.059 A 
ATOM     91  C   UNL     1      14.538  10.236   9.027  1.00  0.00     0.059 A 
ATOM     92  F   UNL     1      12.934  11.495  10.187  1.00  0.00    -0.206 F 
ATOM     93  C   UNL     1      15.451   9.182   9.011  1.00  0.00     0.060 A 
BRANCH  93  94
ATOM     94  S   UNL     1      16.405   8.824   7.520  1.00  0.00     0.124 S 
ATOM     95  O   UNL     1      17.734   9.283   7.904  1.00  0.00    -0.237 OA
ATOM     96  O   UNL     1      16.240   7.379   7.391  1.00  0.00    -0.237 OA
ATOM     97  O   UNL     1      15.734   9.617   6.495  1.00  0.00    -0.744 OA
ENDBRANCH  93  94
ENDBRANCH  61  86
BRANCH  73  98
ATOM     98  C   UNL     1      15.557  11.873  17.754  1.00  0.00     0.058 A 
ATOM     99  C   UNL     1      16.238  13.066  17.470  1.00  0.00     0.135 A 
ATOM    100  C   UNL     1      16.094  11.029  18.740  1.00  0.00     0.135 A 
ATOM    101  F   UNL     1      15.770  13.904  16.530  1.00  0.00    -0.206 F 
ATOM    102  C   UNL     1      17.414  13.406  18.131  1.00  0.00     0.059 A 
ATOM    103  C   UNL     1      17.255  11.361  19.432  1.00  0.00     0.059 A 
ATOM    104  F   UNL     1      15.477   9.880  19.056  1.00  0.00    -0.206 F 
ATOM    105  C   UNL     1      17.912  12.548  19.113  1.00  0.00     0.060 A 
BRANCH 105 106
ATOM    106  S   UNL     1      19.412  13.024  19.999  1.00  0.00     0.124 S 
ATOM    107  O   UNL     1      20.439  12.776  18.992  1.00  0.00    -0.237 OA
ATOM    108  O   UNL     1      19.158  14.426  20.314  1.00  0.00    -0.237 OA
ATOM    109  O   UNL     1      19.429  12.123  21.148  1.00  0.00    -0.744 OA
ENDBRANCH 105 106
ENDBRANCH  73  98
ENDBRANCH  47  48
ENDBRANCH  39  42
ENDBRANCH  37  38
ENDBRANCH  36  37
ENDBRANCH   1  36
TORSDOF 20
