REMARK SMILES CC1(C)CCN(S(=O)(=O)c2ccc(O)c(C(=O)NCCCCNC(=O)c3ccc(-c4c5nc(c(-c6c(F)cc(S(=O)(=O)[O-])cc6F)c6ccc([nH]6)c(-c6c(F)cc(S(=O)(=O)[O-])cc6F)c6nc(c(-c7c(F)cc(S(=O)(=O)[O-])cc7F)c7ccc4[nH]7)C=C6)C=C5)cc3)c2)C1
REMARK SMILES IDX 21 1 20 2 19 3 18 4 16 5 17 6 15 8 10 9 11 10 92 11 12 12
REMARK SMILES IDX 13 13 7 14 8 15 9 16 6 17 1 18 2 19 3 20 4 21 93 22 5 23
REMARK SMILES IDX 14 24 22 26 23 27 24 28 25 30 26 31 27 32 91 33 28 34 90 35
REMARK SMILES IDX 29 36 30 37 31 38 84 39 32 40 89 41 83 42 85 43 33 44 88 45
REMARK SMILES IDX 82 46 81 47 34 49 68 50 47 51 67 52 48 53 51 54 66 55 86 56
REMARK SMILES IDX 49 57 50 58 65 60 87 61 52 62 35 63 36 64 45 65 37 66 38 67
REMARK SMILES IDX 44 68 46 69 39 70 40 71 41 72 42 73 43 74 69 75 70 76 79 77
REMARK SMILES IDX 71 78 72 79 78 80 80 81 73 82 74 83 75 84 76 85 77 86 53 87
REMARK SMILES IDX 54 88 63 89 55 90 56 91 62 92 64 93 57 94 58 95 59 96 60 97
REMARK SMILES IDX 61 98
REMARK H PARENT 18 7 14 25 23 29 85 48 51 59
REMARK Flexibility Score: inf
ROOT
ATOM      1  C   UNL     1       4.960  10.192   1.503  1.00  0.00     0.023 C 
ENDROOT
BRANCH   1   2
ATOM      2  C   UNL     1       3.898   9.104   1.367  1.00  0.00     0.023 C 
BRANCH   2   3
ATOM      3  C   UNL     1       3.901   8.348   0.032  1.00  0.00     0.116 C 
BRANCH   3   4
ATOM      4  N   UNL     1       4.813   7.227   0.073  1.00  0.00    -0.352 N 
ATOM      5  C   UNL     1       4.668   5.908   0.408  1.00  0.00     0.255 C 
ATOM      6  O   UNL     1       5.697   5.229   0.308  1.00  0.00    -0.269 OA
ATOM      7  H   UNL     1       5.730   7.462  -0.196  1.00  0.00     0.163 HD
BRANCH   5   8
ATOM      8  C   UNL     1       3.413   5.208   0.857  1.00  0.00     0.082 A 
ATOM      9  C   UNL     1       2.453   2.980   1.254  1.00  0.00     0.083 A 
ATOM     10  C   UNL     1       1.361   3.551   1.899  1.00  0.00     0.025 A 
ATOM     11  C   UNL     1       3.467   3.796   0.739  1.00  0.00     0.039 A 
ATOM     12  C   UNL     1       1.253   4.931   1.973  1.00  0.00     0.048 A 
ATOM     13  C   UNL     1       2.273   5.752   1.473  1.00  0.00     0.128 A 
BRANCH   9  14
ATOM     14  S   UNL     1       2.637   1.211   1.275  1.00  0.00     0.243 S 
ATOM     15  O   UNL     1       2.192   0.750   2.580  1.00  0.00    -0.207 OA
ATOM     16  O   UNL     1       3.949   0.876   0.781  1.00  0.00    -0.207 OA
BRANCH  14  17
ATOM     17  N   UNL     1       1.502   0.646   0.129  1.00  0.00    -0.197 NA
ATOM     18  C   UNL     1      -1.002  -0.155  -1.640  1.00  0.00     0.012 C 
ATOM     19  C   UNL     1      -0.743  -0.211  -0.128  1.00  0.00    -0.020 C 
ATOM     20  C   UNL     1      -2.081  -0.298   0.613  1.00  0.00     0.012 C 
ATOM     21  C   UNL     1       0.190  -1.362   0.246  1.00  0.00     0.024 C 
ATOM     22  C   UNL     1       0.071   0.997   0.351  1.00  0.00     0.109 C 
ATOM     23  C   UNL     1       1.577  -0.831  -0.096  1.00  0.00     0.103 C 
ENDBRANCH  14  17
ENDBRANCH   9  14
BRANCH  13  24
ATOM     24  O   UNL     1       2.098   7.083   1.684  1.00  0.00    -0.507 OA
ATOM     25  H   UNL     1       1.318   7.392   2.100  1.00  0.00     0.293 HD
ENDBRANCH  13  24
ENDBRANCH   5   8
ENDBRANCH   3   4
ENDBRANCH   2   3
ENDBRANCH   1   2
BRANCH   1  26
ATOM     26  C   UNL     1       4.791  11.367   0.550  1.00  0.00     0.116 C 
BRANCH  26  27
ATOM     27  N   UNL     1       3.498  12.029   0.660  1.00  0.00    -0.352 N 
ATOM     28  C   UNL     1       3.192  13.338   0.370  1.00  0.00     0.251 C 
ATOM     29  H   UNL     1       2.752  11.472   0.982  1.00  0.00     0.163 HD
ATOM     30  O   UNL     1       2.070  13.781   0.589  1.00  0.00    -0.269 OA
BRANCH  28  31
ATOM     31  C   UNL     1       4.258  14.210  -0.162  1.00  0.00     0.039 A 
ATOM     32  C   UNL     1       4.529  15.416   0.488  1.00  0.00     0.014 A 
ATOM     33  C   UNL     1       5.032  13.797  -1.249  1.00  0.00     0.014 A 
ATOM     34  C   UNL     1       5.631  16.175   0.092  1.00  0.00     0.010 A 
ATOM     35  C   UNL     1       6.169  14.517  -1.595  1.00  0.00     0.010 A 
ATOM     36  C   UNL     1       6.481  15.711  -0.925  1.00  0.00    -0.014 A 
BRANCH  36  37
ATOM     37  C   UNL     1       7.702  16.457  -1.314  1.00  0.00     0.031 A 
ATOM     38  C   UNL     1       7.810  17.039  -2.696  1.00  0.00     0.074 A 
ATOM     39  C   UNL     1       8.736  16.541  -0.455  1.00  0.00     0.049 A 
ATOM     40  N   UNL     1       8.826  17.634  -3.264  1.00  0.00    -0.248 NA
ATOM     41  C   UNL     1       6.630  16.904  -3.565  1.00  0.00     0.031 C 
ATOM     42  C   UNL     1       8.768  15.969   0.894  1.00  0.00     0.029 A 
ATOM     43  N   UNL     1       9.969  17.127  -0.593  1.00  0.00    -0.354 N 
ATOM     44  C   UNL     1       8.417  17.926  -4.559  1.00  0.00     0.074 A 
ATOM     45  C   UNL     1       7.078  17.400  -4.709  1.00  0.00     0.031 C 
ATOM     46  C   UNL     1       9.952  16.248   1.463  1.00  0.00     0.029 A 
ATOM     47  C   UNL     1      10.775  16.988   0.512  1.00  0.00     0.049 A 
ATOM     48  H   UNL     1      10.250  17.603  -1.408  1.00  0.00     0.167 HD
ATOM     49  C   UNL     1       9.088  18.593  -5.527  1.00  0.00     0.037 A 
ATOM     50  C   UNL     1      12.038  17.405   0.729  1.00  0.00     0.037 A 
ATOM     51  C   UNL     1      10.405  19.146  -5.357  1.00  0.00     0.049 A 
ATOM     52  C   UNL     1      12.752  18.167  -0.354  1.00  0.00     0.074 A 
ATOM     53  C   UNL     1      11.150  19.887  -6.257  1.00  0.00     0.029 A 
ATOM     54  N   UNL     1      11.170  19.025  -4.207  1.00  0.00    -0.354 N 
ATOM     55  N   UNL     1      12.330  18.482  -1.555  1.00  0.00    -0.248 NA
ATOM     56  C   UNL     1      14.111  18.637  -0.051  1.00  0.00     0.031 C 
ATOM     57  C   UNL     1      12.377  20.193  -5.660  1.00  0.00     0.029 A 
ATOM     58  C   UNL     1      12.382  19.672  -4.376  1.00  0.00     0.049 A 
ATOM     59  H   UNL     1      10.893  18.549  -3.391  1.00  0.00     0.167 HD
ATOM     60  C   UNL     1      13.359  19.211  -2.141  1.00  0.00     0.074 A 
ATOM     61  C   UNL     1      14.421  19.297  -1.160  1.00  0.00     0.031 C 
ATOM     62  C   UNL     1      13.418  19.761  -3.378  1.00  0.00     0.037 A 
BRANCH  49  63
ATOM     63  C   UNL     1       8.399  18.771  -6.850  1.00  0.00     0.058 A 
ATOM     64  C   UNL     1       7.315  19.650  -6.999  1.00  0.00     0.135 A 
ATOM     65  C   UNL     1       8.842  18.078  -7.988  1.00  0.00     0.135 A 
ATOM     66  F   UNL     1       6.840  20.324  -5.939  1.00  0.00    -0.206 F 
ATOM     67  C   UNL     1       6.675  19.815  -8.223  1.00  0.00     0.059 A 
ATOM     68  C   UNL     1       8.232  18.246  -9.228  1.00  0.00     0.059 A 
ATOM     69  F   UNL     1       9.873  17.223  -7.900  1.00  0.00    -0.206 F 
ATOM     70  C   UNL     1       7.140  19.106  -9.331  1.00  0.00     0.060 A 
BRANCH  70  71
ATOM     71  S   UNL     1       6.301  19.332 -10.914  1.00  0.00     0.124 S 
ATOM     72  O   UNL     1       5.081  18.558 -10.708  1.00  0.00    -0.237 OA
ATOM     73  O   UNL     1       6.129  20.780 -10.974  1.00  0.00    -0.237 OA
ATOM     74  O   UNL     1       7.243  18.776 -11.880  1.00  0.00    -0.744 OA
ENDBRANCH  70  71
ENDBRANCH  49  63
BRANCH  50  75
ATOM     75  C   UNL     1      12.697  17.138   2.034  1.00  0.00     0.058 A 
ATOM     76  C   UNL     1      12.917  18.175   2.952  1.00  0.00     0.135 A 
ATOM     77  C   UNL     1      13.113  15.847   2.393  1.00  0.00     0.135 A 
ATOM     78  F   UNL     1      12.540  19.427   2.652  1.00  0.00    -0.206 F 
ATOM     79  C   UNL     1      13.545  17.948   4.172  1.00  0.00     0.059 A 
ATOM     80  C   UNL     1      13.724  15.590   3.617  1.00  0.00     0.059 A 
ATOM     81  F   UNL     1      12.909  14.818   1.556  1.00  0.00    -0.206 F 
ATOM     82  C   UNL     1      13.946  16.650   4.495  1.00  0.00     0.060 A 
BRANCH  82  83
ATOM     83  S   UNL     1      14.724  16.357   6.099  1.00  0.00     0.124 S 
ATOM     84  O   UNL     1      16.064  16.884   5.875  1.00  0.00    -0.237 OA
ATOM     85  O   UNL     1      13.875  17.131   7.000  1.00  0.00    -0.237 OA
ATOM     86  O   UNL     1      14.631  14.908   6.254  1.00  0.00    -0.744 OA
ENDBRANCH  82  83
ENDBRANCH  50  75
BRANCH  62  87
ATOM     87  C   UNL     1      14.653  20.540  -3.730  1.00  0.00     0.058 A 
ATOM     88  C   UNL     1      15.862  19.901  -4.041  1.00  0.00     0.135 A 
ATOM     89  C   UNL     1      14.605  21.940  -3.818  1.00  0.00     0.135 A 
ATOM     90  F   UNL     1      15.959  18.564  -3.965  1.00  0.00    -0.206 F 
ATOM     91  C   UNL     1      16.989  20.625  -4.415  1.00  0.00     0.059 A 
ATOM     92  C   UNL     1      15.713  22.683  -4.210  1.00  0.00     0.059 A 
ATOM     93  F   UNL     1      13.468  22.597  -3.538  1.00  0.00    -0.206 F 
ATOM     94  C   UNL     1      16.904  22.017  -4.498  1.00  0.00     0.060 A 
BRANCH  94  95
ATOM     95  S   UNL     1      18.359  22.945  -5.029  1.00  0.00     0.124 S 
ATOM     96  O   UNL     1      19.177  22.923  -3.821  1.00  0.00    -0.237 OA
ATOM     97  O   UNL     1      18.854  22.144  -6.144  1.00  0.00    -0.237 OA
ATOM     98  O   UNL     1      17.814  24.248  -5.396  1.00  0.00    -0.744 OA
ENDBRANCH  94  95
ENDBRANCH  62  87
ENDBRANCH  36  37
ENDBRANCH  28  31
ENDBRANCH  26  27
ENDBRANCH   1  26
TORSDOF 17
