REMARK SMILES C[C@@H]1CCC[C@@]1(Sc1ccccc1Cl)C(=O)NCCCCNC(=O)c1ccc(-c2c3nc(c(-c4c(F)cc(S(=O)(=O)[O-])cc4F)c4ccc([nH]4)c(-c4c(F)cc(S(=O)(=O)[O-])cc4F)c4nc(c(-c5c(F)cc(S(=O)(=O)[O-])cc5F)c5ccc2[nH]5)C=C4)C=C3)cc1
REMARK SMILES IDX 20 1 19 2 18 3 17 4 15 5 16 6 6 8 1 9 2 10 3 11 4 12 5 13
REMARK SMILES IDX 7 14 8 15 9 16 13 17 10 18 12 19 14 20 11 21 21 22 22 23
REMARK SMILES IDX 23 24 24 26 25 27 26 28 90 29 27 30 89 31 28 32 29 33 30 34
REMARK SMILES IDX 83 35 31 36 88 37 82 38 84 39 32 40 87 41 81 42 80 43 33 45
REMARK SMILES IDX 67 46 46 47 66 48 47 49 50 50 65 51 85 52 48 53 49 54 64 56
REMARK SMILES IDX 86 57 51 58 34 59 35 60 44 61 36 62 37 63 43 64 45 65 38 66
REMARK SMILES IDX 39 67 40 68 41 69 42 70 68 71 69 72 78 73 70 74 71 75 77 76
REMARK SMILES IDX 79 77 72 78 73 79 74 80 75 81 76 82 52 83 53 84 62 85 54 86
REMARK SMILES IDX 55 87 61 88 63 89 56 90 57 91 58 92 59 93 60 94
REMARK H PARENT 17 7 22 25 84 44 50 55
REMARK Flexibility Score: inf
ROOT
ATOM      1  C   UNL     1       1.046   4.956   3.657  1.00  0.00     0.023 C 
ENDROOT
BRANCH   1   2
ATOM      2  C   UNL     1       1.443   4.310   2.330  1.00  0.00     0.023 C 
BRANCH   2   3
ATOM      3  C   UNL     1       1.490   2.783   2.342  1.00  0.00     0.116 C 
BRANCH   3   4
ATOM      4  N   UNL     1       0.158   2.226   2.489  1.00  0.00    -0.355 N 
ATOM      5  C   UNL     1      -0.687   1.658   1.584  1.00  0.00     0.236 C 
ATOM      6  O   UNL     1      -1.828   1.417   1.997  1.00  0.00    -0.273 OA
ATOM      7  H   UNL     1      -0.199   2.267   3.406  1.00  0.00     0.163 HD
BRANCH   5   8
ATOM      8  C   UNL     1      -0.243   1.228   0.159  1.00  0.00     0.102 C 
ATOM      9  C   UNL     1       1.740  -0.161  -0.885  1.00  0.00     0.009 C 
ATOM     10  C   UNL     1       0.800   0.069   0.303  1.00  0.00     0.012 C 
ATOM     11  C   UNL     1      -0.088  -1.162   0.524  1.00  0.00     0.005 C 
ATOM     12  C   UNL     1      -1.263  -0.966  -0.416  1.00  0.00     0.002 C 
ATOM     13  C   UNL     1      -1.404   0.544  -0.618  1.00  0.00     0.028 C 
BRANCH   8  14
ATOM     14  S   UNL     1       0.371   2.645  -0.877  1.00  0.00    -0.107 SA
BRANCH  14  15
ATOM     15  C   UNL     1      -0.678   4.077  -0.609  1.00  0.00     0.027 A 
ATOM     16  C   UNL     1      -1.998   3.987  -0.154  1.00  0.00     0.016 A 
ATOM     17  C   UNL     1      -0.166   5.371  -0.871  1.00  0.00     0.054 A 
ATOM     18  C   UNL     1      -2.765   5.136   0.079  1.00  0.00     0.001 A 
ATOM     19  C   UNL     1      -0.937   6.517  -0.639  1.00  0.00     0.022 A 
ATOM     20  Cl  UNL     1       1.450   5.645  -1.449  1.00  0.00    -0.083 Cl
ATOM     21  C   UNL     1      -2.235   6.399  -0.158  1.00  0.00     0.002 A 
ENDBRANCH  14  15
ENDBRANCH   8  14
ENDBRANCH   5   8
ENDBRANCH   3   4
ENDBRANCH   2   3
ENDBRANCH   1   2
BRANCH   1  22
ATOM     22  C   UNL     1       2.032   4.733   4.792  1.00  0.00     0.116 C 
BRANCH  22  23
ATOM     23  N   UNL     1       3.356   5.263   4.501  1.00  0.00    -0.352 N 
ATOM     24  C   UNL     1       4.202   5.957   5.331  1.00  0.00     0.251 C 
ATOM     25  H   UNL     1       3.688   5.103   3.588  1.00  0.00     0.163 HD
ATOM     26  O   UNL     1       5.235   6.451   4.890  1.00  0.00    -0.269 OA
BRANCH  24  27
ATOM     27  C   UNL     1       3.837   6.128   6.752  1.00  0.00     0.039 A 
ATOM     28  C   UNL     1       3.910   7.401   7.323  1.00  0.00     0.014 A 
ATOM     29  C   UNL     1       3.390   5.037   7.503  1.00  0.00     0.014 A 
ATOM     30  C   UNL     1       3.473   7.593   8.635  1.00  0.00     0.010 A 
ATOM     31  C   UNL     1       2.889   5.244   8.781  1.00  0.00     0.010 A 
ATOM     32  C   UNL     1       2.930   6.521   9.362  1.00  0.00    -0.014 A 
BRANCH  32  33
ATOM     33  C   UNL     1       2.428   6.689  10.747  1.00  0.00     0.031 A 
ATOM     34  C   UNL     1       3.109   5.959  11.870  1.00  0.00     0.074 A 
ATOM     35  C   UNL     1       1.317   7.414  10.979  1.00  0.00     0.049 A 
ATOM     36  N   UNL     1       2.746   5.839  13.120  1.00  0.00    -0.248 NA
ATOM     37  C   UNL     1       4.345   5.237  11.529  1.00  0.00     0.031 C 
ATOM     38  C   UNL     1       0.552   8.144   9.967  1.00  0.00     0.029 A 
ATOM     39  N   UNL     1       0.629   7.642  12.144  1.00  0.00    -0.354 N 
ATOM     40  C   UNL     1       3.688   5.003  13.706  1.00  0.00     0.074 A 
ATOM     41  C   UNL     1       4.613   4.610  12.664  1.00  0.00     0.031 C 
ATOM     42  C   UNL     1      -0.487   8.756  10.558  1.00  0.00     0.029 A 
ATOM     43  C   UNL     1      -0.486   8.428  11.981  1.00  0.00     0.049 A 
ATOM     44  H   UNL     1       0.907   7.276  13.014  1.00  0.00     0.167 HD
ATOM     45  C   UNL     1       3.786   4.611  14.999  1.00  0.00     0.037 A 
ATOM     46  C   UNL     1      -1.407   8.832  12.878  1.00  0.00     0.037 A 
ATOM     47  C   UNL     1       2.885   5.037  16.036  1.00  0.00     0.049 A 
ATOM     48  C   UNL     1      -1.272   8.401  14.312  1.00  0.00     0.074 A 
ATOM     49  C   UNL     1       2.918   4.735  17.385  1.00  0.00     0.029 A 
ATOM     50  N   UNL     1       1.790   5.866  15.836  1.00  0.00    -0.354 N 
ATOM     51  N   UNL     1      -0.361   7.630  14.857  1.00  0.00    -0.248 NA
ATOM     52  C   UNL     1      -2.287   8.893  15.253  1.00  0.00     0.031 C 
ATOM     53  C   UNL     1       1.829   5.364  17.999  1.00  0.00     0.029 A 
ATOM     54  C   UNL     1       1.138   6.085  17.037  1.00  0.00     0.049 A 
ATOM     55  H   UNL     1       1.518   6.243  14.969  1.00  0.00     0.167 HD
ATOM     56  C   UNL     1      -0.673   7.573  16.211  1.00  0.00     0.074 A 
ATOM     57  C   UNL     1      -1.859   8.382  16.401  1.00  0.00     0.031 C 
ATOM     58  C   UNL     1      -0.030   6.914  17.207  1.00  0.00     0.037 A 
BRANCH  45  59
ATOM     59  C   UNL     1       4.907   3.673  15.345  1.00  0.00     0.058 A 
ATOM     60  C   UNL     1       6.247   4.094  15.344  1.00  0.00     0.135 A 
ATOM     61  C   UNL     1       4.644   2.329  15.653  1.00  0.00     0.135 A 
ATOM     62  F   UNL     1       6.556   5.365  15.040  1.00  0.00    -0.206 F 
ATOM     63  C   UNL     1       7.290   3.204  15.580  1.00  0.00     0.059 A 
ATOM     64  C   UNL     1       5.670   1.427  15.921  1.00  0.00     0.059 A 
ATOM     65  F   UNL     1       3.382   1.873  15.671  1.00  0.00    -0.206 F 
ATOM     66  C   UNL     1       6.991   1.869  15.855  1.00  0.00     0.060 A 
BRANCH  66  67
ATOM     67  S   UNL     1       8.352   0.711  16.112  1.00  0.00     0.124 S 
ATOM     68  O   UNL     1       8.775   0.455  14.738  1.00  0.00    -0.237 OA
ATOM     69  O   UNL     1       9.281   1.489  16.925  1.00  0.00    -0.237 OA
ATOM     70  O   UNL     1       7.716  -0.411  16.793  1.00  0.00    -0.744 OA
ENDBRANCH  66  67
ENDBRANCH  45  59
BRANCH  46  71
ATOM     71  C   UNL     1      -2.508   9.732  12.447  1.00  0.00     0.058 A 
ATOM     72  C   UNL     1      -2.489  11.092  12.788  1.00  0.00     0.135 A 
ATOM     73  C   UNL     1      -3.568   9.269  11.654  1.00  0.00     0.135 A 
ATOM     74  F   UNL     1      -1.498  11.578  13.550  1.00  0.00    -0.206 F 
ATOM     75  C   UNL     1      -3.484  11.964  12.360  1.00  0.00     0.059 A 
ATOM     76  C   UNL     1      -4.566  10.126  11.198  1.00  0.00     0.059 A 
ATOM     77  F   UNL     1      -3.621   7.979  11.288  1.00  0.00    -0.206 F 
ATOM     78  C   UNL     1      -4.517  11.472  11.560  1.00  0.00     0.060 A 
BRANCH  78  79
ATOM     79  S   UNL     1      -5.761  12.629  10.947  1.00  0.00     0.124 S 
ATOM     80  O   UNL     1      -6.557  12.867  12.145  1.00  0.00    -0.237 OA
ATOM     81  O   UNL     1      -4.943  13.748  10.489  1.00  0.00    -0.237 OA
ATOM     82  O   UNL     1      -6.425  11.875   9.887  1.00  0.00    -0.744 OA
ENDBRANCH  78  79
ENDBRANCH  46  71
BRANCH  58  83
ATOM     83  C   UNL     1      -0.560   7.078  18.602  1.00  0.00     0.058 A 
ATOM     84  C   UNL     1      -1.706   6.398  19.040  1.00  0.00     0.135 A 
ATOM     85  C   UNL     1       0.138   7.865  19.532  1.00  0.00     0.135 A 
ATOM     86  F   UNL     1      -2.410   5.640  18.186  1.00  0.00    -0.206 F 
ATOM     87  C   UNL     1      -2.147   6.498  20.356  1.00  0.00     0.059 A 
ATOM     88  C   UNL     1      -0.274   7.963  20.857  1.00  0.00     0.059 A 
ATOM     89  F   UNL     1       1.244   8.528  19.161  1.00  0.00    -0.206 F 
ATOM     90  C   UNL     1      -1.421   7.279  21.258  1.00  0.00     0.060 A 
BRANCH  90  91
ATOM     91  S   UNL     1      -1.966   7.351  22.978  1.00  0.00     0.124 S 
ATOM     92  O   UNL     1      -3.103   8.260  22.888  1.00  0.00    -0.237 OA
ATOM     93  O   UNL     1      -2.290   5.957  23.264  1.00  0.00    -0.237 OA
ATOM     94  O   UNL     1      -0.798   7.872  23.682  1.00  0.00    -0.744 OA
ENDBRANCH  90  91
ENDBRANCH  58  83
ENDBRANCH  32  33
ENDBRANCH  24  27
ENDBRANCH  22  23
ENDBRANCH   1  22
TORSDOF 16
