REMARK SMILES O=C(NCCCCNC(=O)c1ccc(-c2c3nc(c(-c4c(F)cc(S(=O)(=O)[O-])cc4F)c4ccc([nH]4)c(-c4c(F)cc(S(=O)(=O)[O-])cc4F)c4nc(c(-c5c(F)cc(S(=O)(=O)[O-])cc5F)c5ccc2[nH]5)C=C4)C=C3)cc1)c1ccc(NC(=O)[C@@H]2CC=CC[C@H]2C(=O)Nc2cccc([N+](=O)[O-])c2)cc1
REMARK SMILES IDX 4 1 3 2 1 3 2 4 77 6 78 7 103 8 79 9 102 10 80 11 81 12
REMARK SMILES IDX 82 13 83 15 84 16 85 17 89 18 86 19 88 20 87 21 90 22 91 23
REMARK SMILES IDX 92 24 93 26 94 27 101 28 95 29 97 30 96 31 98 32 99 33
REMARK SMILES IDX 100 34 5 35 6 36 7 37 8 38 9 39 10 41 11 42 12 43 76 44
REMARK SMILES IDX 13 45 75 46 14 47 15 48 16 49 69 50 17 51 74 52 68 53 70 54
REMARK SMILES IDX 18 55 73 56 67 57 66 58 19 60 53 61 32 62 52 63 33 64 36 65
REMARK SMILES IDX 51 66 71 67 34 68 35 69 50 71 72 72 37 73 20 74 21 75 30 76
REMARK SMILES IDX 22 77 23 78 29 79 31 80 24 81 25 82 26 83 27 84 28 85 54 86
REMARK SMILES IDX 55 87 64 88 56 89 57 90 63 91 65 92 58 93 59 94 60 95 61 96
REMARK SMILES IDX 62 97 38 98 39 99 48 100 40 101 41 102 47 103 49 104 42 105
REMARK SMILES IDX 43 106 44 107 45 108 46 109
REMARK H PARENT 3 5 81 14 92 25 8 40 70 59 36 70
REMARK Flexibility Score: inf
ROOT
ATOM      1  C   UNL     1      12.395  -3.450  -2.526  1.00  0.00     0.116 C 
ENDROOT
BRANCH   1   2
ATOM      2  N   UNL     1      12.489  -4.673  -3.314  1.00  0.00    -0.352 N 
ATOM      3  O   UNL     1      11.705  -6.448  -4.494  1.00  0.00    -0.269 OA
ATOM      4  C   UNL     1      11.483  -5.370  -3.949  1.00  0.00     0.251 C 
ATOM      5  H   UNL     1      13.393  -5.052  -3.406  1.00  0.00     0.163 HD
BRANCH   4   6
ATOM      6  C   UNL     1      10.114  -4.817  -3.949  1.00  0.00     0.039 A 
ATOM      7  C   UNL     1       9.927  -3.457  -4.156  1.00  0.00     0.016 A 
ATOM      8  C   UNL     1       9.018  -5.630  -3.658  1.00  0.00     0.016 A 
ATOM      9  C   UNL     1       8.699  -2.886  -3.876  1.00  0.00     0.027 A 
ATOM     10  C   UNL     1       7.746  -5.054  -3.539  1.00  0.00     0.027 A 
ATOM     11  C   UNL     1       7.580  -3.668  -3.665  1.00  0.00     0.041 A 
BRANCH  11  12
ATOM     12  N   UNL     1       6.284  -3.150  -3.608  1.00  0.00    -0.326 N 
ATOM     13  C   UNL     1       5.724  -1.961  -3.942  1.00  0.00     0.228 C 
ATOM     14  H   UNL     1       5.632  -3.790  -3.243  1.00  0.00     0.169 HD
ATOM     15  O   UNL     1       4.498  -1.882  -3.756  1.00  0.00    -0.274 OA
BRANCH  13  16
ATOM     16  C   UNL     1       6.434  -0.719  -4.496  1.00  0.00     0.095 C 
ATOM     17  C   UNL     1       7.354  -0.887  -5.721  1.00  0.00     0.041 C 
ATOM     18  C   UNL     1       6.894   0.195  -3.345  1.00  0.00     0.095 C 
ATOM     19  C   UNL     1       8.634  -0.103  -5.697  1.00  0.00    -0.030 C 
ATOM     20  C   UNL     1       8.045   1.174  -3.633  1.00  0.00     0.041 C 
ATOM     21  C   UNL     1       8.944   0.805  -4.765  1.00  0.00    -0.030 C 
BRANCH  18  22
ATOM     22  C   UNL     1       5.738   0.943  -2.645  1.00  0.00     0.228 C 
ATOM     23  O   UNL     1       5.478   0.669  -1.466  1.00  0.00    -0.274 OA
ATOM     24  N   UNL     1       5.058   2.002  -3.196  1.00  0.00    -0.326 N 
ATOM     25  H   UNL     1       4.405   2.433  -2.599  1.00  0.00     0.169 HD
BRANCH  24  26
ATOM     26  C   UNL     1       5.147   2.563  -4.475  1.00  0.00     0.048 A 
ATOM     27  C   UNL     1       5.582   3.883  -4.605  1.00  0.00     0.026 A 
ATOM     28  C   UNL     1       4.796   1.849  -5.615  1.00  0.00     0.111 A 
ATOM     29  C   UNL     1       5.843   4.412  -5.873  1.00  0.00     0.009 A 
ATOM     30  C   UNL     1       5.126   2.345  -6.878  1.00  0.00     0.271 A 
ATOM     31  C   UNL     1       5.660   3.629  -7.014  1.00  0.00     0.086 A 
BRANCH  30  32
ATOM     32  N   UNL     1       4.971   1.480  -8.054  1.00  0.00     0.062 N 
ATOM     33  O   UNL     1       5.412   1.893  -9.135  1.00  0.00    -0.258 OA
ATOM     34  O   UNL     1       4.433   0.376  -7.891  1.00  0.00    -0.258 OA
ENDBRANCH  30  32
ENDBRANCH  24  26
ENDBRANCH  18  22
ENDBRANCH  13  16
ENDBRANCH  11  12
ENDBRANCH   4   6
ENDBRANCH   1   2
BRANCH   1  35
ATOM     35  C   UNL     1      13.068  -3.533  -1.169  1.00  0.00     0.023 C 
BRANCH  35  36
ATOM     36  C   UNL     1      14.578  -3.695  -1.213  1.00  0.00     0.023 C 
BRANCH  36  37
ATOM     37  C   UNL     1      15.315  -2.674  -2.068  1.00  0.00     0.116 C 
BRANCH  37  38
ATOM     38  N   UNL     1      15.082  -1.295  -1.660  1.00  0.00    -0.352 N 
ATOM     39  C   UNL     1      16.003  -0.311  -1.379  1.00  0.00     0.251 C 
ATOM     40  H   UNL     1      14.138  -1.031  -1.572  1.00  0.00     0.163 HD
ATOM     41  O   UNL     1      15.634   0.776  -0.948  1.00  0.00    -0.269 OA
BRANCH  39  42
ATOM     42  C   UNL     1      17.441  -0.595  -1.566  1.00  0.00     0.039 A 
ATOM     43  C   UNL     1      18.326  -0.328  -0.520  1.00  0.00     0.014 A 
ATOM     44  C   UNL     1      17.899  -1.184  -2.748  1.00  0.00     0.014 A 
ATOM     45  C   UNL     1      19.659  -0.730  -0.628  1.00  0.00     0.010 A 
ATOM     46  C   UNL     1      19.204  -1.659  -2.819  1.00  0.00     0.010 A 
ATOM     47  C   UNL     1      20.098  -1.437  -1.760  1.00  0.00    -0.014 A 
BRANCH  47  48
ATOM     48  C   UNL     1      21.488  -1.948  -1.861  1.00  0.00     0.031 A 
ATOM     49  C   UNL     1      22.398  -1.435  -2.944  1.00  0.00     0.074 A 
ATOM     50  C   UNL     1      21.909  -2.918  -1.025  1.00  0.00     0.049 A 
ATOM     51  N   UNL     1      23.615  -1.807  -3.246  1.00  0.00    -0.248 NA
ATOM     52  C   UNL     1      21.856  -0.388  -3.825  1.00  0.00     0.031 C 
ATOM     53  C   UNL     1      21.103  -3.542   0.028  1.00  0.00     0.029 A 
ATOM     54  N   UNL     1      23.120  -3.559  -0.935  1.00  0.00    -0.354 N 
ATOM     55  C   UNL     1      23.977  -1.054  -4.356  1.00  0.00     0.074 A 
ATOM     56  C   UNL     1      22.831  -0.246  -4.710  1.00  0.00     0.031 C 
ATOM     57  C   UNL     1      21.848  -4.456   0.670  1.00  0.00     0.029 A 
ATOM     58  C   UNL     1      23.172  -4.507   0.059  1.00  0.00     0.049 A 
ATOM     59  H   UNL     1      23.880  -3.358  -1.528  1.00  0.00     0.167 HD
ATOM     60  C   UNL     1      25.165  -1.015  -5.005  1.00  0.00     0.037 A 
ATOM     61  C   UNL     1      24.175  -5.325   0.435  1.00  0.00     0.037 A 
ATOM     62  C   UNL     1      26.314  -1.796  -4.629  1.00  0.00     0.049 A 
ATOM     63  C   UNL     1      25.495  -5.243  -0.282  1.00  0.00     0.074 A 
ATOM     64  C   UNL     1      27.577  -1.796  -5.194  1.00  0.00     0.029 A 
ATOM     65  N   UNL     1      26.341  -2.710  -3.586  1.00  0.00    -0.354 N 
ATOM     66  N   UNL     1      25.836  -4.485  -1.297  1.00  0.00    -0.248 NA
ATOM     67  C   UNL     1      26.570  -6.118   0.203  1.00  0.00     0.031 C 
ATOM     68  C   UNL     1      28.363  -2.729  -4.507  1.00  0.00     0.029 A 
ATOM     69  C   UNL     1      27.598  -3.282  -3.492  1.00  0.00     0.049 A 
ATOM     70  H   UNL     1      25.579  -2.920  -3.000  1.00  0.00     0.167 HD
ATOM     71  C   UNL     1      27.172  -4.771  -1.553  1.00  0.00     0.074 A 
ATOM     72  C   UNL     1      27.580  -5.763  -0.580  1.00  0.00     0.031 C 
ATOM     73  C   UNL     1      27.989  -4.258  -2.506  1.00  0.00     0.037 A 
BRANCH  60  74
ATOM     74  C   UNL     1      25.281  -0.081  -6.176  1.00  0.00     0.058 A 
ATOM     75  C   UNL     1      25.314   1.312  -6.001  1.00  0.00     0.135 A 
ATOM     76  C   UNL     1      25.374  -0.579  -7.486  1.00  0.00     0.135 A 
ATOM     77  F   UNL     1      25.209   1.842  -4.772  1.00  0.00    -0.206 F 
ATOM     78  C   UNL     1      25.401   2.180  -7.084  1.00  0.00     0.059 A 
ATOM     79  C   UNL     1      25.489   0.271  -8.583  1.00  0.00     0.059 A 
ATOM     80  F   UNL     1      25.346  -1.902  -7.710  1.00  0.00    -0.206 F 
ATOM     81  C   UNL     1      25.484   1.649  -8.372  1.00  0.00     0.060 A 
BRANCH  81  82
ATOM     82  S   UNL     1      25.591   2.788  -9.769  1.00  0.00     0.124 S 
ATOM     83  O   UNL     1      24.213   3.261  -9.863  1.00  0.00    -0.237 OA
ATOM     84  O   UNL     1      26.566   3.768  -9.301  1.00  0.00    -0.237 OA
ATOM     85  O   UNL     1      26.040   1.937 -10.866  1.00  0.00    -0.744 OA
ENDBRANCH  81  82
ENDBRANCH  60  74
BRANCH  61  86
ATOM     86  C   UNL     1      23.984  -6.268   1.568  1.00  0.00     0.058 A 
ATOM     87  C   UNL     1      24.615  -6.047   2.801  1.00  0.00     0.135 A 
ATOM     88  C   UNL     1      23.170  -7.404   1.444  1.00  0.00     0.135 A 
ATOM     89  F   UNL     1      25.407  -4.976   2.967  1.00  0.00    -0.206 F 
ATOM     90  C   UNL     1      24.466  -6.931   3.865  1.00  0.00     0.059 A 
ATOM     91  C   UNL     1      22.986  -8.290   2.501  1.00  0.00     0.059 A 
ATOM     92  F   UNL     1      22.529  -7.649   0.291  1.00  0.00    -0.206 F 
ATOM     93  C   UNL     1      23.650  -8.051   3.704  1.00  0.00     0.060 A 
BRANCH  93  94
ATOM     94  S   UNL     1      23.430  -9.173   5.103  1.00  0.00     0.124 S 
ATOM     95  O   UNL     1      24.691  -9.904   5.093  1.00  0.00    -0.237 OA
ATOM     96  O   UNL     1      23.236  -8.247   6.215  1.00  0.00    -0.237 OA
ATOM     97  O   UNL     1      22.248  -9.944   4.729  1.00  0.00    -0.744 OA
ENDBRANCH  93  94
ENDBRANCH  61  86
BRANCH  73  98
ATOM     98  C   UNL     1      29.415  -4.730  -2.516  1.00  0.00     0.058 A 
ATOM     99  C   UNL     1      29.766  -6.009  -2.974  1.00  0.00     0.135 A 
ATOM    100  C   UNL     1      30.446  -3.876  -2.093  1.00  0.00     0.135 A 
ATOM    101  F   UNL     1      28.816  -6.864  -3.384  1.00  0.00    -0.206 F 
ATOM    102  C   UNL     1      31.090  -6.436  -2.989  1.00  0.00     0.059 A 
ATOM    103  C   UNL     1      31.779  -4.274  -2.122  1.00  0.00     0.059 A 
ATOM    104  F   UNL     1      30.163  -2.639  -1.656  1.00  0.00    -0.206 F 
ATOM    105  C   UNL     1      32.089  -5.561  -2.558  1.00  0.00     0.060 A 
BRANCH 105 106
ATOM    106  S   UNL     1      33.807  -6.116  -2.600  1.00  0.00     0.124 S 
ATOM    107  O   UNL     1      33.866  -6.976  -1.423  1.00  0.00    -0.237 OA
ATOM    108  O   UNL     1      33.886  -6.798  -3.888  1.00  0.00    -0.237 OA
ATOM    109  O   UNL     1      34.566  -4.872  -2.509  1.00  0.00    -0.744 OA
ENDBRANCH 105 106
ENDBRANCH  73  98
ENDBRANCH  47  48
ENDBRANCH  39  42
ENDBRANCH  37  38
ENDBRANCH  36  37
ENDBRANCH  35  36
ENDBRANCH   1  35
TORSDOF 19
