REMARK SMILES CC(C)CN(C)S(=O)(=O)c1ccc(C(=O)NCCCCNC(=O)c2ccc(-c3c4nc(c(-c5c(F)cc(S(=O)(=O)[O-])cc5F)c5ccc([nH]5)c(-c5c(F)cc(S(=O)(=O)[O-])cc5F)c5nc(c(-c6c(F)cc(S(=O)(=O)[O-])cc6F)c6ccc3[nH]6)C=C5)C=C4)cc2)cc1
REMARK SMILES IDX 18 1 17 2 16 3 14 4 15 5 13 7 10 8 11 9 91 10 12 11 90 12
REMARK SMILES IDX 7 13 8 14 9 15 5 16 6 17 4 18 2 19 1 20 3 21 19 22 20 23
REMARK SMILES IDX 21 24 22 25 23 27 24 28 25 29 89 30 26 31 88 32 27 33 28 34
REMARK SMILES IDX 29 35 82 36 30 37 87 38 81 39 83 40 31 41 86 42 80 43 79 44
REMARK SMILES IDX 32 46 66 47 45 48 65 49 46 50 49 51 64 52 84 53 47 54 48 55
REMARK SMILES IDX 63 57 85 58 50 59 33 60 34 61 43 62 35 63 36 64 42 65 44 66
REMARK SMILES IDX 37 67 38 68 39 69 40 70 41 71 67 72 68 73 77 74 69 75 70 76
REMARK SMILES IDX 76 77 78 78 71 79 72 80 73 81 74 82 75 83 51 84 52 85 61 86
REMARK SMILES IDX 53 87 54 88 60 89 62 90 55 91 56 92 57 93 58 94 59 95
REMARK H PARENT 16 6 21 26 83 45 49 56
REMARK Flexibility Score: inf
ROOT
ATOM      1  C   UNL     1      -1.037  -7.085   5.189  1.00  0.00     0.023 C 
ENDROOT
BRANCH   1   2
ATOM      2  C   UNL     1      -2.394  -6.409   5.417  1.00  0.00     0.116 C 
BRANCH   2   3
ATOM      3  N   UNL     1      -2.291  -5.329   6.381  1.00  0.00    -0.352 N 
ATOM      4  C   UNL     1      -2.088  -3.978   6.232  1.00  0.00     0.251 C 
ATOM      5  O   UNL     1      -2.139  -3.278   7.244  1.00  0.00    -0.269 OA
ATOM      6  H   UNL     1      -2.385  -5.618   7.318  1.00  0.00     0.163 HD
BRANCH   4   7
ATOM      7  C   UNL     1      -1.844  -3.314   4.914  1.00  0.00     0.039 A 
ATOM      8  C   UNL     1      -1.512  -1.927   2.478  1.00  0.00     0.082 A 
ATOM      9  C   UNL     1      -1.922  -1.235   3.615  1.00  0.00     0.022 A 
ATOM     10  C   UNL     1      -1.179  -3.279   2.579  1.00  0.00     0.022 A 
ATOM     11  C   UNL     1      -2.112  -1.936   4.818  1.00  0.00     0.015 A 
ATOM     12  C   UNL     1      -1.319  -3.953   3.792  1.00  0.00     0.015 A 
BRANCH   8  13
ATOM     13  S   UNL     1      -1.356  -1.223   0.853  1.00  0.00     0.242 S 
ATOM     14  O   UNL     1      -2.523  -1.639   0.101  1.00  0.00    -0.207 OA
ATOM     15  O   UNL     1      -0.029  -1.580   0.404  1.00  0.00    -0.207 OA
BRANCH  13  16
ATOM     16  N   UNL     1      -1.433   0.495   0.993  1.00  0.00    -0.201 NA
ATOM     17  C   UNL     1      -2.822   0.988   1.258  1.00  0.00     0.124 C 
BRANCH  16  18
ATOM     18  C   UNL     1      -0.891   1.197  -0.232  1.00  0.00     0.105 C 
BRANCH  18  19
ATOM     19  C   UNL     1       0.518   1.786  -0.025  1.00  0.00    -0.002 C 
ATOM     20  C   UNL     1       1.636   0.755  -0.195  1.00  0.00     0.009 C 
ATOM     21  C   UNL     1       0.740   2.912  -1.044  1.00  0.00     0.009 C 
ENDBRANCH  18  19
ENDBRANCH  16  18
ENDBRANCH  13  16
ENDBRANCH   8  13
ENDBRANCH   4   7
ENDBRANCH   2   3
ENDBRANCH   1   2
BRANCH   1  22
ATOM     22  C   UNL     1      -0.687  -8.191   6.185  1.00  0.00     0.023 C 
BRANCH  22  23
ATOM     23  C   UNL     1      -1.590  -9.417   6.121  1.00  0.00     0.116 C 
BRANCH  23  24
ATOM     24  N   UNL     1      -1.615 -10.046   4.811  1.00  0.00    -0.352 N 
ATOM     25  C   UNL     1      -1.945 -11.340   4.491  1.00  0.00     0.251 C 
ATOM     26  H   UNL     1      -1.363  -9.468   4.055  1.00  0.00     0.163 HD
ATOM     27  O   UNL     1      -1.812 -11.733   3.336  1.00  0.00    -0.269 OA
BRANCH  25  28
ATOM     28  C   UNL     1      -2.410 -12.265   5.546  1.00  0.00     0.039 A 
ATOM     29  C   UNL     1      -1.863 -13.551   5.592  1.00  0.00     0.014 A 
ATOM     30  C   UNL     1      -3.375 -11.880   6.481  1.00  0.00     0.014 A 
ATOM     31  C   UNL     1      -2.251 -14.432   6.602  1.00  0.00     0.010 A 
ATOM     32  C   UNL     1      -3.713 -12.736   7.525  1.00  0.00     0.010 A 
ATOM     33  C   UNL     1      -3.163 -14.024   7.587  1.00  0.00    -0.014 A 
BRANCH  33  34
ATOM     34  C   UNL     1      -3.578 -14.952   8.667  1.00  0.00     0.031 A 
ATOM     35  C   UNL     1      -4.990 -15.467   8.713  1.00  0.00     0.074 A 
ATOM     36  C   UNL     1      -2.695 -15.297   9.623  1.00  0.00     0.049 A 
ATOM     37  N   UNL     1      -5.544 -16.278   9.577  1.00  0.00    -0.248 NA
ATOM     38  C   UNL     1      -5.907 -14.986   7.667  1.00  0.00     0.031 C 
ATOM     39  C   UNL     1      -1.317 -14.808   9.721  1.00  0.00     0.029 A 
ATOM     40  N   UNL     1      -2.826 -16.139  10.697  1.00  0.00    -0.354 N 
ATOM     41  C   UNL     1      -6.874 -16.391   9.190  1.00  0.00     0.074 A 
ATOM     42  C   UNL     1      -7.055 -15.528   8.042  1.00  0.00     0.031 C 
ATOM     43  C   UNL     1      -0.723 -15.380  10.781  1.00  0.00     0.029 A 
ATOM     44  C   UNL     1      -1.678 -16.264  11.442  1.00  0.00     0.049 A 
ATOM     45  H   UNL     1      -3.663 -16.610  10.913  1.00  0.00     0.167 HD
ATOM     46  C   UNL     1      -7.851 -17.161   9.726  1.00  0.00     0.037 A 
ATOM     47  C   UNL     1      -1.423 -17.021  12.526  1.00  0.00     0.037 A 
ATOM     48  C   UNL     1      -7.656 -18.045  10.844  1.00  0.00     0.049 A 
ATOM     49  C   UNL     1      -2.498 -17.929  13.054  1.00  0.00     0.074 A 
ATOM     50  C   UNL     1      -8.567 -18.900  11.440  1.00  0.00     0.029 A 
ATOM     51  N   UNL     1      -6.459 -18.198  11.528  1.00  0.00    -0.354 N 
ATOM     52  N   UNL     1      -3.737 -18.065  12.643  1.00  0.00    -0.248 NA
ATOM     53  C   UNL     1      -2.136 -18.803  14.177  1.00  0.00     0.031 C 
ATOM     54  C   UNL     1      -7.922 -19.562  12.492  1.00  0.00     0.029 A 
ATOM     55  C   UNL     1      -6.604 -19.138  12.534  1.00  0.00     0.049 A 
ATOM     56  H   UNL     1      -5.628 -17.709  11.327  1.00  0.00     0.167 HD
ATOM     57  C   UNL     1      -4.293 -19.059  13.438  1.00  0.00     0.074 A 
ATOM     58  C   UNL     1      -3.253 -19.496  14.348  1.00  0.00     0.031 C 
ATOM     59  C   UNL     1      -5.551 -19.567  13.418  1.00  0.00     0.037 A 
BRANCH  46  60
ATOM     60  C   UNL     1      -9.211 -17.083   9.094  1.00  0.00     0.058 A 
ATOM     61  C   UNL     1      -9.467 -17.653   7.836  1.00  0.00     0.135 A 
ATOM     62  C   UNL     1     -10.269 -16.431   9.745  1.00  0.00     0.135 A 
ATOM     63  F   UNL     1      -8.483 -18.271   7.162  1.00  0.00    -0.206 F 
ATOM     64  C   UNL     1     -10.714 -17.549   7.230  1.00  0.00     0.059 A 
ATOM     65  C   UNL     1     -11.532 -16.335   9.168  1.00  0.00     0.059 A 
ATOM     66  F   UNL     1     -10.078 -15.867  10.948  1.00  0.00    -0.206 F 
ATOM     67  C   UNL     1     -11.739 -16.881   7.901  1.00  0.00     0.060 A 
BRANCH  67  68
ATOM     68  S   UNL     1     -13.350 -16.735   7.100  1.00  0.00     0.124 S 
ATOM     69  O   UNL     1     -13.110 -15.641   6.164  1.00  0.00    -0.237 OA
ATOM     70  O   UNL     1     -13.527 -18.053   6.500  1.00  0.00    -0.237 OA
ATOM     71  O   UNL     1     -14.251 -16.429   8.207  1.00  0.00    -0.744 OA
ENDBRANCH  67  68
ENDBRANCH  46  60
BRANCH  47  72
ATOM     72  C   UNL     1      -0.072 -17.001  13.140  1.00  0.00     0.058 A 
ATOM     73  C   UNL     1       0.819 -18.067  12.948  1.00  0.00     0.135 A 
ATOM     74  C   UNL     1       0.362 -15.914  13.913  1.00  0.00     0.135 A 
ATOM     75  F   UNL     1       0.446 -19.129  12.217  1.00  0.00    -0.206 F 
ATOM     76  C   UNL     1       2.089 -18.067  13.515  1.00  0.00     0.059 A 
ATOM     77  C   UNL     1       1.634 -15.882  14.475  1.00  0.00     0.059 A 
ATOM     78  F   UNL     1      -0.448 -14.862  14.108  1.00  0.00    -0.206 F 
ATOM     79  C   UNL     1       2.487 -16.968  14.278  1.00  0.00     0.060 A 
BRANCH  79  80
ATOM     80  S   UNL     1       4.156 -16.949  14.969  1.00  0.00     0.124 S 
ATOM     81  O   UNL     1       4.004 -17.820  16.128  1.00  0.00    -0.237 OA
ATOM     82  O   UNL     1       4.954 -17.482  13.869  1.00  0.00    -0.237 OA
ATOM     83  O   UNL     1       4.376 -15.536  15.264  1.00  0.00    -0.744 OA
ENDBRANCH  79  80
ENDBRANCH  47  72
BRANCH  59  84
ATOM     84  C   UNL     1      -5.851 -20.677  14.381  1.00  0.00     0.058 A 
ATOM     85  C   UNL     1      -6.051 -20.431  15.748  1.00  0.00     0.135 A 
ATOM     86  C   UNL     1      -5.957 -22.000  13.926  1.00  0.00     0.135 A 
ATOM     87  F   UNL     1      -5.955 -19.182  16.230  1.00  0.00    -0.206 F 
ATOM     88  C   UNL     1      -6.314 -21.466  16.639  1.00  0.00     0.059 A 
ATOM     89  C   UNL     1      -6.239 -23.048  14.796  1.00  0.00     0.059 A 
ATOM     90  F   UNL     1      -5.784 -22.284  12.625  1.00  0.00    -0.206 F 
ATOM     91  C   UNL     1      -6.398 -22.773  16.154  1.00  0.00     0.060 A 
BRANCH  91  92
ATOM     92  S   UNL     1      -6.745 -24.113  17.312  1.00  0.00     0.124 S 
ATOM     93  O   UNL     1      -5.424 -24.358  17.880  1.00  0.00    -0.237 OA
ATOM     94  O   UNL     1      -7.721 -23.510  18.215  1.00  0.00    -0.237 OA
ATOM     95  O   UNL     1      -7.269 -25.171  16.453  1.00  0.00    -0.744 OA
ENDBRANCH  91  92
ENDBRANCH  59  84
ENDBRANCH  33  34
ENDBRANCH  25  28
ENDBRANCH  23  24
ENDBRANCH  22  23
ENDBRANCH   1  22
TORSDOF 18
