REMARK SMILES O=C(NCCCCNC(=O)[C@H]1CC=CC[C@H]1C(=O)N[C@H]1CCCOc2c1ccc1ccccc21)c1ccc(-c2c3nc(c(-c4c(F)cc(S(=O)(=O)[O-])cc4F)c4ccc([nH]4)c(-c4c(F)cc(S(=O)(=O)[O-])cc4F)c4nc(c(-c5c(F)cc(S(=O)(=O)[O-])cc5F)c5ccc2[nH]5)C=C4)C=C3)cc1
REMARK SMILES IDX 7 1 6 2 5 3 4 4 3 5 1 6 2 7 35 9 36 10 100 11 37 12 99 13
REMARK SMILES IDX 38 14 39 15 40 16 93 17 41 18 98 19 92 20 94 21 42 22 97 23
REMARK SMILES IDX 91 24 90 25 43 27 77 28 56 29 76 30 57 31 60 32 75 33 95 34
REMARK SMILES IDX 58 35 59 36 74 38 96 39 61 40 44 41 45 42 54 43 46 44 47 45
REMARK SMILES IDX 53 46 55 47 48 48 49 49 50 50 51 51 52 52 78 53 79 54 88 55
REMARK SMILES IDX 80 56 81 57 87 58 89 59 82 60 83 61 84 62 85 63 86 64 62 65
REMARK SMILES IDX 63 66 72 67 64 68 65 69 71 70 73 71 66 72 67 73 68 74 69 75
REMARK SMILES IDX 70 76 8 77 9 78 10 80 11 81 12 82 16 83 13 84 15 85 14 86
REMARK SMILES IDX 17 87 18 88 19 89 20 91 21 92 26 94 25 95 27 96 34 97 28 98
REMARK SMILES IDX 29 99 33 100 30 101 32 102 31 103 24 104 23 105 22 106
REMARK H PARENT 3 8 94 26 60 37 8 79 19 90
REMARK Flexibility Score: 80.00
ROOT
ATOM      1  C   UNL     1       3.807   1.187  -4.425  1.00  0.00     0.116 C 
ENDROOT
BRANCH   1   2
ATOM      2  C   UNL     1       3.852  -0.260  -3.956  1.00  0.00     0.023 C 
BRANCH   2   3
ATOM      3  C   UNL     1       4.691  -0.548  -2.707  1.00  0.00     0.023 C 
BRANCH   3   4
ATOM      4  C   UNL     1       4.415   0.315  -1.476  1.00  0.00     0.116 C 
BRANCH   4   5
ATOM      5  N   UNL     1       3.006   0.395  -1.130  1.00  0.00    -0.352 N 
ATOM      6  O   UNL     1       1.088   0.087  -0.026  1.00  0.00    -0.269 OA
ATOM      7  C   UNL     1       2.317   0.023  -0.005  1.00  0.00     0.251 C 
ATOM      8  H   UNL     1       2.442   0.790  -1.834  1.00  0.00     0.163 HD
BRANCH   7   9
ATOM      9  C   UNL     1       2.999  -0.463   1.218  1.00  0.00     0.039 A 
ATOM     10  C   UNL     1       2.380  -1.478   1.958  1.00  0.00     0.014 A 
ATOM     11  C   UNL     1       4.178   0.113   1.698  1.00  0.00     0.014 A 
ATOM     12  C   UNL     1       2.955  -1.936   3.147  1.00  0.00     0.010 A 
ATOM     13  C   UNL     1       4.789  -0.392   2.849  1.00  0.00     0.010 A 
ATOM     14  C   UNL     1       4.174  -1.408   3.597  1.00  0.00    -0.014 A 
BRANCH  14  15
ATOM     15  C   UNL     1       4.781  -1.866   4.876  1.00  0.00     0.031 A 
ATOM     16  C   UNL     1       4.910  -0.907   6.032  1.00  0.00     0.074 A 
ATOM     17  C   UNL     1       5.236  -3.130   4.995  1.00  0.00     0.049 A 
ATOM     18  N   UNL     1       5.463  -1.095   7.202  1.00  0.00    -0.248 NA
ATOM     19  C   UNL     1       4.364   0.447   5.840  1.00  0.00     0.031 C 
ATOM     20  C   UNL     1       5.196  -4.147   3.943  1.00  0.00     0.029 A 
ATOM     21  N   UNL     1       5.822  -3.776   6.056  1.00  0.00    -0.354 N 
ATOM     22  C   UNL     1       5.351   0.117   7.875  1.00  0.00     0.074 A 
ATOM     23  C   UNL     1       4.716   1.047   6.968  1.00  0.00     0.031 C 
ATOM     24  C   UNL     1       5.711  -5.294   4.418  1.00  0.00     0.029 A 
ATOM     25  C   UNL     1       6.147  -5.088   5.796  1.00  0.00     0.049 A 
ATOM     26  H   UNL     1       5.995  -3.341   6.922  1.00  0.00     0.167 HD
ATOM     27  C   UNL     1       5.716   0.420   9.143  1.00  0.00     0.037 A 
ATOM     28  C   UNL     1       6.732  -6.017   6.578  1.00  0.00     0.037 A 
ATOM     29  C   UNL     1       6.293  -0.522  10.064  1.00  0.00     0.049 A 
ATOM     30  C   UNL     1       7.119  -5.658   7.988  1.00  0.00     0.074 A 
ATOM     31  C   UNL     1       6.641  -0.324  11.389  1.00  0.00     0.029 A 
ATOM     32  N   UNL     1       6.593  -1.842   9.764  1.00  0.00    -0.354 N 
ATOM     33  N   UNL     1       6.969  -4.517   8.616  1.00  0.00    -0.248 NA
ATOM     34  C   UNL     1       7.753  -6.710   8.796  1.00  0.00     0.031 C 
ATOM     35  C   UNL     1       7.177  -1.516  11.882  1.00  0.00     0.029 A 
ATOM     36  C   UNL     1       7.131  -2.467  10.875  1.00  0.00     0.049 A 
ATOM     37  H   UNL     1       6.444  -2.271   8.890  1.00  0.00     0.167 HD
ATOM     38  C   UNL     1       7.472  -4.719   9.896  1.00  0.00     0.074 A 
ATOM     39  C   UNL     1       7.920  -6.094   9.960  1.00  0.00     0.031 C 
ATOM     40  C   UNL     1       7.557  -3.842  10.925  1.00  0.00     0.037 A 
BRANCH  27  41
ATOM     41  C   UNL     1       5.479   1.821   9.630  1.00  0.00     0.058 A 
ATOM     42  C   UNL     1       4.189   2.276   9.945  1.00  0.00     0.135 A 
ATOM     43  C   UNL     1       6.556   2.691   9.861  1.00  0.00     0.135 A 
ATOM     44  F   UNL     1       3.123   1.489   9.728  1.00  0.00    -0.206 F 
ATOM     45  C   UNL     1       3.974   3.548  10.463  1.00  0.00     0.059 A 
ATOM     46  C   UNL     1       6.367   3.960  10.400  1.00  0.00     0.059 A 
ATOM     47  F   UNL     1       7.810   2.305   9.574  1.00  0.00    -0.206 F 
ATOM     48  C   UNL     1       5.070   4.381  10.694  1.00  0.00     0.060 A 
BRANCH  48  49
ATOM     49  S   UNL     1       4.778   6.014  11.407  1.00  0.00     0.124 S 
ATOM     50  O   UNL     1       4.162   6.716  10.282  1.00  0.00    -0.237 OA
ATOM     51  O   UNL     1       3.885   5.708  12.524  1.00  0.00    -0.237 OA
ATOM     52  O   UNL     1       6.108   6.469  11.778  1.00  0.00    -0.744 OA
ENDBRANCH  48  49
ENDBRANCH  27  41
BRANCH  28  53
ATOM     53  C   UNL     1       6.970  -7.388   6.054  1.00  0.00     0.058 A 
ATOM     54  C   UNL     1       6.213  -8.476   6.514  1.00  0.00     0.135 A 
ATOM     55  C   UNL     1       7.953  -7.639   5.084  1.00  0.00     0.135 A 
ATOM     56  F   UNL     1       5.268  -8.287   7.447  1.00  0.00    -0.206 F 
ATOM     57  C   UNL     1       6.431  -9.767   6.044  1.00  0.00     0.059 A 
ATOM     58  C   UNL     1       8.175  -8.918   4.582  1.00  0.00     0.059 A 
ATOM     59  F   UNL     1       8.694  -6.630   4.601  1.00  0.00    -0.206 F 
ATOM     60  C   UNL     1       7.416  -9.978   5.077  1.00  0.00     0.060 A 
BRANCH  60  61
ATOM     61  S   UNL     1       7.665 -11.651   4.444  1.00  0.00     0.124 S 
ATOM     62  O   UNL     1       8.340 -12.292   5.567  1.00  0.00    -0.237 OA
ATOM     63  O   UNL     1       6.296 -12.089   4.187  1.00  0.00    -0.237 OA
ATOM     64  O   UNL     1       8.481 -11.441   3.252  1.00  0.00    -0.744 OA
ENDBRANCH  60  61
ENDBRANCH  28  53
BRANCH  40  65
ATOM     65  C   UNL     1       8.137  -4.333  12.221  1.00  0.00     0.058 A 
ATOM     66  C   UNL     1       9.520  -4.490  12.385  1.00  0.00     0.135 A 
ATOM     67  C   UNL     1       7.311  -4.540  13.337  1.00  0.00     0.135 A 
ATOM     68  F   UNL     1      10.350  -4.310  11.345  1.00  0.00    -0.206 F 
ATOM     69  C   UNL     1      10.068  -4.834  13.617  1.00  0.00     0.059 A 
ATOM     70  C   UNL     1       7.839  -4.864  14.583  1.00  0.00     0.059 A 
ATOM     71  F   UNL     1       5.981  -4.392  13.231  1.00  0.00    -0.206 F 
ATOM     72  C   UNL     1       9.220  -5.009  14.712  1.00  0.00     0.060 A 
BRANCH  72  73
ATOM     73  S   UNL     1       9.953  -5.378  16.320  1.00  0.00     0.124 S 
ATOM     74  O   UNL     1      10.367  -6.766  16.144  1.00  0.00    -0.237 OA
ATOM     75  O   UNL     1      11.033  -4.400  16.402  1.00  0.00    -0.237 OA
ATOM     76  O   UNL     1       8.851  -5.165  17.254  1.00  0.00    -0.744 OA
ENDBRANCH  72  73
ENDBRANCH  40  65
ENDBRANCH  14  15
ENDBRANCH   7   9
ENDBRANCH   4   5
ENDBRANCH   3   4
ENDBRANCH   2   3
ENDBRANCH   1   2
BRANCH   1  77
ATOM     77  N   UNL     1       5.102   1.750  -4.752  1.00  0.00    -0.356 N 
ATOM     78  C   UNL     1       5.161   2.802  -5.629  1.00  0.00     0.224 C 
ATOM     79  H   UNL     1       5.923   1.385  -4.352  1.00  0.00     0.163 HD
ATOM     80  O   UNL     1       5.268   3.934  -5.164  1.00  0.00    -0.275 OA
BRANCH  78  81
ATOM     81  C   UNL     1       5.033   2.506  -7.133  1.00  0.00     0.095 C 
ATOM     82  C   UNL     1       4.793   3.811  -7.933  1.00  0.00     0.041 C 
ATOM     83  C   UNL     1       6.110   1.577  -7.769  1.00  0.00     0.095 C 
ATOM     84  C   UNL     1       5.932   4.322  -8.762  1.00  0.00    -0.030 C 
ATOM     85  C   UNL     1       7.184   2.162  -8.719  1.00  0.00     0.041 C 
ATOM     86  C   UNL     1       6.989   3.588  -9.121  1.00  0.00    -0.030 C 
BRANCH  83  87
ATOM     87  C   UNL     1       6.686   0.475  -6.882  1.00  0.00     0.224 C 
ATOM     88  O   UNL     1       6.082  -0.611  -6.864  1.00  0.00    -0.275 OA
ATOM     89  N   UNL     1       7.883   0.455  -6.253  1.00  0.00    -0.349 N 
ATOM     90  H   UNL     1       8.392  -0.320  -6.583  1.00  0.00     0.164 HD
BRANCH  89  91
ATOM     91  C   UNL     1       8.732   1.179  -5.233  1.00  0.00     0.116 C 
BRANCH  91  92
ATOM     92  C   UNL     1      10.079   0.382  -5.176  1.00  0.00     0.033 CG0
ATOM     93  G   UNL     1      11.331   1.177  -5.534  1.00  0.00     0.000 G0
ENDBRANCH  91  92
BRANCH  91  94
ATOM     94  C   UNL     1       8.914   2.689  -5.191  1.00  0.00     0.017 A 
ATOM     95  C   UNL     1       9.801   3.320  -4.295  1.00  0.00     0.132 A 
ATOM     96  C   UNL     1       8.125   3.554  -5.915  1.00  0.00     0.010 A 
ATOM     97  C   UNL     1       9.793   4.730  -4.050  1.00  0.00     0.024 A 
ATOM     98  C   UNL     1       8.101   4.936  -5.744  1.00  0.00     0.009 A 
ATOM     99  C   UNL     1       8.901   5.531  -4.791  1.00  0.00    -0.015 A 
ATOM    100  C   UNL     1      10.598   5.389  -3.096  1.00  0.00     0.012 A 
ATOM    101  C   UNL     1       8.789   6.909  -4.568  1.00  0.00     0.009 A 
ATOM    102  C   UNL     1      10.489   6.770  -2.879  1.00  0.00     0.001 A 
ATOM    103  C   UNL     1       9.579   7.527  -3.609  1.00  0.00     0.001 A 
BRANCH  95 104
ATOM    104  O   UNL     1      10.674   2.542  -3.571  1.00  0.00    -0.493 OA
BRANCH 104 105
ATOM    105  C   UNL     1      11.759   2.112  -4.403  1.00  0.00     0.229 C 
BRANCH 105 106
ATOM    106  C   UNL     1      11.331   1.177  -5.534  1.00  0.00     0.044 CG0
ATOM    107  G   UNL     1      10.079   0.382  -5.176  1.00  0.00     0.000 G0
ENDBRANCH 105 106
ENDBRANCH 104 105
ENDBRANCH  95 104
ENDBRANCH  91  94
ENDBRANCH  89  91
ENDBRANCH  83  87
ENDBRANCH  78  81
ENDBRANCH   1  77
TORSDOF 16
