REMARK SMILES Cc1cc(C)n(-c2nc(C)c(C)c(Oc3cccc(C(=O)NCCCCNC(=O)c4ccc(-c5c6nc(c(-c7c(F)cc(S(=O)(=O)[O-])cc7F)c7ccc([nH]7)c(-c7c(F)cc(S(=O)(=O)[O-])cc7F)c7nc(c(-c8c(F)cc(S(=O)(=O)[O-])cc8F)c8ccc5[nH]8)C=C7)C=C6)cc4)c3)n2)n1
REMARK SMILES IDX 24 1 23 2 22 3 20 4 21 5 19 7 15 8 16 9 96 10 17 11 18 12
REMARK SMILES IDX 14 13 13 14 7 15 8 16 97 17 9 18 10 19 11 20 12 21 6 22 1 23
REMARK SMILES IDX 2 24 3 25 98 26 4 27 5 28 25 29 26 30 27 31 28 32 29 34
REMARK SMILES IDX 30 35 31 36 95 37 32 38 94 39 33 40 34 41 35 42 88 43 36 44
REMARK SMILES IDX 93 45 87 46 89 47 37 48 92 49 86 50 85 51 38 53 72 54 51 55
REMARK SMILES IDX 71 56 52 57 55 58 70 59 90 60 53 61 54 62 69 64 91 65 56 66
REMARK SMILES IDX 39 67 40 68 49 69 41 70 42 71 48 72 50 73 43 74 44 75 45 76
REMARK SMILES IDX 46 77 47 78 73 79 74 80 83 81 75 82 76 83 82 84 84 85 77 86
REMARK SMILES IDX 78 87 79 88 80 89 81 90 57 91 58 92 67 93 59 94 60 95 66 96
REMARK SMILES IDX 68 97 61 98 62 99 63 100 64 101 65 102
REMARK H PARENT 22 6 27 33 89 52 55 63
REMARK Flexibility Score: inf
ROOT
ATOM      1  C   UNL     1      -0.215  -6.114  -5.299  1.00  0.00     0.023 C 
ENDROOT
BRANCH   1   2
ATOM      2  C   UNL     1      -0.020  -4.627  -4.978  1.00  0.00     0.116 C 
BRANCH   2   3
ATOM      3  N   UNL     1      -0.251  -3.815  -6.155  1.00  0.00    -0.352 N 
ATOM      4  C   UNL     1      -1.335  -3.138  -6.649  1.00  0.00     0.251 C 
ATOM      5  O   UNL     1      -1.185  -2.601  -7.750  1.00  0.00    -0.269 OA
ATOM      6  H   UNL     1       0.547  -3.731  -6.726  1.00  0.00     0.163 HD
BRANCH   4   7
ATOM      7  C   UNL     1      -2.646  -2.980  -5.951  1.00  0.00     0.043 A 
ATOM      8  C   UNL     1      -4.294  -3.419  -4.224  1.00  0.00     0.130 A 
ATOM      9  C   UNL     1      -5.128  -2.425  -4.736  1.00  0.00     0.047 A 
ATOM     10  C   UNL     1      -3.099  -3.747  -4.876  1.00  0.00     0.061 A 
ATOM     11  C   UNL     1      -4.733  -1.704  -5.856  1.00  0.00     0.005 A 
ATOM     12  C   UNL     1      -3.492  -1.965  -6.441  1.00  0.00     0.014 A 
BRANCH   8  13
ATOM     13  O   UNL     1      -4.768  -4.108  -3.134  1.00  0.00    -0.439 OA
BRANCH  13  14
ATOM     14  C   UNL     1      -3.903  -4.378  -2.070  1.00  0.00     0.227 A 
ATOM     15  C   UNL     1      -2.005  -3.962  -0.864  1.00  0.00     0.254 A 
ATOM     16  N   UNL     1      -2.279  -4.975  -0.010  1.00  0.00    -0.216 NA
ATOM     17  N   UNL     1      -2.811  -3.608  -1.884  1.00  0.00    -0.175 NA
ATOM     18  C   UNL     1      -3.444  -5.638  -0.154  1.00  0.00     0.050 A 
ATOM     19  C   UNL     1      -3.786  -6.549   0.988  1.00  0.00     0.067 C 
ATOM     20  C   UNL     1      -4.288  -5.414  -1.228  1.00  0.00     0.033 A 
ATOM     21  C   UNL     1      -5.537  -6.207  -1.449  1.00  0.00     0.052 C 
BRANCH  15  22
ATOM     22  N   UNL     1      -0.780  -3.236  -0.630  1.00  0.00    -0.203 N 
ATOM     23  C   UNL     1       0.883  -0.114  -0.172  1.00  0.00     0.069 C 
ATOM     24  C   UNL     1       0.482  -1.539  -0.289  1.00  0.00     0.060 A 
ATOM     25  C   UNL     1       1.213  -2.659   0.150  1.00  0.00     0.049 A 
ATOM     26  N   UNL     1      -0.680  -1.892  -0.855  1.00  0.00    -0.170 NA
ATOM     27  C   UNL     1       0.406  -3.745  -0.106  1.00  0.00     0.045 A 
ATOM     28  C   UNL     1       0.688  -5.193   0.057  1.00  0.00     0.067 C 
ENDBRANCH  15  22
ENDBRANCH  13  14
ENDBRANCH   8  13
ENDBRANCH   4   7
ENDBRANCH   2   3
ENDBRANCH   1   2
BRANCH   1  29
ATOM     29  C   UNL     1       0.945  -6.762  -6.077  1.00  0.00     0.023 C 
BRANCH  29  30
ATOM     30  C   UNL     1       2.268  -6.815  -5.319  1.00  0.00     0.116 C 
BRANCH  30  31
ATOM     31  N   UNL     1       2.176  -7.578  -4.074  1.00  0.00    -0.352 N 
ATOM     32  C   UNL     1       3.104  -7.646  -3.057  1.00  0.00     0.251 C 
ATOM     33  H   UNL     1       1.355  -8.105  -3.947  1.00  0.00     0.163 HD
ATOM     34  O   UNL     1       3.106  -8.595  -2.269  1.00  0.00    -0.269 OA
BRANCH  32  35
ATOM     35  C   UNL     1       4.081  -6.557  -2.918  1.00  0.00     0.039 A 
ATOM     36  C   UNL     1       5.434  -6.811  -2.681  1.00  0.00     0.014 A 
ATOM     37  C   UNL     1       3.615  -5.254  -3.079  1.00  0.00     0.014 A 
ATOM     38  C   UNL     1       6.324  -5.741  -2.691  1.00  0.00     0.010 A 
ATOM     39  C   UNL     1       4.509  -4.225  -3.238  1.00  0.00     0.010 A 
ATOM     40  C   UNL     1       5.858  -4.450  -2.995  1.00  0.00    -0.014 A 
BRANCH  40  41
ATOM     41  C   UNL     1       6.795  -3.346  -3.173  1.00  0.00     0.031 A 
ATOM     42  C   UNL     1       7.897  -3.625  -4.136  1.00  0.00     0.074 A 
ATOM     43  C   UNL     1       6.596  -2.111  -2.663  1.00  0.00     0.049 A 
ATOM     44  N   UNL     1       9.138  -3.845  -3.857  1.00  0.00    -0.248 NA
ATOM     45  C   UNL     1       7.561  -3.864  -5.550  1.00  0.00     0.031 C 
ATOM     46  C   UNL     1       5.422  -1.587  -1.956  1.00  0.00     0.029 A 
ATOM     47  N   UNL     1       7.391  -1.012  -2.759  1.00  0.00    -0.354 N 
ATOM     48  C   UNL     1       9.789  -3.996  -5.079  1.00  0.00     0.074 A 
ATOM     49  C   UNL     1       8.751  -4.206  -6.052  1.00  0.00     0.031 C 
ATOM     50  C   UNL     1       5.481  -0.237  -1.915  1.00  0.00     0.029 A 
ATOM     51  C   UNL     1       6.768   0.188  -2.433  1.00  0.00     0.049 A 
ATOM     52  H   UNL     1       8.334  -1.062  -3.038  1.00  0.00     0.167 HD
ATOM     53  C   UNL     1      11.111  -3.683  -5.208  1.00  0.00     0.037 A 
ATOM     54  C   UNL     1       7.264   1.440  -2.610  1.00  0.00     0.037 A 
ATOM     55  C   UNL     1      11.729  -3.539  -3.910  1.00  0.00     0.049 A 
ATOM     56  C   UNL     1       8.745   1.300  -2.689  1.00  0.00     0.074 A 
ATOM     57  C   UNL     1      11.882  -4.362  -2.810  1.00  0.00     0.029 A 
ATOM     58  N   UNL     1      11.959  -2.261  -3.454  1.00  0.00    -0.354 N 
ATOM     59  N   UNL     1       9.483   0.888  -1.690  1.00  0.00    -0.248 NA
ATOM     60  C   UNL     1       9.331   1.121  -4.009  1.00  0.00     0.031 C 
ATOM     61  C   UNL     1      11.685  -3.507  -1.686  1.00  0.00     0.029 A 
ATOM     62  C   UNL     1      11.513  -2.204  -2.159  1.00  0.00     0.049 A 
ATOM     63  H   UNL     1      12.368  -1.525  -3.963  1.00  0.00     0.167 HD
ATOM     64  C   UNL     1      10.403   0.018  -2.261  1.00  0.00     0.074 A 
ATOM     65  C   UNL     1      10.300   0.253  -3.702  1.00  0.00     0.031 C 
ATOM     66  C   UNL     1      10.949  -1.016  -1.553  1.00  0.00     0.037 A 
BRANCH  53  67
ATOM     67  C   UNL     1      11.759  -3.111  -6.451  1.00  0.00     0.058 A 
ATOM     68  C   UNL     1      13.154  -2.883  -6.440  1.00  0.00     0.135 A 
ATOM     69  C   UNL     1      11.055  -2.492  -7.506  1.00  0.00     0.135 A 
ATOM     70  F   UNL     1      13.933  -3.446  -5.501  1.00  0.00    -0.206 F 
ATOM     71  C   UNL     1      13.776  -2.002  -7.322  1.00  0.00     0.059 A 
ATOM     72  C   UNL     1      11.666  -1.650  -8.430  1.00  0.00     0.059 A 
ATOM     73  F   UNL     1       9.729  -2.590  -7.644  1.00  0.00    -0.206 F 
ATOM     74  C   UNL     1      13.015  -1.370  -8.298  1.00  0.00     0.060 A 
BRANCH  74  75
ATOM     75  S   UNL     1      13.790  -0.131  -9.349  1.00  0.00     0.124 S 
ATOM     76  O   UNL     1      14.083   0.924  -8.385  1.00  0.00    -0.237 OA
ATOM     77  O   UNL     1      14.941  -0.860  -9.871  1.00  0.00    -0.237 OA
ATOM     78  O   UNL     1      12.751   0.175 -10.327  1.00  0.00    -0.744 OA
ENDBRANCH  74  75
ENDBRANCH  53  67
BRANCH  54  79
ATOM     79  C   UNL     1       6.516   2.632  -3.107  1.00  0.00     0.058 A 
ATOM     80  C   UNL     1       7.074   3.923  -3.087  1.00  0.00     0.135 A 
ATOM     81  C   UNL     1       5.326   2.492  -3.855  1.00  0.00     0.135 A 
ATOM     82  F   UNL     1       8.220   4.150  -2.426  1.00  0.00    -0.206 F 
ATOM     83  C   UNL     1       6.506   4.999  -3.788  1.00  0.00     0.059 A 
ATOM     84  C   UNL     1       4.738   3.547  -4.551  1.00  0.00     0.059 A 
ATOM     85  F   UNL     1       4.737   1.296  -4.003  1.00  0.00    -0.206 F 
ATOM     86  C   UNL     1       5.344   4.796  -4.532  1.00  0.00     0.060 A 
BRANCH  86  87
ATOM     87  S   UNL     1       4.678   6.138  -5.548  1.00  0.00     0.124 S 
ATOM     88  O   UNL     1       4.282   7.114  -4.539  1.00  0.00    -0.237 OA
ATOM     89  O   UNL     1       5.826   6.501  -6.370  1.00  0.00    -0.237 OA
ATOM     90  O   UNL     1       3.575   5.505  -6.267  1.00  0.00    -0.744 OA
ENDBRANCH  86  87
ENDBRANCH  54  79
BRANCH  66  91
ATOM     91  C   UNL     1      10.776  -1.063  -0.056  1.00  0.00     0.058 A 
ATOM     92  C   UNL     1       9.543  -1.222   0.603  1.00  0.00     0.135 A 
ATOM     93  C   UNL     1      11.936  -1.165   0.730  1.00  0.00     0.135 A 
ATOM     94  F   UNL     1       8.391  -1.237  -0.081  1.00  0.00    -0.206 F 
ATOM     95  C   UNL     1       9.469  -1.449   1.980  1.00  0.00     0.059 A 
ATOM     96  C   UNL     1      11.887  -1.423   2.096  1.00  0.00     0.059 A 
ATOM     97  F   UNL     1      13.146  -1.084   0.152  1.00  0.00    -0.206 F 
ATOM     98  C   UNL     1      10.649  -1.558   2.718  1.00  0.00     0.060 A 
BRANCH  98  99
ATOM     99  S   UNL     1      10.556  -1.941   4.480  1.00  0.00     0.124 S 
ATOM    100  O   UNL     1       9.946  -0.733   5.026  1.00  0.00    -0.237 OA
ATOM    101  O   UNL     1       9.719  -3.137   4.500  1.00  0.00    -0.237 OA
ATOM    102  O   UNL     1      11.950  -2.160   4.858  1.00  0.00    -0.744 OA
ENDBRANCH  98  99
ENDBRANCH  66  91
ENDBRANCH  40  41
ENDBRANCH  32  35
ENDBRANCH  30  31
ENDBRANCH  29  30
ENDBRANCH   1  29
TORSDOF 17
