REMARK SMILES N#C[C@@H]1CN(C(=O)N[C@@H](Cc2cnc[nH]2)C(=O)NCCCCNC(=O)c2ccc(-c3c4nc(c(-c5c(F)cc(S(=O)(=O)[O-])cc5F)c5ccc([nH]5)c(-c5c(F)cc(S(=O)(=O)[O-])cc5F)c5nc(c(-c6c(F)cc(S(=O)(=O)[O-])cc6F)c6ccc3[nH]6)C=C5)C=C4)cc2)CCO1
REMARK SMILES IDX 20 1 19 2 18 3 16 4 17 5 9 7 8 8 6 9 7 10 5 12 3 13 4 14
REMARK SMILES IDX 94 15 93 16 92 17 2 18 1 19 10 20 11 21 12 22 15 23 13 24
REMARK SMILES IDX 14 25 21 27 22 28 23 29 24 30 25 32 26 33 27 34 91 35 28 36
REMARK SMILES IDX 90 37 29 38 30 39 31 40 84 41 32 42 89 43 83 44 85 45 33 46
REMARK SMILES IDX 88 47 82 48 81 49 34 51 68 52 47 53 67 54 48 55 51 56 66 57
REMARK SMILES IDX 86 58 49 59 50 60 65 62 87 63 52 64 35 65 36 66 45 67 37 68
REMARK SMILES IDX 38 69 44 70 46 71 39 72 40 73 41 74 42 75 43 76 69 77 70 78
REMARK SMILES IDX 79 79 71 80 72 81 78 82 80 83 73 84 74 85 75 86 76 87 77 88
REMARK SMILES IDX 53 89 54 90 63 91 55 92 56 93 62 94 64 95 57 96 58 97 59 98
REMARK SMILES IDX 60 99 61 100
REMARK H PARENT 18 6 8 11 15 26 23 31 85 50 51 61
REMARK Flexibility Score: inf
ROOT
ATOM      1  C   UNL     1      -0.783   4.711  -3.595  1.00  0.00     0.023 C 
ENDROOT
BRANCH   1   2
ATOM      2  C   UNL     1       0.521   5.040  -2.893  1.00  0.00     0.116 C 
BRANCH   2   3
ATOM      3  N   UNL     1       0.624   4.492  -1.563  1.00  0.00    -0.354 N 
ATOM      4  C   UNL     1       1.740   4.091  -0.903  1.00  0.00     0.243 C 
ATOM      5  O   UNL     1       1.691   4.055   0.333  1.00  0.00    -0.273 OA
ATOM      6  H   UNL     1      -0.223   4.396  -1.071  1.00  0.00     0.163 HD
BRANCH   4   7
ATOM      7  C   UNL     1       3.072   3.784  -1.611  1.00  0.00     0.179 C 
BRANCH   7   8
ATOM      8  N   UNL     1       3.011   2.885  -2.770  1.00  0.00    -0.326 N 
ATOM      9  C   UNL     1       3.440   1.667  -3.122  1.00  0.00     0.318 C 
ATOM     10  O   UNL     1       3.111   1.318  -4.260  1.00  0.00    -0.249 OA
ATOM     11  H   UNL     1       2.507   3.302  -3.506  1.00  0.00     0.166 HD
BRANCH   9  12
ATOM     12  N   UNL     1       4.179   0.851  -2.327  1.00  0.00    -0.319 N 
ATOM     13  C   UNL     1       3.846   0.060  -0.046  1.00  0.00     0.240 C 
ATOM     14  C   UNL     1       4.606   1.015  -0.948  1.00  0.00     0.169 C 
ATOM     15  O   UNL     1       4.297  -1.283  -0.441  1.00  0.00    -0.360 OA
ATOM     16  C   UNL     1       3.957  -1.575  -1.819  1.00  0.00     0.183 C 
ATOM     17  C   UNL     1       4.484  -0.512  -2.804  1.00  0.00     0.150 C 
BRANCH  13  18
ATOM     18  C   UNL     1       2.326   0.060  -0.046  1.00  0.00     0.096 C 
ATOM     19  N   UNL     1       1.065   0.060  -0.046  1.00  0.00    -0.195 NA
ENDBRANCH  13  18
ENDBRANCH   9  12
ENDBRANCH   7   8
BRANCH   7  20
ATOM     20  C   UNL     1       4.026   4.977  -1.797  1.00  0.00     0.090 C 
BRANCH  20  21
ATOM     21  C   UNL     1       3.622   6.014  -2.786  1.00  0.00     0.037 A 
ATOM     22  C   UNL     1       3.495   6.000  -4.159  1.00  0.00     0.134 A 
ATOM     23  N   UNL     1       3.327   7.310  -2.427  1.00  0.00    -0.348 N 
ATOM     24  N   UNL     1       3.047   7.210  -4.619  1.00  0.00    -0.245 NA
ATOM     25  C   UNL     1       2.968   7.982  -3.560  1.00  0.00     0.196 A 
ATOM     26  H   UNL     1       3.367   7.684  -1.518  1.00  0.00     0.167 HD
ENDBRANCH  20  21
ENDBRANCH   7  20
ENDBRANCH   4   7
ENDBRANCH   2   3
ENDBRANCH   1   2
BRANCH   1  27
ATOM     27  C   UNL     1      -2.017   5.371  -2.993  1.00  0.00     0.023 C 
BRANCH  27  28
ATOM     28  C   UNL     1      -1.883   6.856  -2.681  1.00  0.00     0.116 C 
BRANCH  28  29
ATOM     29  N   UNL     1      -1.453   7.666  -3.815  1.00  0.00    -0.352 N 
ATOM     30  C   UNL     1      -2.023   8.812  -4.319  1.00  0.00     0.251 C 
ATOM     31  H   UNL     1      -0.646   7.349  -4.283  1.00  0.00     0.163 HD
ATOM     32  O   UNL     1      -1.581   9.339  -5.335  1.00  0.00    -0.269 OA
BRANCH  30  33
ATOM     33  C   UNL     1      -3.203   9.380  -3.640  1.00  0.00     0.039 A 
ATOM     34  C   UNL     1      -4.360   9.620  -4.383  1.00  0.00     0.014 A 
ATOM     35  C   UNL     1      -3.188   9.589  -2.259  1.00  0.00     0.014 A 
ATOM     36  C   UNL     1      -5.535   9.982  -3.723  1.00  0.00     0.010 A 
ATOM     37  C   UNL     1      -4.378   9.861  -1.597  1.00  0.00     0.010 A 
ATOM     38  C   UNL     1      -5.566  10.055  -2.320  1.00  0.00    -0.014 A 
BRANCH  38  39
ATOM     39  C   UNL     1      -6.831  10.314  -1.586  1.00  0.00     0.031 A 
ATOM     40  C   UNL     1      -6.959  11.531  -0.712  1.00  0.00     0.074 A 
ATOM     41  C   UNL     1      -7.827   9.406  -1.631  1.00  0.00     0.049 A 
ATOM     42  N   UNL     1      -7.945  11.886   0.071  1.00  0.00    -0.248 NA
ATOM     43  C   UNL     1      -5.809  12.450  -0.683  1.00  0.00     0.031 C 
ATOM     44  C   UNL     1      -7.792   8.145  -2.377  1.00  0.00     0.029 A 
ATOM     45  N   UNL     1      -9.056   9.395  -1.021  1.00  0.00    -0.354 N 
ATOM     46  C   UNL     1      -7.524  13.048   0.705  1.00  0.00     0.074 A 
ATOM     47  C   UNL     1      -6.174  13.310   0.255  1.00  0.00     0.031 C 
ATOM     48  C   UNL     1      -8.951   7.492  -2.192  1.00  0.00     0.029 A 
ATOM     49  C   UNL     1      -9.798   8.269  -1.293  1.00  0.00     0.049 A 
ATOM     50  H   UNL     1      -9.377  10.124  -0.443  1.00  0.00     0.167 HD
ATOM     51  C   UNL     1      -8.209  13.840   1.564  1.00  0.00     0.037 A 
ATOM     52  C   UNL     1     -11.020   7.900  -0.862  1.00  0.00     0.037 A 
ATOM     53  C   UNL     1      -9.567  13.596   1.973  1.00  0.00     0.049 A 
ATOM     54  C   UNL     1     -11.785   8.820   0.048  1.00  0.00     0.074 A 
ATOM     55  C   UNL     1     -10.383  14.388   2.761  1.00  0.00     0.029 A 
ATOM     56  N   UNL     1     -10.309  12.476   1.627  1.00  0.00    -0.354 N 
ATOM     57  N   UNL     1     -11.409   9.966   0.564  1.00  0.00    -0.248 NA
ATOM     58  C   UNL     1     -13.144   8.407   0.424  1.00  0.00     0.031 C 
ATOM     59  C   UNL     1     -11.606  13.727   2.925  1.00  0.00     0.029 A 
ATOM     60  C   UNL     1     -11.567  12.545   2.202  1.00  0.00     0.049 A 
ATOM     61  H   UNL     1      -9.989  11.741   1.056  1.00  0.00     0.167 HD
ATOM     62  C   UNL     1     -12.490  10.420   1.312  1.00  0.00     0.074 A 
ATOM     63  C   UNL     1     -13.540   9.432   1.168  1.00  0.00     0.031 C 
ATOM     64  C   UNL     1     -12.602  11.552   2.050  1.00  0.00     0.037 A 
BRANCH  51  65
ATOM     65  C   UNL     1      -7.495  15.043   2.114  1.00  0.00     0.058 A 
ATOM     66  C   UNL     1      -7.173  16.146   1.306  1.00  0.00     0.135 A 
ATOM     67  C   UNL     1      -7.131  15.098   3.469  1.00  0.00     0.135 A 
ATOM     68  F   UNL     1      -7.485  16.140  -0.000  1.00  0.00    -0.206 F 
ATOM     69  C   UNL     1      -6.478  17.240   1.810  1.00  0.00     0.059 A 
ATOM     70  C   UNL     1      -6.461  16.196   4.002  1.00  0.00     0.059 A 
ATOM     71  F   UNL     1      -7.415  14.073   4.288  1.00  0.00    -0.206 F 
ATOM     72  C   UNL     1      -6.120  17.253   3.159  1.00  0.00     0.060 A 
BRANCH  72  73
ATOM     73  S   UNL     1      -5.200  18.669   3.794  1.00  0.00     0.124 S 
ATOM     74  O   UNL     1      -3.867  18.413   3.256  1.00  0.00    -0.237 OA
ATOM     75  O   UNL     1      -5.914  19.798   3.207  1.00  0.00    -0.237 OA
ATOM     76  O   UNL     1      -5.328  18.535   5.242  1.00  0.00    -0.744 OA
ENDBRANCH  72  73
ENDBRANCH  51  65
BRANCH  52  77
ATOM     77  C   UNL     1     -11.600   6.608  -1.315  1.00  0.00     0.058 A 
ATOM     78  C   UNL     1     -12.639   6.573  -2.256  1.00  0.00     0.135 A 
ATOM     79  C   UNL     1     -11.099   5.383  -0.847  1.00  0.00     0.135 A 
ATOM     80  F   UNL     1     -13.155   7.718  -2.728  1.00  0.00    -0.206 F 
ATOM     81  C   UNL     1     -13.165   5.370  -2.716  1.00  0.00     0.059 A 
ATOM     82  C   UNL     1     -11.594   4.167  -1.308  1.00  0.00     0.059 A 
ATOM     83  F   UNL     1     -10.094   5.363   0.041  1.00  0.00    -0.206 F 
ATOM     84  C   UNL     1     -12.632   4.171  -2.240  1.00  0.00     0.060 A 
BRANCH  84  85
ATOM     85  S   UNL     1     -13.273   2.616  -2.898  1.00  0.00     0.124 S 
ATOM     86  O   UNL     1     -14.565   2.524  -2.229  1.00  0.00    -0.237 OA
ATOM     87  O   UNL     1     -13.314   2.884  -4.332  1.00  0.00    -0.237 OA
ATOM     88  O   UNL     1     -12.273   1.638  -2.480  1.00  0.00    -0.744 OA
ENDBRANCH  84  85
ENDBRANCH  52  77
BRANCH  64  89
ATOM     89  C   UNL     1     -13.912  11.797   2.744  1.00  0.00     0.058 A 
ATOM     90  C   UNL     1     -14.289  11.070   3.884  1.00  0.00     0.135 A 
ATOM     91  C   UNL     1     -14.775  12.810   2.296  1.00  0.00     0.135 A 
ATOM     92  F   UNL     1     -13.501  10.087   4.349  1.00  0.00    -0.206 F 
ATOM     93  C   UNL     1     -15.487  11.323   4.543  1.00  0.00     0.059 A 
ATOM     94  C   UNL     1     -15.966  13.097   2.955  1.00  0.00     0.059 A 
ATOM     95  F   UNL     1     -14.456  13.543   1.217  1.00  0.00    -0.206 F 
ATOM     96  C   UNL     1     -16.319  12.340   4.071  1.00  0.00     0.060 A 
BRANCH  96  97
ATOM     97  S   UNL     1     -17.855  12.684   4.955  1.00  0.00     0.124 S 
ATOM     98  O   UNL     1     -18.695  11.569   4.529  1.00  0.00    -0.237 OA
ATOM     99  O   UNL     1     -17.428  12.659   6.350  1.00  0.00    -0.237 OA
ATOM    100  O   UNL     1     -18.250  13.996   4.451  1.00  0.00    -0.744 OA
ENDBRANCH  96  97
ENDBRANCH  64  89
ENDBRANCH  38  39
ENDBRANCH  30  33
ENDBRANCH  28  29
ENDBRANCH  27  28
ENDBRANCH   1  27
TORSDOF 19
