REMARK SMILES CC1=NN(c2ccc(Cl)cc2)C(=O)/C1=C/c1ccccc1OCC(=O)NCCCCNC(=O)c1ccc(-c2c3nc(c(-c4c(F)cc(S(=O)(=O)[O-])cc4F)c4ccc([nH]4)c(-c4c(F)cc(S(=O)(=O)[O-])cc4F)c4nc(c(-c5c(F)cc(S(=O)(=O)[O-])cc5F)c5ccc2[nH]5)C=C4)C=C3)cc1
REMARK SMILES IDX 28 1 27 2 26 3 24 4 25 5 23 7 22 8 21 9 16 10 17 11 18 12
REMARK SMILES IDX 20 13 19 14 15 15 1 16 2 17 3 18 14 19 4 20 12 21 13 22 5 23
REMARK SMILES IDX 6 24 11 25 7 26 10 27 8 28 9 29 29 30 30 31 31 32 32 33
REMARK SMILES IDX 33 35 34 36 35 37 99 38 36 39 98 40 37 41 38 42 39 43 92 44
REMARK SMILES IDX 40 45 97 46 91 47 93 48 41 49 96 50 90 51 89 52 42 54 76 55
REMARK SMILES IDX 55 56 75 57 56 58 59 59 74 60 94 61 57 62 58 63 73 65 95 66
REMARK SMILES IDX 60 67 43 68 44 69 53 70 45 71 46 72 52 73 54 74 47 75 48 76
REMARK SMILES IDX 49 77 50 78 51 79 77 80 78 81 87 82 79 83 80 84 86 85 88 86
REMARK SMILES IDX 81 87 82 88 83 89 84 90 85 91 61 92 62 93 71 94 63 95 64 96
REMARK SMILES IDX 70 97 72 98 65 99 66 100 67 101 68 102 69 103
REMARK H PARENT 26 6 31 34 93 53 59 64
REMARK Flexibility Score: inf
ROOT
ATOM      1  C   UNL     1      -4.682  -0.262  -1.136  1.00  0.00     0.023 C 
ENDROOT
BRANCH   1   2
ATOM      2  C   UNL     1      -3.712   0.386  -2.119  1.00  0.00     0.116 C 
BRANCH   2   3
ATOM      3  N   UNL     1      -2.399   0.691  -1.590  1.00  0.00    -0.353 N 
ATOM      4  C   UNL     1      -1.210   0.163  -2.011  1.00  0.00     0.257 C 
ATOM      5  O   UNL     1      -0.195   0.854  -1.911  1.00  0.00    -0.271 OA
ATOM      6  H   UNL     1      -2.358   1.343  -0.854  1.00  0.00     0.163 HD
BRANCH   4   7
ATOM      7  C   UNL     1      -1.142  -1.236  -2.630  1.00  0.00     0.329 C 
BRANCH   7   8
ATOM      8  O   UNL     1      -2.082  -2.186  -2.180  1.00  0.00    -0.483 OA
BRANCH   8   9
ATOM      9  C   UNL     1      -1.872  -3.027  -1.126  1.00  0.00     0.127 A 
ATOM     10  C   UNL     1      -0.863  -3.047  -0.146  1.00  0.00     0.017 A 
ATOM     11  C   UNL     1      -0.915  -4.026   0.868  1.00  0.00     0.012 A 
ATOM     12  C   UNL     1      -1.942  -4.969   0.915  1.00  0.00     0.001 A 
ATOM     13  C   UNL     1      -2.893  -3.991  -1.061  1.00  0.00     0.047 A 
ATOM     14  C   UNL     1      -2.933  -4.955  -0.056  1.00  0.00     0.004 A 
BRANCH  10  15
ATOM     15  C   UNL     1       0.283  -2.140  -0.085  1.00  0.00     0.027 C 
ATOM     16  C   UNL     1      -1.901  -0.704   1.865  1.00  0.00     0.069 C 
ATOM     17  C   UNL     1      -0.614  -0.174   1.338  1.00  0.00     0.071 C 
ATOM     18  N   UNL     1      -0.209   1.056   1.528  1.00  0.00    -0.169 NA
ATOM     19  C   UNL     1       0.339  -0.957   0.539  1.00  0.00     0.066 C 
ATOM     20  N   UNL     1       1.016   1.164   0.863  1.00  0.00    -0.196 N 
ATOM     21  C   UNL     1       1.485  -0.041   0.317  1.00  0.00     0.280 C 
ATOM     22  O   UNL     1       2.525  -0.339  -0.239  1.00  0.00    -0.267 OA
BRANCH  20  23
ATOM     23  C   UNL     1       1.556   2.453   0.643  1.00  0.00     0.069 A 
ATOM     24  C   UNL     1       2.467   2.684  -0.399  1.00  0.00     0.030 A 
ATOM     25  C   UNL     1       1.139   3.545   1.418  1.00  0.00     0.030 A 
ATOM     26  C   UNL     1       2.949   3.970  -0.662  1.00  0.00     0.023 A 
ATOM     27  C   UNL     1       1.640   4.830   1.173  1.00  0.00     0.023 A 
ATOM     28  C   UNL     1       2.540   5.037   0.131  1.00  0.00     0.041 A 
ATOM     29  Cl  UNL     1       3.146   6.615  -0.186  1.00  0.00    -0.084 Cl
ENDBRANCH  20  23
ENDBRANCH  10  15
ENDBRANCH   8   9
ENDBRANCH   7   8
ENDBRANCH   4   7
ENDBRANCH   2   3
ENDBRANCH   1   2
BRANCH   1  30
ATOM     30  C   UNL     1      -5.028   0.512   0.139  1.00  0.00     0.023 C 
BRANCH  30  31
ATOM     31  C   UNL     1      -5.278   2.008   0.007  1.00  0.00     0.116 C 
BRANCH  31  32
ATOM     32  N   UNL     1      -6.387   2.319  -0.873  1.00  0.00    -0.352 N 
ATOM     33  C   UNL     1      -7.496   3.099  -0.655  1.00  0.00     0.251 C 
ATOM     34  H   UNL     1      -6.337   1.907  -1.766  1.00  0.00     0.163 HD
ATOM     35  O   UNL     1      -8.391   3.101  -1.499  1.00  0.00    -0.269 OA
BRANCH  33  36
ATOM     36  C   UNL     1      -7.644   3.911   0.578  1.00  0.00     0.039 A 
ATOM     37  C   UNL     1      -8.910   3.998   1.166  1.00  0.00     0.014 A 
ATOM     38  C   UNL     1      -6.578   4.626   1.133  1.00  0.00     0.014 A 
ATOM     39  C   UNL     1      -9.098   4.764   2.321  1.00  0.00     0.010 A 
ATOM     40  C   UNL     1      -6.750   5.331   2.327  1.00  0.00     0.010 A 
ATOM     41  C   UNL     1      -8.015   5.420   2.929  1.00  0.00    -0.014 A 
BRANCH  41  42
ATOM     42  C   UNL     1      -8.203   6.209   4.178  1.00  0.00     0.031 A 
ATOM     43  C   UNL     1      -7.961   7.698   4.187  1.00  0.00     0.074 A 
ATOM     44  C   UNL     1      -8.556   5.580   5.318  1.00  0.00     0.049 A 
ATOM     45  N   UNL     1      -8.055   8.543   5.182  1.00  0.00    -0.248 NA
ATOM     46  C   UNL     1      -7.535   8.316   2.920  1.00  0.00     0.031 C 
ATOM     47  C   UNL     1      -8.764   4.136   5.459  1.00  0.00     0.029 A 
ATOM     48  N   UNL     1      -8.795   6.069   6.579  1.00  0.00    -0.354 N 
ATOM     49  C   UNL     1      -7.678   9.781   4.671  1.00  0.00     0.074 A 
ATOM     50  C   UNL     1      -7.319   9.572   3.286  1.00  0.00     0.031 C 
ATOM     51  C   UNL     1      -9.117   3.861   6.725  1.00  0.00     0.029 A 
ATOM     52  C   UNL     1      -9.130   5.099   7.497  1.00  0.00     0.049 A 
ATOM     53  H   UNL     1      -8.733   7.025   6.806  1.00  0.00     0.167 HD
ATOM     54  C   UNL     1      -7.652  10.984   5.293  1.00  0.00     0.037 A 
ATOM     55  C   UNL     1      -9.410   5.195   8.812  1.00  0.00     0.037 A 
ATOM     56  C   UNL     1      -8.056  11.197   6.660  1.00  0.00     0.049 A 
ATOM     57  C   UNL     1      -9.412   6.552   9.466  1.00  0.00     0.074 A 
ATOM     58  C   UNL     1      -8.150  12.393   7.351  1.00  0.00     0.029 A 
ATOM     59  N   UNL     1      -8.432  10.197   7.543  1.00  0.00    -0.354 N 
ATOM     60  N   UNL     1      -9.140   7.723   8.939  1.00  0.00    -0.248 NA
ATOM     61  C   UNL     1      -9.774   6.605  10.889  1.00  0.00     0.031 C 
ATOM     62  C   UNL     1      -8.534  12.112   8.665  1.00  0.00     0.029 A 
ATOM     63  C   UNL     1      -8.736  10.746   8.777  1.00  0.00     0.049 A 
ATOM     64  H   UNL     1      -8.476   9.238   7.324  1.00  0.00     0.167 HD
ATOM     65  C   UNL     1      -9.336   8.652   9.956  1.00  0.00     0.074 A 
ATOM     66  C   UNL     1      -9.763   7.909  11.123  1.00  0.00     0.031 C 
ATOM     67  C   UNL     1      -9.178   9.998   9.927  1.00  0.00     0.037 A 
BRANCH  54  68
ATOM     68  C   UNL     1      -7.178  12.181   4.512  1.00  0.00     0.058 A 
ATOM     69  C   UNL     1      -7.954  12.756   3.494  1.00  0.00     0.135 A 
ATOM     70  C   UNL     1      -5.971  12.815   4.852  1.00  0.00     0.135 A 
ATOM     71  F   UNL     1      -9.108  12.184   3.118  1.00  0.00    -0.206 F 
ATOM     72  C   UNL     1      -7.547  13.913   2.835  1.00  0.00     0.059 A 
ATOM     73  C   UNL     1      -5.557  13.987   4.225  1.00  0.00     0.059 A 
ATOM     74  F   UNL     1      -5.188  12.306   5.817  1.00  0.00    -0.206 F 
ATOM     75  C   UNL     1      -6.351  14.526   3.214  1.00  0.00     0.060 A 
BRANCH  75  76
ATOM     76  S   UNL     1      -5.866  16.055   2.385  1.00  0.00     0.124 S 
ATOM     77  O   UNL     1      -5.481  15.562   1.066  1.00  0.00    -0.237 OA
ATOM     78  O   UNL     1      -7.096  16.839   2.434  1.00  0.00    -0.237 OA
ATOM     79  O   UNL     1      -4.772  16.558   3.210  1.00  0.00    -0.744 OA
ENDBRANCH  75  76
ENDBRANCH  54  68
BRANCH  55  80
ATOM     80  C   UNL     1      -9.725   3.975   9.607  1.00  0.00     0.058 A 
ATOM     81  C   UNL     1     -11.009   3.762  10.133  1.00  0.00     0.135 A 
ATOM     82  C   UNL     1      -8.738   3.018   9.889  1.00  0.00     0.135 A 
ATOM     83  F   UNL     1     -11.987   4.649   9.895  1.00  0.00    -0.206 F 
ATOM     84  C   UNL     1     -11.293   2.667  10.944  1.00  0.00     0.059 A 
ATOM     85  C   UNL     1      -9.006   1.899  10.671  1.00  0.00     0.059 A 
ATOM     86  F   UNL     1      -7.500   3.162   9.393  1.00  0.00    -0.206 F 
ATOM     87  C   UNL     1     -10.282   1.744  11.213  1.00  0.00     0.060 A 
BRANCH  87  88
ATOM     88  S   UNL     1     -10.657   0.324  12.263  1.00  0.00     0.124 S 
ATOM     89  O   UNL     1     -10.703   0.941  13.584  1.00  0.00    -0.237 OA
ATOM     90  O   UNL     1     -11.936  -0.129  11.724  1.00  0.00    -0.237 OA
ATOM     91  O   UNL     1      -9.532  -0.575  12.024  1.00  0.00    -0.744 OA
ENDBRANCH  87  88
ENDBRANCH  55  80
BRANCH  67  92
ATOM     92  C   UNL     1      -9.527  10.762  11.175  1.00  0.00     0.058 A 
ATOM     93  C   UNL     1      -8.743  10.690  12.337  1.00  0.00     0.135 A 
ATOM     94  C   UNL     1     -10.659  11.594  11.201  1.00  0.00     0.135 A 
ATOM     95  F   UNL     1      -7.651   9.909  12.368  1.00  0.00    -0.206 F 
ATOM     96  C   UNL     1      -9.092  11.380  13.494  1.00  0.00     0.059 A 
ATOM     97  C   UNL     1     -11.009  12.318  12.336  1.00  0.00     0.059 A 
ATOM     98  F   UNL     1     -11.436  11.713  10.112  1.00  0.00    -0.206 F 
ATOM     99  C   UNL     1     -10.231  12.187  13.485  1.00  0.00     0.060 A 
BRANCH  99 100
ATOM    100  S   UNL     1     -10.680  13.073  14.992  1.00  0.00     0.124 S 
ATOM    101  O   UNL     1     -11.228  11.997  15.812  1.00  0.00    -0.237 OA
ATOM    102  O   UNL     1      -9.398  13.614  15.432  1.00  0.00    -0.237 OA
ATOM    103  O   UNL     1     -11.646  14.064  14.529  1.00  0.00    -0.744 OA
ENDBRANCH  99 100
ENDBRANCH  67  92
ENDBRANCH  41  42
ENDBRANCH  33  36
ENDBRANCH  31  32
ENDBRANCH  30  31
ENDBRANCH   1  30
TORSDOF 18
