REMARK SMILES CCOc1ccccc1Nc1ccc(C(=O)NCCCCNC(=O)c2ccc(-c3c4nc(c(-c5c(F)cc(S(=O)(=O)[O-])cc5F)c5ccc([nH]5)c(-c5c(F)cc(S(=O)(=O)[O-])cc5F)c5nc(c(-c6c(F)cc(S(=O)(=O)[O-])cc6F)c6ccc3[nH]6)C=C5)C=C4)cc2)cc1N
REMARK SMILES IDX 19 1 18 2 17 3 15 4 16 5 14 7 11 8 12 9 92 10 13 11 91 12
REMARK SMILES IDX 10 13 9 15 4 16 5 17 6 18 8 19 7 20 3 21 2 22 1 23 93 24
REMARK SMILES IDX 20 27 21 28 22 29 23 30 24 32 25 33 26 34 90 35 27 36 89 37
REMARK SMILES IDX 28 38 29 39 30 40 83 41 31 42 88 43 82 44 84 45 32 46 87 47
REMARK SMILES IDX 81 48 80 49 33 51 67 52 46 53 66 54 47 55 50 56 65 57 85 58
REMARK SMILES IDX 48 59 49 60 64 62 86 63 51 64 34 65 35 66 44 67 36 68 37 69
REMARK SMILES IDX 43 70 45 71 38 72 39 73 40 74 41 75 42 76 68 77 69 78 78 79
REMARK SMILES IDX 70 80 71 81 77 82 79 83 72 84 73 85 74 86 75 87 76 88 52 89
REMARK SMILES IDX 53 90 62 91 54 92 55 93 61 94 63 95 56 96 57 97 58 98 59 99
REMARK SMILES IDX 60 100
REMARK H PARENT 17 6 10 14 93 25 93 26 22 31 84 50 50 61
REMARK Flexibility Score: inf
ROOT
ATOM      1  C   UNL     1       7.636   1.599  -3.977  1.00  0.00     0.023 C 
ENDROOT
BRANCH   1   2
ATOM      2  C   UNL     1       7.777   2.405  -2.683  1.00  0.00     0.116 C 
BRANCH   2   3
ATOM      3  N   UNL     1       7.041   3.652  -2.779  1.00  0.00    -0.352 N 
ATOM      4  C   UNL     1       5.805   4.016  -2.306  1.00  0.00     0.251 C 
ATOM      5  O   UNL     1       5.412   5.164  -2.508  1.00  0.00    -0.269 OA
ATOM      6  H   UNL     1       7.511   4.363  -3.272  1.00  0.00     0.163 HD
BRANCH   4   7
ATOM      7  C   UNL     1       4.964   3.099  -1.496  1.00  0.00     0.041 A 
ATOM      8  C   UNL     1       3.454   1.457   0.222  1.00  0.00     0.062 A 
ATOM      9  C   UNL     1       3.425   2.851   0.358  1.00  0.00     0.029 A 
ATOM     10  C   UNL     1       4.211   0.882  -0.824  1.00  0.00     0.056 A 
ATOM     11  C   UNL     1       4.185   3.665  -0.483  1.00  0.00     0.016 A 
ATOM     12  C   UNL     1       4.897   1.721  -1.707  1.00  0.00     0.041 A 
BRANCH   8  13
ATOM     13  N   UNL     1       2.754   0.688   1.168  1.00  0.00    -0.351 N 
ATOM     14  H   UNL     1       1.845   1.009   1.365  1.00  0.00     0.167 HD
BRANCH  13  15
ATOM     15  C   UNL     1       3.136  -0.462   1.878  1.00  0.00     0.081 A 
ATOM     16  C   UNL     1       2.164  -1.412   2.230  1.00  0.00     0.142 A 
ATOM     17  C   UNL     1       2.506  -2.576   2.920  1.00  0.00     0.048 A 
ATOM     18  C   UNL     1       3.843  -2.824   3.230  1.00  0.00     0.004 A 
ATOM     19  C   UNL     1       4.475  -0.742   2.175  1.00  0.00     0.030 A 
ATOM     20  C   UNL     1       4.827  -1.911   2.854  1.00  0.00     0.002 A 
BRANCH  16  21
ATOM     21  O   UNL     1       0.846  -1.170   1.931  1.00  0.00    -0.492 OA
BRANCH  21  22
ATOM     22  C   UNL     1       0.468  -1.781   0.687  1.00  0.00     0.226 C 
ATOM     23  C   UNL     1       0.229  -0.716  -0.371  1.00  0.00     0.049 C 
ENDBRANCH  21  22
ENDBRANCH  16  21
ENDBRANCH  13  15
ENDBRANCH   8  13
BRANCH  10  24
ATOM     24  N   UNL     1       4.150  -0.482  -1.121  1.00  0.00    -0.397 N 
ATOM     25  H   UNL     1       3.674  -1.097  -0.517  1.00  0.00     0.156 HD
ATOM     26  H   UNL     1       4.583  -0.829  -1.935  1.00  0.00     0.156 HD
ENDBRANCH  10  24
ENDBRANCH   4   7
ENDBRANCH   2   3
ENDBRANCH   1   2
BRANCH   1  27
ATOM     27  C   UNL     1       8.492   2.125  -5.132  1.00  0.00     0.023 C 
BRANCH  27  28
ATOM     28  C   UNL     1       9.993   1.998  -4.911  1.00  0.00     0.116 C 
BRANCH  28  29
ATOM     29  N   UNL     1      10.429   0.619  -4.752  1.00  0.00    -0.352 N 
ATOM     30  C   UNL     1      11.653   0.080  -5.075  1.00  0.00     0.251 C 
ATOM     31  H   UNL     1       9.770  -0.003  -4.366  1.00  0.00     0.163 HD
ATOM     32  O   UNL     1      11.847  -1.124  -4.991  1.00  0.00    -0.269 OA
BRANCH  30  33
ATOM     33  C   UNL     1      12.712   0.985  -5.569  1.00  0.00     0.039 A 
ATOM     34  C   UNL     1      13.331   0.699  -6.787  1.00  0.00     0.014 A 
ATOM     35  C   UNL     1      13.041   2.140  -4.856  1.00  0.00     0.014 A 
ATOM     36  C   UNL     1      14.241   1.610  -7.325  1.00  0.00     0.010 A 
ATOM     37  C   UNL     1      13.898   3.075  -5.423  1.00  0.00     0.010 A 
ATOM     38  C   UNL     1      14.506   2.819  -6.662  1.00  0.00    -0.014 A 
BRANCH  38  39
ATOM     39  C   UNL     1      15.429   3.831  -7.231  1.00  0.00     0.031 A 
ATOM     40  C   UNL     1      16.705   4.160  -6.508  1.00  0.00     0.074 A 
ATOM     41  C   UNL     1      15.080   4.510  -8.341  1.00  0.00     0.049 A 
ATOM     42  N   UNL     1      17.581   5.097  -6.761  1.00  0.00    -0.248 NA
ATOM     43  C   UNL     1      17.020   3.346  -5.322  1.00  0.00     0.031 C 
ATOM     44  C   UNL     1      13.848   4.308  -9.106  1.00  0.00     0.029 A 
ATOM     45  N   UNL     1      15.723   5.521  -9.009  1.00  0.00    -0.354 N 
ATOM     46  C   UNL     1      18.534   5.004  -5.755  1.00  0.00     0.074 A 
ATOM     47  C   UNL     1      18.107   3.947  -4.863  1.00  0.00     0.031 C 
ATOM     48  C   UNL     1      13.830   5.160 -10.145  1.00  0.00     0.029 A 
ATOM     49  C   UNL     1      15.030   5.991 -10.099  1.00  0.00     0.049 A 
ATOM     50  H   UNL     1      16.598   5.878  -8.733  1.00  0.00     0.167 HD
ATOM     51  C   UNL     1      19.672   5.720  -5.599  1.00  0.00     0.037 A 
ATOM     52  C   UNL     1      15.324   6.986 -10.959  1.00  0.00     0.037 A 
ATOM     53  C   UNL     1      20.109   6.744  -6.510  1.00  0.00     0.049 A 
ATOM     54  C   UNL     1      16.606   7.754 -10.779  1.00  0.00     0.074 A 
ATOM     55  C   UNL     1      21.272   7.492  -6.472  1.00  0.00     0.029 A 
ATOM     56  N   UNL     1      19.402   7.157  -7.630  1.00  0.00    -0.354 N 
ATOM     57  N   UNL     1      17.520   7.623  -9.847  1.00  0.00    -0.248 NA
ATOM     58  C   UNL     1      16.901   8.799 -11.769  1.00  0.00     0.031 C 
ATOM     59  C   UNL     1      21.256   8.378  -7.556  1.00  0.00     0.029 A 
ATOM     60  C   UNL     1      20.101   8.155  -8.288  1.00  0.00     0.049 A 
ATOM     61  H   UNL     1      18.532   6.795  -7.915  1.00  0.00     0.167 HD
ATOM     62  C   UNL     1      18.512   8.548 -10.155  1.00  0.00     0.074 A 
ATOM     63  C   UNL     1      18.087   9.229 -11.361  1.00  0.00     0.031 C 
ATOM     64  C   UNL     1      19.670   8.806  -9.500  1.00  0.00     0.037 A 
BRANCH  51  65
ATOM     65  C   UNL     1      20.522   5.414  -4.398  1.00  0.00     0.058 A 
ATOM     66  C   UNL     1      21.252   4.219  -4.299  1.00  0.00     0.135 A 
ATOM     67  C   UNL     1      20.616   6.328  -3.336  1.00  0.00     0.135 A 
ATOM     68  F   UNL     1      21.184   3.303  -5.279  1.00  0.00    -0.206 F 
ATOM     69  C   UNL     1      22.015   3.923  -3.175  1.00  0.00     0.059 A 
ATOM     70  C   UNL     1      21.394   6.065  -2.213  1.00  0.00     0.059 A 
ATOM     71  F   UNL     1      19.938   7.486  -3.379  1.00  0.00    -0.206 F 
ATOM     72  C   UNL     1      22.075   4.850  -2.134  1.00  0.00     0.060 A 
BRANCH  72  73
ATOM     73  S   UNL     1      23.057   4.448  -0.674  1.00  0.00     0.124 S 
ATOM     74  O   UNL     1      22.186   3.495   0.007  1.00  0.00    -0.237 OA
ATOM     75  O   UNL     1      24.273   3.889  -1.256  1.00  0.00    -0.237 OA
ATOM     76  O   UNL     1      23.220   5.737  -0.009  1.00  0.00    -0.744 OA
ENDBRANCH  72  73
ENDBRANCH  51  65
BRANCH  52  77
ATOM     77  C   UNL     1      14.403   7.291 -12.084  1.00  0.00     0.058 A 
ATOM     78  C   UNL     1      14.741   6.947 -13.401  1.00  0.00     0.135 A 
ATOM     79  C   UNL     1      13.162   7.909 -11.867  1.00  0.00     0.135 A 
ATOM     80  F   UNL     1      15.919   6.359 -13.658  1.00  0.00    -0.206 F 
ATOM     81  C   UNL     1      13.889   7.216 -14.466  1.00  0.00     0.059 A 
ATOM     82  C   UNL     1      12.283   8.170 -12.913  1.00  0.00     0.059 A 
ATOM     83  F   UNL     1      12.785   8.242 -10.622  1.00  0.00    -0.206 F 
ATOM     84  C   UNL     1      12.659   7.827 -14.212  1.00  0.00     0.060 A 
BRANCH  84  85
ATOM     85  S   UNL     1      11.536   8.121 -15.595  1.00  0.00     0.124 S 
ATOM     86  O   UNL     1      12.164   9.266 -16.244  1.00  0.00    -0.237 OA
ATOM     87  O   UNL     1      11.604   6.857 -16.322  1.00  0.00    -0.237 OA
ATOM     88  O   UNL     1      10.260   8.388 -14.938  1.00  0.00    -0.744 OA
ENDBRANCH  84  85
ENDBRANCH  52  77
BRANCH  64  89
ATOM     89  C   UNL     1      20.587   9.836 -10.095  1.00  0.00     0.058 A 
ATOM     90  C   UNL     1      20.323  11.209  -9.987  1.00  0.00     0.135 A 
ATOM     91  C   UNL     1      21.783   9.442 -10.716  1.00  0.00     0.135 A 
ATOM     92  F   UNL     1      19.189  11.636  -9.407  1.00  0.00    -0.206 F 
ATOM     93  C   UNL     1      21.208  12.159 -10.486  1.00  0.00     0.059 A 
ATOM     94  C   UNL     1      22.693  10.374 -11.203  1.00  0.00     0.059 A 
ATOM     95  F   UNL     1      22.086   8.139 -10.836  1.00  0.00    -0.206 F 
ATOM     96  C   UNL     1      22.393  11.731 -11.090  1.00  0.00     0.060 A 
BRANCH  96  97
ATOM     97  S   UNL     1      23.560  12.973 -11.687  1.00  0.00     0.124 S 
ATOM     98  O   UNL     1      22.916  13.412 -12.920  1.00  0.00    -0.237 OA
ATOM     99  O   UNL     1      23.572  13.943 -10.596  1.00  0.00    -0.237 OA
ATOM    100  O   UNL     1      24.798  12.218 -11.859  1.00  0.00    -0.744 OA
ENDBRANCH  96  97
ENDBRANCH  64  89
ENDBRANCH  38  39
ENDBRANCH  30  33
ENDBRANCH  28  29
ENDBRANCH  27  28
ENDBRANCH   1  27
TORSDOF 19
