REMARK SMILES CC[C@@H](C)[C@H](NC(=O)N1CCn2c1nc1ccccc12)C(=O)N[C@H](C)C(=O)NCCCCNC(=O)c1ccc(-c2c3nc(c(-c4c(F)cc(S(=O)(=O)[O-])cc4F)c4ccc([nH]4)c(-c4c(F)cc(S(=O)(=O)[O-])cc4F)c4nc(c(-c5c(F)cc(S(=O)(=O)[O-])cc5F)c5ccc2[nH]5)C=C4)C=C3)cc1
REMARK SMILES IDX 30 1 29 2 28 3 26 4 27 5 24 7 25 8 23 9 21 10 22 11 5 13
REMARK SMILES IDX 3 14 4 15 2 16 1 17 6 18 7 19 8 21 9 22 10 23 13 24 11 25
REMARK SMILES IDX 12 26 14 27 20 28 15 29 19 30 16 31 18 32 17 33 31 34 32 35
REMARK SMILES IDX 33 36 34 37 35 39 36 40 37 41 101 42 38 43 100 44 39 45
REMARK SMILES IDX 40 46 41 47 94 48 42 49 99 50 93 51 95 52 43 53 98 54 92 55
REMARK SMILES IDX 91 56 44 58 78 59 57 60 77 61 58 62 61 63 76 64 96 65 59 66
REMARK SMILES IDX 60 67 75 69 97 70 62 71 45 72 46 73 55 74 47 75 48 76 54 77
REMARK SMILES IDX 56 78 49 79 50 80 51 81 52 82 53 83 79 84 80 85 89 86 81 87
REMARK SMILES IDX 82 88 88 89 90 90 83 91 84 92 85 93 86 94 87 95 63 96 64 97
REMARK SMILES IDX 73 98 65 99 66 100 72 101 74 102 67 103 68 104 69 105 70 106
REMARK SMILES IDX 71 107
REMARK H PARENT 28 6 23 12 6 20 33 38 95 57 61 68
REMARK Flexibility Score: inf
ROOT
ATOM      1  C   UNL     1       5.683  -4.606  -6.282  1.00  0.00     0.023 C 
ENDROOT
BRANCH   1   2
ATOM      2  C   UNL     1       5.854  -3.542  -5.192  1.00  0.00     0.116 C 
BRANCH   2   3
ATOM      3  N   UNL     1       4.946  -2.429  -5.415  1.00  0.00    -0.354 N 
ATOM      4  C   UNL     1       4.000  -1.798  -4.677  1.00  0.00     0.242 C 
ATOM      5  O   UNL     1       3.381  -0.901  -5.268  1.00  0.00    -0.273 OA
ATOM      6  H   UNL     1       5.040  -2.042  -6.315  1.00  0.00     0.163 HD
BRANCH   4   7
ATOM      7  C   UNL     1       3.712  -2.049  -3.167  1.00  0.00     0.168 C 
ATOM      8  C   UNL     1       2.215  -1.960  -2.902  1.00  0.00     0.041 C 
BRANCH   7   9
ATOM      9  N   UNL     1       4.444  -3.083  -2.439  1.00  0.00    -0.343 N 
ATOM     10  C   UNL     1       4.325  -4.374  -2.062  1.00  0.00     0.243 C 
ATOM     11  O   UNL     1       5.414  -4.884  -1.735  1.00  0.00    -0.273 OA
ATOM     12  H   UNL     1       5.302  -2.721  -2.119  1.00  0.00     0.164 HD
BRANCH  10  13
ATOM     13  C   UNL     1       3.080  -5.296  -2.155  1.00  0.00     0.176 C 
BRANCH  13  14
ATOM     14  C   UNL     1       2.903  -6.048  -3.516  1.00  0.00     0.018 C 
ATOM     15  C   UNL     1       4.160  -6.872  -3.830  1.00  0.00     0.010 C 
BRANCH  14  16
ATOM     16  C   UNL     1       2.439  -5.112  -4.646  1.00  0.00     0.002 C 
ATOM     17  C   UNL     1       2.283  -5.696  -6.044  1.00  0.00     0.004 C 
ENDBRANCH  14  16
ENDBRANCH  13  14
BRANCH  13  18
ATOM     18  N   UNL     1       1.799  -4.774  -1.676  1.00  0.00    -0.326 N 
ATOM     19  C   UNL     1       1.091  -5.247  -0.618  1.00  0.00     0.324 C 
ATOM     20  H   UNL     1       1.415  -4.011  -2.165  1.00  0.00     0.166 HD
ATOM     21  O   UNL     1      -0.139  -5.264  -0.707  1.00  0.00    -0.248 OA
BRANCH  19  22
ATOM     22  N   UNL     1       1.731  -5.772   0.458  1.00  0.00    -0.262 N 
ATOM     23  C   UNL     1       1.157  -6.806   1.330  1.00  0.00     0.152 C 
ATOM     24  C   UNL     1       2.853  -5.247   1.038  1.00  0.00     0.214 A 
ATOM     25  C   UNL     1       2.081  -6.855   2.561  1.00  0.00     0.148 C 
ATOM     26  N   UNL     1       3.095  -5.877   2.219  1.00  0.00    -0.308 N 
ATOM     27  N   UNL     1       3.697  -4.278   0.824  1.00  0.00    -0.212 NA
ATOM     28  C   UNL     1       4.204  -5.371   2.794  1.00  0.00     0.070 A 
ATOM     29  C   UNL     1       4.580  -4.367   1.890  1.00  0.00     0.091 A 
ATOM     30  C   UNL     1       4.913  -5.660   3.962  1.00  0.00     0.028 A 
ATOM     31  C   UNL     1       5.733  -3.614   2.156  1.00  0.00     0.031 A 
ATOM     32  C   UNL     1       6.065  -4.899   4.198  1.00  0.00     0.002 A 
ATOM     33  C   UNL     1       6.471  -3.896   3.314  1.00  0.00     0.002 A 
ENDBRANCH  19  22
ENDBRANCH  13  18
ENDBRANCH  10  13
ENDBRANCH   7   9
ENDBRANCH   4   7
ENDBRANCH   2   3
ENDBRANCH   1   2
BRANCH   1  34
ATOM     34  C   UNL     1       6.989  -5.129  -6.867  1.00  0.00     0.023 C 
BRANCH  34  35
ATOM     35  C   UNL     1       7.972  -5.750  -5.866  1.00  0.00     0.116 C 
BRANCH  35  36
ATOM     36  N   UNL     1       8.005  -7.204  -5.789  1.00  0.00    -0.352 N 
ATOM     37  C   UNL     1       8.303  -8.158  -6.745  1.00  0.00     0.251 C 
ATOM     38  H   UNL     1       7.777  -7.571  -4.904  1.00  0.00     0.163 HD
ATOM     39  O   UNL     1       8.434  -9.325  -6.431  1.00  0.00    -0.269 OA
BRANCH  37  40
ATOM     40  C   UNL     1       8.356  -7.755  -8.166  1.00  0.00     0.039 A 
ATOM     41  C   UNL     1       9.163  -6.696  -8.588  1.00  0.00     0.014 A 
ATOM     42  C   UNL     1       7.451  -8.363  -9.043  1.00  0.00     0.014 A 
ATOM     43  C   UNL     1       8.936  -6.129  -9.835  1.00  0.00     0.010 A 
ATOM     44  C   UNL     1       7.260  -7.822 -10.312  1.00  0.00     0.010 A 
ATOM     45  C   UNL     1       7.959  -6.667 -10.682  1.00  0.00    -0.014 A 
BRANCH  45  46
ATOM     46  C   UNL     1       7.775  -6.016 -11.984  1.00  0.00     0.031 A 
ATOM     47  C   UNL     1       8.392  -6.765 -13.111  1.00  0.00     0.074 A 
ATOM     48  C   UNL     1       6.747  -5.187 -12.257  1.00  0.00     0.049 A 
ATOM     49  N   UNL     1       7.790  -7.771 -13.671  1.00  0.00    -0.248 NA
ATOM     50  C   UNL     1       9.801  -6.632 -13.473  1.00  0.00     0.031 C 
ATOM     51  C   UNL     1       5.442  -5.218 -11.585  1.00  0.00     0.029 A 
ATOM     52  N   UNL     1       6.566  -4.319 -13.307  1.00  0.00    -0.354 N 
ATOM     53  C   UNL     1       8.742  -8.455 -14.398  1.00  0.00     0.074 A 
ATOM     54  C   UNL     1       9.970  -7.702 -14.266  1.00  0.00     0.031 C 
ATOM     55  C   UNL     1       4.547  -4.566 -12.355  1.00  0.00     0.029 A 
ATOM     56  C   UNL     1       5.241  -3.924 -13.465  1.00  0.00     0.049 A 
ATOM     57  H   UNL     1       7.298  -4.008 -13.887  1.00  0.00     0.167 HD
ATOM     58  C   UNL     1       8.472  -9.621 -15.037  1.00  0.00     0.037 A 
ATOM     59  C   UNL     1       4.661  -3.574 -14.645  1.00  0.00     0.037 A 
ATOM     60  C   UNL     1       7.118 -10.080 -14.947  1.00  0.00     0.049 A 
ATOM     61  C   UNL     1       4.685  -4.886 -15.388  1.00  0.00     0.074 A 
ATOM     62  C   UNL     1       6.403 -10.956 -14.160  1.00  0.00     0.029 A 
ATOM     63  N   UNL     1       6.186  -9.505 -15.779  1.00  0.00    -0.354 N 
ATOM     64  N   UNL     1       3.826  -5.860 -15.240  1.00  0.00    -0.248 NA
ATOM     65  C   UNL     1       5.923  -5.269 -16.074  1.00  0.00     0.031 C 
ATOM     66  C   UNL     1       5.039 -10.540 -14.264  1.00  0.00     0.029 A 
ATOM     67  C   UNL     1       5.016  -9.403 -15.069  1.00  0.00     0.049 A 
ATOM     68  H   UNL     1       6.332  -9.219 -16.710  1.00  0.00     0.167 HD
ATOM     69  C   UNL     1       4.530  -7.026 -15.552  1.00  0.00     0.074 A 
ATOM     70  C   UNL     1       5.803  -6.590 -16.086  1.00  0.00     0.031 C 
ATOM     71  C   UNL     1       4.119  -8.274 -15.184  1.00  0.00     0.037 A 
BRANCH  58  72
ATOM     72  C   UNL     1       9.435 -10.350 -15.879  1.00  0.00     0.058 A 
ATOM     73  C   UNL     1       9.302 -10.254 -17.270  1.00  0.00     0.135 A 
ATOM     74  C   UNL     1      10.332 -11.286 -15.355  1.00  0.00     0.135 A 
ATOM     75  F   UNL     1       8.451  -9.361 -17.803  1.00  0.00    -0.206 F 
ATOM     76  C   UNL     1       9.991 -11.103 -18.122  1.00  0.00     0.059 A 
ATOM     77  C   UNL     1      11.039 -12.147 -16.191  1.00  0.00     0.059 A 
ATOM     78  F   UNL     1      10.490 -11.406 -14.027  1.00  0.00    -0.206 F 
ATOM     79  C   UNL     1      10.836 -12.066 -17.570  1.00  0.00     0.060 A 
BRANCH  79  80
ATOM     80  S   UNL     1      11.617 -13.243 -18.693  1.00  0.00     0.124 S 
ATOM     81  O   UNL     1      10.463 -13.963 -19.220  1.00  0.00    -0.237 OA
ATOM     82  O   UNL     1      12.297 -12.357 -19.633  1.00  0.00    -0.237 OA
ATOM     83  O   UNL     1      12.495 -14.015 -17.819  1.00  0.00    -0.744 OA
ENDBRANCH  79  80
ENDBRANCH  58  72
BRANCH  59  84
ATOM     84  C   UNL     1       5.158  -2.276 -15.210  1.00  0.00     0.058 A 
ATOM     85  C   UNL     1       5.166  -1.143 -14.364  1.00  0.00     0.135 A 
ATOM     86  C   UNL     1       5.643  -2.074 -16.510  1.00  0.00     0.135 A 
ATOM     87  F   UNL     1       4.604  -1.204 -13.145  1.00  0.00    -0.206 F 
ATOM     88  C   UNL     1       5.761   0.060 -14.729  1.00  0.00     0.059 A 
ATOM     89  C   UNL     1       6.266  -0.884 -16.893  1.00  0.00     0.059 A 
ATOM     90  F   UNL     1       5.548  -3.031 -17.442  1.00  0.00    -0.206 F 
ATOM     91  C   UNL     1       6.351   0.165 -15.983  1.00  0.00     0.060 A 
BRANCH  91  92
ATOM     92  S   UNL     1       7.282   1.662 -16.371  1.00  0.00     0.124 S 
ATOM     93  O   UNL     1       6.232   2.675 -16.389  1.00  0.00    -0.237 OA
ATOM     94  O   UNL     1       8.216   1.732 -15.251  1.00  0.00    -0.237 OA
ATOM     95  O   UNL     1       7.887   1.357 -17.664  1.00  0.00    -0.744 OA
ENDBRANCH  91  92
ENDBRANCH  59  84
BRANCH  71  96
ATOM     96  C   UNL     1       2.728  -8.374 -14.656  1.00  0.00     0.058 A 
ATOM     97  C   UNL     1       1.641  -8.297 -15.537  1.00  0.00     0.135 A 
ATOM     98  C   UNL     1       2.461  -8.617 -13.300  1.00  0.00     0.135 A 
ATOM     99  F   UNL     1       1.845  -8.074 -16.846  1.00  0.00    -0.206 F 
ATOM    100  C   UNL     1       0.336  -8.494 -15.098  1.00  0.00     0.059 A 
ATOM    101  C   UNL     1       1.165  -8.839 -12.843  1.00  0.00     0.059 A 
ATOM    102  F   UNL     1       3.461  -8.684 -12.405  1.00  0.00    -0.206 F 
ATOM    103  C   UNL     1       0.109  -8.782 -13.752  1.00  0.00     0.060 A 
BRANCH 103 104
ATOM    104  S   UNL     1      -1.574  -9.166 -13.224  1.00  0.00     0.124 S 
ATOM    105  O   UNL     1      -2.214  -7.856 -13.269  1.00  0.00    -0.237 OA
ATOM    106  O   UNL     1      -2.011 -10.119 -14.240  1.00  0.00    -0.237 OA
ATOM    107  O   UNL     1      -1.393  -9.730 -11.889  1.00  0.00    -0.744 OA
ENDBRANCH 103 104
ENDBRANCH  71  96
ENDBRANCH  45  46
ENDBRANCH  37  40
ENDBRANCH  35  36
ENDBRANCH  34  35
ENDBRANCH   1  34
TORSDOF 20
