REMARK SMILES Cc1nc(CCNc2nccc(-c3cc(C(=O)NCCCCNC(=O)c4ccc(-c5c6nc(c(-c7c(F)cc(S(=O)(=O)[O-])cc7F)c7ccc([nH]7)c(-c7c(F)cc(S(=O)(=O)[O-])cc7F)c7nc(c(-c8c(F)cc(S(=O)(=O)[O-])cc8F)c8ccc5[nH]8)C=C7)C=C6)cc4)ccn3)n2)cc(=O)[nH]1
REMARK SMILES IDX 19 1 18 2 16 3 17 4 15 6 13 7 14 8 94 9 93 10 92 11 12 12
REMARK SMILES IDX 8 13 9 14 95 15 10 16 11 17 7 18 6 20 5 21 4 22 1 23 2 24
REMARK SMILES IDX 3 25 99 26 97 27 96 29 98 30 20 31 21 32 22 33 23 34 24 35
REMARK SMILES IDX 25 37 26 38 27 39 91 40 28 41 90 42 29 43 30 44 31 45 84 46
REMARK SMILES IDX 32 47 89 48 83 49 85 50 33 51 88 52 82 53 81 54 34 56 68 57
REMARK SMILES IDX 47 58 67 59 48 60 51 61 66 62 86 63 49 64 50 65 65 67 87 68
REMARK SMILES IDX 52 69 35 70 36 71 45 72 37 73 38 74 44 75 46 76 39 77 40 78
REMARK SMILES IDX 41 79 42 80 43 81 69 82 70 83 79 84 71 85 72 86 78 87 80 88
REMARK SMILES IDX 73 89 74 90 75 91 76 92 77 93 53 94 54 95 63 96 55 97 56 98
REMARK SMILES IDX 62 99 64 100 57 101 58 102 59 103 60 104 61 105
REMARK H PARENT 18 5 7 19 99 28 23 36 85 55 51 66
REMARK Flexibility Score: inf
ROOT
ATOM      1  C   UNL     1       3.424  11.019   0.748  1.00  0.00     0.116 C 
ENDROOT
BRANCH   1   2
ATOM      2  N   UNL     1       2.887  11.730   1.894  1.00  0.00    -0.352 N 
ATOM      3  C   UNL     1       2.499  11.325   3.146  1.00  0.00     0.251 C 
ATOM      4  O   UNL     1       2.093  12.185   3.927  1.00  0.00    -0.269 OA
ATOM      5  H   UNL     1       2.778  12.696   1.742  1.00  0.00     0.163 HD
BRANCH   3   6
ATOM      6  C   UNL     1       2.611   9.923   3.628  1.00  0.00     0.043 A 
ATOM      7  C   UNL     1       2.928   7.567   3.343  1.00  0.00     0.090 A 
ATOM      8  C   UNL     1       2.644   8.811   2.797  1.00  0.00     0.044 A 
ATOM      9  N   UNL     1       3.061   7.369   4.677  1.00  0.00    -0.255 NA
ATOM     10  C   UNL     1       2.897   8.439   5.480  1.00  0.00     0.112 A 
ATOM     11  C   UNL     1       2.696   9.722   5.008  1.00  0.00     0.034 A 
BRANCH   7  12
ATOM     12  C   UNL     1       3.200   6.426   2.468  1.00  0.00     0.094 A 
ATOM     13  C   UNL     1       2.496   4.415   1.651  1.00  0.00     0.223 A 
ATOM     14  N   UNL     1       3.623   4.229   0.951  1.00  0.00    -0.222 NA
ATOM     15  N   UNL     1       2.228   5.498   2.379  1.00  0.00    -0.211 NA
ATOM     16  C   UNL     1       4.536   5.212   0.994  1.00  0.00     0.117 A 
ATOM     17  C   UNL     1       4.383   6.339   1.758  1.00  0.00     0.051 A 
BRANCH  13  18
ATOM     18  N   UNL     1       1.608   3.377   1.633  1.00  0.00    -0.354 N 
ATOM     19  H   UNL     1       1.927   2.458   1.784  1.00  0.00     0.163 HD
BRANCH  18  20
ATOM     20  C   UNL     1       0.200   3.620   1.391  1.00  0.00     0.122 C 
BRANCH  20  21
ATOM     21  C   UNL     1      -0.223   3.091   0.007  1.00  0.00     0.077 C 
BRANCH  21  22
ATOM     22  C   UNL     1      -0.119   1.581  -0.110  1.00  0.00     0.050 A 
ATOM     23  C   UNL     1      -2.457  -1.256   0.145  1.00  0.00     0.087 C 
ATOM     24  C   UNL     1      -1.226  -0.410   0.013  1.00  0.00     0.105 A 
ATOM     25  N   UNL     1      -1.290   0.880   0.082  1.00  0.00    -0.240 NA
ATOM     26  N   UNL     1      -0.065  -1.101  -0.186  1.00  0.00    -0.311 N 
ATOM     27  C   UNL     1       1.125  -0.470  -0.379  1.00  0.00     0.251 A 
ATOM     28  H   UNL     1      -0.090  -2.085  -0.190  1.00  0.00     0.171 HD
ATOM     29  C   UNL     1       1.051   0.995  -0.410  1.00  0.00     0.095 A 
ATOM     30  O   UNL     1       2.185  -1.066  -0.498  1.00  0.00    -0.270 OA
ENDBRANCH  21  22
ENDBRANCH  20  21
ENDBRANCH  18  20
ENDBRANCH  13  18
ENDBRANCH   7  12
ENDBRANCH   3   6
ENDBRANCH   1   2
BRANCH   1  31
ATOM     31  C   UNL     1       2.308  10.673  -0.242  1.00  0.00     0.023 C 
BRANCH  31  32
ATOM     32  C   UNL     1       1.905  11.840  -1.146  1.00  0.00     0.023 C 
BRANCH  32  33
ATOM     33  C   UNL     1       3.015  12.353  -2.058  1.00  0.00     0.116 C 
BRANCH  33  34
ATOM     34  N   UNL     1       3.562  11.323  -2.930  1.00  0.00    -0.352 N 
ATOM     35  C   UNL     1       4.003  11.452  -4.226  1.00  0.00     0.251 C 
ATOM     36  H   UNL     1       3.623  10.420  -2.543  1.00  0.00     0.163 HD
ATOM     37  O   UNL     1       4.328  10.461  -4.871  1.00  0.00    -0.269 OA
BRANCH  35  38
ATOM     38  C   UNL     1       4.037  12.796  -4.837  1.00  0.00     0.039 A 
ATOM     39  C   UNL     1       3.408  12.995  -6.067  1.00  0.00     0.014 A 
ATOM     40  C   UNL     1       4.630  13.865  -4.159  1.00  0.00     0.014 A 
ATOM     41  C   UNL     1       3.307  14.287  -6.584  1.00  0.00     0.010 A 
ATOM     42  C   UNL     1       4.463  15.159  -4.640  1.00  0.00     0.010 A 
ATOM     43  C   UNL     1       3.794  15.384  -5.853  1.00  0.00    -0.014 A 
BRANCH  43  44
ATOM     44  C   UNL     1       3.590  16.777  -6.324  1.00  0.00     0.031 A 
ATOM     45  C   UNL     1       4.774  17.641  -6.658  1.00  0.00     0.074 A 
ATOM     46  C   UNL     1       2.342  17.284  -6.378  1.00  0.00     0.049 A 
ATOM     47  N   UNL     1       4.804  18.902  -7.003  1.00  0.00    -0.248 NA
ATOM     48  C   UNL     1       6.102  17.012  -6.568  1.00  0.00     0.031 C 
ATOM     49  C   UNL     1       1.117  16.557  -6.034  1.00  0.00     0.029 A 
ATOM     50  N   UNL     1       1.895  18.534  -6.727  1.00  0.00    -0.354 N 
ATOM     51  C   UNL     1       6.147  19.220  -7.160  1.00  0.00     0.074 A 
ATOM     52  C   UNL     1       6.904  18.035  -6.820  1.00  0.00     0.031 C 
ATOM     53  C   UNL     1       0.060  17.366  -6.208  1.00  0.00     0.029 A 
ATOM     54  C   UNL     1       0.531  18.681  -6.630  1.00  0.00     0.049 A 
ATOM     55  H   UNL     1       2.495  19.258  -7.020  1.00  0.00     0.167 HD
ATOM     56  C   UNL     1       6.697  20.387  -7.572  1.00  0.00     0.037 A 
ATOM     57  C   UNL     1      -0.252  19.758  -6.841  1.00  0.00     0.037 A 
ATOM     58  C   UNL     1       5.934  21.557  -7.923  1.00  0.00     0.049 A 
ATOM     59  C   UNL     1       0.386  21.051  -7.273  1.00  0.00     0.074 A 
ATOM     60  C   UNL     1       6.392  22.769  -8.408  1.00  0.00     0.029 A 
ATOM     61  N   UNL     1       4.554  21.666  -7.818  1.00  0.00    -0.354 N 
ATOM     62  N   UNL     1       1.654  21.313  -7.487  1.00  0.00    -0.248 NA
ATOM     63  C   UNL     1      -0.511  22.193  -7.494  1.00  0.00     0.031 C 
ATOM     64  C   UNL     1       5.298  23.629  -8.541  1.00  0.00     0.029 A 
ATOM     65  C   UNL     1       4.149  22.935  -8.197  1.00  0.00     0.049 A 
ATOM     66  H   UNL     1       3.952  20.947  -7.518  1.00  0.00     0.167 HD
ATOM     67  C   UNL     1       1.704  22.644  -7.887  1.00  0.00     0.074 A 
ATOM     68  C   UNL     1       0.338  23.125  -7.906  1.00  0.00     0.031 C 
ATOM     69  C   UNL     1       2.783  23.401  -8.208  1.00  0.00     0.037 A 
BRANCH  56  70
ATOM     70  C   UNL     1       8.198  20.459  -7.666  1.00  0.00     0.058 A 
ATOM     71  C   UNL     1       8.913  19.741  -8.638  1.00  0.00     0.135 A 
ATOM     72  C   UNL     1       8.929  21.287  -6.798  1.00  0.00     0.135 A 
ATOM     73  F   UNL     1       8.269  18.921  -9.484  1.00  0.00    -0.206 F 
ATOM     74  C   UNL     1      10.299  19.817  -8.727  1.00  0.00     0.059 A 
ATOM     75  C   UNL     1      10.313  21.404  -6.890  1.00  0.00     0.059 A 
ATOM     76  F   UNL     1       8.297  21.996  -5.848  1.00  0.00    -0.206 F 
ATOM     77  C   UNL     1      10.990  20.654  -7.849  1.00  0.00     0.060 A 
BRANCH  77  78
ATOM     78  S   UNL     1      12.788  20.747  -7.986  1.00  0.00     0.124 S 
ATOM     79  O   UNL     1      13.186  19.436  -7.482  1.00  0.00    -0.237 OA
ATOM     80  O   UNL     1      12.980  20.960  -9.417  1.00  0.00    -0.237 OA
ATOM     81  O   UNL     1      13.137  21.878  -7.133  1.00  0.00    -0.744 OA
ENDBRANCH  77  78
ENDBRANCH  56  70
BRANCH  57  82
ATOM     82  C   UNL     1      -1.724  19.657  -6.652  1.00  0.00     0.058 A 
ATOM     83  C   UNL     1      -2.600  19.733  -7.744  1.00  0.00     0.135 A 
ATOM     84  C   UNL     1      -2.286  19.474  -5.378  1.00  0.00     0.135 A 
ATOM     85  F   UNL     1      -2.114  19.916  -8.982  1.00  0.00    -0.206 F 
ATOM     86  C   UNL     1      -3.979  19.649  -7.582  1.00  0.00     0.059 A 
ATOM     87  C   UNL     1      -3.660  19.357  -5.192  1.00  0.00     0.059 A 
ATOM     88  F   UNL     1      -1.492  19.379  -4.300  1.00  0.00    -0.206 F 
ATOM     89  C   UNL     1      -4.500  19.456  -6.301  1.00  0.00     0.060 A 
BRANCH  89  90
ATOM     90  S   UNL     1      -6.288  19.299  -6.108  1.00  0.00     0.124 S 
ATOM     91  O   UNL     1      -6.732  20.666  -6.358  1.00  0.00    -0.237 OA
ATOM     92  O   UNL     1      -6.621  18.320  -7.139  1.00  0.00    -0.237 OA
ATOM     93  O   UNL     1      -6.438  18.828  -4.735  1.00  0.00    -0.744 OA
ENDBRANCH  89  90
ENDBRANCH  57  82
BRANCH  69  94
ATOM     94  C   UNL     1       2.532  24.825  -8.626  1.00  0.00     0.058 A 
ATOM     95  C   UNL     1       2.123  25.802  -7.706  1.00  0.00     0.135 A 
ATOM     96  C   UNL     1       2.753  25.227  -9.954  1.00  0.00     0.135 A 
ATOM     97  F   UNL     1       1.889  25.470  -6.426  1.00  0.00    -0.206 F 
ATOM     98  C   UNL     1       1.920  27.123  -8.091  1.00  0.00     0.059 A 
ATOM     99  C   UNL     1       2.587  26.549 -10.354  1.00  0.00     0.059 A 
ATOM    100  F   UNL     1       3.155  24.335 -10.873  1.00  0.00    -0.206 F 
ATOM    101  C   UNL     1       2.159  27.488  -9.417  1.00  0.00     0.060 A 
BRANCH 101 102
ATOM    102  S   UNL     1       1.927  29.214  -9.893  1.00  0.00     0.124 S 
ATOM    103  O   UNL     1       0.473  29.335  -9.862  1.00  0.00    -0.237 OA
ATOM    104  O   UNL     1       2.645  29.926  -8.840  1.00  0.00    -0.237 OA
ATOM    105  O   UNL     1       2.535  29.287 -11.218  1.00  0.00    -0.744 OA
ENDBRANCH 101 102
ENDBRANCH  69  94
ENDBRANCH  43  44
ENDBRANCH  35  38
ENDBRANCH  33  34
ENDBRANCH  32  33
ENDBRANCH  31  32
ENDBRANCH   1  31
TORSDOF 19
