REMARK SMILES COc1ccc([C@@H](CC(=O)NCCCCNC(=O)c2ccc(-c3c4nc(c(-c5c(F)cc(S(=O)(=O)[O-])cc5F)c5ccc([nH]5)c(-c5c(F)cc(S(=O)(=O)[O-])cc5F)c5nc(c(-c6c(F)cc(S(=O)(=O)[O-])cc6F)c6ccc3[nH]6)C=C5)C=C4)cc2)C2CCCCC2)cc1Cl
REMARK SMILES IDX 13 1 12 2 11 3 9 4 10 5 8 7 7 8 6 9 3 10 4 11 92 12 5 13
REMARK SMILES IDX 91 14 93 15 2 16 1 17 85 18 86 19 90 20 87 21 89 22 88 23
REMARK SMILES IDX 14 24 15 25 16 26 17 27 18 29 19 30 20 31 84 32 21 33 83 34
REMARK SMILES IDX 22 35 23 36 24 37 77 38 25 39 82 40 76 41 78 42 26 43 81 44
REMARK SMILES IDX 75 45 74 46 27 48 61 49 40 50 60 51 41 52 44 53 59 54 79 55
REMARK SMILES IDX 42 56 43 57 58 59 80 60 45 61 28 62 29 63 38 64 30 65 31 66
REMARK SMILES IDX 37 67 39 68 32 69 33 70 34 71 35 72 36 73 62 74 63 75 72 76
REMARK SMILES IDX 64 77 65 78 71 79 73 80 66 81 67 82 68 83 69 84 70 85 46 86
REMARK SMILES IDX 47 87 56 88 48 89 49 90 55 91 57 92 50 93 51 94 52 95 53 96
REMARK SMILES IDX 54 97
REMARK H PARENT 11 6 16 28 78 47 44 58
REMARK Flexibility Score: inf
ROOT
ATOM      1  C   UNL     1      -0.430   4.176   2.260  1.00  0.00     0.023 C 
ENDROOT
BRANCH   1   2
ATOM      2  C   UNL     1       0.276   5.519   2.196  1.00  0.00     0.116 C 
BRANCH   2   3
ATOM      3  N   UNL     1       0.133   6.241   3.445  1.00  0.00    -0.356 N 
ATOM      4  C   UNL     1       0.919   6.229   4.556  1.00  0.00     0.220 C 
ATOM      5  O   UNL     1       0.617   6.986   5.482  1.00  0.00    -0.275 OA
ATOM      6  H   UNL     1      -0.654   6.830   3.497  1.00  0.00     0.163 HD
BRANCH   4   7
ATOM      7  C   UNL     1       2.174   5.376   4.646  1.00  0.00     0.108 C 
BRANCH   7   8
ATOM      8  C   UNL     1       2.123   3.895   5.147  1.00  0.00     0.032 C 
BRANCH   8   9
ATOM      9  C   UNL     1       2.091   2.882   3.990  1.00  0.00    -0.042 A 
ATOM     10  C   UNL     1       2.035   1.227   1.662  1.00  0.00     0.137 A 
ATOM     11  C   UNL     1       1.059   1.105   2.648  1.00  0.00     0.048 A 
ATOM     12  C   UNL     1       3.086   2.126   1.883  1.00  0.00     0.083 A 
ATOM     13  C   UNL     1       1.101   1.907   3.803  1.00  0.00     0.008 A 
ATOM     14  C   UNL     1       3.120   2.925   3.032  1.00  0.00     0.028 A 
ATOM     15  Cl  UNL     1       4.365   2.318   0.733  1.00  0.00    -0.080 Cl
BRANCH  10  16
ATOM     16  O   UNL     1       1.993   0.622   0.441  1.00  0.00    -0.495 OA
ATOM     17  C   UNL     1       1.301  -0.607   0.277  1.00  0.00     0.278 C 
ENDBRANCH  10  16
ENDBRANCH   8   9
BRANCH   8  18
ATOM     18  C   UNL     1       1.253   3.637   6.437  1.00  0.00    -0.003 C 
ATOM     19  C   UNL     1      -0.260   3.900   6.296  1.00  0.00     0.004 C 
ATOM     20  C   UNL     1       1.587   2.251   7.053  1.00  0.00     0.004 C 
ATOM     21  C   UNL     1      -1.098   3.410   7.472  1.00  0.00     0.000 C 
ATOM     22  C   UNL     1       0.656   1.803   8.174  1.00  0.00     0.000 C 
ATOM     23  C   UNL     1      -0.805   1.954   7.783  1.00  0.00     0.000 C 
ENDBRANCH   8  18
ENDBRANCH   7   8
ENDBRANCH   4   7
ENDBRANCH   2   3
ENDBRANCH   1   2
BRANCH   1  24
ATOM     24  C   UNL     1      -1.854   4.114   1.742  1.00  0.00     0.023 C 
BRANCH  24  25
ATOM     25  C   UNL     1      -1.971   4.202   0.229  1.00  0.00     0.116 C 
BRANCH  25  26
ATOM     26  N   UNL     1      -1.236   3.170  -0.497  1.00  0.00    -0.352 N 
ATOM     27  C   UNL     1      -1.627   2.407  -1.580  1.00  0.00     0.251 C 
ATOM     28  H   UNL     1      -0.326   2.991  -0.166  1.00  0.00     0.163 HD
ATOM     29  O   UNL     1      -0.894   1.537  -2.020  1.00  0.00    -0.269 OA
BRANCH  27  30
ATOM     30  C   UNL     1      -2.976   2.610  -2.156  1.00  0.00     0.039 A 
ATOM     31  C   UNL     1      -3.761   1.491  -2.445  1.00  0.00     0.014 A 
ATOM     32  C   UNL     1      -3.497   3.893  -2.317  1.00  0.00     0.014 A 
ATOM     33  C   UNL     1      -5.107   1.662  -2.777  1.00  0.00     0.010 A 
ATOM     34  C   UNL     1      -4.860   4.054  -2.520  1.00  0.00     0.010 A 
ATOM     35  C   UNL     1      -5.684   2.942  -2.747  1.00  0.00    -0.014 A 
BRANCH  35  36
ATOM     36  C   UNL     1      -7.141   3.156  -2.947  1.00  0.00     0.031 A 
ATOM     37  C   UNL     1      -7.612   4.088  -4.034  1.00  0.00     0.074 A 
ATOM     38  C   UNL     1      -8.027   2.612  -2.086  1.00  0.00     0.049 A 
ATOM     39  N   UNL     1      -8.813   4.548  -4.264  1.00  0.00    -0.248 NA
ATOM     40  C   UNL     1      -6.586   4.617  -4.950  1.00  0.00     0.031 C 
ATOM     41  C   UNL     1      -7.693   1.760  -0.940  1.00  0.00     0.029 A 
ATOM     42  N   UNL     1      -9.396   2.708  -2.029  1.00  0.00    -0.354 N 
ATOM     43  C   UNL     1      -8.676   5.457  -5.306  1.00  0.00     0.074 A 
ATOM     44  C   UNL     1      -7.271   5.519  -5.636  1.00  0.00     0.031 C 
ATOM     45  C   UNL     1      -8.823   1.390  -0.316  1.00  0.00     0.029 A 
ATOM     46  C   UNL     1      -9.960   2.009  -0.987  1.00  0.00     0.049 A 
ATOM     47  H   UNL     1      -9.924   3.230  -2.675  1.00  0.00     0.167 HD
ATOM     48  C   UNL     1      -9.639   6.155  -5.951  1.00  0.00     0.037 A 
ATOM     49  C   UNL     1     -11.249   1.887  -0.613  1.00  0.00     0.037 A 
ATOM     50  C   UNL     1     -11.045   6.008  -5.687  1.00  0.00     0.049 A 
ATOM     51  C   UNL     1     -12.308   2.600  -1.411  1.00  0.00     0.074 A 
ATOM     52  C   UNL     1     -12.110   6.576  -6.363  1.00  0.00     0.029 A 
ATOM     53  N   UNL     1     -11.581   5.218  -4.682  1.00  0.00    -0.354 N 
ATOM     54  N   UNL     1     -12.164   3.397  -2.443  1.00  0.00    -0.248 NA
ATOM     55  C   UNL     1     -13.704   2.393  -1.001  1.00  0.00     0.031 C 
ATOM     56  C   UNL     1     -13.292   6.146  -5.753  1.00  0.00     0.029 A 
ATOM     57  C   UNL     1     -12.962   5.286  -4.717  1.00  0.00     0.049 A 
ATOM     58  H   UNL     1     -11.057   4.687  -4.040  1.00  0.00     0.167 HD
ATOM     59  C   UNL     1     -13.451   3.762  -2.822  1.00  0.00     0.074 A 
ATOM     60  C   UNL     1     -14.360   3.090  -1.918  1.00  0.00     0.031 C 
ATOM     61  C   UNL     1     -13.846   4.583  -3.825  1.00  0.00     0.037 A 
BRANCH  48  62
ATOM     62  C   UNL     1      -9.218   7.114  -7.028  1.00  0.00     0.058 A 
ATOM     63  C   UNL     1      -8.740   6.664  -8.268  1.00  0.00     0.135 A 
ATOM     64  C   UNL     1      -9.353   8.499  -6.840  1.00  0.00     0.135 A 
ATOM     65  F   UNL     1      -8.573   5.351  -8.493  1.00  0.00    -0.206 F 
ATOM     66  C   UNL     1      -8.397   7.553  -9.280  1.00  0.00     0.059 A 
ATOM     67  C   UNL     1      -9.040   9.406  -7.848  1.00  0.00     0.059 A 
ATOM     68  F   UNL     1      -9.800   8.982  -5.670  1.00  0.00    -0.206 F 
ATOM     69  C   UNL     1      -8.556   8.923  -9.062  1.00  0.00     0.060 A 
BRANCH  69  70
ATOM     70  S   UNL     1      -8.148  10.061 -10.402  1.00  0.00     0.124 S 
ATOM     71  O   UNL     1      -6.689  10.039 -10.368  1.00  0.00    -0.237 OA
ATOM     72  O   UNL     1      -8.764   9.418 -11.558  1.00  0.00    -0.237 OA
ATOM     73  O   UNL     1      -8.767  11.315  -9.983  1.00  0.00    -0.744 OA
ENDBRANCH  69  70
ENDBRANCH  48  62
BRANCH  49  74
ATOM     74  C   UNL     1     -11.625   1.044   0.554  1.00  0.00     0.058 A 
ATOM     75  C   UNL     1     -12.309  -0.168   0.374  1.00  0.00     0.135 A 
ATOM     76  C   UNL     1     -11.341   1.444   1.869  1.00  0.00     0.135 A 
ATOM     77  F   UNL     1     -12.604  -0.592  -0.865  1.00  0.00    -0.206 F 
ATOM     78  C   UNL     1     -12.734  -0.935   1.453  1.00  0.00     0.059 A 
ATOM     79  C   UNL     1     -11.734   0.681   2.965  1.00  0.00     0.059 A 
ATOM     80  F   UNL     1     -10.669   2.583   2.096  1.00  0.00    -0.206 F 
ATOM     81  C   UNL     1     -12.449  -0.496   2.747  1.00  0.00     0.060 A 
BRANCH  81  82
ATOM     82  S   UNL     1     -13.000  -1.498   4.146  1.00  0.00     0.124 S 
ATOM     83  O   UNL     1     -14.417  -1.160   4.206  1.00  0.00    -0.237 OA
ATOM     84  O   UNL     1     -12.684  -2.852   3.702  1.00  0.00    -0.237 OA
ATOM     85  O   UNL     1     -12.184  -1.003   5.251  1.00  0.00    -0.744 OA
ENDBRANCH  81  82
ENDBRANCH  49  74
BRANCH  61  86
ATOM     86  C   UNL     1     -15.321   4.761  -4.031  1.00  0.00     0.058 A 
ATOM     87  C   UNL     1     -16.090   5.564  -3.175  1.00  0.00     0.135 A 
ATOM     88  C   UNL     1     -15.958   4.173  -5.135  1.00  0.00     0.135 A 
ATOM     89  F   UNL     1     -15.525   6.142  -2.103  1.00  0.00    -0.206 F 
ATOM     90  C   UNL     1     -17.447   5.763  -3.397  1.00  0.00     0.059 A 
ATOM     91  C   UNL     1     -17.309   4.378  -5.389  1.00  0.00     0.059 A 
ATOM     92  F   UNL     1     -15.261   3.405  -5.988  1.00  0.00    -0.206 F 
ATOM     93  C   UNL     1     -18.048   5.167  -4.508  1.00  0.00     0.060 A 
BRANCH  93  94
ATOM     94  S   UNL     1     -19.801   5.467  -4.812  1.00  0.00     0.124 S 
ATOM     95  O   UNL     1     -20.423   4.583  -3.832  1.00  0.00    -0.237 OA
ATOM     96  O   UNL     1     -19.927   6.897  -4.546  1.00  0.00    -0.237 OA
ATOM     97  O   UNL     1     -19.974   5.079  -6.208  1.00  0.00    -0.744 OA
ENDBRANCH  93  94
ENDBRANCH  61  86
ENDBRANCH  35  36
ENDBRANCH  27  30
ENDBRANCH  25  26
ENDBRANCH  24  25
ENDBRANCH   1  24
TORSDOF 18
