REMARK SMILES COc1ccc(-c2nc3ccc(C)cc3[nH]2)c(C(=O)NCCCCNC(=O)c2ccc(-c3c4nc(c(-c5c(F)cc(S(=O)(=O)[O-])cc5F)c5ccc([nH]5)c(-c5c(F)cc(S(=O)(=O)[O-])cc5F)c5nc(c(-c6c(F)cc(S(=O)(=O)[O-])cc6F)c6ccc3[nH]6)C=C5)C=C4)cc2)c1OC
REMARK SMILES IDX 23 1 22 2 21 3 20 4 18 5 19 6 17 8 3 9 4 10 94 11 5 12 6 13
REMARK SMILES IDX 2 14 1 15 95 16 96 17 7 18 8 19 16 20 9 21 15 22 10 24 14 25
REMARK SMILES IDX 11 26 12 27 13 28 24 29 25 30 26 31 27 33 28 34 29 35 93 36
REMARK SMILES IDX 30 37 92 38 31 39 32 40 33 41 86 42 34 43 91 44 85 45 87 46
REMARK SMILES IDX 35 47 90 48 84 49 83 50 36 52 70 53 49 54 69 55 50 56 53 57
REMARK SMILES IDX 68 58 88 59 51 60 52 61 67 63 89 64 54 65 37 66 38 67 47 68
REMARK SMILES IDX 39 69 40 70 46 71 48 72 41 73 42 74 43 75 44 76 45 77 71 78
REMARK SMILES IDX 72 79 81 80 73 81 74 82 80 83 82 84 75 85 76 86 77 87 78 88
REMARK SMILES IDX 79 89 55 90 56 91 65 92 57 93 58 94 64 95 66 96 59 97 60 98
REMARK SMILES IDX 61 99 62 100 63 101
REMARK H PARENT 20 7 16 23 25 32 87 51 53 62
REMARK Flexibility Score: inf
ROOT
ATOM      1  C   UNL     1       7.334   1.359  -0.566  1.00  0.00     0.023 C 
ENDROOT
BRANCH   1   2
ATOM      2  C   UNL     1       5.981   1.700  -1.186  1.00  0.00     0.023 C 
BRANCH   2   3
ATOM      3  C   UNL     1       4.820   1.935  -0.233  1.00  0.00     0.116 C 
BRANCH   3   4
ATOM      4  N   UNL     1       4.955   2.941   0.792  1.00  0.00    -0.352 N 
ATOM      5  C   UNL     1       3.922   3.451   1.563  1.00  0.00     0.255 C 
ATOM      6  O   UNL     1       4.145   3.923   2.675  1.00  0.00    -0.269 OA
ATOM      7  H   UNL     1       5.858   3.295   0.958  1.00  0.00     0.163 HD
BRANCH   5   8
ATOM      8  C   UNL     1       2.547   3.530   0.997  1.00  0.00     0.096 A 
ATOM      9  C   UNL     1       0.482   2.523   0.180  1.00  0.00     0.161 A 
ATOM     10  C   UNL     1       0.063   3.813  -0.197  1.00  0.00     0.051 A 
ATOM     11  C   UNL     1       1.728   2.372   0.817  1.00  0.00     0.174 A 
ATOM     12  C   UNL     1       0.813   4.950   0.085  1.00  0.00     0.017 A 
ATOM     13  C   UNL     1       2.063   4.829   0.690  1.00  0.00     0.034 A 
BRANCH   9  14
ATOM     14  O   UNL     1      -0.504   1.638  -0.145  1.00  0.00    -0.493 OA
ATOM     15  C   UNL     1      -0.467   0.279   0.216  1.00  0.00     0.278 C 
ENDBRANCH   9  14
BRANCH  11  16
ATOM     16  O   UNL     1       2.090   1.248   1.522  1.00  0.00    -0.492 OA
ATOM     17  C   UNL     1       2.436   0.081   0.785  1.00  0.00     0.278 C 
ENDBRANCH  11  16
BRANCH  13  18
ATOM     18  C   UNL     1       2.785   6.061   1.029  1.00  0.00     0.139 A 
ATOM     19  N   UNL     1       3.986   6.421   0.620  1.00  0.00    -0.228 NA
ATOM     20  N   UNL     1       2.269   7.014   1.884  1.00  0.00    -0.338 N 
ATOM     21  C   UNL     1       4.289   7.571   1.314  1.00  0.00     0.089 A 
ATOM     22  C   UNL     1       3.220   7.979   2.101  1.00  0.00     0.066 A 
ATOM     23  H   UNL     1       1.365   7.004   2.274  1.00  0.00     0.168 HD
ATOM     24  C   UNL     1       5.473   8.320   1.338  1.00  0.00     0.031 A 
ATOM     25  C   UNL     1       3.250   9.116   2.918  1.00  0.00     0.031 A 
ATOM     26  C   UNL     1       5.543   9.449   2.168  1.00  0.00     0.006 A 
ATOM     27  C   UNL     1       4.449   9.850   2.950  1.00  0.00    -0.049 A 
ATOM     28  C   UNL     1       4.591  11.049   3.846  1.00  0.00     0.044 C 
ENDBRANCH  13  18
ENDBRANCH   5   8
ENDBRANCH   3   4
ENDBRANCH   2   3
ENDBRANCH   1   2
BRANCH   1  29
ATOM     29  C   UNL     1       7.350   0.416   0.635  1.00  0.00     0.116 C 
BRANCH  29  30
ATOM     30  N   UNL     1       6.873  -0.933   0.361  1.00  0.00    -0.352 N 
ATOM     31  C   UNL     1       7.508  -2.152   0.496  1.00  0.00     0.251 C 
ATOM     32  H   UNL     1       5.948  -0.984   0.027  1.00  0.00     0.163 HD
ATOM     33  O   UNL     1       6.921  -3.177   0.181  1.00  0.00    -0.269 OA
BRANCH  31  34
ATOM     34  C   UNL     1       8.914  -2.217   0.965  1.00  0.00     0.039 A 
ATOM     35  C   UNL     1       9.826  -2.994   0.244  1.00  0.00     0.014 A 
ATOM     36  C   UNL     1       9.346  -1.493   2.076  1.00  0.00     0.014 A 
ATOM     37  C   UNL     1      11.187  -2.946   0.565  1.00  0.00     0.010 A 
ATOM     38  C   UNL     1      10.710  -1.375   2.337  1.00  0.00     0.010 A 
ATOM     39  C   UNL     1      11.649  -2.087   1.575  1.00  0.00    -0.014 A 
BRANCH  39  40
ATOM     40  C   UNL     1      13.102  -1.888   1.827  1.00  0.00     0.031 A 
ATOM     41  C   UNL     1      13.696  -2.216   3.170  1.00  0.00     0.074 A 
ATOM     42  C   UNL     1      13.873  -1.320   0.876  1.00  0.00     0.049 A 
ATOM     43  N   UNL     1      14.913  -2.019   3.607  1.00  0.00    -0.248 NA
ATOM     44  C   UNL     1      12.791  -2.814   4.163  1.00  0.00     0.031 C 
ATOM     45  C   UNL     1      13.410  -0.890  -0.445  1.00  0.00     0.029 A 
ATOM     46  N   UNL     1      15.207  -0.989   0.881  1.00  0.00    -0.354 N 
ATOM     47  C   UNL     1      14.915  -2.446   4.930  1.00  0.00     0.074 A 
ATOM     48  C   UNL     1      13.563  -2.861   5.238  1.00  0.00     0.031 C 
ATOM     49  C   UNL     1      14.443  -0.371  -1.128  1.00  0.00     0.029 A 
ATOM     50  C   UNL     1      15.633  -0.395  -0.284  1.00  0.00     0.049 A 
ATOM     51  H   UNL     1      15.801  -1.160   1.647  1.00  0.00     0.167 HD
ATOM     52  C   UNL     1      15.950  -2.509   5.802  1.00  0.00     0.037 A 
ATOM     53  C   UNL     1      16.843   0.086  -0.634  1.00  0.00     0.037 A 
ATOM     54  C   UNL     1      17.299  -2.119   5.485  1.00  0.00     0.049 A 
ATOM     55  C   UNL     1      17.986  -0.018   0.338  1.00  0.00     0.074 A 
ATOM     56  C   UNL     1      18.431  -2.206   6.278  1.00  0.00     0.029 A 
ATOM     57  N   UNL     1      17.700  -1.564   4.278  1.00  0.00    -0.354 N 
ATOM     58  N   UNL     1      17.985  -0.489   1.562  1.00  0.00    -0.248 NA
ATOM     59  C   UNL     1      19.295   0.467  -0.120  1.00  0.00     0.031 C 
ATOM     60  C   UNL     1      19.509  -1.672   5.563  1.00  0.00     0.029 A 
ATOM     61  C   UNL     1      19.058  -1.291   4.309  1.00  0.00     0.049 A 
ATOM     62  H   UNL     1      17.107  -1.390   3.512  1.00  0.00     0.167 HD
ATOM     63  C   UNL     1      19.295  -0.377   2.014  1.00  0.00     0.074 A 
ATOM     64  C   UNL     1      20.063   0.197   0.928  1.00  0.00     0.031 C 
ATOM     65  C   UNL     1      19.812  -0.719   3.220  1.00  0.00     0.037 A 
BRANCH  52  66
ATOM     66  C   UNL     1      15.653  -3.026   7.184  1.00  0.00     0.058 A 
ATOM     67  C   UNL     1      15.324  -4.373   7.410  1.00  0.00     0.135 A 
ATOM     68  C   UNL     1      15.688  -2.168   8.294  1.00  0.00     0.135 A 
ATOM     69  F   UNL     1      15.264  -5.236   6.383  1.00  0.00    -0.206 F 
ATOM     70  C   UNL     1      14.990  -4.839   8.677  1.00  0.00     0.059 A 
ATOM     71  C   UNL     1      15.386  -2.619   9.577  1.00  0.00     0.059 A 
ATOM     72  F   UNL     1      16.002  -0.872   8.138  1.00  0.00    -0.206 F 
ATOM     73  C   UNL     1      15.014  -3.951   9.753  1.00  0.00     0.060 A 
BRANCH  73  74
ATOM     74  S   UNL     1      14.545  -4.561  11.386  1.00  0.00     0.124 S 
ATOM     75  O   UNL     1      13.092  -4.637  11.260  1.00  0.00    -0.237 OA
ATOM     76  O   UNL     1      15.241  -5.841  11.457  1.00  0.00    -0.237 OA
ATOM     77  O   UNL     1      15.043  -3.529  12.290  1.00  0.00    -0.744 OA
ENDBRANCH  73  74
ENDBRANCH  52  66
BRANCH  53  78
ATOM     78  C   UNL     1      17.034   0.677  -1.985  1.00  0.00     0.058 A 
ATOM     79  C   UNL     1      17.732  -0.019  -2.982  1.00  0.00     0.135 A 
ATOM     80  C   UNL     1      16.482   1.923  -2.321  1.00  0.00     0.135 A 
ATOM     81  F   UNL     1      18.285  -1.210  -2.706  1.00  0.00    -0.206 F 
ATOM     82  C   UNL     1      17.876   0.497  -4.266  1.00  0.00     0.059 A 
ATOM     83  C   UNL     1      16.594   2.450  -3.604  1.00  0.00     0.059 A 
ATOM     84  F   UNL     1      15.792   2.621  -1.405  1.00  0.00    -0.206 F 
ATOM     85  C   UNL     1      17.296   1.730  -4.570  1.00  0.00     0.060 A 
BRANCH  85  86
ATOM     86  S   UNL     1      17.416   2.349  -6.263  1.00  0.00     0.124 S 
ATOM     87  O   UNL     1      18.810   2.773  -6.323  1.00  0.00    -0.237 OA
ATOM     88  O   UNL     1      17.073   1.166  -7.047  1.00  0.00    -0.237 OA
ATOM     89  O   UNL     1      16.427   3.422  -6.298  1.00  0.00    -0.744 OA
ENDBRANCH  85  86
ENDBRANCH  53  78
BRANCH  65  90
ATOM     90  C   UNL     1      21.287  -0.507   3.425  1.00  0.00     0.058 A 
ATOM     91  C   UNL     1      21.827   0.774   3.615  1.00  0.00     0.135 A 
ATOM     92  C   UNL     1      22.160  -1.605   3.488  1.00  0.00     0.135 A 
ATOM     93  F   UNL     1      21.036   1.857   3.558  1.00  0.00    -0.206 F 
ATOM     94  C   UNL     1      23.187   0.961   3.841  1.00  0.00     0.059 A 
ATOM     95  C   UNL     1      23.520  -1.442   3.737  1.00  0.00     0.059 A 
ATOM     96  F   UNL     1      21.693  -2.852   3.322  1.00  0.00    -0.206 F 
ATOM     97  C   UNL     1      24.026  -0.154   3.902  1.00  0.00     0.060 A 
BRANCH  97  98
ATOM     98  S   UNL     1      25.783   0.099   4.234  1.00  0.00     0.124 S 
ATOM     99  O   UNL     1      26.256   0.598   2.947  1.00  0.00    -0.237 OA
ATOM    100  O   UNL     1      25.760   1.072   5.322  1.00  0.00    -0.237 OA
ATOM    101  O   UNL     1      26.253  -1.233   4.603  1.00  0.00    -0.744 OA
ENDBRANCH  97  98
ENDBRANCH  65  90
ENDBRANCH  39  40
ENDBRANCH  31  34
ENDBRANCH  29  30
ENDBRANCH   1  29
TORSDOF 17
