REMARK SMILES Cc1cc(CS(=O)(=O)N[C@@H]2C=C[C@H](C(=O)NCCCCNC(=O)c3ccc(-c4c5nc(c(-c6c(F)cc(S(=O)(=O)[O-])cc6F)c6ccc([nH]6)c(-c6c(F)cc(S(=O)(=O)[O-])cc6F)c6nc(c(-c7c(F)cc(S(=O)(=O)[O-])cc7F)c7ccc4[nH]7)C=C6)C=C5)cc3)C2)no1
REMARK SMILES IDX 18 1 17 2 16 3 14 4 15 5 13 7 10 8 11 9 90 10 12 11 9 12
REMARK SMILES IDX 6 14 7 15 8 16 5 17 4 18 1 19 2 20 3 21 92 22 91 23 19 24
REMARK SMILES IDX 20 25 21 26 22 27 23 29 24 30 25 31 89 32 26 33 88 34 27 35
REMARK SMILES IDX 28 36 29 37 82 38 30 39 87 40 81 41 83 42 31 43 86 44 80 45
REMARK SMILES IDX 79 46 32 48 66 49 45 50 65 51 46 52 49 53 64 54 84 55 47 56
REMARK SMILES IDX 48 57 63 59 85 60 50 61 33 62 34 63 43 64 35 65 36 66 42 67
REMARK SMILES IDX 44 68 37 69 38 70 39 71 40 72 41 73 67 74 68 75 77 76 69 77
REMARK SMILES IDX 70 78 76 79 78 80 71 81 72 82 73 83 74 84 75 85 51 86 52 87
REMARK SMILES IDX 61 88 53 89 54 90 60 91 62 92 55 93 56 94 57 95 58 96 59 97
REMARK H PARENT 16 6 9 13 21 28 83 47 49 58
REMARK Flexibility Score: inf
ROOT
ATOM      1  C   UNL     1       1.820   3.611   4.002  1.00  0.00     0.023 C 
ENDROOT
BRANCH   1   2
ATOM      2  C   UNL     1       1.466   2.377   3.171  1.00  0.00     0.116 C 
BRANCH   2   3
ATOM      3  N   UNL     1       2.095   1.180   3.704  1.00  0.00    -0.356 N 
ATOM      4  C   UNL     1       1.658   0.152   4.476  1.00  0.00     0.226 C 
ATOM      5  O   UNL     1       2.512  -0.677   4.814  1.00  0.00    -0.274 OA
ATOM      6  H   UNL     1       3.042   1.097   3.451  1.00  0.00     0.163 HD
BRANCH   4   7
ATOM      7  C   UNL     1       0.200  -0.084   4.892  1.00  0.00     0.103 C 
ATOM      8  C   UNL     1      -1.536  -0.776   3.264  1.00  0.00     0.093 C 
ATOM      9  C   UNL     1      -1.658   0.647   3.691  1.00  0.00    -0.011 C 
ATOM     10  C   UNL     1      -0.373  -1.292   4.115  1.00  0.00     0.042 C 
ATOM     11  C   UNL     1      -0.788   0.994   4.640  1.00  0.00    -0.016 C 
BRANCH   8  12
ATOM     12  N   UNL     1      -1.263  -0.783   1.826  1.00  0.00    -0.208 NA
ATOM     13  H   UNL     1      -1.321   0.182   1.503  1.00  0.00     0.141 HD
BRANCH  12  14
ATOM     14  S   UNL     1      -2.261  -1.706   0.829  1.00  0.00     0.218 S 
ATOM     15  O   UNL     1      -2.538  -2.951   1.506  1.00  0.00    -0.212 OA
ATOM     16  O   UNL     1      -1.573  -1.722  -0.449  1.00  0.00    -0.212 OA
BRANCH  14  17
ATOM     17  C   UNL     1      -3.769  -0.726   0.603  1.00  0.00     0.213 C 
BRANCH  17  18
ATOM     18  C   UNL     1      -4.473  -0.373   1.859  1.00  0.00     0.100 A 
ATOM     19  C   UNL     1      -5.255   1.498   4.900  1.00  0.00     0.091 C 
ATOM     20  C   UNL     1      -5.111   0.671   3.688  1.00  0.00     0.133 A 
ATOM     21  C   UNL     1      -4.693   0.919   2.402  1.00  0.00     0.073 A 
ATOM     22  O   UNL     1      -5.327  -0.662   3.835  1.00  0.00    -0.361 OA
ATOM     23  N   UNL     1      -4.971  -1.315   2.669  1.00  0.00    -0.084 NA
ENDBRANCH  17  18
ENDBRANCH  14  17
ENDBRANCH  12  14
ENDBRANCH   8  12
ENDBRANCH   4   7
ENDBRANCH   2   3
ENDBRANCH   1   2
BRANCH   1  24
ATOM     24  C   UNL     1       3.250   4.111   3.784  1.00  0.00     0.023 C 
BRANCH  24  25
ATOM     25  C   UNL     1       3.602   4.443   2.337  1.00  0.00     0.116 C 
BRANCH  25  26
ATOM     26  N   UNL     1       2.712   5.429   1.742  1.00  0.00    -0.352 N 
ATOM     27  C   UNL     1       3.028   6.452   0.879  1.00  0.00     0.251 C 
ATOM     28  H   UNL     1       1.762   5.354   1.989  1.00  0.00     0.163 HD
ATOM     29  O   UNL     1       2.180   7.281   0.566  1.00  0.00    -0.269 OA
BRANCH  27  30
ATOM     30  C   UNL     1       4.411   6.556   0.368  1.00  0.00     0.039 A 
ATOM     31  C   UNL     1       5.075   7.780   0.458  1.00  0.00     0.014 A 
ATOM     32  C   UNL     1       5.062   5.431  -0.145  1.00  0.00     0.014 A 
ATOM     33  C   UNL     1       6.420   7.858   0.093  1.00  0.00     0.010 A 
ATOM     34  C   UNL     1       6.422   5.493  -0.430  1.00  0.00     0.010 A 
ATOM     35  C   UNL     1       7.115   6.707  -0.316  1.00  0.00    -0.014 A 
BRANCH  35  36
ATOM     36  C   UNL     1       8.568   6.756  -0.623  1.00  0.00     0.031 A 
ATOM     37  C   UNL     1       9.059   6.431  -2.008  1.00  0.00     0.074 A 
ATOM     38  C   UNL     1       9.448   7.033   0.360  1.00  0.00     0.049 A 
ATOM     39  N   UNL     1      10.287   6.376  -2.456  1.00  0.00    -0.248 NA
ATOM     40  C   UNL     1       8.039   6.098  -3.015  1.00  0.00     0.031 C 
ATOM     41  C   UNL     1       9.098   7.307   1.756  1.00  0.00     0.029 A 
ATOM     42  N   UNL     1      10.817   7.123   0.340  1.00  0.00    -0.354 N 
ATOM     43  C   UNL     1      10.187   5.991  -3.788  1.00  0.00     0.074 A 
ATOM     44  C   UNL     1       8.784   5.769  -4.060  1.00  0.00     0.031 C 
ATOM     45  C   UNL     1      10.219   7.560   2.450  1.00  0.00     0.029 A 
ATOM     46  C   UNL     1      11.370   7.428   1.562  1.00  0.00     0.049 A 
ATOM     47  H   UNL     1      11.354   6.982  -0.473  1.00  0.00     0.167 HD
ATOM     48  C   UNL     1      11.173   5.859  -4.707  1.00  0.00     0.037 A 
ATOM     49  C   UNL     1      12.658   7.579   1.929  1.00  0.00     0.037 A 
ATOM     50  C   UNL     1      12.565   6.104  -4.433  1.00  0.00     0.049 A 
ATOM     51  C   UNL     1      13.736   7.430   0.888  1.00  0.00     0.074 A 
ATOM     52  C   UNL     1      13.634   6.061  -5.311  1.00  0.00     0.029 A 
ATOM     53  N   UNL     1      13.084   6.431  -3.189  1.00  0.00    -0.354 N 
ATOM     54  N   UNL     1      13.617   7.139  -0.386  1.00  0.00    -0.248 NA
ATOM     55  C   UNL     1      15.121   7.638   1.331  1.00  0.00     0.031 C 
ATOM     56  C   UNL     1      14.804   6.307  -4.587  1.00  0.00     0.029 A 
ATOM     57  C   UNL     1      14.460   6.567  -3.270  1.00  0.00     0.049 A 
ATOM     58  H   UNL     1      12.552   6.549  -2.369  1.00  0.00     0.167 HD
ATOM     59  C   UNL     1      14.908   7.158  -0.902  1.00  0.00     0.074 A 
ATOM     60  C   UNL     1      15.790   7.502   0.195  1.00  0.00     0.031 C 
ATOM     61  C   UNL     1      15.326   6.915  -2.170  1.00  0.00     0.037 A 
BRANCH  48  62
ATOM     62  C   UNL     1      10.781   5.434  -6.098  1.00  0.00     0.058 A 
ATOM     63  C   UNL     1      10.049   6.277  -6.950  1.00  0.00     0.135 A 
ATOM     64  C   UNL     1      11.177   4.184  -6.599  1.00  0.00     0.135 A 
ATOM     65  F   UNL     1       9.629   7.477  -6.519  1.00  0.00    -0.206 F 
ATOM     66  C   UNL     1       9.698   5.884  -8.238  1.00  0.00     0.059 A 
ATOM     67  C   UNL     1      10.866   3.783  -7.895  1.00  0.00     0.059 A 
ATOM     68  F   UNL     1      11.878   3.337  -5.828  1.00  0.00    -0.206 F 
ATOM     69  C   UNL     1      10.114   4.635  -8.702  1.00  0.00     0.060 A 
BRANCH  69  70
ATOM     70  S   UNL     1       9.660   4.147 -10.380  1.00  0.00     0.124 S 
ATOM     71  O   UNL     1       8.226   3.912 -10.237  1.00  0.00    -0.237 OA
ATOM     72  O   UNL     1      10.034   5.324 -11.157  1.00  0.00    -0.237 OA
ATOM     73  O   UNL     1      10.470   2.957 -10.620  1.00  0.00    -0.744 OA
ENDBRANCH  69  70
ENDBRANCH  48  62
BRANCH  49  74
ATOM     74  C   UNL     1      12.996   7.910   3.340  1.00  0.00     0.058 A 
ATOM     75  C   UNL     1      13.508   9.169   3.686  1.00  0.00     0.135 A 
ATOM     76  C   UNL     1      12.799   6.980   4.373  1.00  0.00     0.135 A 
ATOM     77  F   UNL     1      13.721  10.091   2.734  1.00  0.00    -0.206 F 
ATOM     78  C   UNL     1      13.829   9.491   5.001  1.00  0.00     0.059 A 
ATOM     79  C   UNL     1      13.084   7.288   5.700  1.00  0.00     0.059 A 
ATOM     80  F   UNL     1      12.294   5.767   4.099  1.00  0.00    -0.206 F 
ATOM     81  C   UNL     1      13.608   8.544   6.002  1.00  0.00     0.060 A 
BRANCH  81  82
ATOM     82  S   UNL     1      13.977   8.992   7.713  1.00  0.00     0.124 S 
ATOM     83  O   UNL     1      15.435   9.008   7.705  1.00  0.00    -0.237 OA
ATOM     84  O   UNL     1      13.324  10.291   7.835  1.00  0.00    -0.237 OA
ATOM     85  O   UNL     1      13.361   7.914   8.482  1.00  0.00    -0.744 OA
ENDBRANCH  81  82
ENDBRANCH  49  74
BRANCH  61  86
ATOM     86  C   UNL     1      16.798   7.048  -2.453  1.00  0.00     0.058 A 
ATOM     87  C   UNL     1      17.734   6.120  -1.971  1.00  0.00     0.135 A 
ATOM     88  C   UNL     1      17.271   8.095  -3.263  1.00  0.00     0.135 A 
ATOM     89  F   UNL     1      17.337   5.104  -1.189  1.00  0.00    -0.206 F 
ATOM     90  C   UNL     1      19.090   6.242  -2.255  1.00  0.00     0.059 A 
ATOM     91  C   UNL     1      18.618   8.217  -3.587  1.00  0.00     0.059 A 
ATOM     92  F   UNL     1      16.417   9.003  -3.761  1.00  0.00    -0.206 F 
ATOM     93  C   UNL     1      19.522   7.293  -3.066  1.00  0.00     0.060 A 
BRANCH  93  94
ATOM     94  S   UNL     1      21.281   7.423  -3.450  1.00  0.00     0.124 S 
ATOM     95  O   UNL     1      21.827   7.874  -2.174  1.00  0.00    -0.237 OA
ATOM     96  O   UNL     1      21.618   6.057  -3.836  1.00  0.00    -0.237 OA
ATOM     97  O   UNL     1      21.323   8.402  -4.532  1.00  0.00    -0.744 OA
ENDBRANCH  93  94
ENDBRANCH  61  86
ENDBRANCH  35  36
ENDBRANCH  27  30
ENDBRANCH  25  26
ENDBRANCH  24  25
ENDBRANCH   1  24
TORSDOF 18
