REMARK SMILES Cc1nc(-c2cccc(F)c2)sc1C(=O)N[C@H](C)C(=O)NCCCCNC(=O)c1ccc(-c2c3nc(c(-c4c(F)cc(S(=O)(=O)[O-])cc4F)c4ccc([nH]4)c(-c4c(F)cc(S(=O)(=O)[O-])cc4F)c4nc(c(-c5c(F)cc(S(=O)(=O)[O-])cc5F)c5ccc2[nH]5)C=C4)C=C3)cc1
REMARK SMILES IDX 23 1 22 2 21 3 19 4 20 5 17 7 18 8 16 9 14 10 15 11 13 13
REMARK SMILES IDX 1 14 2 15 3 16 4 17 12 18 5 19 6 20 11 21 7 22 9 23 8 24
REMARK SMILES IDX 10 25 24 26 25 27 26 28 27 29 28 31 29 32 30 33 94 34 31 35
REMARK SMILES IDX 93 36 32 37 33 38 34 39 87 40 35 41 92 42 86 43 88 44 36 45
REMARK SMILES IDX 91 46 85 47 84 48 37 50 71 51 50 52 70 53 51 54 54 55 69 56
REMARK SMILES IDX 89 57 52 58 53 59 68 61 90 62 55 63 38 64 39 65 48 66 40 67
REMARK SMILES IDX 41 68 47 69 49 70 42 71 43 72 44 73 45 74 46 75 72 76 73 77
REMARK SMILES IDX 82 78 74 79 75 80 81 81 83 82 76 83 77 84 78 85 79 86 80 87
REMARK SMILES IDX 56 88 57 89 66 90 58 91 59 92 65 93 67 94 60 95 61 96 62 97
REMARK SMILES IDX 63 98 64 99
REMARK H PARENT 21 6 16 12 26 30 88 49 54 60
REMARK Flexibility Score: inf
ROOT
ATOM      1  C   UNL     1      -4.101  -5.399   1.634  1.00  0.00     0.023 C 
ENDROOT
BRANCH   1   2
ATOM      2  C   UNL     1      -4.923  -4.226   1.100  1.00  0.00     0.116 C 
BRANCH   2   3
ATOM      3  N   UNL     1      -4.420  -2.986   1.652  1.00  0.00    -0.354 N 
ATOM      4  C   UNL     1      -3.472  -2.125   1.202  1.00  0.00     0.242 C 
ATOM      5  O   UNL     1      -3.061  -1.301   2.029  1.00  0.00    -0.273 OA
ATOM      6  H   UNL     1      -4.838  -2.722   2.503  1.00  0.00     0.163 HD
BRANCH   4   7
ATOM      7  C   UNL     1      -3.051  -1.996  -0.291  1.00  0.00     0.168 C 
ATOM      8  C   UNL     1      -1.665  -1.364  -0.482  1.00  0.00     0.041 C 
BRANCH   7   9
ATOM      9  N   UNL     1      -3.316  -2.952  -1.362  1.00  0.00    -0.340 N 
ATOM     10  C   UNL     1      -2.806  -4.128  -1.836  1.00  0.00     0.263 C 
ATOM     11  O   UNL     1      -3.144  -4.329  -3.011  1.00  0.00    -0.268 OA
ATOM     12  H   UNL     1      -4.088  -2.665  -1.901  1.00  0.00     0.164 HD
BRANCH  10  13
ATOM     13  C   UNL     1      -2.074  -5.123  -1.069  1.00  0.00     0.115 A 
ATOM     14  C   UNL     1      -0.629  -4.131   0.884  1.00  0.00     0.068 C 
ATOM     15  C   UNL     1      -1.236  -5.187   0.039  1.00  0.00     0.062 A 
ATOM     16  N   UNL     1      -0.944  -6.478   0.476  1.00  0.00    -0.241 NA
ATOM     17  C   UNL     1      -1.473  -7.388  -0.304  1.00  0.00     0.124 A 
ATOM     18  S   UNL     1      -2.281  -6.765  -1.666  1.00  0.00    -0.108 S 
BRANCH  17  19
ATOM     19  C   UNL     1      -1.478  -8.820  -0.009  1.00  0.00     0.013 A 
ATOM     20  C   UNL     1      -0.985  -9.773  -0.914  1.00  0.00     0.011 A 
ATOM     21  C   UNL     1      -1.969  -9.250   1.232  1.00  0.00     0.050 A 
ATOM     22  C   UNL     1      -0.980 -11.131  -0.579  1.00  0.00     0.004 A 
ATOM     23  C   UNL     1      -1.970 -10.603   1.548  1.00  0.00     0.123 A 
ATOM     24  C   UNL     1      -1.475 -11.546   0.656  1.00  0.00     0.039 A 
ATOM     25  F   UNL     1      -2.446 -11.001   2.734  1.00  0.00    -0.207 F 
ENDBRANCH  17  19
ENDBRANCH  10  13
ENDBRANCH   7   9
ENDBRANCH   4   7
ENDBRANCH   2   3
ENDBRANCH   1   2
BRANCH   1  26
ATOM     26  C   UNL     1      -4.731  -6.167   2.787  1.00  0.00     0.023 C 
BRANCH  26  27
ATOM     27  C   UNL     1      -5.953  -6.981   2.393  1.00  0.00     0.116 C 
BRANCH  27  28
ATOM     28  N   UNL     1      -5.693  -7.994   1.375  1.00  0.00    -0.352 N 
ATOM     29  C   UNL     1      -6.224  -9.262   1.271  1.00  0.00     0.251 C 
ATOM     30  H   UNL     1      -5.055  -7.738   0.670  1.00  0.00     0.163 HD
ATOM     31  O   UNL     1      -5.860 -10.017   0.380  1.00  0.00    -0.269 OA
BRANCH  29  32
ATOM     32  C   UNL     1      -7.204  -9.706   2.286  1.00  0.00     0.039 A 
ATOM     33  C   UNL     1      -7.000 -10.921   2.940  1.00  0.00     0.014 A 
ATOM     34  C   UNL     1      -8.258  -8.869   2.659  1.00  0.00     0.014 A 
ATOM     35  C   UNL     1      -7.795 -11.249   4.041  1.00  0.00     0.010 A 
ATOM     36  C   UNL     1      -8.974  -9.147   3.815  1.00  0.00     0.010 A 
ATOM     37  C   UNL     1      -8.747 -10.336   4.525  1.00  0.00    -0.014 A 
BRANCH  37  38
ATOM     38  C   UNL     1      -9.512 -10.586   5.774  1.00  0.00     0.031 A 
ATOM     39  C   UNL     1     -11.017 -10.614   5.737  1.00  0.00     0.074 A 
ATOM     40  C   UNL     1      -8.864 -10.692   6.952  1.00  0.00     0.049 A 
ATOM     41  N   UNL     1     -11.867 -10.667   6.729  1.00  0.00    -0.248 NA
ATOM     42  C   UNL     1     -11.650 -10.523   4.410  1.00  0.00     0.031 C 
ATOM     43  C   UNL     1      -7.411 -10.617   7.134  1.00  0.00     0.029 A 
ATOM     44  N   UNL     1      -9.344 -10.878   8.225  1.00  0.00    -0.354 N 
ATOM     45  C   UNL     1     -13.127 -10.580   6.151  1.00  0.00     0.074 A 
ATOM     46  C   UNL     1     -12.931 -10.416   4.728  1.00  0.00     0.031 C 
ATOM     47  C   UNL     1      -7.118 -10.799   8.432  1.00  0.00     0.029 A 
ATOM     48  C   UNL     1      -8.359 -10.961   9.182  1.00  0.00     0.049 A 
ATOM     49  H   UNL     1     -10.303 -10.946   8.433  1.00  0.00     0.167 HD
ATOM     50  C   UNL     1     -14.340 -10.661   6.747  1.00  0.00     0.037 A 
ATOM     51  C   UNL     1      -8.446 -11.149  10.514  1.00  0.00     0.037 A 
ATOM     52  C   UNL     1     -14.530 -10.895   8.153  1.00  0.00     0.049 A 
ATOM     53  C   UNL     1      -9.802 -11.296  11.146  1.00  0.00     0.074 A 
ATOM     54  C   UNL     1     -15.718 -11.058   8.845  1.00  0.00     0.029 A 
ATOM     55  N   UNL     1     -13.505 -11.024   9.079  1.00  0.00    -0.354 N 
ATOM     56  N   UNL     1     -10.983 -11.237  10.579  1.00  0.00    -0.248 NA
ATOM     57  C   UNL     1      -9.840 -11.534  12.596  1.00  0.00     0.031 C 
ATOM     58  C   UNL     1     -15.411 -11.269  10.193  1.00  0.00     0.029 A 
ATOM     59  C   UNL     1     -14.033 -11.268  10.335  1.00  0.00     0.049 A 
ATOM     60  H   UNL     1     -12.545 -10.953   8.872  1.00  0.00     0.167 HD
ATOM     61  C   UNL     1     -11.904 -11.450  11.598  1.00  0.00     0.074 A 
ATOM     62  C   UNL     1     -11.143 -11.650  12.815  1.00  0.00     0.031 C 
ATOM     63  C   UNL     1     -13.257 -11.476  11.531  1.00  0.00     0.037 A 
BRANCH  50  64
ATOM     64  C   UNL     1     -15.555 -10.528   5.873  1.00  0.00     0.058 A 
ATOM     65  C   UNL     1     -16.372  -9.390   5.950  1.00  0.00     0.135 A 
ATOM     66  C   UNL     1     -15.927 -11.543   4.977  1.00  0.00     0.135 A 
ATOM     67  F   UNL     1     -16.059  -8.386   6.784  1.00  0.00    -0.206 F 
ATOM     68  C   UNL     1     -17.519  -9.265   5.172  1.00  0.00     0.059 A 
ATOM     69  C   UNL     1     -17.054 -11.428   4.170  1.00  0.00     0.059 A 
ATOM     70  F   UNL     1     -15.164 -12.641   4.847  1.00  0.00    -0.206 F 
ATOM     71  C   UNL     1     -17.851 -10.290   4.284  1.00  0.00     0.060 A 
BRANCH  71  72
ATOM     72  S   UNL     1     -19.309 -10.092   3.237  1.00  0.00     0.124 S 
ATOM     73  O   UNL     1     -20.392 -10.323   4.186  1.00  0.00    -0.237 OA
ATOM     74  O   UNL     1     -19.162  -8.720   2.759  1.00  0.00    -0.237 OA
ATOM     75  O   UNL     1     -19.132 -11.122   2.217  1.00  0.00    -0.744 OA
ENDBRANCH  71  72
ENDBRANCH  50  64
BRANCH  51  76
ATOM     76  C   UNL     1      -7.206 -11.261  11.325  1.00  0.00     0.058 A 
ATOM     77  C   UNL     1      -6.403 -10.145  11.601  1.00  0.00     0.135 A 
ATOM     78  C   UNL     1      -6.783 -12.508  11.810  1.00  0.00     0.135 A 
ATOM     79  F   UNL     1      -6.758  -8.932  11.151  1.00  0.00    -0.206 F 
ATOM     80  C   UNL     1      -5.212 -10.264  12.310  1.00  0.00     0.059 A 
ATOM     81  C   UNL     1      -5.606 -12.650  12.539  1.00  0.00     0.059 A 
ATOM     82  F   UNL     1      -7.526 -13.602  11.580  1.00  0.00    -0.206 F 
ATOM     83  C   UNL     1      -4.819 -11.523  12.769  1.00  0.00     0.060 A 
BRANCH  83  84
ATOM     84  S   UNL     1      -3.263 -11.662  13.676  1.00  0.00     0.124 S 
ATOM     85  O   UNL     1      -2.287 -11.469  12.609  1.00  0.00    -0.237 OA
ATOM     86  O   UNL     1      -3.371 -10.574  14.642  1.00  0.00    -0.237 OA
ATOM     87  O   UNL     1      -3.321 -13.007  14.241  1.00  0.00    -0.744 OA
ENDBRANCH  83  84
ENDBRANCH  51  76
BRANCH  63  88
ATOM     88  C   UNL     1     -14.011 -11.751  12.800  1.00  0.00     0.058 A 
ATOM     89  C   UNL     1     -14.642 -12.989  12.996  1.00  0.00     0.135 A 
ATOM     90  C   UNL     1     -14.182 -10.760  13.778  1.00  0.00     0.135 A 
ATOM     91  F   UNL     1     -14.511 -13.968  12.086  1.00  0.00    -0.206 F 
ATOM     92  C   UNL     1     -15.434 -13.230  14.112  1.00  0.00     0.059 A 
ATOM     93  C   UNL     1     -14.954 -10.986  14.913  1.00  0.00     0.059 A 
ATOM     94  F   UNL     1     -13.588  -9.564  13.638  1.00  0.00    -0.206 F 
ATOM     95  C   UNL     1     -15.591 -12.218  15.062  1.00  0.00     0.060 A 
BRANCH  95  96
ATOM     96  S   UNL     1     -16.625 -12.543  16.506  1.00  0.00     0.124 S 
ATOM     97  O   UNL     1     -17.965 -12.485  15.932  1.00  0.00    -0.237 OA
ATOM     98  O   UNL     1     -16.169 -13.866  16.923  1.00  0.00    -0.237 OA
ATOM     99  O   UNL     1     -16.283 -11.455  17.417  1.00  0.00    -0.744 OA
ENDBRANCH  95  96
ENDBRANCH  63  88
ENDBRANCH  37  38
ENDBRANCH  29  32
ENDBRANCH  27  28
ENDBRANCH  26  27
ENDBRANCH   1  26
TORSDOF 17
