REMARK SMILES Cc1cc(C(=O)NCCCCNC(=O)c2ccc(-c3c4nc(c(-c5c(F)cc(S(=O)(=O)[O-])cc5F)c5ccc([nH]5)c(-c5c(F)cc(S(=O)(=O)[O-])cc5F)c5nc(c(-c6c(F)cc(S(=O)(=O)[O-])cc6F)c6ccc3[nH]6)C=C5)C=C4)cc2)nc(N2CCN(c3ccccc3Cl)CC2)n1
REMARK SMILES IDX 10 1 9 2 8 3 7 4 5 5 6 6 4 8 1 9 2 10 3 11 96 12 82 13 81 14
REMARK SMILES IDX 83 15 84 16 95 17 85 18 94 19 86 20 87 21 88 22 92 23 89 24
REMARK SMILES IDX 91 25 93 26 90 27 11 28 12 29 13 30 14 32 15 33 16 34 80 35
REMARK SMILES IDX 17 36 79 37 18 38 19 39 20 40 73 41 21 42 78 43 72 44 74 45
REMARK SMILES IDX 22 46 77 47 71 48 70 49 23 51 57 52 36 53 56 54 37 55 40 56
REMARK SMILES IDX 55 57 75 58 38 59 39 60 54 62 76 63 41 64 24 65 25 66 34 67
REMARK SMILES IDX 26 68 27 69 33 70 35 71 28 72 29 73 30 74 31 75 32 76 58 77
REMARK SMILES IDX 59 78 68 79 60 80 61 81 67 82 69 83 62 84 63 85 64 86 65 87
REMARK SMILES IDX 66 88 42 89 43 90 52 91 44 92 45 93 51 94 53 95 46 96 47 97
REMARK SMILES IDX 48 98 49 99 50 100
REMARK H PARENT 7 7 12 31 74 50 40 61
REMARK Flexibility Score: inf
ROOT
ATOM      1  C   UNL     1      -0.162  -5.805  -1.476  1.00  0.00     0.023 C 
ENDROOT
BRANCH   1   2
ATOM      2  C   UNL     1      -0.651  -4.455  -0.939  1.00  0.00     0.023 C 
BRANCH   2   3
ATOM      3  C   UNL     1       0.039  -4.021   0.355  1.00  0.00     0.116 C 
BRANCH   3   4
ATOM      4  N   UNL     1       1.354  -3.506   0.056  1.00  0.00    -0.351 N 
ATOM      5  C   UNL     1       1.806  -2.247  -0.254  1.00  0.00     0.270 C 
ATOM      6  O   UNL     1       2.998  -2.162  -0.563  1.00  0.00    -0.268 OA
ATOM      7  H   UNL     1       2.063  -4.188   0.079  1.00  0.00     0.163 HD
BRANCH   5   8
ATOM      8  C   UNL     1       0.964  -1.002  -0.186  1.00  0.00     0.133 A 
ATOM      9  C   UNL     1      -2.459   0.481  -0.074  1.00  0.00     0.067 C 
ATOM     10  C   UNL     1      -0.969   0.305  -0.050  1.00  0.00     0.044 A 
ATOM     11  C   UNL     1      -0.406  -0.938  -0.257  1.00  0.00     0.058 A 
ATOM     12  N   UNL     1      -0.228   1.416   0.131  1.00  0.00    -0.218 NA
ATOM     13  C   UNL     1       1.103   1.286   0.068  1.00  0.00     0.226 A 
ATOM     14  N   UNL     1       1.711   0.109  -0.059  1.00  0.00    -0.208 NA
BRANCH  13  15
ATOM     15  N   UNL     1       1.921   2.389   0.083  1.00  0.00    -0.337 N 
ATOM     16  C   UNL     1       1.423   3.648   0.628  1.00  0.00     0.141 C 
ATOM     17  C   UNL     1       2.776   2.486  -1.114  1.00  0.00     0.141 C 
ATOM     18  C   UNL     1       2.609   4.614   0.881  1.00  0.00     0.138 C 
ATOM     19  C   UNL     1       3.928   3.482  -0.893  1.00  0.00     0.138 C 
ATOM     20  N   UNL     1       3.405   4.743  -0.346  1.00  0.00    -0.367 N 
BRANCH  20  21
ATOM     21  C   UNL     1       3.987   5.936  -0.721  1.00  0.00     0.056 A 
ATOM     22  C   UNL     1       4.798   6.647   0.175  1.00  0.00     0.027 A 
ATOM     23  C   UNL     1       3.791   6.491  -2.005  1.00  0.00     0.064 A 
ATOM     24  C   UNL     1       5.391   7.860  -0.188  1.00  0.00     0.002 A 
ATOM     25  C   UNL     1       4.377   7.707  -2.366  1.00  0.00     0.023 A 
ATOM     26  Cl  UNL     1       2.759   5.732  -3.175  1.00  0.00    -0.082 Cl
ATOM     27  C   UNL     1       5.178   8.391  -1.457  1.00  0.00     0.002 A 
ENDBRANCH  20  21
ENDBRANCH  13  15
ENDBRANCH   5   8
ENDBRANCH   3   4
ENDBRANCH   2   3
ENDBRANCH   1   2
BRANCH   1  28
ATOM     28  C   UNL     1      -0.432  -6.991  -0.555  1.00  0.00     0.116 C 
BRANCH  28  29
ATOM     29  N   UNL     1      -1.835  -7.130  -0.208  1.00  0.00    -0.352 N 
ATOM     30  C   UNL     1      -2.524  -8.275   0.131  1.00  0.00     0.251 C 
ATOM     31  H   UNL     1      -2.363  -6.299  -0.217  1.00  0.00     0.163 HD
ATOM     32  O   UNL     1      -3.733  -8.241   0.290  1.00  0.00    -0.269 OA
BRANCH  30  33
ATOM     33  C   UNL     1      -1.778  -9.543   0.249  1.00  0.00     0.039 A 
ATOM     34  C   UNL     1      -2.235 -10.655  -0.460  1.00  0.00     0.014 A 
ATOM     35  C   UNL     1      -0.617  -9.620   1.022  1.00  0.00     0.014 A 
ATOM     36  C   UNL     1      -1.488 -11.834  -0.446  1.00  0.00     0.010 A 
ATOM     37  C   UNL     1       0.158 -10.774   0.986  1.00  0.00     0.010 A 
ATOM     38  C   UNL     1      -0.269 -11.890   0.249  1.00  0.00    -0.014 A 
BRANCH  38  39
ATOM     39  C   UNL     1       0.580 -13.104   0.210  1.00  0.00     0.031 A 
ATOM     40  C   UNL     1       0.818 -13.897   1.464  1.00  0.00     0.074 A 
ATOM     41  C   UNL     1       1.195 -13.447  -0.939  1.00  0.00     0.049 A 
ATOM     42  N   UNL     1       1.584 -14.941   1.647  1.00  0.00    -0.248 NA
ATOM     43  C   UNL     1       0.125 -13.438   2.678  1.00  0.00     0.031 C 
ATOM     44  C   UNL     1       1.085 -12.720  -2.206  1.00  0.00     0.029 A 
ATOM     45  N   UNL     1       2.045 -14.484  -1.224  1.00  0.00    -0.354 N 
ATOM     46  C   UNL     1       1.481 -15.252   2.997  1.00  0.00     0.074 A 
ATOM     47  C   UNL     1       0.615 -14.259   3.595  1.00  0.00     0.031 C 
ATOM     48  C   UNL     1       1.826 -13.344  -3.136  1.00  0.00     0.029 A 
ATOM     49  C   UNL     1       2.485 -14.495  -2.526  1.00  0.00     0.049 A 
ATOM     50  H   UNL     1       2.315 -15.157  -0.558  1.00  0.00     0.167 HD
ATOM     51  C   UNL     1       2.042 -16.284   3.672  1.00  0.00     0.037 A 
ATOM     52  C   UNL     1       3.328 -15.336  -3.156  1.00  0.00     0.037 A 
ATOM     53  C   UNL     1       2.878 -17.285   3.064  1.00  0.00     0.049 A 
ATOM     54  C   UNL     1       3.916 -16.490  -2.394  1.00  0.00     0.074 A 
ATOM     55  C   UNL     1       3.442 -18.406   3.646  1.00  0.00     0.029 A 
ATOM     56  N   UNL     1       3.269 -17.285   1.732  1.00  0.00    -0.354 N 
ATOM     57  N   UNL     1       3.757 -16.808  -1.131  1.00  0.00    -0.248 NA
ATOM     58  C   UNL     1       4.790 -17.404  -3.141  1.00  0.00     0.031 C 
ATOM     59  C   UNL     1       4.200 -19.068   2.673  1.00  0.00     0.029 A 
ATOM     60  C   UNL     1       4.078 -18.379   1.476  1.00  0.00     0.049 A 
ATOM     61  H   UNL     1       3.010 -16.606   1.068  1.00  0.00     0.167 HD
ATOM     62  C   UNL     1       4.493 -17.972  -0.937  1.00  0.00     0.074 A 
ATOM     63  C   UNL     1       5.089 -18.306  -2.215  1.00  0.00     0.031 C 
ATOM     64  C   UNL     1       4.657 -18.699   0.195  1.00  0.00     0.037 A 
BRANCH  51  65
ATOM     65  C   UNL     1       1.759 -16.379   5.145  1.00  0.00     0.058 A 
ATOM     66  C   UNL     1       0.491 -16.738   5.629  1.00  0.00     0.135 A 
ATOM     67  C   UNL     1       2.767 -16.114   6.086  1.00  0.00     0.135 A 
ATOM     68  F   UNL     1      -0.514 -16.986   4.773  1.00  0.00    -0.206 F 
ATOM     69  C   UNL     1       0.220 -16.793   6.992  1.00  0.00     0.059 A 
ATOM     70  C   UNL     1       2.526 -16.189   7.455  1.00  0.00     0.059 A 
ATOM     71  F   UNL     1       3.998 -15.766   5.678  1.00  0.00    -0.206 F 
ATOM     72  C   UNL     1       1.244 -16.510   7.897  1.00  0.00     0.060 A 
BRANCH  72  73
ATOM     73  S   UNL     1       0.875 -16.567   9.664  1.00  0.00     0.124 S 
ATOM     74  O   UNL     1       0.148 -15.315   9.848  1.00  0.00    -0.237 OA
ATOM     75  O   UNL     1       0.079 -17.784   9.780  1.00  0.00    -0.237 OA
ATOM     76  O   UNL     1       2.195 -16.624  10.284  1.00  0.00    -0.744 OA
ENDBRANCH  72  73
ENDBRANCH  51  65
BRANCH  52  77
ATOM     77  C   UNL     1       3.632 -15.132  -4.596  1.00  0.00     0.058 A 
ATOM     78  C   UNL     1       3.085 -15.978  -5.571  1.00  0.00     0.135 A 
ATOM     79  C   UNL     1       4.442 -14.070  -5.027  1.00  0.00     0.135 A 
ATOM     80  F   UNL     1       2.308 -17.009  -5.205  1.00  0.00    -0.206 F 
ATOM     81  C   UNL     1       3.336 -15.786  -6.925  1.00  0.00     0.059 A 
ATOM     82  C   UNL     1       4.691 -13.845  -6.378  1.00  0.00     0.059 A 
ATOM     83  F   UNL     1       4.973 -13.223  -4.133  1.00  0.00    -0.206 F 
ATOM     84  C   UNL     1       4.138 -14.713  -7.319  1.00  0.00     0.060 A 
BRANCH  84  85
ATOM     85  S   UNL     1       4.402 -14.431  -9.084  1.00  0.00     0.124 S 
ATOM     86  O   UNL     1       5.360 -15.480  -9.409  1.00  0.00    -0.237 OA
ATOM     87  O   UNL     1       3.058 -14.602  -9.627  1.00  0.00    -0.237 OA
ATOM     88  O   UNL     1       4.917 -13.066  -9.130  1.00  0.00    -0.744 OA
ENDBRANCH  84  85
ENDBRANCH  52  77
BRANCH  64  89
ATOM     89  C   UNL     1       5.493 -19.943   0.100  1.00  0.00     0.058 A 
ATOM     90  C   UNL     1       6.892 -19.885   0.017  1.00  0.00     0.135 A 
ATOM     91  C   UNL     1       4.888 -21.209   0.148  1.00  0.00     0.135 A 
ATOM     92  F   UNL     1       7.516 -18.698  -0.040  1.00  0.00    -0.206 F 
ATOM     93  C   UNL     1       7.664 -21.041  -0.033  1.00  0.00     0.059 A 
ATOM     94  C   UNL     1       5.641 -22.378   0.123  1.00  0.00     0.059 A 
ATOM     95  F   UNL     1       3.553 -21.318   0.237  1.00  0.00    -0.206 F 
ATOM     96  C   UNL     1       7.029 -22.284   0.022  1.00  0.00     0.060 A 
BRANCH  96  97
ATOM     97  S   UNL     1       8.042 -23.778  -0.002  1.00  0.00     0.124 S 
ATOM     98  O   UNL     1       8.403 -23.865  -1.412  1.00  0.00    -0.237 OA
ATOM     99  O   UNL     1       9.129 -23.436   0.911  1.00  0.00    -0.237 OA
ATOM    100  O   UNL     1       7.131 -24.812   0.479  1.00  0.00    -0.744 OA
ENDBRANCH  96  97
ENDBRANCH  64  89
ENDBRANCH  38  39
ENDBRANCH  30  33
ENDBRANCH  28  29
ENDBRANCH   1  28
TORSDOF 16
