REMARK SMILES CC[C@H]1CCCC[C@@H]1C1(C(=O)NCCCCNC(=O)c2ccc(-c3c4nc(c(-c5c(F)cc(S(=O)(=O)[O-])cc5F)c5ccc([nH]5)c(-c5c(F)cc(S(=O)(=O)[O-])cc5F)c5nc(c(-c6c(F)cc(S(=O)(=O)[O-])cc6F)c6ccc3[nH]6)C=C5)C=C4)cc2)CC1
REMARK SMILES IDX 15 1 14 2 13 3 12 4 10 5 11 6 9 8 86 9 87 10 8 11 3 12 4 13
REMARK SMILES IDX 5 14 7 15 6 16 2 17 1 18 16 19 17 20 18 21 19 23 20 24 21 25
REMARK SMILES IDX 85 26 22 27 84 28 23 29 24 30 25 31 78 32 26 33 83 34 77 35
REMARK SMILES IDX 79 36 27 37 82 38 76 39 75 40 28 42 62 43 41 44 61 45 42 46
REMARK SMILES IDX 45 47 60 48 80 49 43 50 44 51 59 53 81 54 46 55 29 56 30 57
REMARK SMILES IDX 39 58 31 59 32 60 38 61 40 62 33 63 34 64 35 65 36 66 37 67
REMARK SMILES IDX 63 68 64 69 73 70 65 71 66 72 72 73 74 74 67 75 68 76 69 77
REMARK SMILES IDX 70 78 71 79 47 80 48 81 57 82 49 83 50 84 56 85 58 86 51 87
REMARK SMILES IDX 52 88 53 89 54 90 55 91
REMARK H PARENT 12 7 17 22 79 41 45 52
REMARK Flexibility Score: inf
ROOT
ATOM      1  C   UNL     1       4.199   8.369  -1.050  1.00  0.00     0.023 C 
ENDROOT
BRANCH   1   2
ATOM      2  C   UNL     1       4.359   7.068  -0.255  1.00  0.00     0.023 C 
BRANCH   2   3
ATOM      3  C   UNL     1       3.150   6.667   0.590  1.00  0.00     0.116 C 
BRANCH   3   4
ATOM      4  N   UNL     1       1.951   6.487  -0.197  1.00  0.00    -0.356 N 
ATOM      5  C   UNL     1       1.299   5.418  -0.740  1.00  0.00     0.226 C 
ATOM      6  O   UNL     1       0.204   5.666  -1.246  1.00  0.00    -0.274 OA
ATOM      7  H   UNL     1       1.495   7.339  -0.387  1.00  0.00     0.163 HD
BRANCH   5   8
ATOM      8  C   UNL     1       1.798   3.968  -0.745  1.00  0.00     0.052 C 
ATOM      9  C   UNL     1       1.955   3.365   0.656  1.00  0.00     0.018 C 
ATOM     10  C   UNL     1       3.157   3.543  -0.217  1.00  0.00     0.018 C 
BRANCH   8  11
ATOM     11  C   UNL     1       1.182   3.119  -1.920  1.00  0.00     0.008 C 
ATOM     12  C   UNL     1       1.089   1.568  -1.783  1.00  0.00    -0.007 C 
ATOM     13  C   UNL     1       2.377   0.836  -2.208  1.00  0.00     0.004 C 
ATOM     14  C   UNL     1       2.959   1.323  -3.531  1.00  0.00     0.000 C 
ATOM     15  C   UNL     1       1.797   3.543  -3.269  1.00  0.00     0.005 C 
ATOM     16  C   UNL     1       3.110   2.837  -3.579  1.00  0.00     0.000 C 
BRANCH  12  17
ATOM     17  C   UNL     1      -0.132   1.057  -2.605  1.00  0.00     0.000 C 
ATOM     18  C   UNL     1      -0.517  -0.389  -2.315  1.00  0.00     0.004 C 
ENDBRANCH  12  17
ENDBRANCH   8  11
ENDBRANCH   5   8
ENDBRANCH   3   4
ENDBRANCH   2   3
ENDBRANCH   1   2
BRANCH   1  19
ATOM     19  C   UNL     1       3.638   9.561  -0.281  1.00  0.00     0.116 C 
BRANCH  19  20
ATOM     20  N   UNL     1       4.411   9.911   0.900  1.00  0.00    -0.352 N 
ATOM     21  C   UNL     1       4.611  11.161   1.439  1.00  0.00     0.251 C 
ATOM     22  H   UNL     1       4.844   9.163   1.371  1.00  0.00     0.163 HD
ATOM     23  O   UNL     1       5.348  11.312   2.407  1.00  0.00    -0.269 OA
BRANCH  21  24
ATOM     24  C   UNL     1       3.959  12.326   0.804  1.00  0.00     0.039 A 
ATOM     25  C   UNL     1       4.750  13.403   0.394  1.00  0.00     0.014 A 
ATOM     26  C   UNL     1       2.583  12.324   0.562  1.00  0.00     0.014 A 
ATOM     27  C   UNL     1       4.172  14.450  -0.328  1.00  0.00     0.010 A 
ATOM     28  C   UNL     1       2.021  13.340  -0.204  1.00  0.00     0.010 A 
ATOM     29  C   UNL     1       2.810  14.407  -0.664  1.00  0.00    -0.014 A 
BRANCH  29  30
ATOM     30  C   UNL     1       2.170  15.464  -1.487  1.00  0.00     0.031 A 
ATOM     31  C   UNL     1       1.091  16.318  -0.881  1.00  0.00     0.074 A 
ATOM     32  C   UNL     1       2.478  15.583  -2.794  1.00  0.00     0.049 A 
ATOM     33  N   UNL     1       0.271  17.152  -1.465  1.00  0.00    -0.248 NA
ATOM     34  C   UNL     1       0.887  16.188   0.571  1.00  0.00     0.031 C 
ATOM     35  C   UNL     1       3.488  14.793  -3.503  1.00  0.00     0.029 A 
ATOM     36  N   UNL     1       1.950  16.395  -3.768  1.00  0.00    -0.354 N 
ATOM     37  C   UNL     1      -0.569  17.618  -0.461  1.00  0.00     0.074 A 
ATOM     38  C   UNL     1      -0.176  16.955   0.764  1.00  0.00     0.031 C 
ATOM     39  C   UNL     1       3.503  15.157  -4.797  1.00  0.00     0.029 A 
ATOM     40  C   UNL     1       2.478  16.173  -5.019  1.00  0.00     0.049 A 
ATOM     41  H   UNL     1       1.259  17.072  -3.587  1.00  0.00     0.167 HD
ATOM     42  C   UNL     1      -1.570  18.525  -0.552  1.00  0.00     0.037 A 
ATOM     43  C   UNL     1       2.154  16.709  -6.213  1.00  0.00     0.037 A 
ATOM     44  C   UNL     1      -1.923  19.213  -1.765  1.00  0.00     0.049 A 
ATOM     45  C   UNL     1       1.054  17.734  -6.284  1.00  0.00     0.074 A 
ATOM     46  C   UNL     1      -2.887  20.189  -1.950  1.00  0.00     0.029 A 
ATOM     47  N   UNL     1      -1.318  19.008  -2.995  1.00  0.00    -0.354 N 
ATOM     48  N   UNL     1       0.292  18.190  -5.319  1.00  0.00    -0.248 NA
ATOM     49  C   UNL     1       0.768  18.320  -7.602  1.00  0.00     0.031 C 
ATOM     50  C   UNL     1      -2.882  20.556  -3.299  1.00  0.00     0.029 A 
ATOM     51  C   UNL     1      -1.889  19.836  -3.945  1.00  0.00     0.049 A 
ATOM     52  H   UNL     1      -0.590  18.368  -3.168  1.00  0.00     0.167 HD
ATOM     53  C   UNL     1      -0.536  19.141  -5.905  1.00  0.00     0.074 A 
ATOM     54  C   UNL     1      -0.187  19.193  -7.309  1.00  0.00     0.031 C 
ATOM     55  C   UNL     1      -1.498  19.902  -5.330  1.00  0.00     0.037 A 
BRANCH  42  56
ATOM     56  C   UNL     1      -2.354  18.829   0.693  1.00  0.00     0.058 A 
ATOM     57  C   UNL     1      -1.804  19.581   1.742  1.00  0.00     0.135 A 
ATOM     58  C   UNL     1      -3.684  18.397   0.820  1.00  0.00     0.135 A 
ATOM     59  F   UNL     1      -0.532  20.003   1.677  1.00  0.00    -0.206 F 
ATOM     60  C   UNL     1      -2.539  19.876   2.885  1.00  0.00     0.059 A 
ATOM     61  C   UNL     1      -4.445  18.702   1.944  1.00  0.00     0.059 A 
ATOM     62  F   UNL     1      -4.256  17.673  -0.155  1.00  0.00    -0.206 F 
ATOM     63  C   UNL     1      -3.859  19.431   2.978  1.00  0.00     0.060 A 
BRANCH  63  64
ATOM     64  S   UNL     1      -4.803  19.832   4.463  1.00  0.00     0.124 S 
ATOM     65  O   UNL     1      -4.237  18.894   5.428  1.00  0.00    -0.237 OA
ATOM     66  O   UNL     1      -4.472  21.237   4.677  1.00  0.00    -0.237 OA
ATOM     67  O   UNL     1      -6.184  19.570   4.068  1.00  0.00    -0.744 OA
ENDBRANCH  63  64
ENDBRANCH  42  56
BRANCH  43  68
ATOM     68  C   UNL     1       2.884  16.293  -7.440  1.00  0.00     0.058 A 
ATOM     69  C   UNL     1       3.785  17.164  -8.071  1.00  0.00     0.135 A 
ATOM     70  C   UNL     1       2.698  15.023  -8.006  1.00  0.00     0.135 A 
ATOM     71  F   UNL     1       3.992  18.392  -7.571  1.00  0.00    -0.206 F 
ATOM     72  C   UNL     1       4.460  16.799  -9.231  1.00  0.00     0.059 A 
ATOM     73  C   UNL     1       3.379  14.627  -9.153  1.00  0.00     0.059 A 
ATOM     74  F   UNL     1       1.860  14.146  -7.431  1.00  0.00    -0.206 F 
ATOM     75  C   UNL     1       4.249  15.527  -9.766  1.00  0.00     0.060 A 
BRANCH  75  76
ATOM     76  S   UNL     1       5.158  15.048 -11.252  1.00  0.00     0.124 S 
ATOM     77  O   UNL     1       4.428  15.771 -12.287  1.00  0.00    -0.237 OA
ATOM     78  O   UNL     1       6.503  15.534 -10.962  1.00  0.00    -0.237 OA
ATOM     79  O   UNL     1       5.017  13.595 -11.275  1.00  0.00    -0.744 OA
ENDBRANCH  75  76
ENDBRANCH  43  68
BRANCH  55  80
ATOM     80  C   UNL     1      -2.205  20.909  -6.190  1.00  0.00     0.058 A 
ATOM     81  C   UNL     1      -3.224  20.535  -7.078  1.00  0.00     0.135 A 
ATOM     82  C   UNL     1      -1.932  22.278  -6.037  1.00  0.00     0.135 A 
ATOM     83  F   UNL     1      -3.516  19.238  -7.263  1.00  0.00    -0.206 F 
ATOM     84  C   UNL     1      -3.954  21.486  -7.782  1.00  0.00     0.059 A 
ATOM     85  C   UNL     1      -2.663  23.247  -6.716  1.00  0.00     0.059 A 
ATOM     86  F   UNL     1      -0.970  22.685  -5.193  1.00  0.00    -0.206 F 
ATOM     87  C   UNL     1      -3.673  22.841  -7.587  1.00  0.00     0.060 A 
BRANCH  87  88
ATOM     88  S   UNL     1      -4.686  24.069  -8.439  1.00  0.00     0.124 S 
ATOM     89  O   UNL     1      -4.155  23.998  -9.796  1.00  0.00    -0.237 OA
ATOM     90  O   UNL     1      -6.035  23.544  -8.258  1.00  0.00    -0.237 OA
ATOM     91  O   UNL     1      -4.399  25.305  -7.717  1.00  0.00    -0.744 OA
ENDBRANCH  87  88
ENDBRANCH  55  80
ENDBRANCH  29  30
ENDBRANCH  21  24
ENDBRANCH  19  20
ENDBRANCH   1  19
TORSDOF 16
