REMARK SMILES CCN(C)C(=O)Cn1ccc2c(C(=O)NCCCCNC(=O)c3ccc(-c4c5nc(c(-c6c(F)cc(S(=O)(=O)[O-])cc6F)c6ccc([nH]6)c(-c6c(F)cc(S(=O)(=O)[O-])cc6F)c6nc(c(-c7c(F)cc(S(=O)(=O)[O-])cc7F)c7ccc4[nH]7)C=C6)C=C5)cc3)cccc21
REMARK SMILES IDX 17 1 16 2 15 3 13 4 14 5 12 7 8 8 9 9 92 10 10 11 11 12
REMARK SMILES IDX 91 13 90 14 89 15 7 16 5 17 6 18 3 19 4 20 2 21 1 22 18 23
REMARK SMILES IDX 19 24 20 25 21 26 22 28 23 29 24 30 88 31 25 32 87 33 26 34
REMARK SMILES IDX 27 35 28 36 81 37 29 38 86 39 80 40 82 41 30 42 85 43 79 44
REMARK SMILES IDX 78 45 31 47 65 48 44 49 64 50 45 51 48 52 63 53 83 54 46 55
REMARK SMILES IDX 47 56 62 58 84 59 49 60 32 61 33 62 42 63 34 64 35 65 41 66
REMARK SMILES IDX 43 67 36 68 37 69 38 70 39 71 40 72 66 73 67 74 76 75 68 76
REMARK SMILES IDX 69 77 75 78 77 79 70 80 71 81 72 82 73 83 74 84 50 85 51 86
REMARK SMILES IDX 60 87 52 88 53 89 59 90 61 91 54 92 55 93 56 94 57 95 58 96
REMARK H PARENT 15 6 20 27 82 46 48 57
REMARK Flexibility Score: inf
ROOT
ATOM      1  C   UNL     1       1.382   4.131   7.175  1.00  0.00     0.023 C 
ENDROOT
BRANCH   1   2
ATOM      2  C   UNL     1       2.437   3.031   7.318  1.00  0.00     0.116 C 
BRANCH   2   3
ATOM      3  N   UNL     1       1.809   1.769   7.650  1.00  0.00    -0.352 N 
ATOM      4  C   UNL     1       1.596   0.602   6.963  1.00  0.00     0.251 C 
ATOM      5  O   UNL     1       1.016  -0.285   7.592  1.00  0.00    -0.269 OA
ATOM      6  H   UNL     1       1.458   1.744   8.569  1.00  0.00     0.163 HD
BRANCH   4   7
ATOM      7  C   UNL     1       2.068   0.352   5.566  1.00  0.00     0.049 A 
ATOM      8  N   UNL     1       2.568  -2.603   3.590  1.00  0.00    -0.338 N 
ATOM      9  C   UNL     1       2.129  -3.234   4.725  1.00  0.00     0.087 A 
ATOM     10  C   UNL     1       2.677  -1.244   3.818  1.00  0.00     0.049 A 
ATOM     11  C   UNL     1       1.888  -2.272   5.674  1.00  0.00     0.029 A 
ATOM     12  C   UNL     1       2.181  -0.993   5.108  1.00  0.00     0.012 A 
ATOM     13  C   UNL     1       3.133  -0.212   2.986  1.00  0.00     0.027 A 
ATOM     14  C   UNL     1       2.927   1.098   3.402  1.00  0.00     0.003 A 
ATOM     15  C   UNL     1       2.353   1.370   4.641  1.00  0.00     0.014 A 
BRANCH   8  16
ATOM     16  C   UNL     1       2.828  -3.306   2.337  1.00  0.00     0.222 C 
BRANCH  16  17
ATOM     17  C   UNL     1       2.323  -2.617   1.080  1.00  0.00     0.242 C 
ATOM     18  O   UNL     1       3.134  -2.326   0.193  1.00  0.00    -0.273 OA
BRANCH  17  19
ATOM     19  N   UNL     1       0.963  -2.359   0.931  1.00  0.00    -0.344 N 
ATOM     20  C   UNL     1      -0.051  -2.713   1.915  1.00  0.00     0.146 C 
BRANCH  19  21
ATOM     21  C   UNL     1       0.537  -1.531  -0.199  1.00  0.00     0.115 C 
ATOM     22  C   UNL     1       0.855  -0.056   0.002  1.00  0.00     0.027 C 
ENDBRANCH  19  21
ENDBRANCH  17  19
ENDBRANCH  16  17
ENDBRANCH   8  16
ENDBRANCH   4   7
ENDBRANCH   2   3
ENDBRANCH   1   2
BRANCH   1  23
ATOM     23  C   UNL     1       0.837   4.647   8.518  1.00  0.00     0.023 C 
BRANCH  23  24
ATOM     24  C   UNL     1       1.927   5.025   9.523  1.00  0.00     0.116 C 
BRANCH  24  25
ATOM     25  N   UNL     1       2.893   5.971   8.995  1.00  0.00    -0.352 N 
ATOM     26  C   UNL     1       2.983   7.335   8.950  1.00  0.00     0.251 C 
ATOM     27  H   UNL     1       3.663   5.528   8.571  1.00  0.00     0.163 HD
ATOM     28  O   UNL     1       4.018   7.793   8.460  1.00  0.00    -0.269 OA
BRANCH  26  29
ATOM     29  C   UNL     1       1.910   8.268   9.377  1.00  0.00     0.039 A 
ATOM     30  C   UNL     1       0.744   7.895  10.043  1.00  0.00     0.014 A 
ATOM     31  C   UNL     1       2.075   9.616   9.008  1.00  0.00     0.014 A 
ATOM     32  C   UNL     1      -0.293   8.796  10.204  1.00  0.00     0.010 A 
ATOM     33  C   UNL     1       1.053  10.536   9.202  1.00  0.00     0.010 A 
ATOM     34  C   UNL     1      -0.156  10.098   9.733  1.00  0.00    -0.014 A 
BRANCH  34  35
ATOM     35  C   UNL     1      -1.327  10.956   9.837  1.00  0.00     0.031 A 
ATOM     36  C   UNL     1      -1.854  11.171  11.217  1.00  0.00     0.074 A 
ATOM     37  C   UNL     1      -1.861  11.548   8.753  1.00  0.00     0.049 A 
ATOM     38  N   UNL     1      -3.037  10.925  11.683  1.00  0.00    -0.248 NA
ATOM     39  C   UNL     1      -0.891  11.618  12.237  1.00  0.00     0.031 C 
ATOM     40  C   UNL     1      -1.330  11.602   7.388  1.00  0.00     0.029 A 
ATOM     41  N   UNL     1      -2.969  12.328   8.680  1.00  0.00    -0.354 N 
ATOM     42  C   UNL     1      -3.021  11.338  13.015  1.00  0.00     0.074 A 
ATOM     43  C   UNL     1      -1.649  11.641  13.333  1.00  0.00     0.031 C 
ATOM     44  C   UNL     1      -1.980  12.565   6.699  1.00  0.00     0.029 A 
ATOM     45  C   UNL     1      -3.045  13.097   7.530  1.00  0.00     0.049 A 
ATOM     46  H   UNL     1      -3.658  12.346   9.383  1.00  0.00     0.167 HD
ATOM     47  C   UNL     1      -4.153  11.556  13.742  1.00  0.00     0.037 A 
ATOM     48  C   UNL     1      -3.863  14.159   7.333  1.00  0.00     0.037 A 
ATOM     49  C   UNL     1      -5.303  10.920  13.163  1.00  0.00     0.049 A 
ATOM     50  C   UNL     1      -4.985  14.036   8.303  1.00  0.00     0.074 A 
ATOM     51  C   UNL     1      -5.667   9.605  12.945  1.00  0.00     0.029 A 
ATOM     52  N   UNL     1      -6.146  11.669  12.379  1.00  0.00    -0.354 N 
ATOM     53  N   UNL     1      -5.885  13.091   8.253  1.00  0.00    -0.248 NA
ATOM     54  C   UNL     1      -4.845  14.687   9.598  1.00  0.00     0.031 C 
ATOM     55  C   UNL     1      -6.355   9.609  11.697  1.00  0.00     0.029 A 
ATOM     56  C   UNL     1      -6.404  10.930  11.249  1.00  0.00     0.049 A 
ATOM     57  H   UNL     1      -6.499  12.564  12.588  1.00  0.00     0.167 HD
ATOM     58  C   UNL     1      -6.129  12.750   9.577  1.00  0.00     0.074 A 
ATOM     59  C   UNL     1      -5.528  13.827  10.360  1.00  0.00     0.031 C 
ATOM     60  C   UNL     1      -6.550  11.497   9.926  1.00  0.00     0.037 A 
BRANCH  47  61
ATOM     61  C   UNL     1      -4.238  12.564  14.858  1.00  0.00     0.058 A 
ATOM     62  C   UNL     1      -5.287  12.521  15.795  1.00  0.00     0.135 A 
ATOM     63  C   UNL     1      -3.434  13.726  14.891  1.00  0.00     0.135 A 
ATOM     64  F   UNL     1      -6.130  11.477  15.831  1.00  0.00    -0.206 F 
ATOM     65  C   UNL     1      -5.535  13.573  16.684  1.00  0.00     0.059 A 
ATOM     66  C   UNL     1      -3.628  14.758  15.800  1.00  0.00     0.059 A 
ATOM     67  F   UNL     1      -2.478  13.945  13.978  1.00  0.00    -0.206 F 
ATOM     68  C   UNL     1      -4.704  14.691  16.670  1.00  0.00     0.060 A 
BRANCH  68  69
ATOM     69  S   UNL     1      -5.079  16.092  17.741  1.00  0.00     0.124 S 
ATOM     70  O   UNL     1      -6.316  16.589  17.149  1.00  0.00    -0.237 OA
ATOM     71  O   UNL     1      -5.206  15.452  19.046  1.00  0.00    -0.237 OA
ATOM     72  O   UNL     1      -3.913  16.958  17.585  1.00  0.00    -0.744 OA
ENDBRANCH  68  69
ENDBRANCH  47  61
BRANCH  48  73
ATOM     73  C   UNL     1      -3.511  15.425   6.638  1.00  0.00     0.058 A 
ATOM     74  C   UNL     1      -4.495  16.369   6.297  1.00  0.00     0.135 A 
ATOM     75  C   UNL     1      -2.172  15.856   6.519  1.00  0.00     0.135 A 
ATOM     76  F   UNL     1      -5.795  16.057   6.409  1.00  0.00    -0.206 F 
ATOM     77  C   UNL     1      -4.171  17.672   5.901  1.00  0.00     0.059 A 
ATOM     78  C   UNL     1      -1.825  17.140   6.110  1.00  0.00     0.059 A 
ATOM     79  F   UNL     1      -1.150  15.070   6.888  1.00  0.00    -0.206 F 
ATOM     80  C   UNL     1      -2.831  18.053   5.828  1.00  0.00     0.060 A 
BRANCH  80  81
ATOM     81  S   UNL     1      -2.411  19.777   5.487  1.00  0.00     0.124 S 
ATOM     82  O   UNL     1      -2.857  19.930   4.106  1.00  0.00    -0.237 OA
ATOM     83  O   UNL     1      -3.193  20.486   6.494  1.00  0.00    -0.237 OA
ATOM     84  O   UNL     1      -0.964  19.820   5.683  1.00  0.00    -0.744 OA
ENDBRANCH  80  81
ENDBRANCH  48  73
BRANCH  60  85
ATOM     85  C   UNL     1      -6.942  10.556   8.810  1.00  0.00     0.058 A 
ATOM     86  C   UNL     1      -6.040  10.096   7.832  1.00  0.00     0.135 A 
ATOM     87  C   UNL     1      -8.227   9.997   8.797  1.00  0.00     0.135 A 
ATOM     88  F   UNL     1      -4.757  10.474   7.850  1.00  0.00    -0.206 F 
ATOM     89  C   UNL     1      -6.414   9.183   6.846  1.00  0.00     0.059 A 
ATOM     90  C   UNL     1      -8.615   9.055   7.842  1.00  0.00     0.059 A 
ATOM     91  F   UNL     1      -9.114  10.329   9.749  1.00  0.00    -0.206 F 
ATOM     92  C   UNL     1      -7.708   8.670   6.855  1.00  0.00     0.060 A 
BRANCH  92  93
ATOM     93  S   UNL     1      -8.174   7.446   5.612  1.00  0.00     0.124 S 
ATOM     94  O   UNL     1      -8.273   8.261   4.402  1.00  0.00    -0.237 OA
ATOM     95  O   UNL     1      -7.046   6.512   5.648  1.00  0.00    -0.237 OA
ATOM     96  O   UNL     1      -9.430   6.910   6.109  1.00  0.00    -0.744 OA
ENDBRANCH  92  93
ENDBRANCH  60  85
ENDBRANCH  34  35
ENDBRANCH  26  29
ENDBRANCH  24  25
ENDBRANCH  23  24
ENDBRANCH   1  23
TORSDOF 18
