REMARK SMILES NS(=O)(=O)c1ccc(-n2nc(NC(=O)NCCCCCCCCCCC(=O)NCCCCNC(=O)c3ccc(-c4c5nc(c(-c6c(F)cc(S(=O)(=O)[O-])cc6F)c6ccc([nH]6)c(-c6c(F)cc(S(=O)(=O)[O-])cc6F)c6nc(c(-c7c(F)cc(S(=O)(=O)[O-])cc7F)c7ccc4[nH]7)C=C6)C=C5)cc3)cc2-c2ccccc2)cc1
REMARK SMILES IDX 23 1 22 2 21 3 20 4 19 5 18 6 17 7 16 8 15 9 12 10 13 11
REMARK SMILES IDX 14 13 11 15 9 16 10 17 103 18 102 19 8 20 5 21 6 22 111 23
REMARK SMILES IDX 7 24 110 25 2 26 3 27 4 28 1 29 104 32 105 33 109 34 106 35
REMARK SMILES IDX 108 36 107 37 24 38 25 39 26 40 27 41 28 42 29 44 30 45
REMARK SMILES IDX 31 46 32 47 33 48 34 49 35 51 36 52 37 53 101 54 38 55
REMARK SMILES IDX 100 56 39 57 40 58 41 59 94 60 42 61 99 62 93 63 95 64 43 65
REMARK SMILES IDX 98 66 92 67 91 68 44 70 78 71 57 72 77 73 58 74 61 75 76 76
REMARK SMILES IDX 96 77 59 78 60 79 75 81 97 82 62 83 45 84 46 85 55 86 47 87
REMARK SMILES IDX 48 88 54 89 56 90 49 91 50 92 51 93 52 94 53 95 79 96 80 97
REMARK SMILES IDX 89 98 81 99 82 100 88 101 90 102 83 103 84 104 85 105 86 106
REMARK SMILES IDX 87 107 63 108 64 109 73 110 65 111 66 112 72 113 74 114
REMARK SMILES IDX 67 115 68 116 69 117 70 118 71 119
REMARK H PARENT 12 12 15 14 1 30 1 31 28 43 33 50 95 69 61 80
REMARK Flexibility Score: inf
ROOT
ATOM      1  C   UNL     1      -3.421   4.550   1.476  1.00  0.00     0.001 C 
ENDROOT
BRANCH   1   2
ATOM      2  C   UNL     1      -3.640   3.646   2.694  1.00  0.00     0.000 C 
BRANCH   2   3
ATOM      3  C   UNL     1      -2.356   3.325   3.431  1.00  0.00     0.000 C 
BRANCH   3   4
ATOM      4  C   UNL     1      -1.707   4.536   4.088  1.00  0.00     0.000 C 
BRANCH   4   5
ATOM      5  C   UNL     1      -2.543   5.284   5.131  1.00  0.00     0.000 C 
BRANCH   5   6
ATOM      6  C   UNL     1      -3.069   4.453   6.306  1.00  0.00     0.002 C 
BRANCH   6   7
ATOM      7  C   UNL     1      -2.071   3.514   6.982  1.00  0.00     0.021 C 
BRANCH   7   8
ATOM      8  C   UNL     1      -0.693   4.087   7.272  1.00  0.00     0.117 C 
BRANCH   8   9
ATOM      9  N   UNL     1      -0.585   4.980   8.396  1.00  0.00    -0.338 N 
ATOM     10  N   UNL     1       1.696   4.631   8.996  1.00  0.00    -0.291 N 
ATOM     11  C   UNL     1       0.491   5.222   9.179  1.00  0.00     0.320 C 
ATOM     12  H   UNL     1       2.253   4.606   9.807  1.00  0.00     0.173 HD
ATOM     13  O   UNL     1       0.331   5.925  10.182  1.00  0.00    -0.248 OA
ATOM     14  H   UNL     1      -1.402   5.480   8.624  1.00  0.00     0.165 HD
BRANCH  10  15
ATOM     15  C   UNL     1       2.292   4.059   7.893  1.00  0.00     0.157 A 
ATOM     16  N   UNL     1       2.554   3.307   5.929  1.00  0.00    -0.231 N 
ATOM     17  N   UNL     1       2.005   4.330   6.617  1.00  0.00    -0.149 NA
ATOM     18  C   UNL     1       3.556   2.689   6.666  1.00  0.00     0.076 A 
ATOM     19  C   UNL     1       3.357   3.126   7.963  1.00  0.00     0.078 A 
BRANCH  16  20
ATOM     20  C   UNL     1       2.055   2.937   4.650  1.00  0.00     0.065 A 
ATOM     21  C   UNL     1       1.119   2.200   2.128  1.00  0.00     0.082 A 
ATOM     22  C   UNL     1       1.434   1.210   3.059  1.00  0.00     0.024 A 
ATOM     23  C   UNL     1       1.252   3.556   2.456  1.00  0.00     0.024 A 
ATOM     24  C   UNL     1       1.914   1.579   4.317  1.00  0.00     0.030 A 
ATOM     25  C   UNL     1       1.695   3.927   3.730  1.00  0.00     0.030 A 
BRANCH  21  26
ATOM     26  S   UNL     1       0.573   1.765   0.503  1.00  0.00     0.238 S 
ATOM     27  O   UNL     1       1.158   2.681  -0.440  1.00  0.00    -0.207 OA
ATOM     28  O   UNL     1      -0.845   1.480   0.556  1.00  0.00    -0.207 OA
BRANCH  26  29
ATOM     29  N   UNL     1       1.321   0.288   0.199  1.00  0.00    -0.225 NA
ATOM     30  H   UNL     1       1.058  -0.041  -0.730  1.00  0.00     0.137 HD
ATOM     31  H   UNL     1       1.024  -0.393   0.897  1.00  0.00     0.137 HD
ENDBRANCH  26  29
ENDBRANCH  21  26
ENDBRANCH  16  20
BRANCH  18  32
ATOM     32  C   UNL     1       4.562   1.815   6.070  1.00  0.00     0.000 A 
ATOM     33  C   UNL     1       5.233   2.239   4.910  1.00  0.00     0.010 A 
ATOM     34  C   UNL     1       4.819   0.542   6.580  1.00  0.00     0.010 A 
ATOM     35  C   UNL     1       6.109   1.387   4.242  1.00  0.00     0.001 A 
ATOM     36  C   UNL     1       5.705  -0.309   5.913  1.00  0.00     0.001 A 
ATOM     37  C   UNL     1       6.340   0.110   4.742  1.00  0.00     0.000 A 
ENDBRANCH  18  32
ENDBRANCH  10  15
ENDBRANCH   8   9
ENDBRANCH   7   8
ENDBRANCH   6   7
ENDBRANCH   5   6
ENDBRANCH   4   5
ENDBRANCH   3   4
ENDBRANCH   2   3
ENDBRANCH   1   2
BRANCH   1  38
ATOM     38  C   UNL     1      -3.662   3.882   0.127  1.00  0.00     0.010 C 
BRANCH  38  39
ATOM     39  C   UNL     1      -5.015   3.196  -0.057  1.00  0.00     0.100 C 
BRANCH  39  40
ATOM     40  C   UNL     1      -6.139   4.126  -0.471  1.00  0.00     0.219 C 
ATOM     41  O   UNL     1      -6.377   4.318  -1.665  1.00  0.00    -0.275 OA
ATOM     42  N   UNL     1      -6.920   4.767   0.443  1.00  0.00    -0.356 N 
ATOM     43  H   UNL     1      -7.652   5.295   0.050  1.00  0.00     0.163 HD
BRANCH  42  44
ATOM     44  C   UNL     1      -6.866   4.809   1.894  1.00  0.00     0.116 C 
BRANCH  44  45
ATOM     45  C   UNL     1      -6.389   6.178   2.411  1.00  0.00     0.023 C 
BRANCH  45  46
ATOM     46  C   UNL     1      -7.441   7.287   2.489  1.00  0.00     0.023 C 
BRANCH  46  47
ATOM     47  C   UNL     1      -8.494   7.092   3.568  1.00  0.00     0.116 C 
BRANCH  47  48
ATOM     48  N   UNL     1      -7.952   7.157   4.925  1.00  0.00    -0.352 N 
ATOM     49  C   UNL     1      -8.613   6.815   6.091  1.00  0.00     0.251 C 
ATOM     50  H   UNL     1      -7.025   7.474   5.018  1.00  0.00     0.163 HD
ATOM     51  O   UNL     1      -8.273   7.269   7.177  1.00  0.00    -0.269 OA
BRANCH  49  52
ATOM     52  C   UNL     1      -9.743   5.879   5.981  1.00  0.00     0.039 A 
ATOM     53  C   UNL     1     -10.989   6.179   6.532  1.00  0.00     0.014 A 
ATOM     54  C   UNL     1      -9.550   4.742   5.197  1.00  0.00     0.014 A 
ATOM     55  C   UNL     1     -12.073   5.373   6.197  1.00  0.00     0.010 A 
ATOM     56  C   UNL     1     -10.643   4.028   4.767  1.00  0.00     0.010 A 
ATOM     57  C   UNL     1     -11.905   4.319   5.280  1.00  0.00    -0.014 A 
BRANCH  57  58
ATOM     58  C   UNL     1     -13.074   3.624   4.742  1.00  0.00     0.031 A 
ATOM     59  C   UNL     1     -14.151   4.518   4.228  1.00  0.00     0.074 A 
ATOM     60  C   UNL     1     -13.130   2.290   4.535  1.00  0.00     0.049 A 
ATOM     61  N   UNL     1     -15.313   4.718   4.755  1.00  0.00    -0.248 NA
ATOM     62  C   UNL     1     -13.858   5.408   3.092  1.00  0.00     0.031 C 
ATOM     63  C   UNL     1     -12.068   1.294   4.707  1.00  0.00     0.029 A 
ATOM     64  N   UNL     1     -14.147   1.548   4.018  1.00  0.00    -0.354 N 
ATOM     65  C   UNL     1     -15.993   5.567   3.885  1.00  0.00     0.074 A 
ATOM     66  C   UNL     1     -14.992   6.110   3.004  1.00  0.00     0.031 C 
ATOM     67  C   UNL     1     -12.414   0.150   4.077  1.00  0.00     0.029 A 
ATOM     68  C   UNL     1     -13.780   0.272   3.603  1.00  0.00     0.049 A 
ATOM     69  H   UNL     1     -15.068   1.887   3.942  1.00  0.00     0.167 HD
ATOM     70  C   UNL     1     -17.355   5.554   3.816  1.00  0.00     0.037 A 
ATOM     71  C   UNL     1     -14.535  -0.613   2.901  1.00  0.00     0.037 A 
ATOM     72  C   UNL     1     -17.923   4.871   4.956  1.00  0.00     0.049 A 
ATOM     73  C   UNL     1     -15.956  -0.229   3.119  1.00  0.00     0.074 A 
ATOM     74  C   UNL     1     -17.812   5.021   6.326  1.00  0.00     0.029 A 
ATOM     75  N   UNL     1     -18.423   3.604   4.764  1.00  0.00    -0.354 N 
ATOM     76  N   UNL     1     -16.558  -0.319   4.275  1.00  0.00    -0.248 NA
ATOM     77  C   UNL     1     -16.558   0.706   2.179  1.00  0.00     0.031 C 
ATOM     78  C   UNL     1     -17.739   3.690   6.833  1.00  0.00     0.029 A 
ATOM     79  C   UNL     1     -17.906   2.814   5.760  1.00  0.00     0.049 A 
ATOM     80  H   UNL     1     -19.036   3.318   4.049  1.00  0.00     0.167 HD
ATOM     81  C   UNL     1     -17.305   0.846   4.376  1.00  0.00     0.074 A 
ATOM     82  C   UNL     1     -17.336   1.393   3.020  1.00  0.00     0.031 C 
ATOM     83  C   UNL     1     -17.582   1.415   5.588  1.00  0.00     0.037 A 
BRANCH  70  84
ATOM     84  C   UNL     1     -18.159   5.806   2.558  1.00  0.00     0.058 A 
ATOM     85  C   UNL     1     -19.568   5.864   2.646  1.00  0.00     0.135 A 
ATOM     86  C   UNL     1     -17.640   5.696   1.250  1.00  0.00     0.135 A 
ATOM     87  F   UNL     1     -20.176   5.976   3.838  1.00  0.00    -0.206 F 
ATOM     88  C   UNL     1     -20.395   5.721   1.531  1.00  0.00     0.059 A 
ATOM     89  C   UNL     1     -18.446   5.607   0.120  1.00  0.00     0.059 A 
ATOM     90  F   UNL     1     -16.331   5.568   1.004  1.00  0.00    -0.206 F 
ATOM     91  C   UNL     1     -19.821   5.573   0.274  1.00  0.00     0.060 A 
BRANCH  91  92
ATOM     92  S   UNL     1     -20.880   5.278  -1.152  1.00  0.00     0.124 S 
ATOM     93  O   UNL     1     -21.370   3.933  -0.874  1.00  0.00    -0.237 OA
ATOM     94  O   UNL     1     -21.857   6.354  -1.029  1.00  0.00    -0.237 OA
ATOM     95  O   UNL     1     -19.962   5.397  -2.281  1.00  0.00    -0.744 OA
ENDBRANCH  91  92
ENDBRANCH  70  84
BRANCH  71  96
ATOM     96  C   UNL     1     -14.094  -1.547   1.826  1.00  0.00     0.058 A 
ATOM     97  C   UNL     1     -14.976  -2.497   1.276  1.00  0.00     0.135 A 
ATOM     98  C   UNL     1     -12.889  -1.349   1.119  1.00  0.00     0.135 A 
ATOM     99  F   UNL     1     -16.153  -2.748   1.870  1.00  0.00    -0.206 F 
ATOM    100  C   UNL     1     -14.710  -3.159   0.070  1.00  0.00     0.059 A 
ATOM    101  C   UNL     1     -12.597  -2.005  -0.076  1.00  0.00     0.059 A 
ATOM    102  F   UNL     1     -11.991  -0.436   1.516  1.00  0.00    -0.206 F 
ATOM    103  C   UNL     1     -13.525  -2.886  -0.612  1.00  0.00     0.060 A 
BRANCH 103 104
ATOM    104  S   UNL     1     -13.260  -3.580  -2.263  1.00  0.00     0.124 S 
ATOM    105  O   UNL     1     -13.048  -4.993  -1.967  1.00  0.00    -0.237 OA
ATOM    106  O   UNL     1     -14.509  -3.250  -2.941  1.00  0.00    -0.237 OA
ATOM    107  O   UNL     1     -12.084  -2.861  -2.747  1.00  0.00    -0.744 OA
ENDBRANCH 103 104
ENDBRANCH  71  96
BRANCH  83 108
ATOM    108  C   UNL     1     -17.328   0.622   6.846  1.00  0.00     0.058 A 
ATOM    109  C   UNL     1     -16.073   0.128   7.247  1.00  0.00     0.135 A 
ATOM    110  C   UNL     1     -18.382   0.496   7.766  1.00  0.00     0.135 A 
ATOM    111  F   UNL     1     -14.984   0.303   6.487  1.00  0.00    -0.206 F 
ATOM    112  C   UNL     1     -15.889  -0.505   8.479  1.00  0.00     0.059 A 
ATOM    113  C   UNL     1     -18.214  -0.099   9.013  1.00  0.00     0.059 A 
ATOM    114  F   UNL     1     -19.593   1.002   7.475  1.00  0.00    -0.206 F 
ATOM    115  C   UNL     1     -16.968  -0.614   9.357  1.00  0.00     0.060 A 
BRANCH 115 116
ATOM    116  S   UNL     1     -16.717  -1.382  10.971  1.00  0.00     0.124 S 
ATOM    117  O   UNL     1     -16.534  -2.785  10.618  1.00  0.00    -0.237 OA
ATOM    118  O   UNL     1     -15.530  -0.694  11.471  1.00  0.00    -0.237 OA
ATOM    119  O   UNL     1     -17.951  -1.076  11.691  1.00  0.00    -0.744 OA
ENDBRANCH 115 116
ENDBRANCH  83 108
ENDBRANCH  57  58
ENDBRANCH  49  52
ENDBRANCH  47  48
ENDBRANCH  46  47
ENDBRANCH  45  46
ENDBRANCH  44  45
ENDBRANCH  42  44
ENDBRANCH  39  40
ENDBRANCH  38  39
ENDBRANCH   1  38
TORSDOF 29
