REMARK SMILES O=C(CC[P@TB4](=O)(O)C[NH+]1CCCCC1)NCCCCNC(=O)c1ccc(-c2c3nc(c(-c4c(F)cc(S(=O)(=O)[O-])cc4F)c4ccc([nH]4)c(-c4c(F)cc(S(=O)(=O)[O-])cc4F)c4nc(c(-c5c(F)cc(S(=O)(=O)[O-])cc5F)c5ccc2[nH]5)C=C4)C=C3)cc1
REMARK SMILES IDX 17 1 16 2 15 3 1 4 2 5 3 7 4 8 5 9 6 10 7 11 8 13 9 14 10 15
REMARK SMILES IDX 14 16 11 18 13 19 12 20 18 21 19 22 20 23 21 24 22 26 23 27
REMARK SMILES IDX 24 28 88 29 25 30 87 31 26 32 27 33 28 34 81 35 29 36 86 37
REMARK SMILES IDX 80 38 82 39 30 40 85 41 79 42 78 43 31 45 65 46 44 47 64 48
REMARK SMILES IDX 45 49 48 50 63 51 83 52 46 53 47 54 62 56 84 57 49 58 32 59
REMARK SMILES IDX 33 60 42 61 34 62 35 63 41 64 43 65 36 66 37 67 38 68 39 69
REMARK SMILES IDX 40 70 66 71 67 72 76 73 68 74 69 75 75 76 77 77 70 78 71 79
REMARK SMILES IDX 72 80 73 81 74 82 50 83 51 84 60 85 52 86 53 87 59 88 61 89
REMARK SMILES IDX 54 90 55 91 56 92 57 93 58 94
REMARK H PARENT 15 6 7 12 9 17 20 25 82 44 48 55
REMARK Flexibility Score: inf
ROOT
ATOM      1  C   UNL     1       2.321   0.010  -3.546  1.00  0.00       nan C 
ENDROOT
BRANCH   1   2
ATOM      2  C   UNL     1       2.034  -0.667  -2.205  1.00  0.00       nan C 
BRANCH   2   3
ATOM      3  N   UNL     1       2.703  -0.031  -1.082  1.00  0.00       nan N 
ATOM      4  O   UNL     1       1.071  -0.578   0.441  1.00  0.00       nan OA
ATOM      5  C   UNL     1       2.167  -0.089   0.189  1.00  0.00       nan C 
ATOM      6  H   UNL     1       3.551   0.447  -1.229  1.00  0.00       nan HD
BRANCH   5   7
ATOM      7  C   UNL     1       3.066   0.451   1.281  1.00  0.00       nan C 
BRANCH   7   8
ATOM      8  C   UNL     1       3.956  -0.666   1.831  1.00  0.00       nan C 
BRANCH   8   9
ATOM      9  P   UNL     1       5.145  -1.157   0.530  1.00  0.00       nan P 
ATOM     10  O   UNL     1       6.258  -1.132   1.591  1.00  0.00       nan OA
BRANCH   9  11
ATOM     11  O   UNL     1       4.594  -2.712   0.609  1.00  0.00       nan OA
ATOM     12  H   UNL     1       3.891  -2.773   1.276  1.00  0.00       nan HD
ENDBRANCH   9  11
BRANCH   9  13
ATOM     13  C   UNL     1       6.334  -1.647  -0.772  1.00  0.00       nan C 
BRANCH  13  14
ATOM     14  N   UNL     1       7.213  -0.488  -1.105  1.00  0.00       nan N 
ATOM     15  C   UNL     1       7.905  -0.720  -2.382  1.00  0.00       nan C 
ATOM     16  C   UNL     1       6.597   0.839  -1.042  1.00  0.00       nan C 
ATOM     17  H   UNL     1       7.893  -0.453  -0.345  1.00  0.00       nan HD
ATOM     18  C   UNL     1       8.895   0.388  -2.748  1.00  0.00       nan C 
ATOM     19  C   UNL     1       7.572   1.972  -1.367  1.00  0.00       nan C 
ATOM     20  C   UNL     1       8.232   1.759  -2.718  1.00  0.00       nan C 
ENDBRANCH  13  14
ENDBRANCH   9  13
ENDBRANCH   8   9
ENDBRANCH   7   8
ENDBRANCH   5   7
ENDBRANCH   2   3
ENDBRANCH   1   2
BRANCH   1  21
ATOM     21  C   UNL     1       3.774  -0.041  -4.021  1.00  0.00       nan C 
BRANCH  21  22
ATOM     22  C   UNL     1       4.354  -1.435  -4.235  1.00  0.00       nan C 
BRANCH  22  23
ATOM     23  N   UNL     1       3.839  -2.090  -5.421  1.00  0.00       nan N 
ATOM     24  C   UNL     1       4.523  -2.602  -6.499  1.00  0.00       nan C 
ATOM     25  H   UNL     1       2.860  -2.182  -5.461  1.00  0.00       nan HD
ATOM     26  O   UNL     1       3.891  -2.977  -7.487  1.00  0.00       nan OA
BRANCH  24  27
ATOM     27  C   UNL     1       6.006  -2.677  -6.503  1.00  0.00       nan A 
ATOM     28  C   UNL     1       6.691  -2.309  -7.666  1.00  0.00       inf A 
ATOM     29  C   UNL     1       6.729  -3.130  -5.394  1.00  0.00       inf A 
ATOM     30  C   UNL     1       8.090  -2.338  -7.697  1.00  0.00     0.010 A 
ATOM     31  C   UNL     1       8.127  -3.091  -5.403  1.00  0.00     0.010 A 
ATOM     32  C   UNL     1       8.825  -2.696  -6.554  1.00  0.00    -0.014 A 
BRANCH  32  33
ATOM     33  C   UNL     1      10.316  -2.654  -6.556  1.00  0.00     0.031 A 
ATOM     34  C   UNL     1      11.121  -3.913  -6.354  1.00  0.00     0.074 A 
ATOM     35  C   UNL     1      10.954  -1.474  -6.699  1.00  0.00     0.049 A 
ATOM     36  N   UNL     1      12.420  -4.062  -6.284  1.00  0.00    -0.248 NA
ATOM     37  C   UNL     1      10.367  -5.166  -6.189  1.00  0.00     0.031 C 
ATOM     38  C   UNL     1      10.300  -0.175  -6.868  1.00  0.00     0.029 A 
ATOM     39  N   UNL     1      12.294  -1.171  -6.720  1.00  0.00    -0.354 N 
ATOM     40  C   UNL     1      12.638  -5.417  -6.057  1.00  0.00     0.074 A 
ATOM     41  C   UNL     1      11.335  -6.038  -5.949  1.00  0.00     0.031 C 
ATOM     42  C   UNL     1      11.237   0.778  -6.998  1.00  0.00     0.029 A 
ATOM     43  C   UNL     1      12.559   0.169  -6.880  1.00  0.00     0.049 A 
ATOM     44  H   UNL     1      13.001  -1.851  -6.628  1.00  0.00     0.167 HD
ATOM     45  C   UNL     1      13.813  -6.087  -5.967  1.00  0.00     0.037 A 
ATOM     46  C   UNL     1      13.729   0.839  -6.919  1.00  0.00     0.037 A 
ATOM     47  C   UNL     1      15.110  -5.471  -6.093  1.00  0.00     0.049 A 
ATOM     48  C   UNL     1      15.021   0.075  -6.797  1.00  0.00     0.074 A 
ATOM     49  C   UNL     1      16.355  -6.077  -6.072  1.00  0.00     0.029 A 
ATOM     50  N   UNL     1      15.333  -4.112  -6.257  1.00  0.00    -0.354 N 
ATOM     51  N   UNL     1      15.206  -1.215  -6.647  1.00  0.00    -0.248 NA
ATOM     52  C   UNL     1      16.264   0.857  -6.854  1.00  0.00     0.031 C 
ATOM     53  C   UNL     1      17.331  -5.079  -6.165  1.00  0.00     0.029 A 
ATOM     54  C   UNL     1      16.695  -3.857  -6.309  1.00  0.00     0.049 A 
ATOM     55  H   UNL     1      14.628  -3.428  -6.325  1.00  0.00     0.167 HD
ATOM     56  C   UNL     1      16.584  -1.402  -6.623  1.00  0.00     0.074 A 
ATOM     57  C   UNL     1      17.186  -0.095  -6.786  1.00  0.00     0.031 C 
ATOM     58  C   UNL     1      17.287  -2.553  -6.480  1.00  0.00     0.037 A 
BRANCH  45  59
ATOM     59  C   UNL     1      13.757  -7.572  -5.717  1.00  0.00     0.058 A 
ATOM     60  C   UNL     1      13.292  -8.470  -6.693  1.00  0.00     0.135 A 
ATOM     61  C   UNL     1      14.218  -8.110  -4.504  1.00  0.00     0.135 A 
ATOM     62  F   UNL     1      12.828  -8.012  -7.867  1.00  0.00    -0.206 F 
ATOM     63  C   UNL     1      13.255  -9.841  -6.463  1.00  0.00     0.059 A 
ATOM     64  C   UNL     1      14.220  -9.482  -4.264  1.00  0.00     0.059 A 
ATOM     65  F   UNL     1      14.678  -7.301  -3.537  1.00  0.00    -0.206 F 
ATOM     66  C   UNL     1      13.722 -10.338  -5.245  1.00  0.00     0.060 A 
BRANCH  66  67
ATOM     67  S   UNL     1      13.670 -12.121  -4.966  1.00  0.00     0.124 S 
ATOM     68  O   UNL     1      12.236 -12.349  -4.811  1.00  0.00    -0.237 OA
ATOM     69  O   UNL     1      14.266 -12.645  -6.190  1.00  0.00    -0.237 OA
ATOM     70  O   UNL     1      14.467 -12.301  -3.757  1.00  0.00    -0.744 OA
ENDBRANCH  66  67
ENDBRANCH  45  59
BRANCH  46  71
ATOM     71  C   UNL     1      13.735   2.317  -7.096  1.00  0.00     0.058 A 
ATOM     72  C   UNL     1      14.212   2.904  -8.277  1.00  0.00     0.135 A 
ATOM     73  C   UNL     1      13.259   3.173  -6.089  1.00  0.00     0.135 A 
ATOM     74  F   UNL     1      14.686   2.130  -9.266  1.00  0.00    -0.206 F 
ATOM     75  C   UNL     1      14.235   4.284  -8.450  1.00  0.00     0.059 A 
ATOM     76  C   UNL     1      13.245   4.555  -6.250  1.00  0.00     0.059 A 
ATOM     77  F   UNL     1      12.776   2.663  -4.945  1.00  0.00    -0.206 F 
ATOM     78  C   UNL     1      13.744   5.102  -7.430  1.00  0.00     0.060 A 
BRANCH  78  79
ATOM     79  S   UNL     1      13.730   6.890  -7.685  1.00  0.00     0.124 S 
ATOM     80  O   UNL     1      15.149   7.212  -7.593  1.00  0.00    -0.237 OA
ATOM     81  O   UNL     1      13.134   7.004  -9.012  1.00  0.00    -0.237 OA
ATOM     82  O   UNL     1      12.899   7.378  -6.589  1.00  0.00    -0.744 OA
ENDBRANCH  78  79
ENDBRANCH  46  71
BRANCH  58  83
ATOM     83  C   UNL     1      18.789  -2.466  -6.534  1.00  0.00     0.058 A 
ATOM     84  C   UNL     1      19.538  -1.892  -5.494  1.00  0.00     0.135 A 
ATOM     85  C   UNL     1      19.494  -3.012  -7.620  1.00  0.00     0.135 A 
ATOM     86  F   UNL     1      18.917  -1.348  -4.434  1.00  0.00    -0.206 F 
ATOM     87  C   UNL     1      20.928  -1.841  -5.539  1.00  0.00     0.059 A 
ATOM     88  C   UNL     1      20.884  -3.000  -7.672  1.00  0.00     0.059 A 
ATOM     89  F   UNL     1      18.830  -3.582  -8.638  1.00  0.00    -0.206 F 
ATOM     90  C   UNL     1      21.593  -2.401  -6.632  1.00  0.00     0.060 A 
BRANCH  90  91
ATOM     91  S   UNL     1      23.397  -2.359  -6.662  1.00  0.00     0.124 S 
ATOM     92  O   UNL     1      23.654  -0.948  -6.929  1.00  0.00    -0.237 OA
ATOM     93  O   UNL     1      23.742  -2.824  -5.322  1.00  0.00    -0.237 OA
ATOM     94  O   UNL     1      23.742  -3.275  -7.745  1.00  0.00    -0.744 OA
ENDBRANCH  90  91
ENDBRANCH  58  83
ENDBRANCH  32  33
ENDBRANCH  24  27
ENDBRANCH  22  23
ENDBRANCH  21  22
ENDBRANCH   1  21
TORSDOF 19
