REMARK SMILES C[C@@H](O)[C@@H](NC(=O)CN(C)C(=O)c1cccs1)C(=O)NCCCCNC(=O)c1ccc(-c2c3nc(c(-c4c(F)cc(S(=O)(=O)[O-])cc4F)c4ccc([nH]4)c(-c4c(F)cc(S(=O)(=O)[O-])cc4F)c4nc(c(-c5c(F)cc(S(=O)(=O)[O-])cc5F)c5ccc2[nH]5)C=C4)C=C3)cc1
REMARK SMILES IDX 21 1 20 2 18 3 19 4 4 6 2 7 1 8 3 9 5 11 6 12 7 14 8 15 9 16
REMARK SMILES IDX 10 17 11 18 12 19 13 20 14 21 17 22 15 23 16 24 22 25 23 26
REMARK SMILES IDX 24 27 25 28 26 29 27 31 28 32 29 33 93 34 30 35 92 36 31 37
REMARK SMILES IDX 32 38 33 39 86 40 34 41 91 42 85 43 87 44 35 45 90 46 84 47
REMARK SMILES IDX 83 48 36 50 70 51 49 52 69 53 50 54 53 55 68 56 88 57 51 58
REMARK SMILES IDX 52 59 67 61 89 62 54 63 37 64 38 65 47 66 39 67 40 68 46 69
REMARK SMILES IDX 48 70 41 71 42 72 43 73 44 74 45 75 71 76 72 77 81 78 73 79
REMARK SMILES IDX 74 80 80 81 82 82 75 83 76 84 77 85 78 86 79 87 55 88 56 89
REMARK SMILES IDX 65 90 57 91 58 92 64 93 66 94 59 95 60 96 61 97 62 98 63 99
REMARK H PARENT 20 5 3 10 5 13 25 30 87 49 53 60
REMARK Flexibility Score: inf
ROOT
ATOM      1  C   UNL     1       0.619   2.359  -3.221  1.00  0.00     0.116 C 
ENDROOT
BRANCH   1   2
ATOM      2  N   UNL     1      -0.586   1.553  -3.293  1.00  0.00    -0.354 N 
ATOM      3  C   UNL     1      -1.306   0.938  -2.296  1.00  0.00     0.245 C 
ATOM      4  O   UNL     1      -2.453   0.587  -2.606  1.00  0.00    -0.273 OA
ATOM      5  H   UNL     1      -0.945   1.427  -4.201  1.00  0.00     0.163 HD
BRANCH   3   6
ATOM      6  C   UNL     1      -0.801   0.704  -0.830  1.00  0.00     0.200 C 
BRANCH   6   7
ATOM      7  C   UNL     1       0.664   0.208  -0.657  1.00  0.00     0.143 C 
ATOM      8  C   UNL     1       0.944  -0.355   0.746  1.00  0.00     0.041 C 
BRANCH   7   9
ATOM      9  O   UNL     1       0.941  -0.895  -1.534  1.00  0.00    -0.391 OA
ATOM     10  H   UNL     1       0.369  -1.643  -1.303  1.00  0.00     0.211 HD
ENDBRANCH   7   9
ENDBRANCH   6   7
BRANCH   6  11
ATOM     11  N   UNL     1      -1.336   1.448   0.338  1.00  0.00    -0.341 N 
ATOM     12  C   UNL     1      -1.749   2.688   0.688  1.00  0.00     0.240 C 
ATOM     13  H   UNL     1      -1.415   0.842   1.110  1.00  0.00     0.164 HD
ATOM     14  O   UNL     1      -2.031   2.826   1.886  1.00  0.00    -0.273 OA
BRANCH  12  15
ATOM     15  C   UNL     1      -2.170   3.758  -0.298  1.00  0.00     0.219 C 
BRANCH  15  16
ATOM     16  N   UNL     1      -1.211   4.108  -1.334  1.00  0.00    -0.332 N 
ATOM     17  C   UNL     1      -1.902   4.098  -2.629  1.00  0.00     0.147 C 
BRANCH  16  18
ATOM     18  C   UNL     1      -0.036   4.808  -0.821  1.00  0.00     0.264 C 
ATOM     19  O   UNL     1      -0.139   5.208   0.345  1.00  0.00    -0.268 OA
BRANCH  18  20
ATOM     20  C   UNL     1       1.325   4.923  -1.449  1.00  0.00     0.092 A 
ATOM     21  C   UNL     1       1.935   5.654  -2.466  1.00  0.00     0.025 A 
ATOM     22  S   UNL     1       2.621   4.156  -0.549  1.00  0.00    -0.139 S 
ATOM     23  C   UNL     1       3.355   5.555  -2.559  1.00  0.00     0.012 A 
ATOM     24  C   UNL     1       3.856   4.773  -1.558  1.00  0.00     0.065 A 
ENDBRANCH  18  20
ENDBRANCH  16  18
ENDBRANCH  15  16
ENDBRANCH  12  15
ENDBRANCH   6  11
ENDBRANCH   3   6
ENDBRANCH   1   2
BRANCH   1  25
ATOM     25  C   UNL     1       0.918   3.400  -4.363  1.00  0.00     0.023 C 
BRANCH  25  26
ATOM     26  C   UNL     1       0.142   4.644  -5.003  1.00  0.00     0.023 C 
BRANCH  26  27
ATOM     27  C   UNL     1      -0.621   5.997  -4.572  1.00  0.00     0.116 C 
BRANCH  27  28
ATOM     28  N   UNL     1      -0.588   6.649  -3.249  1.00  0.00    -0.352 N 
ATOM     29  C   UNL     1      -0.263   7.954  -2.887  1.00  0.00     0.251 C 
ATOM     30  H   UNL     1      -0.837   6.064  -2.497  1.00  0.00     0.163 HD
ATOM     31  O   UNL     1      -0.032   8.278  -1.743  1.00  0.00    -0.269 OA
BRANCH  29  32
ATOM     32  C   UNL     1      -0.289   8.949  -3.953  1.00  0.00     0.039 A 
ATOM     33  C   UNL     1       0.851   9.638  -4.375  1.00  0.00     0.014 A 
ATOM     34  C   UNL     1      -1.515   9.057  -4.596  1.00  0.00     0.014 A 
ATOM     35  C   UNL     1       0.774  10.373  -5.557  1.00  0.00     0.010 A 
ATOM     36  C   UNL     1      -1.563   9.709  -5.799  1.00  0.00     0.010 A 
ATOM     37  C   UNL     1      -0.419  10.358  -6.296  1.00  0.00    -0.014 A 
BRANCH  37  38
ATOM     38  C   UNL     1      -0.584  10.970  -7.628  1.00  0.00     0.031 A 
ATOM     39  C   UNL     1      -1.661  12.000  -7.790  1.00  0.00     0.074 A 
ATOM     40  C   UNL     1       0.017  10.392  -8.684  1.00  0.00     0.049 A 
ATOM     41  N   UNL     1      -2.276  12.390  -8.871  1.00  0.00    -0.248 NA
ATOM     42  C   UNL     1      -2.177  12.599  -6.545  1.00  0.00     0.031 C 
ATOM     43  C   UNL     1       1.026   9.331  -8.617  1.00  0.00     0.029 A 
ATOM     44  N   UNL     1      -0.181  10.577 -10.026  1.00  0.00    -0.354 N 
ATOM     45  C   UNL     1      -3.276  13.251  -8.435  1.00  0.00     0.074 A 
ATOM     46  C   UNL     1      -3.230  13.267  -6.990  1.00  0.00     0.031 C 
ATOM     47  C   UNL     1       1.359   8.961  -9.864  1.00  0.00     0.029 A 
ATOM     48  C   UNL     1       0.550   9.717 -10.812  1.00  0.00     0.049 A 
ATOM     49  H   UNL     1      -0.788  11.259 -10.393  1.00  0.00     0.167 HD
ATOM     50  C   UNL     1      -4.138  13.976  -9.183  1.00  0.00     0.037 A 
ATOM     51  C   UNL     1       0.541   9.549 -12.147  1.00  0.00     0.037 A 
ATOM     52  C   UNL     1      -4.133  13.953 -10.621  1.00  0.00     0.049 A 
ATOM     53  C   UNL     1      -0.406  10.384 -12.964  1.00  0.00     0.074 A 
ATOM     54  C   UNL     1      -4.894  14.699 -11.500  1.00  0.00     0.029 A 
ATOM     55  N   UNL     1      -3.313  13.135 -11.390  1.00  0.00    -0.354 N 
ATOM     56  N   UNL     1      -1.302  11.251 -12.552  1.00  0.00    -0.248 NA
ATOM     57  C   UNL     1      -0.347  10.222 -14.421  1.00  0.00     0.031 C 
ATOM     58  C   UNL     1      -4.559  14.306 -12.800  1.00  0.00     0.029 A 
ATOM     59  C   UNL     1      -3.557  13.348 -12.733  1.00  0.00     0.049 A 
ATOM     60  H   UNL     1      -2.654  12.498 -11.030  1.00  0.00     0.167 HD
ATOM     61  C   UNL     1      -1.895  11.760 -13.700  1.00  0.00     0.074 A 
ATOM     62  C   UNL     1      -1.249  11.108 -14.823  1.00  0.00     0.031 C 
ATOM     63  C   UNL     1      -2.882  12.683 -13.822  1.00  0.00     0.037 A 
BRANCH  50  64
ATOM     64  C   UNL     1      -5.122  14.852  -8.457  1.00  0.00     0.058 A 
ATOM     65  C   UNL     1      -4.700  15.956  -7.695  1.00  0.00     0.135 A 
ATOM     66  C   UNL     1      -6.500  14.591  -8.515  1.00  0.00     0.135 A 
ATOM     67  F   UNL     1      -3.393  16.245  -7.590  1.00  0.00    -0.206 F 
ATOM     68  C   UNL     1      -5.601  16.737  -6.981  1.00  0.00     0.059 A 
ATOM     69  C   UNL     1      -7.424  15.383  -7.836  1.00  0.00     0.059 A 
ATOM     70  F   UNL     1      -6.963  13.550  -9.224  1.00  0.00    -0.206 F 
ATOM     71  C   UNL     1      -6.962  16.442  -7.056  1.00  0.00     0.060 A 
BRANCH  71  72
ATOM     72  S   UNL     1      -8.114  17.466  -6.118  1.00  0.00     0.124 S 
ATOM     73  O   UNL     1      -7.856  17.018  -4.753  1.00  0.00    -0.237 OA
ATOM     74  O   UNL     1      -7.662  18.816  -6.438  1.00  0.00    -0.237 OA
ATOM     75  O   UNL     1      -9.417  17.098  -6.663  1.00  0.00    -0.744 OA
ENDBRANCH  71  72
ENDBRANCH  50  64
BRANCH  51  76
ATOM     76  C   UNL     1       1.490   8.597 -12.783  1.00  0.00     0.058 A 
ATOM     77  C   UNL     1       2.589   9.080 -13.510  1.00  0.00     0.135 A 
ATOM     78  C   UNL     1       1.360   7.207 -12.644  1.00  0.00     0.135 A 
ATOM     79  F   UNL     1       2.757  10.401 -13.670  1.00  0.00    -0.206 F 
ATOM     80  C   UNL     1       3.519   8.221 -14.086  1.00  0.00     0.059 A 
ATOM     81  C   UNL     1       2.290   6.327 -13.191  1.00  0.00     0.059 A 
ATOM     82  F   UNL     1       0.342   6.693 -11.936  1.00  0.00    -0.206 F 
ATOM     83  C   UNL     1       3.364   6.845 -13.916  1.00  0.00     0.060 A 
BRANCH  83  84
ATOM     84  S   UNL     1       4.616   5.745 -14.614  1.00  0.00     0.124 S 
ATOM     85  O   UNL     1       4.341   5.855 -16.041  1.00  0.00    -0.237 OA
ATOM     86  O   UNL     1       5.855   6.362 -14.151  1.00  0.00    -0.237 OA
ATOM     87  O   UNL     1       4.303   4.454 -14.007  1.00  0.00    -0.744 OA
ENDBRANCH  83  84
ENDBRANCH  51  76
BRANCH  63  88
ATOM     88  C   UNL     1      -3.298  13.062 -15.213  1.00  0.00     0.058 A 
ATOM     89  C   UNL     1      -4.076  12.205 -16.005  1.00  0.00     0.135 A 
ATOM     90  C   UNL     1      -2.982  14.331 -15.724  1.00  0.00     0.135 A 
ATOM     91  F   UNL     1      -4.394  10.978 -15.563  1.00  0.00    -0.206 F 
ATOM     92  C   UNL     1      -4.519  12.590 -17.264  1.00  0.00     0.059 A 
ATOM     93  C   UNL     1      -3.439  14.748 -16.968  1.00  0.00     0.059 A 
ATOM     94  F   UNL     1      -2.247  15.189 -14.998  1.00  0.00    -0.206 F 
ATOM     95  C   UNL     1      -4.203  13.867 -17.733  1.00  0.00     0.060 A 
BRANCH  95  96
ATOM     96  S   UNL     1      -4.839  14.376 -19.343  1.00  0.00     0.124 S 
ATOM     97  O   UNL     1      -4.009  13.588 -20.248  1.00  0.00    -0.237 OA
ATOM     98  O   UNL     1      -6.242  13.980 -19.261  1.00  0.00    -0.237 OA
ATOM     99  O   UNL     1      -4.600  15.816 -19.364  1.00  0.00    -0.744 OA
ENDBRANCH  95  96
ENDBRANCH  63  88
ENDBRANCH  37  38
ENDBRANCH  29  32
ENDBRANCH  27  28
ENDBRANCH  26  27
ENDBRANCH  25  26
ENDBRANCH   1  25
TORSDOF 21
