REMARK SMILES COc1ccc2cc([C@@H](C)C(=O)NCCCCNC(=O)c3ccc(-c4c5nc(c(-c6c(F)cc(S(=O)(=O)[O-])cc6F)c6ccc([nH]6)c(-c6c(F)cc(S(=O)(=O)[O-])cc6F)c6nc(c(-c7c(F)cc(S(=O)(=O)[O-])cc7F)c7ccc4[nH]7)C=C6)C=C5)cc3)ccc2c1
REMARK SMILES IDX 16 1 15 2 14 3 13 4 11 5 12 6 9 8 10 9 8 10 3 11 4 12 90 13
REMARK SMILES IDX 5 14 89 15 6 16 88 17 7 18 87 19 2 20 1 21 17 22 18 23 19 24
REMARK SMILES IDX 20 26 21 27 22 28 86 29 23 30 85 31 24 32 25 33 26 34 79 35
REMARK SMILES IDX 27 36 84 37 78 38 80 39 28 40 83 41 77 42 76 43 29 45 63 46
REMARK SMILES IDX 42 47 62 48 43 49 46 50 61 51 81 52 44 53 45 54 60 56 82 57
REMARK SMILES IDX 47 58 30 59 31 60 40 61 32 62 33 63 39 64 41 65 34 66 35 67
REMARK SMILES IDX 36 68 37 69 38 70 64 71 65 72 74 73 66 74 67 75 73 76 75 77
REMARK SMILES IDX 68 78 69 79 70 80 71 81 72 82 48 83 49 84 58 85 50 86 51 87
REMARK SMILES IDX 57 88 59 89 52 90 53 91 54 92 55 93 56 94
REMARK H PARENT 13 7 18 25 80 44 46 55
REMARK Flexibility Score: inf
ROOT
ATOM      1  C   UNL     1       5.479  -3.647   5.566  1.00  0.00     0.023 C 
ENDROOT
BRANCH   1   2
ATOM      2  C   UNL     1       4.395  -4.456   4.860  1.00  0.00     0.023 C 
BRANCH   2   3
ATOM      3  C   UNL     1       4.385  -5.952   5.178  1.00  0.00     0.116 C 
BRANCH   3   4
ATOM      4  N   UNL     1       3.534  -6.263   6.309  1.00  0.00    -0.356 N 
ATOM      5  C   UNL     1       2.230  -6.649   6.386  1.00  0.00     0.227 C 
ATOM      6  O   UNL     1       1.759  -6.766   7.525  1.00  0.00    -0.274 OA
ATOM      7  H   UNL     1       3.980  -6.179   7.182  1.00  0.00     0.163 HD
BRANCH   5   8
ATOM      8  C   UNL     1       1.345  -6.953   5.165  1.00  0.00     0.105 C 
ATOM      9  C   UNL     1       1.862  -8.088   4.282  1.00  0.00     0.023 C 
BRANCH   8  10
ATOM     10  C   UNL     1       0.866  -5.707   4.434  1.00  0.00    -0.035 A 
ATOM     11  C   UNL     1       0.513  -1.368   1.796  1.00  0.00     0.119 A 
ATOM     12  C   UNL     1       1.727  -1.951   1.441  1.00  0.00     0.047 A 
ATOM     13  C   UNL     1      -0.312  -2.007   2.726  1.00  0.00     0.055 A 
ATOM     14  C   UNL     1       2.079  -3.199   1.957  1.00  0.00     0.012 A 
ATOM     15  C   UNL     1       0.046  -3.247   3.281  1.00  0.00    -0.015 A 
ATOM     16  C   UNL     1       1.242  -3.863   2.866  1.00  0.00    -0.018 A 
ATOM     17  C   UNL     1      -0.742  -3.884   4.251  1.00  0.00     0.009 A 
ATOM     18  C   UNL     1       1.600  -5.111   3.402  1.00  0.00     0.013 A 
ATOM     19  C   UNL     1      -0.322  -5.082   4.839  1.00  0.00     0.005 A 
BRANCH  11  20
ATOM     20  O   UNL     1       0.048  -0.171   1.323  1.00  0.00    -0.497 OA
ATOM     21  C   UNL     1       0.597   0.250   0.078  1.00  0.00     0.278 C 
ENDBRANCH  11  20
ENDBRANCH   8  10
ENDBRANCH   5   8
ENDBRANCH   3   4
ENDBRANCH   2   3
ENDBRANCH   1   2
BRANCH   1  22
ATOM     22  C   UNL     1       6.909  -4.009   5.184  1.00  0.00     0.116 C 
BRANCH  22  23
ATOM     23  N   UNL     1       7.193  -3.889   3.761  1.00  0.00    -0.352 N 
ATOM     24  C   UNL     1       8.383  -3.546   3.154  1.00  0.00     0.251 C 
ATOM     25  H   UNL     1       6.440  -4.076   3.155  1.00  0.00     0.163 HD
ATOM     26  O   UNL     1       8.442  -3.415   1.940  1.00  0.00    -0.269 OA
BRANCH  24  27
ATOM     27  C   UNL     1       9.570  -3.292   4.000  1.00  0.00     0.039 A 
ATOM     28  C   UNL     1      10.288  -2.108   3.817  1.00  0.00     0.014 A 
ATOM     29  C   UNL     1       9.925  -4.184   5.014  1.00  0.00     0.014 A 
ATOM     30  C   UNL     1      11.312  -1.780   4.708  1.00  0.00     0.010 A 
ATOM     31  C   UNL     1      10.890  -3.819   5.946  1.00  0.00     0.010 A 
ATOM     32  C   UNL     1      11.590  -2.612   5.805  1.00  0.00    -0.014 A 
BRANCH  32  33
ATOM     33  C   UNL     1      12.609  -2.243   6.820  1.00  0.00     0.031 A 
ATOM     34  C   UNL     1      13.824  -3.109   7.010  1.00  0.00     0.074 A 
ATOM     35  C   UNL     1      12.402  -1.177   7.619  1.00  0.00     0.049 A 
ATOM     36  N   UNL     1      14.775  -3.014   7.902  1.00  0.00    -0.248 NA
ATOM     37  C   UNL     1      13.971  -4.253   6.095  1.00  0.00     0.031 C 
ATOM     38  C   UNL     1      11.235  -0.292   7.571  1.00  0.00     0.029 A 
ATOM     39  N   UNL     1      13.164  -0.661   8.637  1.00  0.00    -0.354 N 
ATOM     40  C   UNL     1      15.620  -4.093   7.669  1.00  0.00     0.074 A 
ATOM     41  C   UNL     1      15.040  -4.859   6.588  1.00  0.00     0.031 C 
ATOM     42  C   UNL     1      11.372   0.670   8.498  1.00  0.00     0.029 A 
ATOM     43  C   UNL     1      12.617   0.455   9.227  1.00  0.00     0.049 A 
ATOM     44  H   UNL     1      14.022  -1.053   8.919  1.00  0.00     0.167 HD
ATOM     45  C   UNL     1      16.789  -4.401   8.280  1.00  0.00     0.037 A 
ATOM     46  C   UNL     1      13.071   1.216  10.242  1.00  0.00     0.037 A 
ATOM     47  C   UNL     1      17.381  -3.615   9.329  1.00  0.00     0.049 A 
ATOM     48  C   UNL     1      14.384   0.868  10.887  1.00  0.00     0.074 A 
ATOM     49  C   UNL     1      18.583  -3.815   9.983  1.00  0.00     0.029 A 
ATOM     50  N   UNL     1      16.817  -2.467   9.869  1.00  0.00    -0.354 N 
ATOM     51  N   UNL     1      15.193  -0.131  10.623  1.00  0.00    -0.248 NA
ATOM     52  C   UNL     1      14.851   1.753  11.963  1.00  0.00     0.031 C 
ATOM     53  C   UNL     1      18.737  -2.800  10.935  1.00  0.00     0.029 A 
ATOM     54  C   UNL     1      17.646  -1.950  10.849  1.00  0.00     0.049 A 
ATOM     55  H   UNL     1      15.955  -2.079   9.595  1.00  0.00     0.167 HD
ATOM     56  C   UNL     1      16.277   0.023  11.480  1.00  0.00     0.074 A 
ATOM     57  C   UNL     1      16.025   1.215  12.264  1.00  0.00     0.031 C 
ATOM     58  C   UNL     1      17.383  -0.752  11.606  1.00  0.00     0.037 A 
BRANCH  45  59
ATOM     59  C   UNL     1      17.509  -5.634   7.809  1.00  0.00     0.058 A 
ATOM     60  C   UNL     1      18.138  -5.679   6.555  1.00  0.00     0.135 A 
ATOM     61  C   UNL     1      17.583  -6.777   8.621  1.00  0.00     0.135 A 
ATOM     62  F   UNL     1      18.081  -4.620   5.731  1.00  0.00    -0.206 F 
ATOM     63  C   UNL     1      18.785  -6.825   6.106  1.00  0.00     0.059 A 
ATOM     64  C   UNL     1      18.248  -7.926   8.204  1.00  0.00     0.059 A 
ATOM     65  F   UNL     1      16.998  -6.788   9.829  1.00  0.00    -0.206 F 
ATOM     66  C   UNL     1      18.831  -7.946   6.937  1.00  0.00     0.060 A 
BRANCH  66  67
ATOM     67  S   UNL     1      19.668  -9.429   6.338  1.00  0.00     0.124 S 
ATOM     68  O   UNL     1      18.684  -9.957   5.398  1.00  0.00    -0.237 OA
ATOM     69  O   UNL     1      20.884  -8.886   5.743  1.00  0.00    -0.237 OA
ATOM     70  O   UNL     1      19.866 -10.219   7.550  1.00  0.00    -0.744 OA
ENDBRANCH  66  67
ENDBRANCH  45  59
BRANCH  46  71
ATOM     71  C   UNL     1      12.299   2.406  10.685  1.00  0.00     0.058 A 
ATOM     72  C   UNL     1      12.756   3.702  10.403  1.00  0.00     0.135 A 
ATOM     73  C   UNL     1      11.095   2.278  11.395  1.00  0.00     0.135 A 
ATOM     74  F   UNL     1      13.904   3.876   9.730  1.00  0.00    -0.206 F 
ATOM     75  C   UNL     1      12.061   4.830  10.826  1.00  0.00     0.059 A 
ATOM     76  C   UNL     1      10.370   3.390  11.810  1.00  0.00     0.059 A 
ATOM     77  F   UNL     1      10.606   1.059  11.673  1.00  0.00    -0.206 F 
ATOM     78  C   UNL     1      10.868   4.663  11.531  1.00  0.00     0.060 A 
BRANCH  78  79
ATOM     79  S   UNL     1       9.952   6.133  12.045  1.00  0.00     0.124 S 
ATOM     80  O   UNL     1      10.741   6.586  13.184  1.00  0.00    -0.237 OA
ATOM     81  O   UNL     1      10.015   6.969  10.851  1.00  0.00    -0.237 OA
ATOM     82  O   UNL     1       8.628   5.606  12.362  1.00  0.00    -0.744 OA
ENDBRANCH  78  79
ENDBRANCH  46  71
BRANCH  58  83
ATOM     83  C   UNL     1      18.421  -0.313  12.598  1.00  0.00     0.058 A 
ATOM     84  C   UNL     1      18.233  -0.474  13.979  1.00  0.00     0.135 A 
ATOM     85  C   UNL     1      19.637   0.231  12.157  1.00  0.00     0.135 A 
ATOM     86  F   UNL     1      17.084  -0.983  14.450  1.00  0.00    -0.206 F 
ATOM     87  C   UNL     1      19.209  -0.090  14.892  1.00  0.00     0.059 A 
ATOM     88  C   UNL     1      20.637   0.600  13.051  1.00  0.00     0.059 A 
ATOM     89  F   UNL     1      19.868   0.395  10.845  1.00  0.00    -0.206 F 
ATOM     90  C   UNL     1      20.408   0.447  14.418  1.00  0.00     0.060 A 
BRANCH  90  91
ATOM     91  S   UNL     1      21.683   0.910  15.609  1.00  0.00     0.124 S 
ATOM     92  O   UNL     1      21.163   2.175  16.118  1.00  0.00    -0.237 OA
ATOM     93  O   UNL     1      21.660  -0.209  16.547  1.00  0.00    -0.237 OA
ATOM     94  O   UNL     1      22.889   1.008  14.792  1.00  0.00    -0.744 OA
ENDBRANCH  90  91
ENDBRANCH  58  83
ENDBRANCH  32  33
ENDBRANCH  24  27
ENDBRANCH  22  23
ENDBRANCH   1  22
TORSDOF 16
