REMARK SMILES CC1(C)[C@@]2(CC[C@@H]2C(=O)NCc2ccco2)[C@]1(C)C(=O)NCCCCNC(=O)c1ccc(-c2c3nc(c(-c4c(F)cc(S(=O)(=O)[O-])cc4F)c4ccc([nH]4)c(-c4c(F)cc(S(=O)(=O)[O-])cc4F)c4nc(c(-c5c(F)cc(S(=O)(=O)[O-])cc5F)c5ccc2[nH]5)C=C4)C=C3)cc1
REMARK SMILES IDX 23 1 22 2 21 3 19 4 20 5 17 7 1 8 2 9 3 10 4 11 18 12 5 13
REMARK SMILES IDX 7 14 6 15 8 16 9 17 10 18 11 20 12 21 13 22 16 23 14 24
REMARK SMILES IDX 15 25 24 26 25 27 26 28 27 29 28 31 29 32 30 33 94 34 31 35
REMARK SMILES IDX 93 36 32 37 33 38 34 39 87 40 35 41 92 42 86 43 88 44 36 45
REMARK SMILES IDX 91 46 85 47 84 48 37 50 71 51 50 52 70 53 51 54 54 55 69 56
REMARK SMILES IDX 89 57 52 58 53 59 68 61 90 62 55 63 38 64 39 65 48 66 40 67
REMARK SMILES IDX 41 68 47 69 49 70 42 71 43 72 44 73 45 74 46 75 72 76 73 77
REMARK SMILES IDX 82 78 74 79 75 80 81 81 83 82 76 83 77 84 78 85 79 86 80 87
REMARK SMILES IDX 56 88 57 89 66 90 58 91 59 92 65 93 67 94 60 95 61 96 62 97
REMARK SMILES IDX 63 98 64 99
REMARK H PARENT 21 6 10 19 26 30 88 49 54 60
REMARK Flexibility Score: inf
ROOT
ATOM      1  C   UNL     1      -1.545  -1.044   1.900  1.00  0.00     0.023 C 
ENDROOT
BRANCH   1   2
ATOM      2  C   UNL     1      -1.632  -1.545   0.454  1.00  0.00     0.116 C 
BRANCH   2   3
ATOM      3  N   UNL     1      -2.492  -0.670  -0.296  1.00  0.00    -0.356 N 
ATOM      4  C   UNL     1      -2.199   0.403  -1.079  1.00  0.00     0.227 C 
ATOM      5  O   UNL     1      -3.114   1.188  -1.332  1.00  0.00    -0.274 OA
ATOM      6  H   UNL     1      -3.452  -0.882  -0.232  1.00  0.00     0.163 HD
BRANCH   4   7
ATOM      7  C   UNL     1      -0.894   0.576  -1.821  1.00  0.00     0.059 C 
ATOM      8  C   UNL     1       1.055   0.287  -0.012  1.00  0.00     0.013 C 
ATOM      9  C   UNL     1       0.581   0.730  -1.372  1.00  0.00    -0.013 C 
ATOM     10  C   UNL     1       1.692   0.531  -2.394  1.00  0.00     0.013 C 
ATOM     11  C   UNL     1      -0.249   1.970  -1.496  1.00  0.00     0.003 C 
ATOM     12  C   UNL     1      -1.067   0.124  -3.276  1.00  0.00     0.023 C 
ATOM     13  C   UNL     1      -0.305   3.058  -2.510  1.00  0.00     0.010 C 
ATOM     14  C   UNL     1      -0.641   2.892  -0.363  1.00  0.00     0.086 C 
ATOM     15  C   UNL     1      -0.930   3.945  -1.431  1.00  0.00     0.015 C 
BRANCH  14  16
ATOM     16  C   UNL     1       0.317   3.186   0.810  1.00  0.00     0.224 C 
ATOM     17  O   UNL     1      -0.053   3.064   1.991  1.00  0.00    -0.275 OA
ATOM     18  N   UNL     1       1.617   3.597   0.676  1.00  0.00    -0.349 N 
ATOM     19  H   UNL     1       2.081   3.745   1.532  1.00  0.00     0.163 HD
BRANCH  18  20
ATOM     20  C   UNL     1       2.435   3.855  -0.483  1.00  0.00     0.191 C 
BRANCH  20  21
ATOM     21  C   UNL     1       2.575   5.317  -0.688  1.00  0.00     0.122 A 
ATOM     22  C   UNL     1       1.813   6.419  -0.349  1.00  0.00     0.047 A 
ATOM     23  O   UNL     1       3.694   5.722  -1.358  1.00  0.00    -0.467 OA
ATOM     24  C   UNL     1       2.501   7.553  -0.841  1.00  0.00     0.042 A 
ATOM     25  C   UNL     1       3.642   7.076  -1.441  1.00  0.00     0.195 A 
ENDBRANCH  20  21
ENDBRANCH  18  20
ENDBRANCH  14  16
ENDBRANCH   4   7
ENDBRANCH   2   3
ENDBRANCH   1   2
BRANCH   1  26
ATOM     26  C   UNL     1      -2.815  -1.280   2.725  1.00  0.00     0.023 C 
BRANCH  26  27
ATOM     27  C   UNL     1      -3.150  -2.745   2.970  1.00  0.00     0.116 C 
BRANCH  27  28
ATOM     28  N   UNL     1      -2.104  -3.444   3.700  1.00  0.00    -0.352 N 
ATOM     29  C   UNL     1      -2.236  -4.433   4.645  1.00  0.00     0.251 C 
ATOM     30  H   UNL     1      -1.181  -3.174   3.490  1.00  0.00     0.163 HD
ATOM     31  O   UNL     1      -1.257  -4.832   5.263  1.00  0.00    -0.269 OA
BRANCH  29  32
ATOM     32  C   UNL     1      -3.579  -4.978   4.931  1.00  0.00     0.039 A 
ATOM     33  C   UNL     1      -4.006  -5.051   6.259  1.00  0.00     0.014 A 
ATOM     34  C   UNL     1      -4.423  -5.379   3.892  1.00  0.00     0.014 A 
ATOM     35  C   UNL     1      -5.308  -5.468   6.541  1.00  0.00     0.010 A 
ATOM     36  C   UNL     1      -5.738  -5.734   4.171  1.00  0.00     0.010 A 
ATOM     37  C   UNL     1      -6.194  -5.780   5.497  1.00  0.00    -0.014 A 
BRANCH  37  38
ATOM     38  C   UNL     1      -7.607  -6.146   5.768  1.00  0.00     0.031 A 
ATOM     39  C   UNL     1      -8.106  -7.521   5.422  1.00  0.00     0.074 A 
ATOM     40  C   UNL     1      -8.455  -5.215   6.247  1.00  0.00     0.049 A 
ATOM     41  N   UNL     1      -9.321  -7.999   5.492  1.00  0.00    -0.248 NA
ATOM     42  C   UNL     1      -7.114  -8.475   4.902  1.00  0.00     0.031 C 
ATOM     43  C   UNL     1      -8.099  -3.832   6.571  1.00  0.00     0.029 A 
ATOM     44  N   UNL     1      -9.796  -5.286   6.528  1.00  0.00    -0.354 N 
ATOM     45  C   UNL     1      -9.245  -9.299   5.006  1.00  0.00     0.074 A 
ATOM     46  C   UNL     1      -7.873  -9.520   4.604  1.00  0.00     0.031 C 
ATOM     47  C   UNL     1      -9.191  -3.189   7.016  1.00  0.00     0.029 A 
ATOM     48  C   UNL     1     -10.330  -4.101   6.977  1.00  0.00     0.049 A 
ATOM     49  H   UNL     1     -10.327  -6.108   6.419  1.00  0.00     0.167 HD
ATOM     50  C   UNL     1     -10.226 -10.229   4.922  1.00  0.00     0.037 A 
ATOM     51  C   UNL     1     -11.596  -3.782   7.309  1.00  0.00     0.037 A 
ATOM     52  C   UNL     1     -11.581 -10.012   5.354  1.00  0.00     0.049 A 
ATOM     53  C   UNL     1     -12.665  -4.837   7.224  1.00  0.00     0.074 A 
ATOM     54  C   UNL     1     -12.632 -10.912   5.376  1.00  0.00     0.029 A 
ATOM     55  N   UNL     1     -12.075  -8.810   5.840  1.00  0.00    -0.354 N 
ATOM     56  N   UNL     1     -12.561  -6.083   6.826  1.00  0.00    -0.248 NA
ATOM     57  C   UNL     1     -14.020  -4.447   7.637  1.00  0.00     0.031 C 
ATOM     58  C   UNL     1     -13.770 -10.245   5.841  1.00  0.00     0.029 A 
ATOM     59  C   UNL     1     -13.419  -8.940   6.148  1.00  0.00     0.049 A 
ATOM     60  H   UNL     1     -11.547  -7.986   5.950  1.00  0.00     0.167 HD
ATOM     61  C   UNL     1     -13.831  -6.632   6.963  1.00  0.00     0.074 A 
ATOM     62  C   UNL     1     -14.684  -5.586   7.489  1.00  0.00     0.031 C 
ATOM     63  C   UNL     1     -14.251  -7.890   6.680  1.00  0.00     0.037 A 
BRANCH  50  64
ATOM     64  C   UNL     1      -9.865 -11.568   4.342  1.00  0.00     0.058 A 
ATOM     65  C   UNL     1      -9.056 -12.479   5.041  1.00  0.00     0.135 A 
ATOM     66  C   UNL     1     -10.353 -11.957   3.085  1.00  0.00     0.135 A 
ATOM     67  F   UNL     1      -8.551 -12.152   6.241  1.00  0.00    -0.206 F 
ATOM     68  C   UNL     1      -8.717 -13.714   4.500  1.00  0.00     0.059 A 
ATOM     69  C   UNL     1     -10.048 -13.200   2.535  1.00  0.00     0.059 A 
ATOM     70  F   UNL     1     -11.130 -11.125   2.374  1.00  0.00    -0.206 F 
ATOM     71  C   UNL     1      -9.215 -14.064   3.244  1.00  0.00     0.060 A 
BRANCH  71  72
ATOM     72  S   UNL     1      -8.762 -15.669   2.552  1.00  0.00     0.124 S 
ATOM     73  O   UNL     1      -7.381 -15.430   2.146  1.00  0.00    -0.237 OA
ATOM     74  O   UNL     1      -8.941 -16.564   3.691  1.00  0.00    -0.237 OA
ATOM     75  O   UNL     1      -9.715 -15.850   1.462  1.00  0.00    -0.744 OA
ENDBRANCH  71  72
ENDBRANCH  50  64
BRANCH  51  76
ATOM     76  C   UNL     1     -11.915  -2.406   7.773  1.00  0.00     0.058 A 
ATOM     77  C   UNL     1     -12.214  -2.151   9.119  1.00  0.00     0.135 A 
ATOM     78  C   UNL     1     -11.905  -1.318   6.886  1.00  0.00     0.135 A 
ATOM     79  F   UNL     1     -12.240  -3.161  10.002  1.00  0.00    -0.206 F 
ATOM     80  C   UNL     1     -12.505  -0.868   9.570  1.00  0.00     0.059 A 
ATOM     81  C   UNL     1     -12.172  -0.022   7.318  1.00  0.00     0.059 A 
ATOM     82  F   UNL     1     -11.608  -1.508   5.591  1.00  0.00    -0.206 F 
ATOM     83  C   UNL     1     -12.480   0.191   8.661  1.00  0.00     0.060 A 
BRANCH  83  84
ATOM     84  S   UNL     1     -12.808   1.861   9.267  1.00  0.00     0.124 S 
ATOM     85  O   UNL     1     -14.253   1.824   9.458  1.00  0.00    -0.237 OA
ATOM     86  O   UNL     1     -12.004   1.910  10.484  1.00  0.00    -0.237 OA
ATOM     87  O   UNL     1     -12.335   2.710   8.178  1.00  0.00    -0.744 OA
ENDBRANCH  83  84
ENDBRANCH  51  76
BRANCH  63  88
ATOM     88  C   UNL     1     -15.691  -8.219   6.960  1.00  0.00     0.058 A 
ATOM     89  C   UNL     1     -16.725  -7.757   6.132  1.00  0.00     0.135 A 
ATOM     90  C   UNL     1     -16.031  -9.059   8.032  1.00  0.00     0.135 A 
ATOM     91  F   UNL     1     -16.452  -6.945   5.099  1.00  0.00    -0.206 F 
ATOM     92  C   UNL     1     -18.051  -8.107   6.365  1.00  0.00     0.059 A 
ATOM     93  C   UNL     1     -17.347  -9.441   8.269  1.00  0.00     0.059 A 
ATOM     94  F   UNL     1     -15.077  -9.534   8.848  1.00  0.00    -0.206 F 
ATOM     95  C   UNL     1     -18.352  -8.953   7.435  1.00  0.00     0.060 A 
BRANCH  95  96
ATOM     96  S   UNL     1     -20.070  -9.440   7.698  1.00  0.00     0.124 S 
ATOM     97  O   UNL     1     -20.634  -8.227   8.281  1.00  0.00    -0.237 OA
ATOM     98  O   UNL     1     -20.517  -9.760   6.346  1.00  0.00    -0.237 OA
ATOM     99  O   UNL     1     -19.965 -10.582   8.602  1.00  0.00    -0.744 OA
ENDBRANCH  95  96
ENDBRANCH  63  88
ENDBRANCH  37  38
ENDBRANCH  29  32
ENDBRANCH  27  28
ENDBRANCH  26  27
ENDBRANCH   1  26
TORSDOF 17
