REMARK SMILES C[C@@H]1OCC[C@@H]1C(=O)Nc1ccc(C(=O)NCCCCNC(=O)c2ccc(-c3c4nc(c(-c5c(F)cc(S(=O)(=O)[O-])cc5F)c5ccc([nH]5)c(-c5c(F)cc(S(=O)(=O)[O-])cc5F)c5nc(c(-c6c(F)cc(S(=O)(=O)[O-])cc6F)c6ccc3[nH]6)C=C5)C=C4)cc2)cc1F
REMARK SMILES IDX 19 1 18 2 17 3 16 4 14 5 15 6 13 8 10 9 11 10 91 11 12 12
REMARK SMILES IDX 90 13 92 14 9 15 7 16 8 17 6 19 1 20 2 21 3 22 4 23 5 24
REMARK SMILES IDX 20 25 21 26 22 27 23 29 24 30 25 31 89 32 26 33 88 34 27 35
REMARK SMILES IDX 28 36 29 37 82 38 30 39 87 40 81 41 83 42 31 43 86 44 80 45
REMARK SMILES IDX 79 46 32 48 66 49 45 50 65 51 46 52 49 53 64 54 84 55 47 56
REMARK SMILES IDX 48 57 63 59 85 60 50 61 33 62 34 63 43 64 35 65 36 66 42 67
REMARK SMILES IDX 44 68 37 69 38 70 39 71 40 72 41 73 67 74 68 75 77 76 69 77
REMARK SMILES IDX 70 78 76 79 78 80 71 81 72 82 73 83 74 84 75 85 51 86 52 87
REMARK SMILES IDX 61 88 53 89 54 90 60 91 62 92 55 93 56 94 57 95 58 96 59 97
REMARK H PARENT 16 7 9 18 21 28 83 47 49 58
REMARK Flexibility Score: inf
ROOT
ATOM      1  C   UNL     1       2.816  -4.486   5.326  1.00  0.00     0.023 C 
ENDROOT
BRANCH   1   2
ATOM      2  C   UNL     1       2.266  -3.190   4.737  1.00  0.00     0.023 C 
BRANCH   2   3
ATOM      3  C   UNL     1       1.678  -2.233   5.788  1.00  0.00     0.116 C 
BRANCH   3   4
ATOM      4  N   UNL     1       2.684  -1.310   6.304  1.00  0.00    -0.352 N 
ATOM      5  C   UNL     1       3.144  -0.080   5.887  1.00  0.00     0.251 C 
ATOM      6  O   UNL     1       3.982   0.492   6.585  1.00  0.00    -0.269 OA
ATOM      7  H   UNL     1       3.128  -1.635   7.120  1.00  0.00     0.163 HD
BRANCH   5   8
ATOM      8  C   UNL     1       2.664   0.611   4.656  1.00  0.00     0.042 A 
ATOM      9  C   UNL     1       1.666   1.985   2.350  1.00  0.00     0.077 A 
ATOM     10  C   UNL     1       2.487   2.635   3.286  1.00  0.00     0.030 A 
ATOM     11  C   UNL     1       1.339   0.671   2.643  1.00  0.00     0.147 A 
ATOM     12  C   UNL     1       2.955   1.965   4.440  1.00  0.00     0.016 A 
ATOM     13  C   UNL     1       1.904  -0.020   3.697  1.00  0.00     0.055 A 
ATOM     14  F   UNL     1       0.410  -0.029   2.003  1.00  0.00    -0.205 F 
BRANCH   9  15
ATOM     15  N   UNL     1       1.292   2.707   1.195  1.00  0.00    -0.323 N 
ATOM     16  C   UNL     1       0.580   2.426   0.059  1.00  0.00     0.230 C 
ATOM     17  O   UNL     1       0.525   3.323  -0.791  1.00  0.00    -0.274 OA
ATOM     18  H   UNL     1       1.622   3.635   1.210  1.00  0.00     0.170 HD
BRANCH  16  19
ATOM     19  C   UNL     1      -0.141   1.115  -0.167  1.00  0.00     0.110 C 
ATOM     20  C   UNL     1       1.857   0.240  -1.572  1.00  0.00     0.039 C 
ATOM     21  C   UNL     1       0.714  -0.080  -0.618  1.00  0.00     0.127 C 
ATOM     22  O   UNL     1      -0.184  -0.985  -1.304  1.00  0.00    -0.378 OA
ATOM     23  C   UNL     1      -1.472  -0.360  -1.373  1.00  0.00     0.161 C 
ATOM     24  C   UNL     1      -1.207   1.124  -1.250  1.00  0.00     0.044 C 
ENDBRANCH  16  19
ENDBRANCH   9  15
ENDBRANCH   5   8
ENDBRANCH   3   4
ENDBRANCH   2   3
ENDBRANCH   1   2
BRANCH   1  25
ATOM     25  C   UNL     1       1.730  -5.439   5.807  1.00  0.00     0.116 C 
BRANCH  25  26
ATOM     26  N   UNL     1       0.949  -6.021   4.726  1.00  0.00    -0.352 N 
ATOM     27  C   UNL     1       0.258  -7.218   4.749  1.00  0.00     0.251 C 
ATOM     28  H   UNL     1       0.908  -5.507   3.887  1.00  0.00     0.163 HD
ATOM     29  O   UNL     1      -0.277  -7.656   3.749  1.00  0.00    -0.269 OA
BRANCH  27  30
ATOM     30  C   UNL     1       0.234  -7.978   6.020  1.00  0.00     0.039 A 
ATOM     31  C   UNL     1       0.697  -9.295   6.030  1.00  0.00     0.014 A 
ATOM     32  C   UNL     1      -0.162  -7.353   7.205  1.00  0.00     0.014 A 
ATOM     33  C   UNL     1       0.836  -9.964   7.249  1.00  0.00     0.010 A 
ATOM     34  C   UNL     1       0.041  -7.996   8.420  1.00  0.00     0.010 A 
ATOM     35  C   UNL     1       0.547  -9.305   8.455  1.00  0.00    -0.014 A 
BRANCH  35  36
ATOM     36  C   UNL     1       0.747  -9.959   9.772  1.00  0.00     0.031 A 
ATOM     37  C   UNL     1      -0.441 -10.218  10.656  1.00  0.00     0.074 A 
ATOM     38  C   UNL     1       1.992 -10.239  10.206  1.00  0.00     0.049 A 
ATOM     39  N   UNL     1      -0.473 -10.628  11.896  1.00  0.00    -0.248 NA
ATOM     40  C   UNL     1      -1.768  -9.952  10.076  1.00  0.00     0.031 C 
ATOM     41  C   UNL     1       3.226 -10.010   9.451  1.00  0.00     0.029 A 
ATOM     42  N   UNL     1       2.428 -10.766  11.397  1.00  0.00    -0.354 N 
ATOM     43  C   UNL     1      -1.815 -10.646  12.252  1.00  0.00     0.074 A 
ATOM     44  C   UNL     1      -2.565 -10.168  11.112  1.00  0.00     0.031 C 
ATOM     45  C   UNL     1       4.275 -10.411  10.188  1.00  0.00     0.029 A 
ATOM     46  C   UNL     1       3.795 -10.885  11.483  1.00  0.00     0.049 A 
ATOM     47  H   UNL     1       1.818 -11.033  12.122  1.00  0.00     0.167 HD
ATOM     48  C   UNL     1      -2.373 -11.047  13.418  1.00  0.00     0.037 A 
ATOM     49  C   UNL     1       4.574 -11.318  12.495  1.00  0.00     0.037 A 
ATOM     50  C   UNL     1      -1.626 -11.566  14.532  1.00  0.00     0.049 A 
ATOM     51  C   UNL     1       3.929 -11.762  13.780  1.00  0.00     0.074 A 
ATOM     52  C   UNL     1      -2.104 -12.034  15.742  1.00  0.00     0.029 A 
ATOM     53  N   UNL     1      -0.246 -11.700  14.565  1.00  0.00    -0.354 N 
ATOM     54  N   UNL     1       2.656 -11.789  14.094  1.00  0.00    -0.248 NA
ATOM     55  C   UNL     1       4.821 -12.233  14.850  1.00  0.00     0.031 C 
ATOM     56  C   UNL     1      -1.011 -12.430  16.519  1.00  0.00     0.029 A 
ATOM     57  C   UNL     1       0.144 -12.242  15.777  1.00  0.00     0.049 A 
ATOM     58  H   UNL     1       0.365 -11.447  13.836  1.00  0.00     0.167 HD
ATOM     59  C   UNL     1       2.593 -12.306  15.383  1.00  0.00     0.074 A 
ATOM     60  C   UNL     1       3.954 -12.580  15.793  1.00  0.00     0.031 C 
ATOM     61  C   UNL     1       1.504 -12.535  16.155  1.00  0.00     0.037 A 
BRANCH  48  62
ATOM     62  C   UNL     1      -3.867 -10.964  13.547  1.00  0.00     0.058 A 
ATOM     63  C   UNL     1      -4.460 -10.018  14.396  1.00  0.00     0.135 A 
ATOM     64  C   UNL     1      -4.709 -11.864  12.875  1.00  0.00     0.135 A 
ATOM     65  F   UNL     1      -3.700  -9.128  15.054  1.00  0.00    -0.206 F 
ATOM     66  C   UNL     1      -5.837  -9.977  14.589  1.00  0.00     0.059 A 
ATOM     67  C   UNL     1      -6.090 -11.827  13.035  1.00  0.00     0.059 A 
ATOM     68  F   UNL     1      -4.192 -12.772  12.032  1.00  0.00    -0.206 F 
ATOM     69  C   UNL     1      -6.643 -10.889  13.907  1.00  0.00     0.060 A 
BRANCH  69  70
ATOM     70  S   UNL     1      -8.431 -10.807  14.144  1.00  0.00     0.124 S 
ATOM     71  O   UNL     1      -8.578 -11.340  15.494  1.00  0.00    -0.237 OA
ATOM     72  O   UNL     1      -8.697  -9.380  13.989  1.00  0.00    -0.237 OA
ATOM     73  O   UNL     1      -8.952 -11.651  13.072  1.00  0.00    -0.744 OA
ENDBRANCH  69  70
ENDBRANCH  48  62
BRANCH  49  74
ATOM     74  C   UNL     1       6.049 -11.377  12.324  1.00  0.00     0.058 A 
ATOM     75  C   UNL     1       6.830 -10.212  12.276  1.00  0.00     0.135 A 
ATOM     76  C   UNL     1       6.705 -12.610  12.186  1.00  0.00     0.135 A 
ATOM     77  F   UNL     1       6.250  -9.007  12.393  1.00  0.00    -0.206 F 
ATOM     78  C   UNL     1       8.206 -10.266  12.081  1.00  0.00     0.059 A 
ATOM     79  C   UNL     1       8.083 -12.691  12.011  1.00  0.00     0.059 A 
ATOM     80  F   UNL     1       6.001 -13.751  12.238  1.00  0.00    -0.206 F 
ATOM     81  C   UNL     1       8.823 -11.511  11.945  1.00  0.00     0.060 A 
BRANCH  81  82
ATOM     82  S   UNL     1      10.611 -11.562  11.693  1.00  0.00     0.124 S 
ATOM     83  O   UNL     1      10.724 -11.083  10.319  1.00  0.00    -0.237 OA
ATOM     84  O   UNL     1      11.093 -10.650  12.726  1.00  0.00    -0.237 OA
ATOM     85  O   UNL     1      10.940 -12.969  11.899  1.00  0.00    -0.744 OA
ENDBRANCH  81  82
ENDBRANCH  49  74
BRANCH  61  86
ATOM     86  C   UNL     1       1.713 -13.149  17.509  1.00  0.00     0.058 A 
ATOM     87  C   UNL     1       1.343 -14.484  17.742  1.00  0.00     0.135 A 
ATOM     88  C   UNL     1       2.156 -12.387  18.599  1.00  0.00     0.135 A 
ATOM     89  F   UNL     1       0.910 -15.253  16.730  1.00  0.00    -0.206 F 
ATOM     90  C   UNL     1       1.373 -15.031  19.018  1.00  0.00     0.059 A 
ATOM     91  C   UNL     1       2.213 -12.921  19.882  1.00  0.00     0.059 A 
ATOM     92  F   UNL     1       2.531 -11.110  18.421  1.00  0.00    -0.206 F 
ATOM     93  C   UNL     1       1.796 -14.237  20.085  1.00  0.00     0.060 A 
BRANCH  93  94
ATOM     94  S   UNL     1       1.792 -14.951  21.743  1.00  0.00     0.124 S 
ATOM     95  O   UNL     1       0.364 -15.021  22.035  1.00  0.00    -0.237 OA
ATOM     96  O   UNL     1       2.460 -16.231  21.531  1.00  0.00    -0.237 OA
ATOM     97  O   UNL     1       2.548 -13.981  22.531  1.00  0.00    -0.744 OA
ENDBRANCH  93  94
ENDBRANCH  61  86
ENDBRANCH  35  36
ENDBRANCH  27  30
ENDBRANCH  25  26
ENDBRANCH   1  25
TORSDOF 16
