REMARK SMILES O=C(NCCCCNC(=O)c1ccc([C@H]2Nc3ccc(Cl)cc3[C@@H]3C=CC[C@@H]23)cc1)c1ccc(-c2c3nc(c(-c4c(F)cc(S(=O)(=O)[O-])cc4F)c4ccc([nH]4)c(-c4c(F)cc(S(=O)(=O)[O-])cc4F)c4nc(c(-c5c(F)cc(S(=O)(=O)[O-])cc5F)c5ccc2[nH]5)C=C4)C=C3)cc1
REMARK SMILES IDX 4 1 3 2 1 3 2 4 31 6 32 7 96 8 33 9 95 10 34 11 35 12 36 13
REMARK SMILES IDX 89 14 37 15 94 16 88 17 90 18 38 19 93 20 87 21 86 22 39 24
REMARK SMILES IDX 73 25 52 26 72 27 53 28 56 29 71 30 91 31 54 32 55 33 70 35
REMARK SMILES IDX 92 36 57 37 40 38 41 39 50 40 42 41 43 42 49 43 51 44 44 45
REMARK SMILES IDX 45 46 46 47 47 48 48 49 74 50 75 51 84 52 76 53 77 54 83 55
REMARK SMILES IDX 85 56 78 57 79 58 80 59 81 60 82 61 58 62 59 63 68 64 60 65
REMARK SMILES IDX 61 66 67 67 69 68 62 69 63 70 64 71 65 72 66 73 5 74 6 75
REMARK SMILES IDX 7 76 8 77 9 78 10 80 11 81 12 82 30 83 13 84 29 85 14 86
REMARK SMILES IDX 15 87 16 88 28 89 17 90 24 92 27 93 18 94 23 95 25 96 26 97
REMARK SMILES IDX 19 98 22 99 20 100 21 101
REMARK H PARENT 3 5 90 23 56 34 8 79 16 91
REMARK Flexibility Score: inf
ROOT
ATOM      1  C   UNL     1       4.545  -1.285   0.585  1.00  0.00     0.116 C 
ENDROOT
BRANCH   1   2
ATOM      2  N   UNL     1       3.109  -1.125   0.409  1.00  0.00    -0.352 N 
ATOM      3  O   UNL     1       1.143  -0.084   0.080  1.00  0.00    -0.269 OA
ATOM      4  C   UNL     1       2.372  -0.016   0.061  1.00  0.00     0.251 C 
ATOM      5  H   UNL     1       2.580  -1.941   0.563  1.00  0.00     0.163 HD
BRANCH   4   6
ATOM      6  C   UNL     1       3.031   1.261  -0.304  1.00  0.00     0.039 A 
ATOM      7  C   UNL     1       4.148   1.290  -1.141  1.00  0.00     0.014 A 
ATOM      8  C   UNL     1       2.500   2.462   0.180  1.00  0.00     0.014 A 
ATOM      9  C   UNL     1       4.820   2.491  -1.365  1.00  0.00     0.010 A 
ATOM     10  C   UNL     1       3.130   3.678  -0.114  1.00  0.00     0.010 A 
ATOM     11  C   UNL     1       4.318   3.701  -0.860  1.00  0.00    -0.014 A 
BRANCH  11  12
ATOM     12  C   UNL     1       5.023   4.978  -1.155  1.00  0.00     0.031 A 
ATOM     13  C   UNL     1       5.635   5.802  -0.053  1.00  0.00     0.074 A 
ATOM     14  C   UNL     1       5.121   5.392  -2.435  1.00  0.00     0.049 A 
ATOM     15  N   UNL     1       6.275   6.942  -0.133  1.00  0.00    -0.248 NA
ATOM     16  C   UNL     1       5.508   5.283   1.318  1.00  0.00     0.031 C 
ATOM     17  C   UNL     1       4.562   4.687  -3.591  1.00  0.00     0.029 A 
ATOM     18  N   UNL     1       5.725   6.496  -2.981  1.00  0.00    -0.354 N 
ATOM     19  C   UNL     1       6.613   7.286   1.172  1.00  0.00     0.074 A 
ATOM     20  C   UNL     1       6.080   6.247   2.028  1.00  0.00     0.031 C 
ATOM     21  C   UNL     1       4.876   5.357  -4.709  1.00  0.00     0.029 A 
ATOM     22  C   UNL     1       5.602   6.570  -4.348  1.00  0.00     0.049 A 
ATOM     23  H   UNL     1       6.202   7.170  -2.445  1.00  0.00     0.167 HD
ATOM     24  C   UNL     1       7.309   8.363   1.613  1.00  0.00     0.037 A 
ATOM     25  C   UNL     1       6.005   7.516  -5.218  1.00  0.00     0.037 A 
ATOM     26  C   UNL     1       7.841   9.390   0.752  1.00  0.00     0.049 A 
ATOM     27  C   UNL     1       6.744   8.718  -4.702  1.00  0.00     0.074 A 
ATOM     28  C   UNL     1       8.588  10.503   1.100  1.00  0.00     0.029 A 
ATOM     29  N   UNL     1       7.677   9.439  -0.625  1.00  0.00    -0.354 N 
ATOM     30  N   UNL     1       7.083   9.009  -3.469  1.00  0.00    -0.248 NA
ATOM     31  C   UNL     1       7.156   9.721  -5.693  1.00  0.00     0.031 C 
ATOM     32  C   UNL     1       8.829  11.251  -0.057  1.00  0.00     0.029 A 
ATOM     33  C   UNL     1       8.285  10.574  -1.138  1.00  0.00     0.049 A 
ATOM     34  H   UNL     1       7.198   8.765  -1.161  1.00  0.00     0.167 HD
ATOM     35  C   UNL     1       7.769  10.216  -3.538  1.00  0.00     0.074 A 
ATOM     36  C   UNL     1       7.807  10.594  -4.936  1.00  0.00     0.031 C 
ATOM     37  C   UNL     1       8.320  10.941  -2.533  1.00  0.00     0.037 A 
BRANCH  24  38
ATOM     38  C   UNL     1       7.517   8.503   3.099  1.00  0.00     0.058 A 
ATOM     39  C   UNL     1       8.372   7.648   3.814  1.00  0.00     0.135 A 
ATOM     40  C   UNL     1       6.881   9.533   3.814  1.00  0.00     0.135 A 
ATOM     41  F   UNL     1       9.000   6.641   3.187  1.00  0.00    -0.206 F 
ATOM     42  C   UNL     1       8.560   7.786   5.186  1.00  0.00     0.059 A 
ATOM     43  C   UNL     1       7.077   9.707   5.181  1.00  0.00     0.059 A 
ATOM     44  F   UNL     1       6.057  10.384   3.183  1.00  0.00    -0.206 F 
ATOM     45  C   UNL     1       7.905   8.817   5.862  1.00  0.00     0.060 A 
BRANCH  45  46
ATOM     46  S   UNL     1       8.149   8.972   7.645  1.00  0.00     0.124 S 
ATOM     47  O   UNL     1       7.392   7.827   8.142  1.00  0.00    -0.237 OA
ATOM     48  O   UNL     1       9.599   8.876   7.772  1.00  0.00    -0.237 OA
ATOM     49  O   UNL     1       7.581  10.281   7.954  1.00  0.00    -0.744 OA
ENDBRANCH  45  46
ENDBRANCH  24  38
BRANCH  25  50
ATOM     50  C   UNL     1       5.707   7.356  -6.666  1.00  0.00     0.058 A 
ATOM     51  C   UNL     1       6.727   7.093  -7.591  1.00  0.00     0.135 A 
ATOM     52  C   UNL     1       4.389   7.423  -7.146  1.00  0.00     0.135 A 
ATOM     53  F   UNL     1       8.003   7.025  -7.182  1.00  0.00    -0.206 F 
ATOM     54  C   UNL     1       6.453   6.907  -8.942  1.00  0.00     0.059 A 
ATOM     55  C   UNL     1       4.087   7.213  -8.487  1.00  0.00     0.059 A 
ATOM     56  F   UNL     1       3.376   7.657  -6.298  1.00  0.00    -0.206 F 
ATOM     57  C   UNL     1       5.128   6.962  -9.379  1.00  0.00     0.060 A 
BRANCH  57  58
ATOM     58  S   UNL     1       4.778   6.654 -11.123  1.00  0.00     0.124 S 
ATOM     59  O   UNL     1       5.276   7.876 -11.743  1.00  0.00    -0.237 OA
ATOM     60  O   UNL     1       5.552   5.444 -11.382  1.00  0.00    -0.237 OA
ATOM     61  O   UNL     1       3.329   6.478 -11.149  1.00  0.00    -0.744 OA
ENDBRANCH  57  58
ENDBRANCH  25  50
BRANCH  37  62
ATOM     62  C   UNL     1       9.048  12.203  -2.909  1.00  0.00     0.058 A 
ATOM     63  C   UNL     1       8.366  13.353  -3.336  1.00  0.00     0.135 A 
ATOM     64  C   UNL     1      10.446  12.276  -2.792  1.00  0.00     0.135 A 
ATOM     65  F   UNL     1       7.031  13.336  -3.474  1.00  0.00    -0.206 F 
ATOM     66  C   UNL     1       9.046  14.525  -3.655  1.00  0.00     0.059 A 
ATOM     67  C   UNL     1      11.144  13.445  -3.078  1.00  0.00     0.059 A 
ATOM     68  F   UNL     1      11.147  11.207  -2.381  1.00  0.00    -0.206 F 
ATOM     69  C   UNL     1      10.436  14.562  -3.519  1.00  0.00     0.060 A 
BRANCH  69  70
ATOM     70  S   UNL     1      11.302  16.099  -3.900  1.00  0.00     0.124 S 
ATOM     71  O   UNL     1      11.223  16.129  -5.357  1.00  0.00    -0.237 OA
ATOM     72  O   UNL     1      10.495  17.094  -3.200  1.00  0.00    -0.237 OA
ATOM     73  O   UNL     1      12.637  15.883  -3.349  1.00  0.00    -0.744 OA
ENDBRANCH  69  70
ENDBRANCH  37  62
ENDBRANCH  11  12
ENDBRANCH   4   6
ENDBRANCH   1   2
BRANCH   1  74
ATOM     74  C   UNL     1       4.935  -1.799   1.968  1.00  0.00     0.023 C 
BRANCH  74  75
ATOM     75  C   UNL     1       4.435  -3.197   2.343  1.00  0.00     0.023 C 
BRANCH  75  76
ATOM     76  C   UNL     1       4.830  -4.349   1.411  1.00  0.00     0.116 C 
BRANCH  76  77
ATOM     77  N   UNL     1       6.269  -4.532   1.278  1.00  0.00    -0.352 N 
ATOM     78  C   UNL     1       7.075  -5.643   1.397  1.00  0.00     0.251 C 
ATOM     79  H   UNL     1       6.758  -3.705   1.063  1.00  0.00     0.163 HD
ATOM     80  O   UNL     1       8.293  -5.501   1.310  1.00  0.00    -0.269 OA
BRANCH  78  81
ATOM     81  C   UNL     1       6.534  -6.995   1.687  1.00  0.00     0.039 A 
ATOM     82  C   UNL     1       7.210  -7.789   2.623  1.00  0.00     0.014 A 
ATOM     83  C   UNL     1       5.395  -7.506   1.069  1.00  0.00     0.014 A 
ATOM     84  C   UNL     1       6.633  -8.974   3.099  1.00  0.00     0.006 A 
ATOM     85  C   UNL     1       4.816  -8.687   1.550  1.00  0.00     0.006 A 
ATOM     86  C   UNL     1       5.352  -9.346   2.673  1.00  0.00    -0.025 A 
BRANCH  86  87
ATOM     87  C   UNL     1       4.398 -10.158   3.561  1.00  0.00     0.114 C 
ATOM     88  N   UNL     1       5.074 -11.143   4.441  1.00  0.00    -0.378 N 
ATOM     89  C   UNL     1       3.560  -9.217   4.458  1.00  0.00     0.031 C 
ATOM     90  C   UNL     1       4.972 -11.067   5.838  1.00  0.00     0.038 A 
ATOM     91  H   UNL     1       5.607 -11.865   4.036  1.00  0.00     0.161 HD
ATOM     92  C   UNL     1       4.503  -8.667   5.545  1.00  0.00     0.049 C 
ATOM     93  C   UNL     1       2.762  -8.025   3.933  1.00  0.00     0.034 C 
ATOM     94  C   UNL     1       5.032 -12.216   6.630  1.00  0.00     0.027 A 
ATOM     95  C   UNL     1       4.669  -9.831   6.473  1.00  0.00    -0.016 A 
ATOM     96  C   UNL     1       3.861  -7.382   5.926  1.00  0.00    -0.023 C 
ATOM     97  C   UNL     1       2.967  -6.998   5.006  1.00  0.00    -0.030 C 
ATOM     98  C   UNL     1       4.801 -12.139   8.011  1.00  0.00     0.022 A 
ATOM     99  C   UNL     1       4.488  -9.746   7.856  1.00  0.00     0.027 A 
ATOM    100  C   UNL     1       4.540 -10.908   8.616  1.00  0.00     0.041 A 
ATOM    101  Cl  UNL     1       4.237 -10.830  10.309  1.00  0.00    -0.084 Cl
ENDBRANCH  86  87
ENDBRANCH  78  81
ENDBRANCH  76  77
ENDBRANCH  75  76
ENDBRANCH  74  75
ENDBRANCH   1  74
TORSDOF 15
