REMARK SMILES CN(C(=O)C[C@@H]1SC(=O)N(c2ccccc2)C1=O)c1ccccc1C(=O)NCCCCNC(=O)c1ccc(-c2c3nc(c(-c4c(F)cc(S(=O)(=O)[O-])cc4F)c4ccc([nH]4)c(-c4c(F)cc(S(=O)(=O)[O-])cc4F)c4nc(c(-c5c(F)cc(S(=O)(=O)[O-])cc5F)c5ccc2[nH]5)C=C4)C=C3)cc1
REMARK SMILES IDX 28 1 27 2 25 3 26 4 24 6 19 7 20 8 21 9 23 10 22 11 2 12
REMARK SMILES IDX 1 13 3 14 4 15 5 16 6 17 7 18 17 19 8 20 10 21 18 22 9 23
REMARK SMILES IDX 11 24 12 25 16 26 13 27 15 28 14 29 29 30 30 31 31 32 32 33
REMARK SMILES IDX 33 34 34 36 35 37 36 38 100 39 37 40 99 41 38 42 39 43 40 44
REMARK SMILES IDX 93 45 41 46 98 47 92 48 94 49 42 50 97 51 91 52 90 53 43 55
REMARK SMILES IDX 77 56 56 57 76 58 57 59 60 60 75 61 95 62 58 63 59 64 74 66
REMARK SMILES IDX 96 67 61 68 44 69 45 70 54 71 46 72 47 73 53 74 55 75 48 76
REMARK SMILES IDX 49 77 50 78 51 79 52 80 78 81 79 82 88 83 80 84 81 85 87 86
REMARK SMILES IDX 89 87 82 88 83 89 84 90 85 91 86 92 62 93 63 94 72 95 64 96
REMARK SMILES IDX 65 97 71 98 73 99 66 100 67 101 68 102 69 103 70 104
REMARK H PARENT 27 5 32 35 94 54 60 65
REMARK Flexibility Score: inf
ROOT
ATOM      1  C   UNL     1       2.505  -0.708   0.771  1.00  0.00     0.116 C 
ENDROOT
BRANCH   1   2
ATOM      2  N   UNL     1       3.476  -0.932  -0.216  1.00  0.00    -0.352 N 
ATOM      3  C   UNL     1       3.198  -1.441  -1.461  1.00  0.00     0.253 C 
ATOM      4  O   UNL     1       4.135  -1.341  -2.261  1.00  0.00    -0.269 OA
ATOM      5  H   UNL     1       4.411  -0.711  -0.004  1.00  0.00     0.163 HD
BRANCH   3   6
ATOM      6  C   UNL     1       1.891  -2.139  -1.895  1.00  0.00     0.063 A 
ATOM      7  C   UNL     1       0.544  -2.231  -1.383  1.00  0.00     0.056 A 
ATOM      8  C   UNL     1      -0.398  -2.998  -2.115  1.00  0.00     0.027 A 
ATOM      9  C   UNL     1      -0.070  -3.689  -3.282  1.00  0.00     0.002 A 
ATOM     10  C   UNL     1       2.174  -2.891  -3.075  1.00  0.00     0.016 A 
ATOM     11  C   UNL     1       1.225  -3.649  -3.756  1.00  0.00     0.001 A 
BRANCH   7  12
ATOM     12  N   UNL     1      -0.071  -1.591  -0.208  1.00  0.00    -0.315 N 
ATOM     13  C   UNL     1      -0.385  -0.171  -0.390  1.00  0.00     0.153 C 
BRANCH  12  14
ATOM     14  C   UNL     1      -0.461  -2.408   0.890  1.00  0.00     0.228 C 
ATOM     15  O   UNL     1      -0.166  -3.611   0.911  1.00  0.00    -0.274 OA
BRANCH  14  16
ATOM     16  C   UNL     1      -1.239  -1.872   2.136  1.00  0.00     0.125 C 
BRANCH  16  17
ATOM     17  C   UNL     1      -0.363  -1.673   3.428  1.00  0.00     0.156 C 
ATOM     18  S   UNL     1      -0.832  -2.211   5.108  1.00  0.00    -0.050 SA
ATOM     19  C   UNL     1      -0.233  -0.196   3.754  1.00  0.00     0.248 C 
ATOM     20  C   UNL     1       0.178  -0.899   5.857  1.00  0.00     0.293 C 
ATOM     21  N   UNL     1       0.465   0.085   4.934  1.00  0.00    -0.240 N 
ATOM     22  O   UNL     1      -0.893   0.584   3.075  1.00  0.00    -0.273 OA
ATOM     23  O   UNL     1       0.425  -0.914   7.052  1.00  0.00    -0.261 OA
BRANCH  21  24
ATOM     24  C   UNL     1       0.551   1.479   5.396  1.00  0.00     0.053 A 
ATOM     25  C   UNL     1      -1.054   2.236   5.360  1.00  0.00     0.027 A 
ATOM     26  C   UNL     1       1.995   2.611   5.634  1.00  0.00     0.027 A 
ATOM     27  C   UNL     1      -1.355   3.952   5.518  1.00  0.00     0.002 A 
ATOM     28  C   UNL     1       1.543   4.580   5.838  1.00  0.00     0.002 A 
ATOM     29  C   UNL     1      -0.137   5.125   5.753  1.00  0.00     0.000 A 
ENDBRANCH  21  24
ENDBRANCH  16  17
ENDBRANCH  14  16
ENDBRANCH  12  14
ENDBRANCH   7  12
ENDBRANCH   3   6
ENDBRANCH   1   2
BRANCH   1  30
ATOM     30  C   UNL     1       2.835  -0.937   2.205  1.00  0.00     0.023 C 
BRANCH  30  31
ATOM     31  C   UNL     1       3.136   0.261   3.058  1.00  0.00     0.023 C 
BRANCH  31  32
ATOM     32  C   UNL     1       2.636   1.638   2.600  1.00  0.00     0.116 C 
BRANCH  32  33
ATOM     33  N   UNL     1       1.180   2.000   2.515  1.00  0.00    -0.352 N 
ATOM     34  C   UNL     1       0.292   2.897   3.200  1.00  0.00     0.251 C 
ATOM     35  H   UNL     1       0.716   1.493   1.810  1.00  0.00     0.163 HD
ATOM     36  O   UNL     1      -0.747   3.256   2.651  1.00  0.00    -0.269 OA
BRANCH  34  37
ATOM     37  C   UNL     1       0.724   3.482   4.565  1.00  0.00     0.039 A 
ATOM     38  C   UNL     1       0.519   3.229   6.572  1.00  0.00     0.014 A 
ATOM     39  C   UNL     1       2.315   4.064   3.964  1.00  0.00     0.014 A 
ATOM     40  C   UNL     1       1.998   3.546   7.593  1.00  0.00     0.010 A 
ATOM     41  C   UNL     1       3.628   4.227   5.038  1.00  0.00     0.010 A 
ATOM     42  C   UNL     1       3.484   4.072   6.768  1.00  0.00    -0.014 A 
BRANCH  42  43
ATOM     43  C   UNL     1       4.466   4.989   7.436  1.00  0.00     0.031 A 
ATOM     44  C   UNL     1       4.569   6.491   7.078  1.00  0.00     0.074 A 
ATOM     45  C   UNL     1       5.290   4.438   8.332  1.00  0.00     0.049 A 
ATOM     46  N   UNL     1       5.236   7.437   7.700  1.00  0.00    -0.248 NA
ATOM     47  C   UNL     1       3.813   7.036   5.928  1.00  0.00     0.031 C 
ATOM     48  C   UNL     1       5.306   3.021   8.694  1.00  0.00     0.029 A 
ATOM     49  N   UNL     1       6.294   4.996   9.069  1.00  0.00    -0.354 N 
ATOM     50  C   UNL     1       4.871   8.647   7.097  1.00  0.00     0.074 A 
ATOM     51  C   UNL     1       3.947   8.344   6.047  1.00  0.00     0.031 C 
ATOM     52  C   UNL     1       6.285   2.817   9.587  1.00  0.00     0.029 A 
ATOM     53  C   UNL     1       6.983   4.078   9.817  1.00  0.00     0.049 A 
ATOM     54  H   UNL     1       6.501   5.958   9.063  1.00  0.00     0.167 HD
ATOM     55  C   UNL     1       5.294   9.907   7.349  1.00  0.00     0.037 A 
ATOM     56  C   UNL     1       8.079   4.245  10.574  1.00  0.00     0.037 A 
ATOM     57  C   UNL     1       6.383  10.185   8.237  1.00  0.00     0.049 A 
ATOM     58  C   UNL     1       8.643   5.630  10.722  1.00  0.00     0.074 A 
ATOM     59  C   UNL     1       6.970  11.399   8.534  1.00  0.00     0.029 A 
ATOM     60  N   UNL     1       7.090   9.209   8.924  1.00  0.00    -0.354 N 
ATOM     61  N   UNL     1       8.219   6.758  10.197  1.00  0.00    -0.248 NA
ATOM     62  C   UNL     1       9.820   5.769  11.582  1.00  0.00     0.031 C 
ATOM     63  C   UNL     1       8.081  11.148   9.343  1.00  0.00     0.029 A 
ATOM     64  C   UNL     1       8.124   9.791   9.627  1.00  0.00     0.049 A 
ATOM     65  H   UNL     1       6.885   8.246   8.911  1.00  0.00     0.167 HD
ATOM     66  C   UNL     1       9.048   7.748  10.711  1.00  0.00     0.074 A 
ATOM     67  C   UNL     1       9.988   7.082  11.590  1.00  0.00     0.031 C 
ATOM     68  C   UNL     1       9.035   9.087  10.492  1.00  0.00     0.037 A 
BRANCH  55  69
ATOM     69  C   UNL     1       4.634  11.059   6.622  1.00  0.00     0.058 A 
ATOM     70  C   UNL     1       3.312  11.441   6.910  1.00  0.00     0.135 A 
ATOM     71  C   UNL     1       5.340  11.838   5.689  1.00  0.00     0.135 A 
ATOM     72  F   UNL     1       2.572  10.721   7.769  1.00  0.00    -0.206 F 
ATOM     73  C   UNL     1       2.720  12.551   6.310  1.00  0.00     0.059 A 
ATOM     74  C   UNL     1       4.777  12.968   5.095  1.00  0.00     0.059 A 
ATOM     75  F   UNL     1       6.597  11.512   5.352  1.00  0.00    -0.206 F 
ATOM     76  C   UNL     1       3.466  13.318   5.413  1.00  0.00     0.060 A 
BRANCH  76  77
ATOM     77  S   UNL     1       2.699  14.786   4.689  1.00  0.00     0.124 S 
ATOM     78  O   UNL     1       1.644  14.194   3.871  1.00  0.00    -0.237 OA
ATOM     79  O   UNL     1       2.251  15.514   5.871  1.00  0.00    -0.237 OA
ATOM     80  O   UNL     1       3.789  15.410   3.945  1.00  0.00    -0.744 OA
ENDBRANCH  76  77
ENDBRANCH  55  69
BRANCH  56  81
ATOM     81  C   UNL     1       8.702   3.070  11.229  1.00  0.00     0.058 A 
ATOM     82  C   UNL     1       8.745   2.954  12.624  1.00  0.00     0.135 A 
ATOM     83  C   UNL     1       9.266   2.036  10.464  1.00  0.00     0.135 A 
ATOM     84  F   UNL     1       8.207   3.910  13.396  1.00  0.00    -0.206 F 
ATOM     85  C   UNL     1       9.371   1.879  13.241  1.00  0.00     0.059 A 
ATOM     86  C   UNL     1       9.857   0.929  11.057  1.00  0.00     0.059 A 
ATOM     87  F   UNL     1       9.221   2.085   9.123  1.00  0.00    -0.206 F 
ATOM     88  C   UNL     1       9.927   0.873  12.447  1.00  0.00     0.060 A 
BRANCH  88  89
ATOM     89  S   UNL     1      10.746  -0.511  13.260  1.00  0.00     0.124 S 
ATOM     90  O   UNL     1      11.923   0.139  13.824  1.00  0.00    -0.237 OA
ATOM     91  O   UNL     1       9.732  -0.943  14.217  1.00  0.00    -0.237 OA
ATOM     92  O   UNL     1      11.003  -1.441  12.164  1.00  0.00    -0.744 OA
ENDBRANCH  88  89
ENDBRANCH  56  81
BRANCH  68  93
ATOM     93  C   UNL     1      10.016   9.915  11.269  1.00  0.00     0.058 A 
ATOM     94  C   UNL     1      11.399   9.839  11.048  1.00  0.00     0.135 A 
ATOM     95  C   UNL     1       9.549  10.824  12.233  1.00  0.00     0.135 A 
ATOM     96  F   UNL     1      11.894   8.986  10.136  1.00  0.00    -0.206 F 
ATOM     97  C   UNL     1      12.290  10.595  11.796  1.00  0.00     0.059 A 
ATOM     98  C   UNL     1      10.419  11.627  12.956  1.00  0.00     0.059 A 
ATOM     99  F   UNL     1       8.233  10.948  12.469  1.00  0.00    -0.206 F 
ATOM    100  C   UNL     1      11.789  11.489  12.745  1.00  0.00     0.060 A 
BRANCH 100 101
ATOM    101  S   UNL     1      12.959  12.478  13.693  1.00  0.00     0.124 S 
ATOM    102  O   UNL     1      13.588  11.463  14.532  1.00  0.00    -0.237 OA
ATOM    103  O   UNL     1      13.800  13.046  12.645  1.00  0.00    -0.237 OA
ATOM    104  O   UNL     1      12.108  13.433  14.396  1.00  0.00    -0.744 OA
ENDBRANCH 100 101
ENDBRANCH  68  93
ENDBRANCH  42  43
ENDBRANCH  34  37
ENDBRANCH  32  33
ENDBRANCH  31  32
ENDBRANCH  30  31
ENDBRANCH   1  30
TORSDOF 19
