REMARK SMILES CN(CCc1cccs1)C(=O)N[C@@H]1COC[C@H]1C(=O)NCCCCNC(=O)c1ccc(-c2c3nc(c(-c4c(F)cc(S(=O)(=O)[O-])cc4F)c4ccc([nH]4)c(-c4c(F)cc(S(=O)(=O)[O-])cc4F)c4nc(c(-c5c(F)cc(S(=O)(=O)[O-])cc5F)c5ccc2[nH]5)C=C4)C=C3)cc1
REMARK SMILES IDX 21 1 20 2 18 3 19 4 17 6 13 7 14 8 15 9 16 10 12 11 10 12
REMARK SMILES IDX 11 13 2 15 1 16 3 17 4 18 5 19 6 20 9 21 7 22 8 23 22 24
REMARK SMILES IDX 23 25 24 26 25 27 26 28 27 30 28 31 29 32 93 33 30 34 92 35
REMARK SMILES IDX 31 36 32 37 33 38 86 39 34 40 91 41 85 42 87 43 35 44 90 45
REMARK SMILES IDX 84 46 83 47 36 49 70 50 49 51 69 52 50 53 53 54 68 55 88 56
REMARK SMILES IDX 51 57 52 58 67 60 89 61 54 62 37 63 38 64 47 65 39 66 40 67
REMARK SMILES IDX 46 68 48 69 41 70 42 71 43 72 44 73 45 74 71 75 72 76 81 77
REMARK SMILES IDX 73 78 74 79 80 80 82 81 75 82 76 83 77 84 78 85 79 86 55 87
REMARK SMILES IDX 56 88 65 89 57 90 58 91 64 92 66 93 59 94 60 95 61 96 62 97
REMARK SMILES IDX 63 98
REMARK H PARENT 20 5 12 14 25 29 87 48 53 59
REMARK Flexibility Score: inf
ROOT
ATOM      1  C   UNL     1       0.196   1.903  -6.203  1.00  0.00     0.116 C 
ENDROOT
BRANCH   1   2
ATOM      2  N   UNL     1       0.223   0.738  -5.348  1.00  0.00    -0.356 N 
ATOM      3  C   UNL     1      -0.413   0.512  -4.172  1.00  0.00     0.227 C 
ATOM      4  O   UNL     1      -0.349  -0.621  -3.687  1.00  0.00    -0.275 OA
ATOM      5  H   UNL     1       0.787  -0.002  -5.668  1.00  0.00     0.163 HD
BRANCH   3   6
ATOM      6  C   UNL     1      -1.165   1.604  -3.448  1.00  0.00     0.129 C 
ATOM      7  C   UNL     1      -0.274   2.756  -3.026  1.00  0.00     0.124 C 
ATOM      8  C   UNL     1      -0.940   3.983  -3.642  1.00  0.00     0.186 C 
ATOM      9  O   UNL     1      -2.196   3.612  -4.222  1.00  0.00    -0.378 OA
ATOM     10  C   UNL     1      -2.351   2.192  -4.169  1.00  0.00     0.176 C 
BRANCH   7  11
ATOM     11  N   UNL     1      -0.185   2.820  -1.576  1.00  0.00    -0.332 N 
ATOM     12  C   UNL     1       0.758   2.116  -0.890  1.00  0.00     0.317 C 
ATOM     13  O   UNL     1       1.948   2.328  -1.098  1.00  0.00    -0.249 OA
ATOM     14  H   UNL     1      -0.820   3.385  -1.079  1.00  0.00     0.165 HD
BRANCH  12  15
ATOM     15  N   UNL     1       0.268   1.223   0.051  1.00  0.00    -0.328 N 
ATOM     16  C   UNL     1       1.252   0.386   0.720  1.00  0.00     0.148 C 
BRANCH  15  17
ATOM     17  C   UNL     1      -1.117   0.738   0.100  1.00  0.00     0.126 C 
BRANCH  17  18
ATOM     18  C   UNL     1      -2.252   1.606   0.675  1.00  0.00     0.068 C 
BRANCH  18  19
ATOM     19  C   UNL     1      -2.347   3.059   0.307  1.00  0.00     0.006 A 
ATOM     20  C   UNL     1      -3.129   3.666  -0.661  1.00  0.00     0.015 A 
ATOM     21  S   UNL     1      -1.463   4.226   1.208  1.00  0.00    -0.149 S 
ATOM     22  C   UNL     1      -2.945   5.081  -0.703  1.00  0.00     0.012 A 
ATOM     23  C   UNL     1      -2.042   5.511   0.242  1.00  0.00     0.065 A 
ENDBRANCH  18  19
ENDBRANCH  17  18
ENDBRANCH  15  17
ENDBRANCH  12  15
ENDBRANCH   7  11
ENDBRANCH   3   6
ENDBRANCH   1   2
BRANCH   1  24
ATOM     24  C   UNL     1       1.506   2.684  -6.201  1.00  0.00     0.023 C 
BRANCH  24  25
ATOM     25  C   UNL     1       2.680   1.968  -6.858  1.00  0.00     0.023 C 
BRANCH  25  26
ATOM     26  C   UNL     1       2.356   1.310  -8.190  1.00  0.00     0.116 C 
BRANCH  26  27
ATOM     27  N   UNL     1       1.614   2.167  -9.106  1.00  0.00    -0.352 N 
ATOM     28  C   UNL     1       1.581   2.102 -10.479  1.00  0.00     0.251 C 
ATOM     29  H   UNL     1       1.071   2.877  -8.693  1.00  0.00     0.163 HD
ATOM     30  O   UNL     1       0.911   2.881 -11.135  1.00  0.00    -0.269 OA
BRANCH  28  31
ATOM     31  C   UNL     1       2.446   1.101 -11.125  1.00  0.00     0.039 A 
ATOM     32  C   UNL     1       3.480   1.559 -11.941  1.00  0.00     0.014 A 
ATOM     33  C   UNL     1       2.333  -0.248 -10.781  1.00  0.00     0.014 A 
ATOM     34  C   UNL     1       4.459   0.663 -12.357  1.00  0.00     0.010 A 
ATOM     35  C   UNL     1       3.351  -1.122 -11.135  1.00  0.00     0.010 A 
ATOM     36  C   UNL     1       4.424  -0.671 -11.919  1.00  0.00    -0.014 A 
BRANCH  36  37
ATOM     37  C   UNL     1       5.513  -1.611 -12.270  1.00  0.00     0.031 A 
ATOM     38  C   UNL     1       5.215  -2.796 -13.141  1.00  0.00     0.074 A 
ATOM     39  C   UNL     1       6.742  -1.429 -11.746  1.00  0.00     0.049 A 
ATOM     40  N   UNL     1       6.011  -3.762 -13.515  1.00  0.00    -0.248 NA
ATOM     41  C   UNL     1       3.833  -2.931 -13.630  1.00  0.00     0.031 C 
ATOM     42  C   UNL     1       7.122  -0.352 -10.826  1.00  0.00     0.029 A 
ATOM     43  N   UNL     1       7.896  -2.151 -11.901  1.00  0.00    -0.354 N 
ATOM     44  C   UNL     1       5.223  -4.629 -14.261  1.00  0.00     0.074 A 
ATOM     45  C   UNL     1       3.877  -4.102 -14.248  1.00  0.00     0.031 C 
ATOM     46  C   UNL     1       8.422  -0.477 -10.514  1.00  0.00     0.029 A 
ATOM     47  C   UNL     1       8.962  -1.653 -11.189  1.00  0.00     0.049 A 
ATOM     48  H   UNL     1       7.957  -2.953 -12.470  1.00  0.00     0.167 HD
ATOM     49  C   UNL     1       5.597  -5.750 -14.919  1.00  0.00     0.037 A 
ATOM     50  C   UNL     1      10.229  -2.099 -11.091  1.00  0.00     0.037 A 
ATOM     51  C   UNL     1       6.949  -6.236 -14.966  1.00  0.00     0.049 A 
ATOM     52  C   UNL     1      10.630  -3.318 -11.875  1.00  0.00     0.074 A 
ATOM     53  C   UNL     1       7.453  -7.308 -15.679  1.00  0.00     0.029 A 
ATOM     54  N   UNL     1       8.013  -5.675 -14.275  1.00  0.00    -0.354 N 
ATOM     55  N   UNL     1       9.891  -4.078 -12.649  1.00  0.00    -0.248 NA
ATOM     56  C   UNL     1      12.035  -3.737 -11.783  1.00  0.00     0.031 C 
ATOM     57  C   UNL     1       8.819  -7.416 -15.394  1.00  0.00     0.029 A 
ATOM     58  C   UNL     1       9.171  -6.389 -14.532  1.00  0.00     0.049 A 
ATOM     59  H   UNL     1       7.954  -4.886 -13.689  1.00  0.00     0.167 HD
ATOM     60  C   UNL     1      10.745  -5.054 -13.149  1.00  0.00     0.074 A 
ATOM     61  C   UNL     1      12.059  -4.778 -12.605  1.00  0.00     0.031 C 
ATOM     62  C   UNL     1      10.468  -6.088 -13.981  1.00  0.00     0.037 A 
BRANCH  49  63
ATOM     63  C   UNL     1       4.534  -6.515 -15.653  1.00  0.00     0.058 A 
ATOM     64  C   UNL     1       3.962  -6.026 -16.838  1.00  0.00     0.135 A 
ATOM     65  C   UNL     1       4.107  -7.769 -15.187  1.00  0.00     0.135 A 
ATOM     66  F   UNL     1       4.319  -4.823 -17.314  1.00  0.00    -0.206 F 
ATOM     67  C   UNL     1       2.990  -6.743 -17.526  1.00  0.00     0.059 A 
ATOM     68  C   UNL     1       3.153  -8.515 -15.872  1.00  0.00     0.059 A 
ATOM     69  F   UNL     1       4.616  -8.278 -14.054  1.00  0.00    -0.206 F 
ATOM     70  C   UNL     1       2.592  -7.988 -17.035  1.00  0.00     0.060 A 
BRANCH  70  71
ATOM     71  S   UNL     1       1.346  -8.918 -17.952  1.00  0.00     0.124 S 
ATOM     72  O   UNL     1       0.130  -8.187 -17.611  1.00  0.00    -0.237 OA
ATOM     73  O   UNL     1       1.803  -8.778 -19.331  1.00  0.00    -0.237 OA
ATOM     74  O   UNL     1       1.448 -10.263 -17.395  1.00  0.00    -0.744 OA
ENDBRANCH  70  71
ENDBRANCH  49  63
BRANCH  50  75
ATOM     75  C   UNL     1      11.212  -1.379 -10.239  1.00  0.00     0.058 A 
ATOM     76  C   UNL     1      12.251  -0.630 -10.810  1.00  0.00     0.135 A 
ATOM     77  C   UNL     1      11.131  -1.425  -8.839  1.00  0.00     0.135 A 
ATOM     78  F   UNL     1      12.371  -0.559 -12.144  1.00  0.00    -0.206 F 
ATOM     79  C   UNL     1      13.189   0.032 -10.024  1.00  0.00     0.059 A 
ATOM     80  C   UNL     1      12.045  -0.753  -8.032  1.00  0.00     0.059 A 
ATOM     81  F   UNL     1      10.144  -2.112  -8.244  1.00  0.00    -0.206 F 
ATOM     82  C   UNL     1      13.079  -0.037  -8.634  1.00  0.00     0.060 A 
BRANCH  82  83
ATOM     83  S   UNL     1      14.279   0.854  -7.621  1.00  0.00     0.124 S 
ATOM     84  O   UNL     1      15.447  -0.013  -7.719  1.00  0.00    -0.237 OA
ATOM     85  O   UNL     1      14.376   2.136  -8.313  1.00  0.00    -0.237 OA
ATOM     86  O   UNL     1      13.636   0.906  -6.311  1.00  0.00    -0.744 OA
ENDBRANCH  82  83
ENDBRANCH  50  75
BRANCH  62  87
ATOM     87  C   UNL     1      11.608  -6.984 -14.367  1.00  0.00     0.058 A 
ATOM     88  C   UNL     1      12.131  -7.929 -13.472  1.00  0.00     0.135 A 
ATOM     89  C   UNL     1      12.142  -6.937 -15.665  1.00  0.00     0.135 A 
ATOM     90  F   UNL     1      11.656  -8.008 -12.219  1.00  0.00    -0.206 F 
ATOM     91  C   UNL     1      13.159  -8.787 -13.845  1.00  0.00     0.059 A 
ATOM     92  C   UNL     1      13.155  -7.801 -16.066  1.00  0.00     0.059 A 
ATOM     93  F   UNL     1      11.667  -6.057 -16.560  1.00  0.00    -0.206 F 
ATOM     94  C   UNL     1      13.664  -8.716 -15.145  1.00  0.00     0.060 A 
BRANCH  94  95
ATOM     95  S   UNL     1      14.972  -9.862 -15.630  1.00  0.00     0.124 S 
ATOM     96  O   UNL     1      16.138  -9.261 -14.993  1.00  0.00    -0.237 OA
ATOM     97  O   UNL     1      14.514 -11.124 -15.057  1.00  0.00    -0.237 OA
ATOM     98  O   UNL     1      14.950  -9.800 -17.089  1.00  0.00    -0.744 OA
ENDBRANCH  94  95
ENDBRANCH  62  87
ENDBRANCH  36  37
ENDBRANCH  28  31
ENDBRANCH  26  27
ENDBRANCH  25  26
ENDBRANCH  24  25
ENDBRANCH   1  24
TORSDOF 19
