REMARK SMILES CC(C)[C@@H](CC(=O)OC(C)(C)C)C(=O)NCCCCNC(=O)c1ccc(-c2c3nc(c(-c4c(F)cc(S(=O)(=O)[O-])cc4F)c4ccc([nH]4)c(-c4c(F)cc(S(=O)(=O)[O-])cc4F)c4nc(c(-c5c(F)cc(S(=O)(=O)[O-])cc5F)c5ccc2[nH]5)C=C4)C=C3)cc1
REMARK SMILES IDX 17 1 16 2 15 3 13 4 14 5 4 7 2 8 1 9 3 10 5 11 6 12 7 13
REMARK SMILES IDX 8 14 9 15 10 16 11 17 12 18 18 19 19 20 20 21 21 22 22 24
REMARK SMILES IDX 23 25 24 26 88 27 25 28 87 29 26 30 27 31 28 32 81 33 29 34
REMARK SMILES IDX 86 35 80 36 82 37 30 38 85 39 79 40 78 41 31 43 65 44 44 45
REMARK SMILES IDX 64 46 45 47 48 48 63 49 83 50 46 51 47 52 62 54 84 55 49 56
REMARK SMILES IDX 32 57 33 58 42 59 34 60 35 61 41 62 43 63 36 64 37 65 38 66
REMARK SMILES IDX 39 67 40 68 66 69 67 70 76 71 68 72 69 73 75 74 77 75 70 76
REMARK SMILES IDX 71 77 72 78 73 79 74 80 50 81 51 82 60 83 52 84 53 85 59 86
REMARK SMILES IDX 61 87 54 88 55 89 56 90 57 91 58 92
REMARK H PARENT 15 6 20 23 82 42 48 53
REMARK Flexibility Score: inf
ROOT
ATOM      1  C   UNL     1       0.969   1.409  -4.866  1.00  0.00     0.023 C 
ENDROOT
BRANCH   1   2
ATOM      2  C   UNL     1      -0.282   1.661  -4.031  1.00  0.00     0.116 C 
BRANCH   2   3
ATOM      3  N   UNL     1      -1.133   0.509  -3.866  1.00  0.00    -0.356 N 
ATOM      4  C   UNL     1      -1.484  -0.170  -2.743  1.00  0.00     0.223 C 
ATOM      5  O   UNL     1      -2.369  -1.025  -2.854  1.00  0.00    -0.275 OA
ATOM      6  H   UNL     1      -1.522   0.159  -4.699  1.00  0.00     0.163 HD
BRANCH   4   7
ATOM      7  C   UNL     1      -0.838   0.071  -1.371  1.00  0.00     0.092 C 
BRANCH   7   8
ATOM      8  C   UNL     1       0.706  -0.059  -1.316  1.00  0.00    -0.004 C 
ATOM      9  C   UNL     1       1.223  -0.062   0.130  1.00  0.00     0.008 C 
ATOM     10  C   UNL     1       1.176  -1.355  -1.997  1.00  0.00     0.008 C 
ENDBRANCH   7   8
BRANCH   7  11
ATOM     11  C   UNL     1      -1.504   1.228  -0.606  1.00  0.00     0.136 C 
BRANCH  11  12
ATOM     12  C   UNL     1      -1.239   2.658  -1.019  1.00  0.00     0.307 C 
ATOM     13  O   UNL     1      -2.136   3.443  -1.293  1.00  0.00    -0.252 OA
BRANCH  12  14
ATOM     14  O   UNL     1       0.080   2.966  -0.959  1.00  0.00    -0.460 OA
BRANCH  14  15
ATOM     15  C   UNL     1       0.566   4.314  -1.231  1.00  0.00     0.104 C 
ATOM     16  C   UNL     1       0.059   4.912  -2.550  1.00  0.00     0.056 C 
ATOM     17  C   UNL     1       0.230   5.235  -0.057  1.00  0.00     0.056 C 
ATOM     18  C   UNL     1       2.091   4.156  -1.339  1.00  0.00     0.056 C 
ENDBRANCH  14  15
ENDBRANCH  12  14
ENDBRANCH  11  12
ENDBRANCH   7  11
ENDBRANCH   4   7
ENDBRANCH   2   3
ENDBRANCH   1   2
BRANCH   1  19
ATOM     19  C   UNL     1       0.855   1.770  -6.348  1.00  0.00     0.023 C 
BRANCH  19  20
ATOM     20  C   UNL     1       0.390   3.191  -6.668  1.00  0.00     0.116 C 
BRANCH  20  21
ATOM     21  N   UNL     1       1.138   4.247  -6.001  1.00  0.00    -0.352 N 
ATOM     22  C   UNL     1       1.217   5.582  -6.340  1.00  0.00     0.251 C 
ATOM     23  H   UNL     1       1.653   3.974  -5.207  1.00  0.00     0.163 HD
ATOM     24  O   UNL     1       1.890   6.351  -5.665  1.00  0.00    -0.269 OA
BRANCH  22  25
ATOM     25  C   UNL     1       0.554   6.050  -7.579  1.00  0.00     0.039 A 
ATOM     26  C   UNL     1       1.334   6.702  -8.538  1.00  0.00     0.014 A 
ATOM     27  C   UNL     1      -0.784   5.748  -7.845  1.00  0.00     0.014 A 
ATOM     28  C   UNL     1       0.810   6.932  -9.812  1.00  0.00     0.010 A 
ATOM     29  C   UNL     1      -1.284   5.921  -9.133  1.00  0.00     0.010 A 
ATOM     30  C   UNL     1      -0.478   6.476 -10.138  1.00  0.00    -0.014 A 
BRANCH  30  31
ATOM     31  C   UNL     1      -0.951   6.473 -11.545  1.00  0.00     0.031 A 
ATOM     32  C   UNL     1      -2.116   7.318 -11.968  1.00  0.00     0.074 A 
ATOM     33  C   UNL     1      -0.372   5.631 -12.425  1.00  0.00     0.049 A 
ATOM     34  N   UNL     1      -2.698   7.390 -13.138  1.00  0.00    -0.248 NA
ATOM     35  C   UNL     1      -2.723   8.175 -10.938  1.00  0.00     0.031 C 
ATOM     36  C   UNL     1       0.726   4.709 -12.118  1.00  0.00     0.029 A 
ATOM     37  N   UNL     1      -0.630   5.403 -13.754  1.00  0.00    -0.354 N 
ATOM     38  C   UNL     1      -3.745   8.289 -12.985  1.00  0.00     0.074 A 
ATOM     39  C   UNL     1      -3.742   8.707 -11.598  1.00  0.00     0.031 C 
ATOM     40  C   UNL     1       1.062   4.037 -13.231  1.00  0.00     0.029 A 
ATOM     41  C   UNL     1       0.189   4.455 -14.321  1.00  0.00     0.049 A 
ATOM     42  H   UNL     1      -1.335   5.875 -14.254  1.00  0.00     0.167 HD
ATOM     43  C   UNL     1      -4.619   8.738 -13.918  1.00  0.00     0.037 A 
ATOM     44  C   UNL     1       0.233   3.977 -15.579  1.00  0.00     0.037 A 
ATOM     45  C   UNL     1      -4.608   8.336 -15.300  1.00  0.00     0.049 A 
ATOM     46  C   UNL     1      -0.725   4.513 -16.604  1.00  0.00     0.074 A 
ATOM     47  C   UNL     1      -5.422   8.771 -16.332  1.00  0.00     0.029 A 
ATOM     48  N   UNL     1      -3.737   7.405 -15.847  1.00  0.00    -0.354 N 
ATOM     49  N   UNL     1      -1.672   5.408 -16.453  1.00  0.00    -0.248 NA
ATOM     50  C   UNL     1      -0.606   3.981 -17.968  1.00  0.00     0.031 C 
ATOM     51  C   UNL     1      -5.055   8.089 -17.498  1.00  0.00     0.029 A 
ATOM     52  C   UNL     1      -3.997   7.247 -17.198  1.00  0.00     0.049 A 
ATOM     53  H   UNL     1      -3.037   6.926 -15.347  1.00  0.00     0.167 HD
ATOM     54  C   UNL     1      -2.250   5.561 -17.707  1.00  0.00     0.074 A 
ATOM     55  C   UNL     1      -1.541   4.673 -18.607  1.00  0.00     0.031 C 
ATOM     56  C   UNL     1      -3.276   6.364 -18.079  1.00  0.00     0.037 A 
BRANCH  43  57
ATOM     57  C   UNL     1      -5.655   9.725 -13.466  1.00  0.00     0.058 A 
ATOM     58  C   UNL     1      -5.318  11.059 -13.187  1.00  0.00     0.135 A 
ATOM     59  C   UNL     1      -6.995   9.339 -13.312  1.00  0.00     0.135 A 
ATOM     60  F   UNL     1      -4.046  11.473 -13.305  1.00  0.00    -0.206 F 
ATOM     61  C   UNL     1      -6.268  11.969 -12.737  1.00  0.00     0.059 A 
ATOM     62  C   UNL     1      -7.967  10.239 -12.882  1.00  0.00     0.059 A 
ATOM     63  F   UNL     1      -7.369   8.075 -13.565  1.00  0.00    -0.206 F 
ATOM     64  C   UNL     1      -7.589  11.547 -12.579  1.00  0.00     0.060 A 
BRANCH  64  65
ATOM     65  S   UNL     1      -8.810  12.729 -11.972  1.00  0.00     0.124 S 
ATOM     66  O   UNL     1      -8.531  12.723 -10.539  1.00  0.00    -0.237 OA
ATOM     67  O   UNL     1      -8.449  13.952 -12.681  1.00  0.00    -0.237 OA
ATOM     68  O   UNL     1     -10.082  12.133 -12.368  1.00  0.00    -0.744 OA
ENDBRANCH  64  65
ENDBRANCH  43  57
BRANCH  44  69
ATOM     69  C   UNL     1       1.249   2.958 -15.947  1.00  0.00     0.058 A 
ATOM     70  C   UNL     1       2.377   3.314 -16.700  1.00  0.00     0.135 A 
ATOM     71  C   UNL     1       1.127   1.623 -15.536  1.00  0.00     0.135 A 
ATOM     72  F   UNL     1       2.533   4.580 -17.117  1.00  0.00    -0.206 F 
ATOM     73  C   UNL     1       3.348   2.379 -17.043  1.00  0.00     0.059 A 
ATOM     74  C   UNL     1       2.093   0.673 -15.852  1.00  0.00     0.059 A 
ATOM     75  F   UNL     1       0.074   1.240 -14.798  1.00  0.00    -0.206 F 
ATOM     76  C   UNL     1       3.196   1.059 -16.613  1.00  0.00     0.060 A 
BRANCH  76  77
ATOM     77  S   UNL     1       4.489  -0.139 -17.010  1.00  0.00     0.124 S 
ATOM     78  O   UNL     1       4.172  -0.463 -18.395  1.00  0.00    -0.237 OA
ATOM     79  O   UNL     1       5.707   0.636 -16.797  1.00  0.00    -0.237 OA
ATOM     80  O   UNL     1       4.259  -1.206 -16.040  1.00  0.00    -0.744 OA
ENDBRANCH  76  77
ENDBRANCH  44  69
BRANCH  56  81
ATOM     81  C   UNL     1      -3.676   6.338 -19.525  1.00  0.00     0.058 A 
ATOM     82  C   UNL     1      -4.447   5.292 -20.052  1.00  0.00     0.135 A 
ATOM     83  C   UNL     1      -3.321   7.393 -20.381  1.00  0.00     0.135 A 
ATOM     84  F   UNL     1      -4.803   4.257 -19.274  1.00  0.00    -0.206 F 
ATOM     85  C   UNL     1      -4.843   5.284 -21.385  1.00  0.00     0.059 A 
ATOM     86  C   UNL     1      -3.720   7.413 -21.713  1.00  0.00     0.059 A 
ATOM     87  F   UNL     1      -2.588   8.418 -19.921  1.00  0.00    -0.206 F 
ATOM     88  C   UNL     1      -4.474   6.349 -22.209  1.00  0.00     0.060 A 
BRANCH  88  89
ATOM     89  S   UNL     1      -5.023   6.353 -23.928  1.00  0.00     0.124 S 
ATOM     90  O   UNL     1      -4.059   5.449 -24.546  1.00  0.00    -0.237 OA
ATOM     91  O   UNL     1      -6.390   5.850 -23.826  1.00  0.00    -0.237 OA
ATOM     92  O   UNL     1      -4.908   7.756 -24.315  1.00  0.00    -0.744 OA
ENDBRANCH  88  89
ENDBRANCH  56  81
ENDBRANCH  30  31
ENDBRANCH  22  25
ENDBRANCH  20  21
ENDBRANCH  19  20
ENDBRANCH   1  19
TORSDOF 19
