REMARK SMILES O=C(CCN1C(=O)[C@@H]2[C@@H](C1=O)[C@H]1c3ccccc3[C@]2(Br)c2ccccc21)NCCCCNC(=O)c1ccc(-c2c3nc(c(-c4c(F)cc(S(=O)(=O)[O-])cc4F)c4ccc([nH]4)c(-c4c(F)cc(S(=O)(=O)[O-])cc4F)c4nc(c(-c5c(F)cc(S(=O)(=O)[O-])cc5F)c5ccc2[nH]5)C=C4)C=C3)cc1
REMARK SMILES IDX 30 1 29 2 28 3 27 4 1 5 2 6 3 8 4 9 5 10 6 11 10 12 7 13
REMARK SMILES IDX 8 14 9 15 11 16 19 17 12 18 21 19 20 20 18 21 26 22 13 23
REMARK SMILES IDX 22 24 17 25 25 26 14 27 23 28 16 29 24 30 15 31 31 32 32 33
REMARK SMILES IDX 33 34 34 36 35 37 36 38 100 39 37 40 99 41 38 42 39 43 40 44
REMARK SMILES IDX 93 45 41 46 98 47 92 48 94 49 42 50 97 51 91 52 90 53 43 55
REMARK SMILES IDX 77 56 56 57 76 58 57 59 60 60 75 61 95 62 58 63 59 64 74 66
REMARK SMILES IDX 96 67 61 68 44 69 45 70 54 71 46 72 47 73 53 74 55 75 48 76
REMARK SMILES IDX 49 77 50 78 51 79 52 80 78 81 79 82 88 83 80 84 81 85 87 86
REMARK SMILES IDX 89 87 82 88 83 89 84 90 85 91 86 92 62 93 63 94 72 95 64 96
REMARK SMILES IDX 65 97 71 98 73 99 66 100 67 101 68 102 69 103 70 104
REMARK H PARENT 27 7 32 35 94 54 60 65
REMARK Flexibility Score: inf
ROOT
ATOM      1  C   UNL     1       3.390  -4.723  -0.153  1.00  0.00     0.023 C 
ENDROOT
BRANCH   1   2
ATOM      2  C   UNL     1       2.075  -3.930  -0.013  1.00  0.00     0.023 C 
BRANCH   2   3
ATOM      3  C   UNL     1       2.099  -2.597   0.763  1.00  0.00     0.116 C 
BRANCH   3   4
ATOM      4  N   UNL     1       2.751  -1.480   0.078  1.00  0.00    -0.356 N 
ATOM      5  O   UNL     1       1.006   0.008   0.333  1.00  0.00    -0.275 OA
ATOM      6  C   UNL     1       2.156  -0.233  -0.027  1.00  0.00     0.221 C 
ATOM      7  H   UNL     1       3.640  -1.620  -0.322  1.00  0.00     0.163 HD
BRANCH   6   8
ATOM      8  C   UNL     1       3.019   0.862  -0.634  1.00  0.00     0.122 C 
BRANCH   8   9
ATOM      9  C   UNL     1       3.703   1.728   0.427  1.00  0.00     0.138 C 
BRANCH   9  10
ATOM     10  N   UNL     1       4.930   1.146   0.938  1.00  0.00    -0.281 N 
ATOM     11  C   UNL     1       5.040   0.562   2.201  1.00  0.00     0.235 C 
ATOM     12  C   UNL     1       6.100   1.003   0.188  1.00  0.00     0.234 C 
ATOM     13  O   UNL     1       4.152   0.319   2.980  1.00  0.00    -0.274 OA
ATOM     14  C   UNL     1       6.523   0.359   2.380  1.00  0.00     0.118 C 
ATOM     15  C   UNL     1       6.822  -0.064   0.932  1.00  0.00     0.105 C 
ATOM     16  O   UNL     1       6.357   1.452  -0.910  1.00  0.00    -0.274 OA
ATOM     17  C   UNL     1       7.220  -0.620   3.329  1.00  0.00     0.088 C 
ATOM     18  C   UNL     1       8.206  -0.703   0.837  1.00  0.00     0.063 C 
ATOM     19  C   UNL     1       8.724  -0.241   3.235  1.00  0.00    -0.022 A 
ATOM     20  Br  UNL     1       6.514  -0.468   5.119  1.00  0.00    -0.074 Br
ATOM     21  C   UNL     1       7.165  -2.011   2.704  1.00  0.00    -0.022 A 
ATOM     22  C   UNL     1       9.207  -0.211   1.882  1.00  0.00    -0.035 A 
ATOM     23  C   UNL     1       7.810  -2.092   1.399  1.00  0.00    -0.035 A 
ATOM     24  C   UNL     1       9.641  -0.212   4.285  1.00  0.00     0.006 A 
ATOM     25  C   UNL     1       6.546  -3.108   3.224  1.00  0.00     0.006 A 
ATOM     26  C   UNL     1      10.569  -0.117   1.613  1.00  0.00     0.005 A 
ATOM     27  C   UNL     1       7.909  -3.265   0.681  1.00  0.00     0.005 A 
ATOM     28  C   UNL     1      11.005  -0.127   4.002  1.00  0.00     0.000 A 
ATOM     29  C   UNL     1       6.590  -4.245   2.453  1.00  0.00     0.000 A 
ATOM     30  C   UNL     1      11.464  -0.071   2.681  1.00  0.00     0.000 A 
ATOM     31  C   UNL     1       7.284  -4.358   1.232  1.00  0.00     0.000 A 
ENDBRANCH   9  10
ENDBRANCH   8   9
ENDBRANCH   6   8
ENDBRANCH   3   4
ENDBRANCH   2   3
ENDBRANCH   1   2
BRANCH   1  32
ATOM     32  C   UNL     1       4.035  -5.364   1.096  1.00  0.00     0.116 C 
BRANCH  32  33
ATOM     33  N   UNL     1       3.646  -6.713   1.502  1.00  0.00    -0.352 N 
ATOM     34  C   UNL     1       4.393  -7.748   2.080  1.00  0.00     0.251 C 
ATOM     35  H   UNL     1       2.700  -6.932   1.341  1.00  0.00     0.163 HD
ATOM     36  O   UNL     1       3.796  -8.742   2.491  1.00  0.00    -0.269 OA
BRANCH  34  37
ATOM     37  C   UNL     1       5.888  -7.732   2.222  1.00  0.00     0.039 A 
ATOM     38  C   UNL     1       6.519  -7.199   3.341  1.00  0.00     0.014 A 
ATOM     39  C   UNL     1       6.715  -8.369   1.300  1.00  0.00     0.014 A 
ATOM     40  C   UNL     1       7.924  -6.947   3.325  1.00  0.00     0.010 A 
ATOM     41  C   UNL     1       8.132  -8.263   1.391  1.00  0.00     0.010 A 
ATOM     42  C   UNL     1       8.777  -7.398   2.301  1.00  0.00    -0.014 A 
BRANCH  42  43
ATOM     43  C   UNL     1      10.236  -6.911   2.071  1.00  0.00     0.031 A 
ATOM     44  C   UNL     1      10.803  -6.797   0.635  1.00  0.00     0.074 A 
ATOM     45  C   UNL     1      11.095  -6.457   3.026  1.00  0.00     0.049 A 
ATOM     46  N   UNL     1      12.050  -6.715   0.216  1.00  0.00    -0.248 NA
ATOM     47  C   UNL     1       9.835  -6.779  -0.473  1.00  0.00     0.031 C 
ATOM     48  C   UNL     1      10.826  -6.309   4.453  1.00  0.00     0.029 A 
ATOM     49  N   UNL     1      12.410  -6.005   2.919  1.00  0.00    -0.354 N 
ATOM     50  C   UNL     1      12.008  -6.753  -1.181  1.00  0.00     0.074 A 
ATOM     51  C   UNL     1      10.614  -6.870  -1.540  1.00  0.00     0.031 C 
ATOM     52  C   UNL     1      11.874  -5.731   5.060  1.00  0.00     0.029 A 
ATOM     53  C   UNL     1      12.976  -5.603   4.114  1.00  0.00     0.049 A 
ATOM     54  H   UNL     1      12.895  -5.975   2.063  1.00  0.00     0.167 HD
ATOM     55  C   UNL     1      13.009  -6.683  -2.098  1.00  0.00     0.037 A 
ATOM     56  C   UNL     1      14.233  -5.240   4.468  1.00  0.00     0.037 A 
ATOM     57  C   UNL     1      14.396  -6.417  -1.806  1.00  0.00     0.049 A 
ATOM     58  C   UNL     1      15.363  -5.260   3.472  1.00  0.00     0.074 A 
ATOM     59  C   UNL     1      15.460  -6.332  -2.693  1.00  0.00     0.029 A 
ATOM     60  N   UNL     1      14.910  -6.145  -0.551  1.00  0.00    -0.354 N 
ATOM     61  N   UNL     1      15.322  -5.486   2.184  1.00  0.00    -0.248 NA
ATOM     62  C   UNL     1      16.722  -5.015   3.991  1.00  0.00     0.031 C 
ATOM     63  C   UNL     1      16.623  -6.051  -1.969  1.00  0.00     0.029 A 
ATOM     64  C   UNL     1      16.275  -5.910  -0.639  1.00  0.00     0.049 A 
ATOM     65  H   UNL     1      14.385  -6.122   0.282  1.00  0.00     0.167 HD
ATOM     66  C   UNL     1      16.641  -5.408   1.740  1.00  0.00     0.074 A 
ATOM     67  C   UNL     1      17.458  -5.093   2.890  1.00  0.00     0.031 C 
ATOM     68  C   UNL     1      17.118  -5.593   0.486  1.00  0.00     0.037 A 
BRANCH  55  69
ATOM     69  C   UNL     1      12.660  -6.934  -3.548  1.00  0.00     0.058 A 
ATOM     70  C   UNL     1      11.956  -6.007  -4.332  1.00  0.00     0.135 A 
ATOM     71  C   UNL     1      13.103  -8.113  -4.178  1.00  0.00     0.135 A 
ATOM     72  F   UNL     1      11.499  -4.869  -3.785  1.00  0.00    -0.206 F 
ATOM     73  C   UNL     1      11.668  -6.256  -5.672  1.00  0.00     0.059 A 
ATOM     74  C   UNL     1      12.858  -8.367  -5.524  1.00  0.00     0.059 A 
ATOM     75  F   UNL     1      13.796  -9.029  -3.483  1.00  0.00    -0.206 F 
ATOM     76  C   UNL     1      12.123  -7.440  -6.258  1.00  0.00     0.060 A 
BRANCH  76  77
ATOM     77  S   UNL     1      11.726  -7.752  -7.992  1.00  0.00     0.124 S 
ATOM     78  O   UNL     1      10.289  -7.997  -7.921  1.00  0.00    -0.237 OA
ATOM     79  O   UNL     1      12.124  -6.502  -8.632  1.00  0.00    -0.237 OA
ATOM     80  O   UNL     1      12.544  -8.914  -8.326  1.00  0.00    -0.744 OA
ENDBRANCH  76  77
ENDBRANCH  55  69
BRANCH  56  81
ATOM     81  C   UNL     1      14.526  -4.896   5.895  1.00  0.00     0.058 A 
ATOM     82  C   UNL     1      14.867  -3.588   6.277  1.00  0.00     0.135 A 
ATOM     83  C   UNL     1      14.450  -5.867   6.907  1.00  0.00     0.135 A 
ATOM     84  F   UNL     1      15.001  -2.630   5.347  1.00  0.00    -0.206 F 
ATOM     85  C   UNL     1      15.086  -3.250   7.611  1.00  0.00     0.059 A 
ATOM     86  C   UNL     1      14.629  -5.547   8.249  1.00  0.00     0.059 A 
ATOM     87  F   UNL     1      14.149  -7.138   6.597  1.00  0.00    -0.206 F 
ATOM     88  C   UNL     1      14.941  -4.233   8.592  1.00  0.00     0.060 A 
BRANCH  88  89
ATOM     89  S   UNL     1      15.092  -3.756  10.329  1.00  0.00     0.124 S 
ATOM     90  O   UNL     1      16.524  -3.514  10.447  1.00  0.00    -0.237 OA
ATOM     91  O   UNL     1      14.236  -2.575  10.394  1.00  0.00    -0.237 OA
ATOM     92  O   UNL     1      14.587  -4.925  11.043  1.00  0.00    -0.744 OA
ENDBRANCH  88  89
ENDBRANCH  56  81
BRANCH  68  93
ATOM     93  C   UNL     1      18.598  -5.443   0.252  1.00  0.00     0.058 A 
ATOM     94  C   UNL     1      19.515  -6.415   0.684  1.00  0.00     0.135 A 
ATOM     95  C   UNL     1      19.104  -4.349  -0.471  1.00  0.00     0.135 A 
ATOM     96  F   UNL     1      19.090  -7.479   1.383  1.00  0.00    -0.206 F 
ATOM     97  C   UNL     1      20.878  -6.300   0.423  1.00  0.00     0.059 A 
ATOM     98  C   UNL     1      20.460  -4.226  -0.764  1.00  0.00     0.059 A 
ATOM     99  F   UNL     1      18.274  -3.393  -0.918  1.00  0.00    -0.206 F 
ATOM    100  C   UNL     1      21.342  -5.203  -0.306  1.00  0.00     0.060 A 
BRANCH 100 101
ATOM    101  S   UNL     1      23.109  -5.088  -0.665  1.00  0.00     0.124 S 
ATOM    102  O   UNL     1      23.661  -4.808   0.657  1.00  0.00    -0.237 OA
ATOM    103  O   UNL     1      23.403  -6.410  -1.207  1.00  0.00    -0.237 OA
ATOM    104  O   UNL     1      23.192  -3.990  -1.623  1.00  0.00    -0.744 OA
ENDBRANCH 100 101
ENDBRANCH  68  93
ENDBRANCH  42  43
ENDBRANCH  34  37
ENDBRANCH  32  33
ENDBRANCH   1  32
TORSDOF 16
