REMARK SMILES Cc1c(NC(=O)[C@@H]2CC=CC[C@@H]2C(=O)NCCCCNC(=O)c2ccc(-c3c4nc(c(-c5c(F)cc(S(=O)(=O)[O-])cc5F)c5ccc([nH]5)c(-c5c(F)cc(S(=O)(=O)[O-])cc5F)c5nc(c(-c6c(F)cc(S(=O)(=O)[O-])cc6F)c6ccc3[nH]6)C=C5)C=C4)cc2)cccc1C(=O)N1CCOCC1
REMARK SMILES IDX 17 1 16 2 15 3 13 4 14 5 12 7 7 8 8 9 9 10 11 11 10 12 5 13
REMARK SMILES IDX 4 14 6 16 3 17 1 18 2 19 92 20 89 21 91 22 90 23 93 24 94 25
REMARK SMILES IDX 95 26 96 27 100 28 97 29 99 30 98 31 18 32 19 33 20 34 21 35
REMARK SMILES IDX 22 37 23 38 24 39 88 40 25 41 87 42 26 43 27 44 28 45 81 46
REMARK SMILES IDX 29 47 86 48 80 49 82 50 30 51 85 52 79 53 78 54 31 56 65 57
REMARK SMILES IDX 44 58 64 59 45 60 48 61 63 62 83 63 46 64 47 65 62 67 84 68
REMARK SMILES IDX 49 69 32 70 33 71 42 72 34 73 35 74 41 75 43 76 36 77 37 78
REMARK SMILES IDX 38 79 39 80 40 81 66 82 67 83 76 84 68 85 69 86 75 87 77 88
REMARK SMILES IDX 70 89 71 90 72 91 73 92 74 93 50 94 51 95 60 96 52 97 53 98
REMARK SMILES IDX 59 99 61 100 54 101 55 102 56 103 57 104 58 105
REMARK H PARENT 15 6 4 15 20 36 82 55 48 66
REMARK Flexibility Score: inf
ROOT
ATOM      1  C   UNL     1      -3.935  -4.056   2.836  1.00  0.00     0.023 C 
ENDROOT
BRANCH   1   2
ATOM      2  C   UNL     1      -3.597  -4.079   1.294  1.00  0.00     0.116 C 
BRANCH   2   3
ATOM      3  N   UNL     1      -3.849  -2.855   0.503  1.00  0.00    -0.356 N 
ATOM      4  C   UNL     1      -3.280  -2.370  -0.643  1.00  0.00     0.224 C 
ATOM      5  O   UNL     1      -4.044  -1.778  -1.426  1.00  0.00    -0.275 OA
ATOM      6  H   UNL     1      -4.561  -2.282   0.870  1.00  0.00     0.163 HD
BRANCH   4   7
ATOM      7  C   UNL     1      -1.772  -2.333  -0.990  1.00  0.00     0.095 C 
ATOM      8  C   UNL     1      -0.738  -3.152  -0.191  1.00  0.00     0.095 C 
ATOM      9  C   UNL     1      -0.727  -2.674   1.271  1.00  0.00     0.041 C 
ATOM     10  C   UNL     1      -0.624  -1.182   1.384  1.00  0.00    -0.030 C 
ATOM     11  C   UNL     1      -1.315  -0.851  -0.996  1.00  0.00     0.041 C 
ATOM     12  C   UNL     1      -0.875  -0.359   0.356  1.00  0.00    -0.030 C 
BRANCH   8  13
ATOM     13  C   UNL     1      -0.880  -4.633  -0.518  1.00  0.00     0.228 C 
ATOM     14  N   UNL     1      -0.154  -5.632   0.039  1.00  0.00    -0.326 N 
ATOM     15  H   UNL     1      -0.514  -6.517  -0.198  1.00  0.00     0.169 HD
ATOM     16  O   UNL     1      -1.696  -5.006  -1.372  1.00  0.00    -0.274 OA
BRANCH  14  17
ATOM     17  C   UNL     1       0.979  -5.742   0.867  1.00  0.00     0.044 A 
ATOM     18  C   UNL     1       0.137  -8.030   1.477  1.00  0.00     0.047 C 
ATOM     19  C   UNL     1       1.228  -7.001   1.488  1.00  0.00    -0.015 A 
ATOM     20  C   UNL     1       2.425  -7.222   2.200  1.00  0.00     0.045 A 
ATOM     21  C   UNL     1       1.874  -4.698   1.078  1.00  0.00     0.026 A 
ATOM     22  C   UNL     1       3.260  -6.123   2.450  1.00  0.00     0.014 A 
ATOM     23  C   UNL     1       2.973  -4.868   1.916  1.00  0.00     0.003 A 
BRANCH  20  24
ATOM     24  C   UNL     1       2.773  -8.497   2.908  1.00  0.00     0.254 C 
ATOM     25  O   UNL     1       3.327  -8.398   4.005  1.00  0.00    -0.269 OA
ATOM     26  N   UNL     1       2.412  -9.742   2.397  1.00  0.00    -0.334 N 
ATOM     27  C   UNL     1       2.453 -10.168   0.989  1.00  0.00     0.148 C 
ATOM     28  C   UNL     1       2.215 -10.837   3.346  1.00  0.00     0.148 C 
ATOM     29  C   UNL     1       1.329 -11.171   0.646  1.00  0.00     0.181 C 
ATOM     30  C   UNL     1       1.003 -11.673   2.932  1.00  0.00     0.181 C 
ATOM     31  O   UNL     1       1.216 -12.220   1.621  1.00  0.00    -0.378 OA
ENDBRANCH  20  24
ENDBRANCH  14  17
ENDBRANCH   8  13
ENDBRANCH   4   7
ENDBRANCH   2   3
ENDBRANCH   1   2
BRANCH   1  32
ATOM     32  C   UNL     1      -5.047  -4.880   3.691  1.00  0.00     0.023 C 
BRANCH  32  33
ATOM     33  C   UNL     1      -4.867  -6.424   4.084  1.00  0.00     0.116 C 
BRANCH  33  34
ATOM     34  N   UNL     1      -5.959  -7.276   4.826  1.00  0.00    -0.352 N 
ATOM     35  C   UNL     1      -6.841  -8.409   4.721  1.00  0.00     0.251 C 
ATOM     36  H   UNL     1      -6.093  -6.877   5.716  1.00  0.00     0.163 HD
ATOM     37  O   UNL     1      -7.080  -8.955   5.814  1.00  0.00    -0.269 OA
BRANCH  35  38
ATOM     38  C   UNL     1      -7.522  -9.118   3.525  1.00  0.00     0.039 A 
ATOM     39  C   UNL     1      -7.174 -10.424   3.115  1.00  0.00     0.014 A 
ATOM     40  C   UNL     1      -8.540  -8.544   2.769  1.00  0.00     0.014 A 
ATOM     41  C   UNL     1      -7.374 -10.836   1.758  1.00  0.00     0.010 A 
ATOM     42  C   UNL     1      -8.741  -8.944   1.420  1.00  0.00     0.010 A 
ATOM     43  C   UNL     1      -8.019  -9.997   0.841  1.00  0.00    -0.014 A 
BRANCH  43  44
ATOM     44  C   UNL     1      -7.824 -10.085  -0.650  1.00  0.00     0.031 A 
ATOM     45  C   UNL     1      -8.870 -10.457  -1.599  1.00  0.00     0.074 A 
ATOM     46  C   UNL     1      -6.728  -9.670  -1.340  1.00  0.00     0.049 A 
ATOM     47  N   UNL     1      -8.726 -11.345  -2.533  1.00  0.00    -0.248 NA
ATOM     48  C   UNL     1     -10.086  -9.671  -1.685  1.00  0.00     0.031 C 
ATOM     49  C   UNL     1      -6.407  -9.578  -2.775  1.00  0.00     0.029 A 
ATOM     50  N   UNL     1      -5.569  -9.172  -0.806  1.00  0.00    -0.354 N 
ATOM     51  C   UNL     1      -9.633 -10.997  -3.514  1.00  0.00     0.074 A 
ATOM     52  C   UNL     1     -10.548 -10.067  -2.872  1.00  0.00     0.031 C 
ATOM     53  C   UNL     1      -5.070  -9.493  -2.933  1.00  0.00     0.029 A 
ATOM     54  C   UNL     1      -4.484  -9.499  -1.618  1.00  0.00     0.049 A 
ATOM     55  H   UNL     1      -5.511  -8.657   0.030  1.00  0.00     0.167 HD
ATOM     56  C   UNL     1      -9.410 -11.262  -4.841  1.00  0.00     0.037 A 
ATOM     57  C   UNL     1      -3.502 -10.276  -1.072  1.00  0.00     0.037 A 
ATOM     58  C   UNL     1      -8.020 -11.687  -5.104  1.00  0.00     0.049 A 
ATOM     59  C   UNL     1      -3.560 -11.657  -1.643  1.00  0.00     0.074 A 
ATOM     60  C   UNL     1      -6.969 -11.069  -5.774  1.00  0.00     0.029 A 
ATOM     61  N   UNL     1      -7.440 -12.748  -4.405  1.00  0.00    -0.354 N 
ATOM     62  N   UNL     1      -4.490 -11.970  -2.497  1.00  0.00    -0.248 NA
ATOM     63  C   UNL     1      -2.661 -12.780  -1.398  1.00  0.00     0.031 C 
ATOM     64  C   UNL     1      -5.758 -11.713  -5.416  1.00  0.00     0.029 A 
ATOM     65  C   UNL     1      -6.061 -12.738  -4.537  1.00  0.00     0.049 A 
ATOM     66  H   UNL     1      -7.945 -13.416  -3.888  1.00  0.00     0.167 HD
ATOM     67  C   UNL     1      -4.348 -13.240  -2.938  1.00  0.00     0.074 A 
ATOM     68  C   UNL     1      -3.180 -13.719  -2.219  1.00  0.00     0.031 C 
ATOM     69  C   UNL     1      -5.215 -13.730  -3.871  1.00  0.00     0.037 A 
BRANCH  56  70
ATOM     70  C   UNL     1     -10.377 -10.789  -5.924  1.00  0.00     0.058 A 
ATOM     71  C   UNL     1      -9.987 -10.548  -7.259  1.00  0.00     0.135 A 
ATOM     72  C   UNL     1     -11.757 -10.595  -5.686  1.00  0.00     0.135 A 
ATOM     73  F   UNL     1      -8.756 -10.837  -7.698  1.00  0.00    -0.206 F 
ATOM     74  C   UNL     1     -10.857 -10.038  -8.230  1.00  0.00     0.059 A 
ATOM     75  C   UNL     1     -12.629 -10.017  -6.613  1.00  0.00     0.059 A 
ATOM     76  F   UNL     1     -12.331 -11.023  -4.551  1.00  0.00    -0.206 F 
ATOM     77  C   UNL     1     -12.171  -9.746  -7.891  1.00  0.00     0.060 A 
BRANCH  77  78
ATOM     78  S   UNL     1     -13.288  -9.113  -9.156  1.00  0.00     0.124 S 
ATOM     79  O   UNL     1     -12.561  -7.956  -9.669  1.00  0.00    -0.237 OA
ATOM     80  O   UNL     1     -13.389 -10.252 -10.063  1.00  0.00    -0.237 OA
ATOM     81  O   UNL     1     -14.505  -8.800  -8.412  1.00  0.00    -0.744 OA
ENDBRANCH  77  78
ENDBRANCH  56  70
BRANCH  57  82
ATOM     82  C   UNL     1      -3.100  -9.743   0.295  1.00  0.00     0.058 A 
ATOM     83  C   UNL     1      -2.740  -8.386   0.146  1.00  0.00     0.135 A 
ATOM     84  C   UNL     1      -3.937  -9.976   1.379  1.00  0.00     0.135 A 
ATOM     85  F   UNL     1      -1.764  -8.066  -0.717  1.00  0.00    -0.206 F 
ATOM     86  C   UNL     1      -3.613  -7.352   0.514  1.00  0.00     0.059 A 
ATOM     87  C   UNL     1      -4.726  -8.917   1.877  1.00  0.00     0.059 A 
ATOM     88  F   UNL     1      -4.145 -11.226   1.825  1.00  0.00    -0.206 F 
ATOM     89  C   UNL     1      -4.731  -7.652   1.259  1.00  0.00     0.060 A 
BRANCH  89  90
ATOM     90  S   UNL     1      -6.320  -6.559   1.095  1.00  0.00     0.124 S 
ATOM     91  O   UNL     1      -5.900  -5.209   0.799  1.00  0.00    -0.237 OA
ATOM     92  O   UNL     1      -7.006  -7.157  -0.041  1.00  0.00    -0.237 OA
ATOM     93  O   UNL     1      -6.961  -6.633   2.377  1.00  0.00    -0.744 OA
ENDBRANCH  89  90
ENDBRANCH  57  82
BRANCH  69  94
ATOM     94  C   UNL     1      -5.259 -15.145  -4.353  1.00  0.00     0.058 A 
ATOM     95  C   UNL     1      -4.922 -16.249  -3.558  1.00  0.00     0.135 A 
ATOM     96  C   UNL     1      -5.776 -15.433  -5.638  1.00  0.00     0.135 A 
ATOM     97  F   UNL     1      -4.522 -16.100  -2.287  1.00  0.00    -0.206 F 
ATOM     98  C   UNL     1      -5.021 -17.554  -4.033  1.00  0.00     0.059 A 
ATOM     99  C   UNL     1      -5.938 -16.727  -6.108  1.00  0.00     0.059 A 
ATOM    100  F   UNL     1      -6.148 -14.461  -6.484  1.00  0.00    -0.206 F 
ATOM    101  C   UNL     1      -5.526 -17.782  -5.310  1.00  0.00     0.060 A 
BRANCH 101 102
ATOM    102  S   UNL     1      -5.679 -19.467  -5.917  1.00  0.00     0.124 S 
ATOM    103  O   UNL     1      -4.340 -19.704  -6.446  1.00  0.00    -0.237 OA
ATOM    104  O   UNL     1      -6.022 -20.212  -4.709  1.00  0.00    -0.237 OA
ATOM    105  O   UNL     1      -6.744 -19.373  -6.910  1.00  0.00    -0.744 OA
ENDBRANCH 101 102
ENDBRANCH  69  94
ENDBRANCH  43  44
ENDBRANCH  35  38
ENDBRANCH  33  34
ENDBRANCH  32  33
ENDBRANCH   1  32
TORSDOF 17
