REMARK SMILES COc1ccc(N[C@]2(Br)C(=O)NC(=O)N[C@@H]2C(=O)NCCCCNC(=O)c2ccc(-c3c4nc(c(-c5c(F)cc(S(=O)(=O)[O-])cc5F)c5ccc([nH]5)c(-c5c(F)cc(S(=O)(=O)[O-])cc5F)c5nc(c(-c6c(F)cc(S(=O)(=O)[O-])cc6F)c6ccc3[nH]6)C=C5)C=C4)cc2)cc1
REMARK SMILES IDX 21 1 20 2 19 3 17 4 18 5 16 7 8 8 10 9 9 10 11 11 12 12
REMARK SMILES IDX 15 13 13 14 14 17 7 18 6 20 3 21 4 22 94 23 5 24 93 25 2 26
REMARK SMILES IDX 1 27 22 28 23 29 24 30 25 31 26 33 27 34 28 35 92 36 29 37
REMARK SMILES IDX 91 38 30 39 31 40 32 41 85 42 33 43 90 44 84 45 86 46 34 47
REMARK SMILES IDX 89 48 83 49 82 50 35 52 69 53 48 54 68 55 49 56 52 57 67 58
REMARK SMILES IDX 87 59 50 60 51 61 66 63 88 64 53 65 36 66 37 67 46 68 38 69
REMARK SMILES IDX 39 70 45 71 47 72 40 73 41 74 42 75 43 76 44 77 70 78 71 79
REMARK SMILES IDX 80 80 72 81 73 82 79 83 81 84 74 85 75 86 76 87 77 88 78 89
REMARK SMILES IDX 54 90 55 91 64 92 56 93 57 94 63 95 65 96 58 97 59 98 60 99
REMARK SMILES IDX 61 100 62 101
REMARK H PARENT 19 6 12 15 15 16 7 19 24 32 86 51 52 62
REMARK Flexibility Score: inf
ROOT
ATOM      1  C   UNL     1      -3.619   3.557   3.767  1.00  0.00     0.023 C 
ENDROOT
BRANCH   1   2
ATOM      2  C   UNL     1      -2.479   4.570   3.701  1.00  0.00     0.116 C 
BRANCH   2   3
ATOM      3  N   UNL     1      -1.908   4.857   5.004  1.00  0.00    -0.354 N 
ATOM      4  C   UNL     1      -0.632   4.904   5.480  1.00  0.00     0.246 C 
ATOM      5  O   UNL     1      -0.534   5.075   6.701  1.00  0.00    -0.273 OA
ATOM      6  H   UNL     1      -2.586   5.060   5.689  1.00  0.00     0.163 HD
BRANCH   4   7
ATOM      7  C   UNL     1       0.651   4.855   4.618  1.00  0.00     0.219 C 
ATOM      8  C   UNL     1       1.293   6.233   4.360  1.00  0.00     0.202 C 
ATOM      9  C   UNL     1       0.776   6.864   3.057  1.00  0.00     0.267 C 
ATOM     10  Br  UNL     1       3.247   5.810   3.806  1.00  0.00    -0.048 Br
ATOM     11  O   UNL     1       0.798   8.068   2.796  1.00  0.00    -0.271 OA
ATOM     12  N   UNL     1       0.353   5.983   2.087  1.00  0.00    -0.275 N 
ATOM     13  N   UNL     1       0.542   4.077   3.383  1.00  0.00    -0.322 N 
ATOM     14  C   UNL     1       0.359   4.622   2.151  1.00  0.00     0.322 C 
ATOM     15  H   UNL     1       0.009   6.380   1.255  1.00  0.00     0.174 HD
ATOM     16  H   UNL     1       0.606   3.097   3.449  1.00  0.00     0.166 HD
ATOM     17  O   UNL     1       0.172   3.921   1.169  1.00  0.00    -0.248 OA
BRANCH   8  18
ATOM     18  N   UNL     1       1.538   7.139   5.473  1.00  0.00    -0.360 N 
ATOM     19  H   UNL     1       2.416   7.040   5.907  1.00  0.00     0.162 HD
BRANCH  18  20
ATOM     20  C   UNL     1       0.728   8.113   6.010  1.00  0.00     0.036 A 
ATOM     21  C   UNL     1      -0.820  10.107   7.302  1.00  0.00     0.119 A 
ATOM     22  C   UNL     1      -1.418   9.171   6.463  1.00  0.00     0.048 A 
ATOM     23  C   UNL     1       0.554  10.060   7.496  1.00  0.00     0.048 A 
ATOM     24  C   UNL     1      -0.647   8.205   5.803  1.00  0.00     0.029 A 
ATOM     25  C   UNL     1       1.311   9.066   6.862  1.00  0.00     0.029 A 
BRANCH  21  26
ATOM     26  O   UNL     1      -1.671  10.968   7.935  1.00  0.00    -0.497 OA
ATOM     27  C   UNL     1      -1.180  12.293   8.096  1.00  0.00     0.278 C 
ENDBRANCH  21  26
ENDBRANCH  18  20
ENDBRANCH   8  18
ENDBRANCH   4   7
ENDBRANCH   2   3
ENDBRANCH   1   2
BRANCH   1  28
ATOM     28  C   UNL     1      -4.976   4.119   4.177  1.00  0.00     0.023 C 
BRANCH  28  29
ATOM     29  C   UNL     1      -5.494   5.277   3.328  1.00  0.00     0.116 C 
BRANCH  29  30
ATOM     30  N   UNL     1      -5.510   4.992   1.899  1.00  0.00    -0.352 N 
ATOM     31  C   UNL     1      -6.527   5.143   0.985  1.00  0.00     0.251 C 
ATOM     32  H   UNL     1      -4.667   4.639   1.533  1.00  0.00     0.163 HD
ATOM     33  O   UNL     1      -6.373   4.741  -0.165  1.00  0.00    -0.269 OA
BRANCH  31  34
ATOM     34  C   UNL     1      -7.811   5.750   1.395  1.00  0.00     0.039 A 
ATOM     35  C   UNL     1      -9.001   5.135   1.000  1.00  0.00     0.014 A 
ATOM     36  C   UNL     1      -7.846   6.899   2.189  1.00  0.00     0.014 A 
ATOM     37  C   UNL     1     -10.220   5.626   1.471  1.00  0.00     0.010 A 
ATOM     38  C   UNL     1      -9.055   7.329   2.732  1.00  0.00     0.010 A 
ATOM     39  C   UNL     1     -10.255   6.696   2.381  1.00  0.00    -0.014 A 
BRANCH  39  40
ATOM     40  C   UNL     1     -11.541   7.133   2.989  1.00  0.00     0.031 A 
ATOM     41  C   UNL     1     -12.062   8.528   2.767  1.00  0.00     0.074 A 
ATOM     42  C   UNL     1     -12.216   6.278   3.786  1.00  0.00     0.049 A 
ATOM     43  N   UNL     1     -13.167   9.073   3.208  1.00  0.00    -0.248 NA
ATOM     44  C   UNL     1     -11.223   9.441   1.973  1.00  0.00     0.031 C 
ATOM     45  C   UNL     1     -11.770   4.930   4.150  1.00  0.00     0.029 A 
ATOM     46  N   UNL     1     -13.416   6.413   4.438  1.00  0.00    -0.354 N 
ATOM     47  C   UNL     1     -13.149  10.389   2.760  1.00  0.00     0.074 A 
ATOM     48  C   UNL     1     -11.900  10.578   2.056  1.00  0.00     0.031 C 
ATOM     49  C   UNL     1     -12.697   4.353   4.930  1.00  0.00     0.029 A 
ATOM     50  C   UNL     1     -13.787   5.296   5.152  1.00  0.00     0.049 A 
ATOM     51  H   UNL     1     -13.961   7.232   4.398  1.00  0.00     0.167 HD
ATOM     52  C   UNL     1     -14.097  11.344   2.902  1.00  0.00     0.037 A 
ATOM     53  C   UNL     1     -14.881   5.059   5.902  1.00  0.00     0.037 A 
ATOM     54  C   UNL     1     -15.355  11.136   3.573  1.00  0.00     0.049 A 
ATOM     55  C   UNL     1     -15.939   6.123   6.006  1.00  0.00     0.074 A 
ATOM     56  C   UNL     1     -16.424  12.009   3.683  1.00  0.00     0.029 A 
ATOM     57  N   UNL     1     -15.711   9.982   4.253  1.00  0.00    -0.354 N 
ATOM     58  N   UNL     1     -15.954   7.325   5.478  1.00  0.00    -0.248 NA
ATOM     59  C   UNL     1     -17.135   5.798   6.793  1.00  0.00     0.031 C 
ATOM     60  C   UNL     1     -17.402  11.405   4.478  1.00  0.00     0.029 A 
ATOM     61  C   UNL     1     -16.969  10.132   4.814  1.00  0.00     0.049 A 
ATOM     62  H   UNL     1     -15.153   9.175   4.327  1.00  0.00     0.167 HD
ATOM     63  C   UNL     1     -17.167   7.891   5.855  1.00  0.00     0.074 A 
ATOM     64  C   UNL     1     -17.870   6.889   6.630  1.00  0.00     0.031 C 
ATOM     65  C   UNL     1     -17.654   9.128   5.590  1.00  0.00     0.037 A 
BRANCH  52  66
ATOM     66  C   UNL     1     -13.826  12.705   2.318  1.00  0.00     0.058 A 
ATOM     67  C   UNL     1     -13.812  12.926   0.932  1.00  0.00     0.135 A 
ATOM     68  C   UNL     1     -13.652  13.816   3.159  1.00  0.00     0.135 A 
ATOM     69  F   UNL     1     -13.957  11.898   0.081  1.00  0.00    -0.206 F 
ATOM     70  C   UNL     1     -13.622  14.198   0.400  1.00  0.00     0.059 A 
ATOM     71  C   UNL     1     -13.488  15.101   2.650  1.00  0.00     0.059 A 
ATOM     72  F   UNL     1     -13.653  13.661   4.493  1.00  0.00    -0.206 F 
ATOM     73  C   UNL     1     -13.468  15.280   1.268  1.00  0.00     0.060 A 
BRANCH  73  74
ATOM     74  S   UNL     1     -13.264  16.929   0.560  1.00  0.00     0.124 S 
ATOM     75  O   UNL     1     -11.914  16.845   0.010  1.00  0.00    -0.237 OA
ATOM     76  O   UNL     1     -14.344  16.982  -0.420  1.00  0.00    -0.237 OA
ATOM     77  O   UNL     1     -13.418  17.815   1.709  1.00  0.00    -0.744 OA
ENDBRANCH  73  74
ENDBRANCH  52  66
BRANCH  53  78
ATOM     78  C   UNL     1     -15.037   3.756   6.606  1.00  0.00     0.058 A 
ATOM     79  C   UNL     1     -16.023   2.834   6.224  1.00  0.00     0.135 A 
ATOM     80  C   UNL     1     -14.205   3.410   7.683  1.00  0.00     0.135 A 
ATOM     81  F   UNL     1     -16.847   3.118   5.204  1.00  0.00    -0.206 F 
ATOM     82  C   UNL     1     -16.200   1.631   6.901  1.00  0.00     0.059 A 
ATOM     83  C   UNL     1     -14.342   2.201   8.356  1.00  0.00     0.059 A 
ATOM     84  F   UNL     1     -13.232   4.247   8.076  1.00  0.00    -0.206 F 
ATOM     85  C   UNL     1     -15.354   1.324   7.968  1.00  0.00     0.060 A 
BRANCH  85  86
ATOM     86  S   UNL     1     -15.571  -0.252   8.823  1.00  0.00     0.124 S 
ATOM     87  O   UNL     1     -16.789  -0.006   9.585  1.00  0.00    -0.237 OA
ATOM     88  O   UNL     1     -15.690  -1.190   7.712  1.00  0.00    -0.237 OA
ATOM     89  O   UNL     1     -14.347  -0.377   9.610  1.00  0.00    -0.744 OA
ENDBRANCH  85  86
ENDBRANCH  53  78
BRANCH  65  90
ATOM     90  C   UNL     1     -19.020   9.459   6.127  1.00  0.00     0.058 A 
ATOM     91  C   UNL     1     -19.248   9.642   7.500  1.00  0.00     0.135 A 
ATOM     92  C   UNL     1     -20.109   9.617   5.255  1.00  0.00     0.135 A 
ATOM     93  F   UNL     1     -18.241   9.499   8.378  1.00  0.00    -0.206 F 
ATOM     94  C   UNL     1     -20.516   9.927   7.995  1.00  0.00     0.059 A 
ATOM     95  C   UNL     1     -21.380   9.935   5.725  1.00  0.00     0.059 A 
ATOM     96  F   UNL     1     -19.945   9.469   3.931  1.00  0.00    -0.206 F 
ATOM     97  C   UNL     1     -21.577  10.068   7.098  1.00  0.00     0.060 A 
BRANCH  97  98
ATOM     98  S   UNL     1     -23.218  10.438   7.752  1.00  0.00     0.124 S 
ATOM     99  O   UNL     1     -23.602   9.152   8.325  1.00  0.00    -0.237 OA
ATOM    100  O   UNL     1     -22.941  11.503   8.711  1.00  0.00    -0.237 OA
ATOM    101  O   UNL     1     -23.971  10.848   6.569  1.00  0.00    -0.744 OA
ENDBRANCH  97  98
ENDBRANCH  65  90
ENDBRANCH  39  40
ENDBRANCH  31  34
ENDBRANCH  29  30
ENDBRANCH  28  29
ENDBRANCH   1  28
TORSDOF 17
