REMARK SMILES O=C(C[C@H](NC(=O)[C@]12C[C@H]3C[C@H](C[C@H](C3)C1)C2)c1ccc(Cl)cc1Cl)NCCCCNC(=O)c1ccc(-c2c3nc(c(-c4c(F)cc(S(=O)(=O)[O-])cc4F)c4ccc([nH]4)c(-c4c(F)cc(S(=O)(=O)[O-])cc4F)c4nc(c(-c5c(F)cc(S(=O)(=O)[O-])cc5F)c5ccc2[nH]5)C=C4)C=C3)cc1
REMARK SMILES IDX 28 1 27 2 26 3 1 4 2 5 3 7 4 8 18 9 19 10 24 11 20 12 23 13
REMARK SMILES IDX 25 14 21 15 22 16 5 17 6 18 7 20 8 21 9 22 16 23 17 24 10 25
REMARK SMILES IDX 14 26 12 27 11 28 15 29 13 30 29 31 30 32 31 33 32 34 33 36
REMARK SMILES IDX 34 37 35 38 99 39 36 40 98 41 37 42 38 43 39 44 92 45 40 46
REMARK SMILES IDX 97 47 91 48 93 49 41 50 96 51 90 52 89 53 42 55 76 56 55 57
REMARK SMILES IDX 75 58 56 59 59 60 74 61 94 62 57 63 58 64 73 66 95 67 60 68
REMARK SMILES IDX 43 69 44 70 53 71 45 72 46 73 52 74 54 75 47 76 48 77 49 78
REMARK SMILES IDX 50 79 51 80 77 81 78 82 87 83 79 84 80 85 86 86 88 87 81 88
REMARK SMILES IDX 82 89 83 90 84 91 85 92 61 93 62 94 71 95 63 96 64 97 70 98
REMARK SMILES IDX 72 99 65 100 66 101 67 102 68 103 69 104
REMARK H PARENT 26 6 5 19 31 35 93 54 59 65
REMARK Flexibility Score: inf
ROOT
ATOM      1  C   UNL     1       2.999  -1.341  -5.136  1.00  0.00     0.023 C 
ENDROOT
BRANCH   1   2
ATOM      2  C   UNL     1       2.435  -0.978  -3.761  1.00  0.00     0.116 C 
BRANCH   2   3
ATOM      3  N   UNL     1       2.933  -1.729  -2.618  1.00  0.00    -0.356 N 
ATOM      4  O   UNL     1       5.135  -1.667  -3.217  1.00  0.00    -0.275 OA
ATOM      5  C   UNL     1       4.271  -1.873  -2.364  1.00  0.00     0.222 C 
ATOM      6  H   UNL     1       2.285  -2.148  -2.006  1.00  0.00     0.163 HD
BRANCH   5   7
ATOM      7  C   UNL     1       4.708  -2.263  -0.970  1.00  0.00     0.129 C 
BRANCH   7   8
ATOM      8  C   UNL     1       3.804  -2.030   0.253  1.00  0.00     0.123 C 
BRANCH   8   9
ATOM      9  C   UNL     1       4.379  -2.817   1.444  1.00  0.00    -0.006 A 
ATOM     10  C   UNL     1       5.112  -2.170   2.456  1.00  0.00     0.009 A 
ATOM     11  C   UNL     1       4.274  -4.226   1.517  1.00  0.00     0.047 A 
ATOM     12  C   UNL     1       5.756  -2.897   3.463  1.00  0.00     0.021 A 
ATOM     13  C   UNL     1       4.927  -4.954   2.517  1.00  0.00     0.041 A 
ATOM     14  Cl  UNL     1       3.337  -5.140   0.382  1.00  0.00    -0.084 Cl
ATOM     15  C   UNL     1       5.675  -4.285   3.478  1.00  0.00     0.042 A 
ATOM     16  Cl  UNL     1       6.508  -5.175   4.691  1.00  0.00    -0.084 Cl
ENDBRANCH   8   9
BRANCH   8  17
ATOM     17  N   UNL     1       3.332  -0.679   0.668  1.00  0.00    -0.348 N 
ATOM     18  C   UNL     1       3.709   0.621   0.781  1.00  0.00     0.226 C 
ATOM     19  H   UNL     1       2.399  -0.758   0.975  1.00  0.00     0.164 HD
ATOM     20  O   UNL     1       2.969   1.305   1.500  1.00  0.00    -0.274 OA
BRANCH  18  21
ATOM     21  C   UNL     1       4.892   1.287   0.066  1.00  0.00     0.050 C 
ATOM     22  C   UNL     1       6.237   0.676   0.492  1.00  0.00     0.020 C 
ATOM     23  C   UNL     1       5.002   2.814   0.386  1.00  0.00     0.020 C 
ATOM     24  C   UNL     1       4.640   1.238  -1.445  1.00  0.00     0.020 C 
ATOM     25  C   UNL     1       7.389   1.263  -0.332  1.00  0.00    -0.010 C 
ATOM     26  C   UNL     1       6.167   3.458  -0.411  1.00  0.00    -0.010 C 
ATOM     27  C   UNL     1       5.822   1.781  -2.243  1.00  0.00    -0.010 C 
ATOM     28  C   UNL     1       7.106   1.044  -1.827  1.00  0.00     0.007 C 
ATOM     29  C   UNL     1       7.488   2.767  -0.037  1.00  0.00     0.007 C 
ATOM     30  C   UNL     1       5.945   3.275  -1.923  1.00  0.00     0.007 C 
ENDBRANCH  18  21
ENDBRANCH   8  17
ENDBRANCH   7   8
ENDBRANCH   5   7
ENDBRANCH   2   3
ENDBRANCH   1   2
BRANCH   1  31
ATOM     31  C   UNL     1       2.982  -2.829  -5.476  1.00  0.00     0.023 C 
BRANCH  31  32
ATOM     32  C   UNL     1       1.629  -3.501  -5.310  1.00  0.00     0.116 C 
BRANCH  32  33
ATOM     33  N   UNL     1       0.610  -2.938  -6.183  1.00  0.00    -0.352 N 
ATOM     34  C   UNL     1      -0.373  -3.601  -6.883  1.00  0.00     0.251 C 
ATOM     35  H   UNL     1       0.626  -1.959  -6.285  1.00  0.00     0.163 HD
ATOM     36  O   UNL     1      -1.079  -3.005  -7.677  1.00  0.00    -0.269 OA
BRANCH  34  37
ATOM     37  C   UNL     1      -0.529  -5.059  -6.678  1.00  0.00     0.039 A 
ATOM     38  C   UNL     1      -0.556  -5.896  -7.795  1.00  0.00     0.014 A 
ATOM     39  C   UNL     1      -0.600  -5.592  -5.389  1.00  0.00     0.014 A 
ATOM     40  C   UNL     1      -0.592  -7.280  -7.616  1.00  0.00     0.010 A 
ATOM     41  C   UNL     1      -0.568  -6.971  -5.211  1.00  0.00     0.010 A 
ATOM     42  C   UNL     1      -0.566  -7.828  -6.323  1.00  0.00    -0.014 A 
BRANCH  42  43
ATOM     43  C   UNL     1      -0.541  -9.297  -6.111  1.00  0.00     0.031 A 
ATOM     44  C   UNL     1      -1.699  -9.977  -5.435  1.00  0.00     0.074 A 
ATOM     45  C   UNL     1       0.549 -10.005  -6.468  1.00  0.00     0.049 A 
ATOM     46  N   UNL     1      -1.835 -11.232  -5.093  1.00  0.00    -0.248 NA
ATOM     47  C   UNL     1      -2.843  -9.127  -5.067  1.00  0.00     0.031 C 
ATOM     48  C   UNL     1       1.757  -9.448  -7.081  1.00  0.00     0.029 A 
ATOM     49  N   UNL     1       0.823 -11.344  -6.354  1.00  0.00    -0.354 N 
ATOM     50  C   UNL     1      -3.070 -11.320  -4.462  1.00  0.00     0.074 A 
ATOM     51  C   UNL     1      -3.619  -9.982  -4.418  1.00  0.00     0.031 C 
ATOM     52  C   UNL     1       2.635 -10.440  -7.303  1.00  0.00     0.029 A 
ATOM     53  C   UNL     1       2.067 -11.696  -6.822  1.00  0.00     0.049 A 
ATOM     54  H   UNL     1       0.189 -11.993  -5.972  1.00  0.00     0.167 HD
ATOM     55  C   UNL     1      -3.700 -12.420  -3.985  1.00  0.00     0.037 A 
ATOM     56  C   UNL     1       2.683 -12.894  -6.854  1.00  0.00     0.037 A 
ATOM     57  C   UNL     1      -3.160 -13.752  -4.057  1.00  0.00     0.049 A 
ATOM     58  C   UNL     1       1.956 -14.104  -6.335  1.00  0.00     0.074 A 
ATOM     59  C   UNL     1      -3.741 -14.940  -3.649  1.00  0.00     0.029 A 
ATOM     60  N   UNL     1      -1.913 -14.073  -4.574  1.00  0.00    -0.354 N 
ATOM     61  N   UNL     1       0.763 -14.179  -5.793  1.00  0.00    -0.248 NA
ATOM     62  C   UNL     1       2.651 -15.394  -6.439  1.00  0.00     0.031 C 
ATOM     63  C   UNL     1      -2.832 -15.976  -3.890  1.00  0.00     0.029 A 
ATOM     64  C   UNL     1      -1.702 -15.438  -4.486  1.00  0.00     0.049 A 
ATOM     65  H   UNL     1      -1.273 -13.425  -4.948  1.00  0.00     0.167 HD
ATOM     66  C   UNL     1       0.556 -15.525  -5.513  1.00  0.00     0.074 A 
ATOM     67  C   UNL     1       1.742 -16.230  -5.957  1.00  0.00     0.031 C 
ATOM     68  C   UNL     1      -0.517 -16.123  -4.940  1.00  0.00     0.037 A 
BRANCH  55  69
ATOM     69  C   UNL     1      -5.051 -12.225  -3.354  1.00  0.00     0.058 A 
ATOM     70  C   UNL     1      -6.179 -11.896  -4.123  1.00  0.00     0.135 A 
ATOM     71  C   UNL     1      -5.228 -12.390  -1.971  1.00  0.00     0.135 A 
ATOM     72  F   UNL     1      -6.063 -11.710  -5.448  1.00  0.00    -0.206 F 
ATOM     73  C   UNL     1      -7.427 -11.704  -3.540  1.00  0.00     0.059 A 
ATOM     74  C   UNL     1      -6.473 -12.230  -1.370  1.00  0.00     0.059 A 
ATOM     75  F   UNL     1      -4.183 -12.704  -1.189  1.00  0.00    -0.206 F 
ATOM     76  C   UNL     1      -7.563 -11.871  -2.161  1.00  0.00     0.060 A 
BRANCH  76  77
ATOM     77  S   UNL     1      -9.188 -11.616  -1.418  1.00  0.00     0.124 S 
ATOM     78  O   UNL     1      -9.296 -10.160  -1.449  1.00  0.00    -0.237 OA
ATOM     79  O   UNL     1     -10.069 -12.335  -2.334  1.00  0.00    -0.237 OA
ATOM     80  O   UNL     1      -9.052 -12.208  -0.091  1.00  0.00    -0.744 OA
ENDBRANCH  76  77
ENDBRANCH  55  69
BRANCH  56  81
ATOM     81  C   UNL     1       4.052 -13.009  -7.421  1.00  0.00     0.058 A 
ATOM     82  C   UNL     1       4.270 -13.629  -8.660  1.00  0.00     0.135 A 
ATOM     83  C   UNL     1       5.167 -12.488  -6.745  1.00  0.00     0.135 A 
ATOM     84  F   UNL     1       3.237 -14.146  -9.341  1.00  0.00    -0.206 F 
ATOM     85  C   UNL     1       5.546 -13.743  -9.204  1.00  0.00     0.059 A 
ATOM     86  C   UNL     1       6.449 -12.570  -7.278  1.00  0.00     0.059 A 
ATOM     87  F   UNL     1       5.008 -11.871  -5.563  1.00  0.00    -0.206 F 
ATOM     88  C   UNL     1       6.630 -13.208  -8.505  1.00  0.00     0.060 A 
BRANCH  88  89
ATOM     89  S   UNL     1       8.275 -13.318  -9.241  1.00  0.00     0.124 S 
ATOM     90  O   UNL     1       8.601 -14.722  -9.024  1.00  0.00    -0.237 OA
ATOM     91  O   UNL     1       8.020 -12.927 -10.624  1.00  0.00    -0.237 OA
ATOM     92  O   UNL     1       9.054 -12.360  -8.462  1.00  0.00    -0.744 OA
ENDBRANCH  88  89
ENDBRANCH  56  81
BRANCH  68  93
ATOM     93  C   UNL     1      -0.475 -17.617  -4.787  1.00  0.00     0.058 A 
ATOM     94  C   UNL     1       0.321 -18.234  -3.810  1.00  0.00     0.135 A 
ATOM     95  C   UNL     1      -1.283 -18.437  -5.591  1.00  0.00     0.135 A 
ATOM     96  F   UNL     1       1.116 -17.495  -3.021  1.00  0.00    -0.206 F 
ATOM     97  C   UNL     1       0.330 -19.616  -3.649  1.00  0.00     0.059 A 
ATOM     98  C   UNL     1      -1.309 -19.818  -5.431  1.00  0.00     0.059 A 
ATOM     99  F   UNL     1      -2.071 -17.894  -6.533  1.00  0.00    -0.206 F 
ATOM    100  C   UNL     1      -0.490 -20.400  -4.463  1.00  0.00     0.060 A 
BRANCH 100 101
ATOM    101  S   UNL     1      -0.499 -22.188  -4.219  1.00  0.00     0.124 S 
ATOM    102  O   UNL     1       0.765 -22.575  -4.837  1.00  0.00    -0.237 OA
ATOM    103  O   UNL     1      -0.556 -22.307  -2.765  1.00  0.00    -0.237 OA
ATOM    104  O   UNL     1      -1.702 -22.621  -4.924  1.00  0.00    -0.744 OA
ENDBRANCH 100 101
ENDBRANCH  68  93
ENDBRANCH  42  43
ENDBRANCH  34  37
ENDBRANCH  32  33
ENDBRANCH  31  32
ENDBRANCH   1  31
TORSDOF 18
