REMARK SMILES C#CCN(CC(=O)NCCCCNC(=O)c1ccc(-c2c3nc(c(-c4c(F)cc(S(=O)(=O)[O-])cc4F)c4ccc([nH]4)c(-c4c(F)cc(S(=O)(=O)[O-])cc4F)c4nc(c(-c5c(F)cc(S(=O)(=O)[O-])cc5F)c5ccc2[nH]5)C=C4)C=C3)cc1)C(=O)Nc1cc(Br)ccc1C
REMARK SMILES IDX 10 1 9 2 8 3 6 4 7 5 5 7 4 8 3 9 2 10 1 11 82 12 83 13 84 14
REMARK SMILES IDX 85 16 86 17 91 18 87 19 90 20 92 21 88 22 89 23 11 24 12 25
REMARK SMILES IDX 13 26 14 27 15 29 16 30 17 31 81 32 18 33 80 34 19 35 20 36
REMARK SMILES IDX 21 37 74 38 22 39 79 40 73 41 75 42 23 43 78 44 72 45 71 46
REMARK SMILES IDX 24 48 58 49 37 50 57 51 38 52 41 53 56 54 76 55 39 56 40 57
REMARK SMILES IDX 55 59 77 60 42 61 25 62 26 63 35 64 27 65 28 66 34 67 36 68
REMARK SMILES IDX 29 69 30 70 31 71 32 72 33 73 59 74 60 75 69 76 61 77 62 78
REMARK SMILES IDX 68 79 70 80 63 81 64 82 65 83 66 84 67 85 43 86 44 87 53 88
REMARK SMILES IDX 45 89 46 90 52 91 54 92 47 93 48 94 49 95 50 96 51 97
REMARK H PARENT 8 6 84 15 13 28 75 47 41 58
REMARK Flexibility Score: inf
ROOT
ATOM      1  C   UNL     1      -4.809   0.961   1.403  1.00  0.00     0.023 C 
ENDROOT
BRANCH   1   2
ATOM      2  C   UNL     1      -5.011  -0.403   0.745  1.00  0.00     0.116 C 
BRANCH   2   3
ATOM      3  N   UNL     1      -5.438  -0.361  -0.637  1.00  0.00    -0.355 N 
ATOM      4  C   UNL     1      -4.768  -0.492  -1.815  1.00  0.00     0.239 C 
ATOM      5  O   UNL     1      -5.461  -0.844  -2.779  1.00  0.00    -0.273 OA
ATOM      6  H   UNL     1      -6.404  -0.208  -0.747  1.00  0.00     0.163 HD
BRANCH   4   7
ATOM      7  C   UNL     1      -3.234  -0.407  -1.980  1.00  0.00     0.222 C 
BRANCH   7   8
ATOM      8  N   UNL     1      -2.464   0.520  -1.148  1.00  0.00    -0.304 N 
BRANCH   8   9
ATOM      9  C   UNL     1      -1.886  -0.061   0.049  1.00  0.00     0.211 C 
BRANCH   9  10
ATOM     10  C   UNL     1      -0.366  -0.061   0.049  1.00  0.00    -0.085 C 
ATOM     11  C   UNL     1       0.938  -0.061   0.049  1.00  0.00     0.006 C 
ENDBRANCH   9  10
ENDBRANCH   8   9
BRANCH   8  12
ATOM     12  C   UNL     1      -2.124   1.834  -1.411  1.00  0.00     0.323 C 
ATOM     13  O   UNL     1      -1.504   2.518  -0.589  1.00  0.00    -0.248 OA
ATOM     14  N   UNL     1      -2.262   2.371  -2.651  1.00  0.00    -0.307 N 
ATOM     15  H   UNL     1      -1.521   2.969  -2.902  1.00  0.00     0.171 HD
BRANCH  14  16
ATOM     16  C   UNL     1      -3.238   2.249  -3.642  1.00  0.00     0.046 A 
ATOM     17  C   UNL     1      -2.783   2.163  -4.964  1.00  0.00     0.042 A 
ATOM     18  C   UNL     1      -4.615   2.289  -3.377  1.00  0.00    -0.027 A 
ATOM     19  C   UNL     1      -3.690   1.952  -5.999  1.00  0.00     0.020 A 
ATOM     20  C   UNL     1      -5.512   2.049  -4.431  1.00  0.00     0.007 A 
ATOM     21  C   UNL     1      -5.164   2.755  -2.059  1.00  0.00     0.046 C 
ATOM     22  Br  UNL     1      -3.064   1.784  -7.775  1.00  0.00    -0.051 Br
ATOM     23  C   UNL     1      -5.051   1.855  -5.733  1.00  0.00     0.016 A 
ENDBRANCH  14  16
ENDBRANCH   8  12
ENDBRANCH   7   8
ENDBRANCH   4   7
ENDBRANCH   2   3
ENDBRANCH   1   2
BRANCH   1  24
ATOM     24  C   UNL     1      -6.058   1.825   1.570  1.00  0.00     0.023 C 
BRANCH  24  25
ATOM     25  C   UNL     1      -7.274   1.131   2.161  1.00  0.00     0.116 C 
BRANCH  25  26
ATOM     26  N   UNL     1      -7.006   0.440   3.410  1.00  0.00    -0.352 N 
ATOM     27  C   UNL     1      -7.831   0.267   4.499  1.00  0.00     0.251 C 
ATOM     28  H   UNL     1      -6.110   0.040   3.489  1.00  0.00     0.163 HD
ATOM     29  O   UNL     1      -7.415  -0.309   5.491  1.00  0.00    -0.269 OA
BRANCH  27  30
ATOM     30  C   UNL     1      -9.200   0.831   4.474  1.00  0.00     0.039 A 
ATOM     31  C   UNL     1      -9.632   1.566   5.581  1.00  0.00     0.014 A 
ATOM     32  C   UNL     1     -10.036   0.670   3.366  1.00  0.00     0.014 A 
ATOM     33  C   UNL     1     -10.875   2.200   5.547  1.00  0.00     0.010 A 
ATOM     34  C   UNL     1     -11.242   1.362   3.305  1.00  0.00     0.010 A 
ATOM     35  C   UNL     1     -11.672   2.135   4.393  1.00  0.00    -0.014 A 
BRANCH  35  36
ATOM     36  C   UNL     1     -12.957   2.873   4.308  1.00  0.00     0.031 A 
ATOM     37  C   UNL     1     -14.252   2.119   4.183  1.00  0.00     0.074 A 
ATOM     38  C   UNL     1     -12.950   4.220   4.281  1.00  0.00     0.049 A 
ATOM     39  N   UNL     1     -15.466   2.582   4.032  1.00  0.00    -0.248 NA
ATOM     40  C   UNL     1     -14.169   0.649   4.203  1.00  0.00     0.031 C 
ATOM     41  C   UNL     1     -11.752   5.061   4.345  1.00  0.00     0.029 A 
ATOM     42  N   UNL     1     -13.981   5.120   4.184  1.00  0.00    -0.354 N 
ATOM     43  C   UNL     1     -16.287   1.466   3.927  1.00  0.00     0.074 A 
ATOM     44  C   UNL     1     -15.428   0.303   3.978  1.00  0.00     0.031 C 
ATOM     45  C   UNL     1     -12.118   6.353   4.308  1.00  0.00     0.029 A 
ATOM     46  C   UNL     1     -13.570   6.433   4.184  1.00  0.00     0.049 A 
ATOM     47  H   UNL     1     -14.926   4.852   4.121  1.00  0.00     0.167 HD
ATOM     48  C   UNL     1     -17.636   1.415   3.821  1.00  0.00     0.037 A 
ATOM     49  C   UNL     1     -14.284   7.572   4.090  1.00  0.00     0.037 A 
ATOM     50  C   UNL     1     -18.486   2.576   3.799  1.00  0.00     0.049 A 
ATOM     51  C   UNL     1     -15.782   7.489   3.983  1.00  0.00     0.074 A 
ATOM     52  C   UNL     1     -19.868   2.631   3.748  1.00  0.00     0.029 A 
ATOM     53  N   UNL     1     -18.035   3.888   3.827  1.00  0.00    -0.354 N 
ATOM     54  N   UNL     1     -16.548   6.425   3.943  1.00  0.00    -0.248 NA
ATOM     55  C   UNL     1     -16.515   8.761   3.915  1.00  0.00     0.031 C 
ATOM     56  C   UNL     1     -20.252   3.976   3.711  1.00  0.00     0.029 A 
ATOM     57  C   UNL     1     -19.111   4.760   3.780  1.00  0.00     0.049 A 
ATOM     58  H   UNL     1     -17.090   4.160   3.873  1.00  0.00     0.167 HD
ATOM     59  C   UNL     1     -17.853   6.898   3.871  1.00  0.00     0.074 A 
ATOM     60  C   UNL     1     -17.774   8.344   3.884  1.00  0.00     0.031 C 
ATOM     61  C   UNL     1     -19.012   6.198   3.803  1.00  0.00     0.037 A 
BRANCH  48  62
ATOM     62  C   UNL     1     -18.274   0.057   3.731  1.00  0.00     0.058 A 
ATOM     63  C   UNL     1     -18.316  -0.810   4.835  1.00  0.00     0.135 A 
ATOM     64  C   UNL     1     -18.873  -0.376   2.537  1.00  0.00     0.135 A 
ATOM     65  F   UNL     1     -17.744  -0.454   5.997  1.00  0.00    -0.206 F 
ATOM     66  C   UNL     1     -18.899  -2.070   4.750  1.00  0.00     0.059 A 
ATOM     67  C   UNL     1     -19.487  -1.621   2.437  1.00  0.00     0.059 A 
ATOM     68  F   UNL     1     -18.862   0.413   1.451  1.00  0.00    -0.206 F 
ATOM     69  C   UNL     1     -19.480  -2.468   3.545  1.00  0.00     0.060 A 
BRANCH  69  70
ATOM     70  S   UNL     1     -20.232  -4.106   3.449  1.00  0.00     0.124 S 
ATOM     71  O   UNL     1     -19.052  -4.963   3.395  1.00  0.00    -0.237 OA
ATOM     72  O   UNL     1     -21.004  -4.170   4.686  1.00  0.00    -0.237 OA
ATOM     73  O   UNL     1     -21.021  -4.047   2.223  1.00  0.00    -0.744 OA
ENDBRANCH  69  70
ENDBRANCH  48  62
BRANCH  49  74
ATOM     74  C   UNL     1     -13.591   8.887   4.123  1.00  0.00     0.058 A 
ATOM     75  C   UNL     1     -13.694   9.726   5.242  1.00  0.00     0.135 A 
ATOM     76  C   UNL     1     -12.803   9.324   3.048  1.00  0.00     0.135 A 
ATOM     77  F   UNL     1     -14.441   9.354   6.293  1.00  0.00    -0.206 F 
ATOM     78  C   UNL     1     -13.052  10.959   5.290  1.00  0.00     0.059 A 
ATOM     79  C   UNL     1     -12.132  10.543   3.081  1.00  0.00     0.059 A 
ATOM     80  F   UNL     1     -12.659   8.550   1.961  1.00  0.00    -0.206 F 
ATOM     81  C   UNL     1     -12.271  11.358   4.204  1.00  0.00     0.060 A 
BRANCH  81  82
ATOM     82  S   UNL     1     -11.403  12.939   4.295  1.00  0.00     0.124 S 
ATOM     83  O   UNL     1     -12.494  13.886   4.098  1.00  0.00    -0.237 OA
ATOM     84  O   UNL     1     -10.828  12.897   5.636  1.00  0.00    -0.237 OA
ATOM     85  O   UNL     1     -10.436  12.852   3.205  1.00  0.00    -0.744 OA
ENDBRANCH  81  82
ENDBRANCH  49  74
BRANCH  61  86
ATOM     86  C   UNL     1     -20.292   6.984   3.769  1.00  0.00     0.058 A 
ATOM     87  C   UNL     1     -20.702   7.677   2.620  1.00  0.00     0.135 A 
ATOM     88  C   UNL     1     -21.145   6.999   4.885  1.00  0.00     0.135 A 
ATOM     89  F   UNL     1     -19.919   7.699   1.530  1.00  0.00    -0.206 F 
ATOM     90  C   UNL     1     -21.904   8.376   2.584  1.00  0.00     0.059 A 
ATOM     91  C   UNL     1     -22.363   7.670   4.863  1.00  0.00     0.059 A 
ATOM     92  F   UNL     1     -20.804   6.344   6.006  1.00  0.00    -0.206 F 
ATOM     93  C   UNL     1     -22.729   8.365   3.711  1.00  0.00     0.060 A 
BRANCH  93  94
ATOM     94  S   UNL     1     -24.305   9.243   3.639  1.00  0.00     0.124 S 
ATOM     95  O   UNL     1     -23.872  10.632   3.759  1.00  0.00    -0.237 OA
ATOM     96  O   UNL     1     -24.824   8.852   2.333  1.00  0.00    -0.237 OA
ATOM     97  O   UNL     1     -25.041   8.713   4.783  1.00  0.00    -0.744 OA
ENDBRANCH  93  94
ENDBRANCH  61  86
ENDBRANCH  35  36
ENDBRANCH  27  30
ENDBRANCH  25  26
ENDBRANCH  24  25
ENDBRANCH   1  24
TORSDOF 19
