REMARK SMILES O=C(NCCCCNC(=O)c1ccccc1/N=C/c1coc2ccccc2c1=O)c1ccc(-c2c3nc(c(-c4c(F)cc(S(=O)(=O)[O-])cc4F)c4ccc([nH]4)c(-c4c(F)cc(S(=O)(=O)[O-])cc4F)c4nc(c(-c5c(F)cc(S(=O)(=O)[O-])cc5F)c5ccc2[nH]5)C=C4)C=C3)cc1
REMARK SMILES IDX 5 1 4 2 3 3 1 4 2 5 30 7 31 8 95 9 32 10 94 11 33 12 34 13
REMARK SMILES IDX 35 14 88 15 36 16 93 17 87 18 89 19 37 20 92 21 86 22 85 23
REMARK SMILES IDX 38 25 72 26 51 27 71 28 52 29 55 30 70 31 90 32 53 33 54 34
REMARK SMILES IDX 69 36 91 37 56 38 39 39 40 40 49 41 41 42 42 43 48 44 50 45
REMARK SMILES IDX 43 46 44 47 45 48 46 49 47 50 73 51 74 52 83 53 75 54 76 55
REMARK SMILES IDX 82 56 84 57 77 58 78 59 79 60 80 61 81 62 57 63 58 64 67 65
REMARK SMILES IDX 59 66 60 67 66 68 68 69 61 70 62 71 63 72 64 73 65 74 6 75
REMARK SMILES IDX 7 76 8 77 9 78 10 80 11 81 12 82 16 83 13 84 15 85 14 86
REMARK SMILES IDX 17 87 18 88 19 89 20 90 28 91 21 92 27 93 29 94 22 95 26 96
REMARK SMILES IDX 23 97 25 98 24 99
REMARK H PARENT 3 6 89 24 55 35 8 79
REMARK Flexibility Score: inf
ROOT
ATOM      1  C   UNL     1       5.146   1.314   2.760  1.00  0.00     0.023 C 
ENDROOT
BRANCH   1   2
ATOM      2  C   UNL     1       5.035   0.288   1.632  1.00  0.00     0.116 C 
BRANCH   2   3
ATOM      3  N   UNL     1       3.681  -0.191   1.422  1.00  0.00    -0.352 N 
ATOM      4  O   UNL     1       1.663  -0.320   0.412  1.00  0.00    -0.269 OA
ATOM      5  C   UNL     1       2.851  -0.021   0.338  1.00  0.00     0.251 C 
ATOM      6  H   UNL     1       3.300  -0.714   2.164  1.00  0.00     0.163 HD
BRANCH   5   7
ATOM      7  C   UNL     1       3.381   0.520  -0.939  1.00  0.00     0.039 A 
ATOM      8  C   UNL     1       4.553   0.009  -1.508  1.00  0.00     0.014 A 
ATOM      9  C   UNL     1       2.652   1.502  -1.618  1.00  0.00     0.014 A 
ATOM     10  C   UNL     1       5.045   0.547  -2.699  1.00  0.00     0.010 A 
ATOM     11  C   UNL     1       3.127   2.017  -2.829  1.00  0.00     0.010 A 
ATOM     12  C   UNL     1       4.342   1.561  -3.365  1.00  0.00    -0.014 A 
BRANCH  12  13
ATOM     13  C   UNL     1       4.886   2.135  -4.621  1.00  0.00     0.031 A 
ATOM     14  C   UNL     1       5.543   3.486  -4.620  1.00  0.00     0.074 A 
ATOM     15  C   UNL     1       4.807   1.433  -5.767  1.00  0.00     0.049 A 
ATOM     16  N   UNL     1       6.116   4.124  -5.609  1.00  0.00    -0.248 NA
ATOM     17  C   UNL     1       5.556   4.214  -3.343  1.00  0.00     0.031 C 
ATOM     18  C   UNL     1       4.175   0.122  -5.912  1.00  0.00     0.029 A 
ATOM     19  N   UNL     1       5.268   1.727  -7.025  1.00  0.00    -0.354 N 
ATOM     20  C   UNL     1       6.542   5.336  -5.082  1.00  0.00     0.074 A 
ATOM     21  C   UNL     1       6.157   5.346  -3.684  1.00  0.00     0.031 C 
ATOM     22  C   UNL     1       4.304  -0.285  -7.186  1.00  0.00     0.029 A 
ATOM     23  C   UNL     1       5.018   0.740  -7.946  1.00  0.00     0.049 A 
ATOM     24  H   UNL     1       5.735   2.565  -7.247  1.00  0.00     0.167 HD
ATOM     25  C   UNL     1       7.199   6.347  -5.699  1.00  0.00     0.037 A 
ATOM     26  C   UNL     1       5.329   0.665  -9.254  1.00  0.00     0.037 A 
ATOM     27  C   UNL     1       7.615   6.338  -7.075  1.00  0.00     0.049 A 
ATOM     28  C   UNL     1       6.073   1.787  -9.914  1.00  0.00     0.074 A 
ATOM     29  C   UNL     1       8.346   7.292  -7.763  1.00  0.00     0.029 A 
ATOM     30  N   UNL     1       7.333   5.324  -7.977  1.00  0.00    -0.354 N 
ATOM     31  N   UNL     1       6.511   2.904  -9.387  1.00  0.00    -0.248 NA
ATOM     32  C   UNL     1       6.364   1.639 -11.348  1.00  0.00     0.031 C 
ATOM     33  C   UNL     1       8.495   6.858  -9.088  1.00  0.00     0.029 A 
ATOM     34  C   UNL     1       7.861   5.634  -9.220  1.00  0.00     0.049 A 
ATOM     35  H   UNL     1       6.831   4.504  -7.765  1.00  0.00     0.167 HD
ATOM     36  C   UNL     1       7.128   3.595 -10.423  1.00  0.00     0.074 A 
ATOM     37  C   UNL     1       7.014   2.767 -11.607  1.00  0.00     0.031 C 
ATOM     38  C   UNL     1       7.734   4.806 -10.391  1.00  0.00     0.037 A 
BRANCH  25  39
ATOM     39  C   UNL     1       7.501   7.554  -4.865  1.00  0.00     0.058 A 
ATOM     40  C   UNL     1       8.647   7.610  -4.058  1.00  0.00     0.135 A 
ATOM     41  C   UNL     1       6.622   8.646  -4.846  1.00  0.00     0.135 A 
ATOM     42  F   UNL     1       9.507   6.580  -4.034  1.00  0.00    -0.206 F 
ATOM     43  C   UNL     1       8.898   8.701  -3.233  1.00  0.00     0.059 A 
ATOM     44  C   UNL     1       6.856   9.750  -4.032  1.00  0.00     0.059 A 
ATOM     45  F   UNL     1       5.508   8.631  -5.594  1.00  0.00    -0.206 F 
ATOM     46  C   UNL     1       7.987   9.758  -3.214  1.00  0.00     0.060 A 
BRANCH  46  47
ATOM     47  S   UNL     1       8.272  11.157  -2.108  1.00  0.00     0.124 S 
ATOM     48  O   UNL     1       7.569  10.720  -0.905  1.00  0.00    -0.237 OA
ATOM     49  O   UNL     1       9.727  11.204  -2.006  1.00  0.00    -0.237 OA
ATOM     50  O   UNL     1       7.663  12.273  -2.825  1.00  0.00    -0.744 OA
ENDBRANCH  46  47
ENDBRANCH  25  39
BRANCH  26  51
ATOM     51  C   UNL     1       4.932  -0.539 -10.018  1.00  0.00     0.058 A 
ATOM     52  C   UNL     1       5.820  -1.611 -10.178  1.00  0.00     0.135 A 
ATOM     53  C   UNL     1       3.638  -0.664 -10.541  1.00  0.00     0.135 A 
ATOM     54  F   UNL     1       7.067  -1.528  -9.691  1.00  0.00    -0.206 F 
ATOM     55  C   UNL     1       5.433  -2.781 -10.822  1.00  0.00     0.059 A 
ATOM     56  C   UNL     1       3.227  -1.826 -11.184  1.00  0.00     0.059 A 
ATOM     57  F   UNL     1       2.757   0.339 -10.402  1.00  0.00    -0.206 F 
ATOM     58  C   UNL     1       4.132  -2.880 -11.319  1.00  0.00     0.060 A 
BRANCH  58  59
ATOM     59  S   UNL     1       3.581  -4.429 -12.068  1.00  0.00     0.124 S 
ATOM     60  O   UNL     1       3.878  -4.195 -13.476  1.00  0.00    -0.237 OA
ATOM     61  O   UNL     1       4.412  -5.426 -11.399  1.00  0.00    -0.237 OA
ATOM     62  O   UNL     1       2.165  -4.471 -11.714  1.00  0.00    -0.744 OA
ENDBRANCH  58  59
ENDBRANCH  26  51
BRANCH  38  63
ATOM     63  C   UNL     1       8.310   5.314 -11.677  1.00  0.00     0.058 A 
ATOM     64  C   UNL     1       7.518   6.029 -12.588  1.00  0.00     0.135 A 
ATOM     65  C   UNL     1       9.664   5.121 -11.987  1.00  0.00     0.135 A 
ATOM     66  F   UNL     1       6.216   6.234 -12.335  1.00  0.00    -0.206 F 
ATOM     67  C   UNL     1       8.050   6.534 -13.771  1.00  0.00     0.059 A 
ATOM     68  C   UNL     1      10.218   5.620 -13.161  1.00  0.00     0.059 A 
ATOM     69  F   UNL     1      10.459   4.442 -11.145  1.00  0.00    -0.206 F 
ATOM     70  C   UNL     1       9.400   6.319 -14.051  1.00  0.00     0.060 A 
BRANCH  70  71
ATOM     71  S   UNL     1      10.111   6.998 -15.567  1.00  0.00     0.124 S 
ATOM     72  O   UNL     1       9.889   5.905 -16.509  1.00  0.00    -0.237 OA
ATOM     73  O   UNL     1       9.313   8.199 -15.794  1.00  0.00    -0.237 OA
ATOM     74  O   UNL     1      11.502   7.241 -15.198  1.00  0.00    -0.744 OA
ENDBRANCH  70  71
ENDBRANCH  38  63
ENDBRANCH  12  13
ENDBRANCH   5   7
ENDBRANCH   2   3
ENDBRANCH   1   2
BRANCH   1  75
ATOM     75  C   UNL     1       4.867   0.816   4.183  1.00  0.00     0.023 C 
BRANCH  75  76
ATOM     76  C   UNL     1       5.534  -0.498   4.589  1.00  0.00     0.116 C 
BRANCH  76  77
ATOM     77  N   UNL     1       6.957  -0.551   4.308  1.00  0.00    -0.352 N 
ATOM     78  C   UNL     1       7.929  -1.340   4.864  1.00  0.00     0.253 C 
ATOM     79  H   UNL     1       7.270   0.072   3.614  1.00  0.00     0.163 HD
ATOM     80  O   UNL     1       9.066  -1.316   4.393  1.00  0.00    -0.269 OA
BRANCH  78  81
ATOM     81  C   UNL     1       7.691  -2.171   6.059  1.00  0.00     0.065 A 
ATOM     82  C   UNL     1       8.572  -1.959   7.137  1.00  0.00     0.016 A 
ATOM     83  C   UNL     1       6.722  -3.175   6.147  1.00  0.00     0.076 A 
ATOM     84  C   UNL     1       8.463  -2.706   8.311  1.00  0.00     0.001 A 
ATOM     85  C   UNL     1       6.621  -3.908   7.342  1.00  0.00     0.029 A 
ATOM     86  C   UNL     1       7.481  -3.682   8.416  1.00  0.00     0.002 A 
BRANCH  83  87
ATOM     87  N   UNL     1       5.743  -3.466   5.199  1.00  0.00    -0.255 NA
ATOM     88  C   UNL     1       6.043  -3.990   4.055  1.00  0.00     0.127 C 
BRANCH  88  89
ATOM     89  C   UNL     1       4.914  -4.524   3.272  1.00  0.00     0.076 A 
ATOM     90  C   UNL     1       4.961  -5.848   3.067  1.00  0.00     0.209 A 
ATOM     91  C   UNL     1       3.567  -3.906   3.351  1.00  0.00     0.201 A 
ATOM     92  O   UNL     1       3.839  -6.657   2.990  1.00  0.00    -0.463 OA
ATOM     93  C   UNL     1       2.543  -4.819   3.877  1.00  0.00     0.065 A 
ATOM     94  O   UNL     1       3.342  -2.733   3.099  1.00  0.00    -0.288 OA
ATOM     95  C   UNL     1       2.752  -6.187   3.698  1.00  0.00     0.137 A 
ATOM     96  C   UNL     1       1.485  -4.342   4.651  1.00  0.00     0.016 A 
ATOM     97  C   UNL     1       1.894  -7.101   4.299  1.00  0.00     0.048 A 
ATOM     98  C   UNL     1       0.649  -5.260   5.285  1.00  0.00     0.001 A 
ATOM     99  C   UNL     1       0.855  -6.634   5.110  1.00  0.00     0.004 A 
ENDBRANCH  88  89
ENDBRANCH  83  87
ENDBRANCH  78  81
ENDBRANCH  76  77
ENDBRANCH  75  76
ENDBRANCH   1  75
TORSDOF 16
