REMARK SMILES Cc1ccc(O[C@H](C)C(=O)NNC(=O)[C@@H]2[C@@H](C(=O)NCCCCNC(=O)c3ccc(-c4c5nc(c(-c6c(F)cc(S(=O)(=O)[O-])cc6F)c6ccc([nH]6)c(-c6c(F)cc(S(=O)(=O)[O-])cc6F)c6nc(c(-c7c(F)cc(S(=O)(=O)[O-])cc7F)c7ccc4[nH]7)C=C6)C=C5)cc3)[C@@H]3C=C[C@H]2C3)cc1C
REMARK SMILES IDX 20 1 19 2 17 3 18 4 16 6 15 7 96 8 93 9 95 10 97 11 94 12
REMARK SMILES IDX 13 13 12 14 14 16 11 17 9 18 10 19 7 21 8 22 6 23 5 24 1 25
REMARK SMILES IDX 2 26 3 27 99 28 4 29 98 30 100 31 21 32 22 33 23 34 24 35
REMARK SMILES IDX 25 36 26 38 27 39 28 40 92 41 29 42 91 43 30 44 31 45 32 46
REMARK SMILES IDX 85 47 33 48 90 49 84 50 86 51 34 52 89 53 83 54 82 55 35 57
REMARK SMILES IDX 69 58 48 59 68 60 49 61 52 62 67 63 87 64 50 65 51 66 66 68
REMARK SMILES IDX 88 69 53 70 36 71 37 72 46 73 38 74 39 75 45 76 47 77 40 78
REMARK SMILES IDX 41 79 42 80 43 81 44 82 70 83 71 84 80 85 72 86 73 87 79 88
REMARK SMILES IDX 81 89 74 90 75 91 76 92 77 93 78 94 54 95 55 96 64 97 56 98
REMARK SMILES IDX 57 99 63 100 65 101 58 102 59 103 60 104 61 105 62 106
REMARK H PARENT 19 5 12 15 11 20 24 37 86 56 52 67
REMARK Flexibility Score: inf
ROOT
ATOM      1  C   UNL     1       0.695   4.735   0.043  1.00  0.00     0.116 C 
ENDROOT
BRANCH   1   2
ATOM      2  N   UNL     1       0.474   5.482  -1.176  1.00  0.00    -0.356 N 
ATOM      3  C   UNL     1      -0.663   5.619  -1.909  1.00  0.00     0.224 C 
ATOM      4  O   UNL     1      -0.603   6.337  -2.909  1.00  0.00    -0.275 OA
ATOM      5  H   UNL     1       1.261   5.959  -1.526  1.00  0.00     0.163 HD
BRANCH   3   6
ATOM      6  C   UNL     1      -1.955   4.920  -1.482  1.00  0.00     0.098 C 
ATOM      7  C   UNL     1      -2.021   3.387  -1.883  1.00  0.00     0.100 C 
ATOM      8  C   UNL     1      -3.229   3.365  -2.859  1.00  0.00     0.025 C 
ATOM      9  C   UNL     1      -3.156   5.514  -2.271  1.00  0.00     0.025 C 
ATOM     10  C   UNL     1      -4.490   3.645  -2.082  1.00  0.00    -0.027 C 
ATOM     11  C   UNL     1      -3.096   4.712  -3.572  1.00  0.00     0.017 C 
ATOM     12  C   UNL     1      -4.436   4.931  -1.707  1.00  0.00    -0.027 C 
BRANCH   7  13
ATOM     13  C   UNL     1      -2.115   2.496  -0.632  1.00  0.00     0.242 C 
ATOM     14  N   UNL     1      -2.488   1.181  -0.675  1.00  0.00    -0.267 N 
ATOM     15  H   UNL     1      -2.203   0.615   0.078  1.00  0.00     0.191 HD
ATOM     16  O   UNL     1      -1.739   2.899   0.474  1.00  0.00    -0.273 OA
BRANCH  14  17
ATOM     17  N   UNL     1      -3.224   0.569  -1.671  1.00  0.00    -0.264 N 
ATOM     18  C   UNL     1      -4.173  -0.396  -1.424  1.00  0.00     0.279 C 
ATOM     19  O   UNL     1      -4.965  -0.693  -2.323  1.00  0.00    -0.269 OA
ATOM     20  H   UNL     1      -3.061   0.837  -2.604  1.00  0.00     0.191 HD
BRANCH  18  21
ATOM     21  C   UNL     1      -4.143  -1.177  -0.094  1.00  0.00     0.260 C 
ATOM     22  C   UNL     1      -2.851  -2.005  -0.062  1.00  0.00     0.064 C 
BRANCH  21  23
ATOM     23  O   UNL     1      -4.243  -0.320   1.045  1.00  0.00    -0.481 OA
BRANCH  23  24
ATOM     24  C   UNL     1      -4.517  -0.892   2.264  1.00  0.00     0.120 A 
ATOM     25  C   UNL     1      -5.128  -2.424   6.274  1.00  0.00     0.044 C 
ATOM     26  C   UNL     1      -4.938  -1.849   4.897  1.00  0.00    -0.048 A 
ATOM     27  C   UNL     1      -4.990  -2.711   3.794  1.00  0.00     0.007 A 
ATOM     28  C   UNL     1      -4.705  -0.479   4.676  1.00  0.00    -0.045 A 
ATOM     29  C   UNL     1      -4.793  -2.237   2.493  1.00  0.00     0.047 A 
ATOM     30  C   UNL     1      -4.493  -0.020   3.357  1.00  0.00     0.050 A 
ATOM     31  C   UNL     1      -4.670   0.532   5.791  1.00  0.00     0.045 C 
ENDBRANCH  23  24
ENDBRANCH  21  23
ENDBRANCH  18  21
ENDBRANCH  14  17
ENDBRANCH   7  13
ENDBRANCH   3   6
ENDBRANCH   1   2
BRANCH   1  32
ATOM     32  C   UNL     1       1.287   3.359  -0.257  1.00  0.00     0.023 C 
BRANCH  32  33
ATOM     33  C   UNL     1       2.789   3.376  -0.551  1.00  0.00     0.023 C 
BRANCH  33  34
ATOM     34  C   UNL     1       3.659   3.896   0.587  1.00  0.00     0.116 C 
BRANCH  34  35
ATOM     35  N   UNL     1       3.452   3.190   1.843  1.00  0.00    -0.352 N 
ATOM     36  C   UNL     1       4.366   2.950   2.844  1.00  0.00     0.251 C 
ATOM     37  H   UNL     1       2.544   2.840   1.996  1.00  0.00     0.163 HD
ATOM     38  O   UNL     1       4.074   2.248   3.800  1.00  0.00    -0.269 OA
BRANCH  36  39
ATOM     39  C   UNL     1       5.721   3.524   2.713  1.00  0.00     0.039 A 
ATOM     40  C   UNL     1       6.825   2.678   2.832  1.00  0.00     0.014 A 
ATOM     41  C   UNL     1       5.889   4.877   2.411  1.00  0.00     0.014 A 
ATOM     42  C   UNL     1       8.102   3.179   2.577  1.00  0.00     0.010 A 
ATOM     43  C   UNL     1       7.152   5.356   2.086  1.00  0.00     0.010 A 
ATOM     44  C   UNL     1       8.271   4.511   2.164  1.00  0.00    -0.014 A 
BRANCH  44  45
ATOM     45  C   UNL     1       9.609   5.043   1.807  1.00  0.00     0.031 A 
ATOM     46  C   UNL     1      10.215   6.153   2.619  1.00  0.00     0.074 A 
ATOM     47  C   UNL     1      10.239   4.577   0.711  1.00  0.00     0.049 A 
ATOM     48  N   UNL     1      11.332   6.804   2.423  1.00  0.00    -0.248 NA
ATOM     49  C   UNL     1       9.447   6.615   3.787  1.00  0.00     0.031 C 
ATOM     50  C   UNL     1       9.722   3.544  -0.190  1.00  0.00     0.029 A 
ATOM     51  N   UNL     1      11.447   4.920   0.159  1.00  0.00    -0.354 N 
ATOM     52  C   UNL     1      11.393   7.761   3.429  1.00  0.00     0.074 A 
ATOM     53  C   UNL     1      10.175   7.643   4.200  1.00  0.00     0.031 C 
ATOM     54  C   UNL     1      10.616   3.323  -1.167  1.00  0.00     0.029 A 
ATOM     55  C   UNL     1      11.754   4.219  -0.983  1.00  0.00     0.049 A 
ATOM     56  H   UNL     1      12.040   5.605   0.545  1.00  0.00     0.167 HD
ATOM     57  C   UNL     1      12.385   8.642   3.699  1.00  0.00     0.037 A 
ATOM     58  C   UNL     1      12.829   4.292  -1.792  1.00  0.00     0.037 A 
ATOM     59  C   UNL     1      13.608   8.729   2.947  1.00  0.00     0.049 A 
ATOM     60  C   UNL     1      13.931   5.259  -1.455  1.00  0.00     0.074 A 
ATOM     61  C   UNL     1      14.704   9.543   3.176  1.00  0.00     0.029 A 
ATOM     62  N   UNL     1      13.900   7.972   1.821  1.00  0.00    -0.354 N 
ATOM     63  N   UNL     1      14.001   6.114  -0.462  1.00  0.00    -0.248 NA
ATOM     64  C   UNL     1      15.103   5.267  -2.340  1.00  0.00     0.031 C 
ATOM     65  C   UNL     1      15.645   9.301   2.169  1.00  0.00     0.029 A 
ATOM     66  C   UNL     1      15.154   8.307   1.337  1.00  0.00     0.049 A 
ATOM     67  H   UNL     1      13.304   7.296   1.425  1.00  0.00     0.167 HD
ATOM     68  C   UNL     1      15.235   6.741  -0.587  1.00  0.00     0.074 A 
ATOM     69  C   UNL     1      15.882   6.161  -1.747  1.00  0.00     0.031 C 
ATOM     70  C   UNL     1      15.784   7.710   0.187  1.00  0.00     0.037 A 
BRANCH  57  71
ATOM     71  C   UNL     1      12.188   9.573   4.863  1.00  0.00     0.058 A 
ATOM     72  C   UNL     1      12.217   9.108   6.188  1.00  0.00     0.135 A 
ATOM     73  C   UNL     1      11.991  10.947   4.656  1.00  0.00     0.135 A 
ATOM     74  F   UNL     1      12.385   7.801   6.443  1.00  0.00    -0.206 F 
ATOM     75  C   UNL     1      12.024   9.967   7.265  1.00  0.00     0.059 A 
ATOM     76  C   UNL     1      11.824  11.829   5.720  1.00  0.00     0.059 A 
ATOM     77  F   UNL     1      11.954  11.445   3.410  1.00  0.00    -0.206 F 
ATOM     78  C   UNL     1      11.826  11.326   7.020  1.00  0.00     0.060 A 
BRANCH  78  79
ATOM     79  S   UNL     1      11.578  12.429   8.428  1.00  0.00     0.124 S 
ATOM     80  O   UNL     1      10.209  12.100   8.816  1.00  0.00    -0.237 OA
ATOM     81  O   UNL     1      12.619  11.995   9.354  1.00  0.00    -0.237 OA
ATOM     82  O   UNL     1      11.766  13.758   7.856  1.00  0.00    -0.744 OA
ENDBRANCH  78  79
ENDBRANCH  57  71
BRANCH  58  83
ATOM     83  C   UNL     1      12.929   3.401  -2.977  1.00  0.00     0.058 A 
ATOM     84  C   UNL     1      13.837   2.331  -2.998  1.00  0.00     0.135 A 
ATOM     85  C   UNL     1      12.112   3.587  -4.102  1.00  0.00     0.135 A 
ATOM     86  F   UNL     1      14.642   2.115  -1.947  1.00  0.00    -0.206 F 
ATOM     87  C   UNL     1      13.943   1.486  -4.098  1.00  0.00     0.059 A 
ATOM     88  C   UNL     1      12.184   2.741  -5.205  1.00  0.00     0.059 A 
ATOM     89  F   UNL     1      11.214   4.584  -4.124  1.00  0.00    -0.206 F 
ATOM     90  C   UNL     1      13.110   1.699  -5.197  1.00  0.00     0.060 A 
BRANCH  90  91
ATOM     91  S   UNL     1      13.220   0.566  -6.600  1.00  0.00     0.124 S 
ATOM     92  O   UNL     1      14.463   0.996  -7.228  1.00  0.00    -0.237 OA
ATOM     93  O   UNL     1      13.254  -0.736  -5.941  1.00  0.00    -0.237 OA
ATOM     94  O   UNL     1      12.000   0.846  -7.352  1.00  0.00    -0.744 OA
ENDBRANCH  90  91
ENDBRANCH  58  83
BRANCH  70  95
ATOM     95  C   UNL     1      17.166   8.178  -0.170  1.00  0.00     0.058 A 
ATOM     96  C   UNL     1      17.401   9.005  -1.280  1.00  0.00     0.135 A 
ATOM     97  C   UNL     1      18.261   7.838   0.640  1.00  0.00     0.135 A 
ATOM     98  F   UNL     1      16.388   9.352  -2.089  1.00  0.00    -0.206 F 
ATOM     99  C   UNL     1      18.678   9.461  -1.586  1.00  0.00     0.059 A 
ATOM    100  C   UNL     1      19.543   8.304   0.367  1.00  0.00     0.059 A 
ATOM    101  F   UNL     1      18.088   7.058   1.719  1.00  0.00    -0.206 F 
ATOM    102  C   UNL     1      19.743   9.106  -0.756  1.00  0.00     0.060 A 
BRANCH 102 103
ATOM    103  S   UNL     1      21.391   9.733  -1.143  1.00  0.00     0.124 S 
ATOM    104  O   UNL     1      21.770   8.886  -2.268  1.00  0.00    -0.237 OA
ATOM    105  O   UNL     1      21.127  11.133  -1.464  1.00  0.00    -0.237 OA
ATOM    106  O   UNL     1      22.137   9.511   0.092  1.00  0.00    -0.744 OA
ENDBRANCH 102 103
ENDBRANCH  70  95
ENDBRANCH  44  45
ENDBRANCH  36  39
ENDBRANCH  34  35
ENDBRANCH  33  34
ENDBRANCH  32  33
ENDBRANCH   1  32
TORSDOF 19
