REMARK SMILES O=C(NCCCCNC(=O)[C@H](CO)NC(=O)[C@H](CS)NC(=O)[C@H](Cc1ccccc1)NC(=O)c1ccc(F)cc1)c1ccc(-c2c3nc(c(-c4c(F)cc(S(=O)(=O)[O-])cc4F)c4ccc([nH]4)c(-c4c(F)cc(S(=O)(=O)[O-])cc4F)c4nc(c(-c5c(F)cc(S(=O)(=O)[O-])cc5F)c5ccc2[nH]5)C=C4)C=C3)cc1
REMARK SMILES IDX 7 1 6 2 5 3 4 4 3 5 1 6 2 7 41 9 42 10 106 11 43 12 105 13
REMARK SMILES IDX 44 14 45 15 46 16 99 17 47 18 104 19 98 20 100 21 48 22
REMARK SMILES IDX 103 23 97 24 96 25 49 27 83 28 62 29 82 30 63 31 66 32 81 33
REMARK SMILES IDX 101 34 64 35 65 36 80 38 102 39 67 40 50 41 51 42 60 43
REMARK SMILES IDX 52 44 53 45 59 46 61 47 54 48 55 49 56 50 57 51 58 52 84 53
REMARK SMILES IDX 85 54 94 55 86 56 87 57 93 58 95 59 88 60 89 61 90 62 91 63
REMARK SMILES IDX 92 64 68 65 69 66 78 67 70 68 71 69 77 70 79 71 72 72 73 73
REMARK SMILES IDX 74 74 75 75 76 76 8 77 9 78 10 80 11 81 14 82 15 83 16 85
REMARK SMILES IDX 17 86 20 87 21 88 22 90 23 91 31 92 32 93 33 95 34 96 35 97
REMARK SMILES IDX 40 98 36 99 39 100 37 101 38 102 24 103 25 104 26 105 30 106
REMARK SMILES IDX 27 107 29 108 28 109 18 110 19 111 12 113 13 114
REMARK H PARENT 3 8 100 26 66 37 8 79 14 84 20 89 31 94 19 112 13 115
REMARK Flexibility Score: inf
ROOT
ATOM      1  C   UNL     1       5.019  -7.606  -3.555  1.00  0.00     0.116 C 
ENDROOT
BRANCH   1   2
ATOM      2  C   UNL     1       5.107  -8.838  -4.451  1.00  0.00     0.023 C 
BRANCH   2   3
ATOM      3  C   UNL     1       3.963  -8.969  -5.459  1.00  0.00     0.023 C 
BRANCH   3   4
ATOM      4  C   UNL     1       3.732  -7.746  -6.340  1.00  0.00     0.116 C 
BRANCH   4   5
ATOM      5  N   UNL     1       4.941  -7.253  -6.983  1.00  0.00    -0.352 N 
ATOM      6  O   UNL     1       6.144  -6.300  -8.642  1.00  0.00    -0.269 OA
ATOM      7  C   UNL     1       5.045  -6.589  -8.182  1.00  0.00     0.251 C 
ATOM      8  H   UNL     1       5.785  -7.416  -6.503  1.00  0.00     0.163 HD
BRANCH   7   9
ATOM      9  C   UNL     1       3.808  -6.272  -8.919  1.00  0.00     0.039 A 
ATOM     10  C   UNL     1       2.759  -5.611  -8.277  1.00  0.00     0.014 A 
ATOM     11  C   UNL     1       3.680  -6.704 -10.241  1.00  0.00     0.014 A 
ATOM     12  C   UNL     1       1.531  -5.496  -8.915  1.00  0.00     0.010 A 
ATOM     13  C   UNL     1       2.466  -6.523 -10.905  1.00  0.00     0.010 A 
ATOM     14  C   UNL     1       1.375  -5.947 -10.236  1.00  0.00    -0.014 A 
BRANCH  14  15
ATOM     15  C   UNL     1       0.073  -5.762 -10.918  1.00  0.00     0.031 A 
ATOM     16  C   UNL     1      -0.772  -6.942 -11.306  1.00  0.00     0.074 A 
ATOM     17  C   UNL     1      -0.346  -4.508 -11.169  1.00  0.00     0.049 A 
ATOM     18  N   UNL     1      -1.926  -6.959 -11.922  1.00  0.00    -0.248 NA
ATOM     19  C   UNL     1      -0.255  -8.277 -10.964  1.00  0.00     0.031 C 
ATOM     20  C   UNL     1       0.401  -3.291 -10.839  1.00  0.00     0.029 A 
ATOM     21  N   UNL     1      -1.499  -4.045 -11.745  1.00  0.00    -0.354 N 
ATOM     22  C   UNL     1      -2.263  -8.299 -12.065  1.00  0.00     0.074 A 
ATOM     23  C   UNL     1      -1.184  -9.069 -11.483  1.00  0.00     0.031 C 
ATOM     24  C   UNL     1      -0.328  -2.220 -11.186  1.00  0.00     0.029 A 
ATOM     25  C   UNL     1      -1.563  -2.674 -11.814  1.00  0.00     0.049 A 
ATOM     26  H   UNL     1      -2.212  -4.636 -12.078  1.00  0.00     0.167 HD
ATOM     27  C   UNL     1      -3.374  -8.834 -12.628  1.00  0.00     0.037 A 
ATOM     28  C   UNL     1      -2.503  -1.870 -12.343  1.00  0.00     0.037 A 
ATOM     29  C   UNL     1      -4.449  -8.054 -13.189  1.00  0.00     0.049 A 
ATOM     30  C   UNL     1      -3.720  -2.487 -12.966  1.00  0.00     0.074 A 
ATOM     31  C   UNL     1      -5.630  -8.498 -13.757  1.00  0.00     0.029 A 
ATOM     32  N   UNL     1      -4.472  -6.668 -13.254  1.00  0.00    -0.354 N 
ATOM     33  N   UNL     1      -4.029  -3.756 -13.080  1.00  0.00    -0.248 NA
ATOM     34  C   UNL     1      -4.711  -1.567 -13.537  1.00  0.00     0.031 C 
ATOM     35  C   UNL     1      -6.352  -7.382 -14.196  1.00  0.00     0.029 A 
ATOM     36  C   UNL     1      -5.639  -6.241 -13.866  1.00  0.00     0.049 A 
ATOM     37  H   UNL     1      -3.763  -6.075 -12.914  1.00  0.00     0.167 HD
ATOM     38  C   UNL     1      -5.257  -3.789 -13.728  1.00  0.00     0.074 A 
ATOM     39  C   UNL     1      -5.640  -2.411 -13.966  1.00  0.00     0.031 C 
ATOM     40  C   UNL     1      -5.998  -4.863 -14.096  1.00  0.00     0.037 A 
BRANCH  27  41
ATOM     41  C   UNL     1      -3.475 -10.333 -12.685  1.00  0.00     0.058 A 
ATOM     42  C   UNL     1      -3.743 -11.100 -11.541  1.00  0.00     0.135 A 
ATOM     43  C   UNL     1      -3.333 -11.009 -13.908  1.00  0.00     0.135 A 
ATOM     44  F   UNL     1      -3.873 -10.506 -10.344  1.00  0.00    -0.206 F 
ATOM     45  C   UNL     1      -3.842 -12.487 -11.602  1.00  0.00     0.059 A 
ATOM     46  C   UNL     1      -3.448 -12.394 -13.996  1.00  0.00     0.059 A 
ATOM     47  F   UNL     1      -3.075 -10.324 -15.033  1.00  0.00    -0.206 F 
ATOM     48  C   UNL     1      -3.688 -13.126 -12.834  1.00  0.00     0.060 A 
BRANCH  48  49
ATOM     49  S   UNL     1      -3.808 -14.927 -12.898  1.00  0.00     0.124 S 
ATOM     50  O   UNL     1      -2.521 -15.323 -12.336  1.00  0.00    -0.237 OA
ATOM     51  O   UNL     1      -4.973 -15.194 -12.060  1.00  0.00    -0.237 OA
ATOM     52  O   UNL     1      -3.986 -15.204 -14.320  1.00  0.00    -0.744 OA
ENDBRANCH  48  49
ENDBRANCH  27  41
BRANCH  28  53
ATOM     53  C   UNL     1      -2.312  -0.399 -12.299  1.00  0.00     0.058 A 
ATOM     54  C   UNL     1      -3.064   0.401 -11.429  1.00  0.00     0.135 A 
ATOM     55  C   UNL     1      -1.327   0.226 -13.080  1.00  0.00     0.135 A 
ATOM     56  F   UNL     1      -4.017  -0.153 -10.664  1.00  0.00    -0.206 F 
ATOM     57  C   UNL     1      -2.849   1.771 -11.333  1.00  0.00     0.059 A 
ATOM     58  C   UNL     1      -1.076   1.589 -12.985  1.00  0.00     0.059 A 
ATOM     59  F   UNL     1      -0.567  -0.503 -13.913  1.00  0.00    -0.206 F 
ATOM     60  C   UNL     1      -1.847   2.355 -12.111  1.00  0.00     0.060 A 
BRANCH  60  61
ATOM     61  S   UNL     1      -1.517   4.120 -11.922  1.00  0.00     0.124 S 
ATOM     62  O   UNL     1      -2.619   4.706 -12.675  1.00  0.00    -0.237 OA
ATOM     63  O   UNL     1      -1.570   4.291 -10.473  1.00  0.00    -0.237 OA
ATOM     64  O   UNL     1      -0.191   4.277 -12.513  1.00  0.00    -0.744 OA
ENDBRANCH  60  61
ENDBRANCH  28  53
BRANCH  40  65
ATOM     65  C   UNL     1      -7.306  -4.585 -14.778  1.00  0.00     0.058 A 
ATOM     66  C   UNL     1      -7.360  -4.174 -16.118  1.00  0.00     0.135 A 
ATOM     67  C   UNL     1      -8.518  -4.766 -14.093  1.00  0.00     0.135 A 
ATOM     68  F   UNL     1      -6.227  -3.978 -16.811  1.00  0.00    -0.206 F 
ATOM     69  C   UNL     1      -8.573  -3.930 -16.752  1.00  0.00     0.059 A 
ATOM     70  C   UNL     1      -9.743  -4.549 -14.714  1.00  0.00     0.059 A 
ATOM     71  F   UNL     1      -8.517  -5.165 -12.812  1.00  0.00    -0.206 F 
ATOM     72  C   UNL     1      -9.760  -4.119 -16.041  1.00  0.00     0.060 A 
BRANCH  72  73
ATOM     73  S   UNL     1     -11.331  -3.828 -16.880  1.00  0.00     0.124 S 
ATOM     74  O   UNL     1     -11.403  -2.371 -16.869  1.00  0.00    -0.237 OA
ATOM     75  O   UNL     1     -11.110  -4.442 -18.186  1.00  0.00    -0.237 OA
ATOM     76  O   UNL     1     -12.300  -4.513 -16.030  1.00  0.00    -0.744 OA
ENDBRANCH  72  73
ENDBRANCH  40  65
ENDBRANCH  14  15
ENDBRANCH   7   9
ENDBRANCH   4   5
ENDBRANCH   3   4
ENDBRANCH   2   3
ENDBRANCH   1   2
BRANCH   1  77
ATOM     77  N   UNL     1       4.110  -7.826  -2.450  1.00  0.00    -0.354 N 
ATOM     78  C   UNL     1       4.308  -8.032  -1.125  1.00  0.00     0.244 C 
ATOM     79  H   UNL     1       3.161  -7.826  -2.712  1.00  0.00     0.163 HD
ATOM     80  O   UNL     1       3.290  -8.074  -0.420  1.00  0.00    -0.273 OA
BRANCH  78  81
ATOM     81  C   UNL     1       5.693  -8.128  -0.442  1.00  0.00     0.197 C 
BRANCH  81  82
ATOM     82  N   UNL     1       6.888  -8.175  -1.273  1.00  0.00    -0.340 N 
ATOM     83  C   UNL     1       7.547  -9.190  -1.885  1.00  0.00     0.244 C 
ATOM     84  H   UNL     1       7.301  -7.294  -1.419  1.00  0.00     0.164 HD
ATOM     85  O   UNL     1       8.503  -8.836  -2.586  1.00  0.00    -0.273 OA
BRANCH  83  86
ATOM     86  C   UNL     1       7.284 -10.694  -1.626  1.00  0.00     0.181 C 
BRANCH  86  87
ATOM     87  N   UNL     1       5.946 -11.060  -1.147  1.00  0.00    -0.342 N 
ATOM     88  C   UNL     1       5.517 -11.854  -0.123  1.00  0.00     0.243 C 
ATOM     89  H   UNL     1       5.215 -10.654  -1.667  1.00  0.00     0.164 HD
ATOM     90  O   UNL     1       4.337 -12.215  -0.208  1.00  0.00    -0.273 OA
BRANCH  88  91
ATOM     91  C   UNL     1       6.318 -12.147   1.181  1.00  0.00     0.176 C 
BRANCH  91  92
ATOM     92  N   UNL     1       7.762 -12.267   0.971  1.00  0.00    -0.340 N 
ATOM     93  C   UNL     1       8.555 -13.361   0.767  1.00  0.00     0.251 C 
ATOM     94  H   UNL     1       8.246 -11.410   0.978  1.00  0.00     0.164 HD
ATOM     95  O   UNL     1       9.731 -13.187   0.457  1.00  0.00    -0.269 OA
BRANCH  93  96
ATOM     96  C   UNL     1       8.068 -14.734   1.021  1.00  0.00     0.040 A 
ATOM     97  C   UNL     1       8.878 -15.542   1.834  1.00  0.00     0.017 A 
ATOM     98  C   UNL     1       6.877 -15.244   0.496  1.00  0.00     0.017 A 
ATOM     99  C   UNL     1       8.469 -16.831   2.171  1.00  0.00     0.040 A 
ATOM    100  C   UNL     1       6.464 -16.533   0.846  1.00  0.00     0.040 A 
ATOM    101  C   UNL     1       7.258 -17.309   1.686  1.00  0.00     0.123 A 
ATOM    102  F   UNL     1       6.852 -18.538   2.030  1.00  0.00    -0.207 F 
ENDBRANCH  93  96
ENDBRANCH  91  92
BRANCH  91 103
ATOM    103  C   UNL     1       6.044 -11.091   2.270  1.00  0.00     0.070 C 
BRANCH 103 104
ATOM    104  C   UNL     1       4.641 -11.119   2.829  1.00  0.00    -0.045 A 
ATOM    105  C   UNL     1       4.313 -11.948   3.909  1.00  0.00     0.004 A 
ATOM    106  C   UNL     1       3.634 -10.329   2.264  1.00  0.00     0.004 A 
ATOM    107  C   UNL     1       3.009 -11.970   4.413  1.00  0.00     0.000 A 
ATOM    108  C   UNL     1       2.333 -10.349   2.765  1.00  0.00     0.000 A 
ATOM    109  C   UNL     1       2.021 -11.169   3.843  1.00  0.00     0.000 A 
ENDBRANCH 103 104
ENDBRANCH  91 103
ENDBRANCH  88  91
ENDBRANCH  86  87
BRANCH  86 110
ATOM    110  C   UNL     1       7.635 -11.442  -2.940  1.00  0.00     0.101 C 
BRANCH 110 111
ATOM    111  S   UNL     1       7.404 -13.249  -2.878  1.00  0.00    -0.177 SA
ATOM    112  H   UNL     1       8.241 -13.782  -1.947  1.00  0.00     0.102 HD
ENDBRANCH 110 111
ENDBRANCH  86 110
ENDBRANCH  83  86
ENDBRANCH  81  82
BRANCH  81 113
ATOM    113  C   UNL     1       5.771  -6.943   0.545  1.00  0.00     0.191 C 
BRANCH 113 114
ATOM    114  O   UNL     1       5.024  -7.192   1.734  1.00  0.00    -0.394 OA
ATOM    115  H   UNL     1       4.089  -7.319   1.508  1.00  0.00     0.210 HD
ENDBRANCH 113 114
ENDBRANCH  81 113
ENDBRANCH  78  81
ENDBRANCH   1  77
TORSDOF 26
