REMARK SMILES Cc1ncn(CC[C@@H]2CCC[C@@]2([NH3+])C(=O)NCCCCNC(=O)c2ccc(-c3c4nc(c(-c5c(F)cc(S(=O)(=O)[O-])cc5F)c5ccc([nH]5)c(-c5c(F)cc(S(=O)(=O)[O-])cc5F)c5nc(c(-c6c(F)cc(S(=O)(=O)[O-])cc6F)c6ccc3[nH]6)C=C5)C=C4)cc2)c1C
REMARK SMILES IDX 18 1 17 2 16 3 14 4 15 5 12 7 8 8 9 9 10 10 11 11 7 12 6 13
REMARK SMILES IDX 5 14 1 15 2 16 3 17 90 18 4 19 91 20 13 21 19 25 20 26 21 27
REMARK SMILES IDX 22 28 23 30 24 31 25 32 89 33 26 34 88 35 27 36 28 37 29 38
REMARK SMILES IDX 82 39 30 40 87 41 81 42 83 43 31 44 86 45 80 46 79 47 32 49
REMARK SMILES IDX 66 50 45 51 65 52 46 53 49 54 64 55 84 56 47 57 48 58 63 60
REMARK SMILES IDX 85 61 50 62 33 63 34 64 43 65 35 66 36 67 42 68 44 69 37 70
REMARK SMILES IDX 38 71 39 72 40 73 41 74 67 75 68 76 77 77 69 78 70 79 76 80
REMARK SMILES IDX 78 81 71 82 72 83 73 84 74 85 75 86 51 87 52 88 61 89 53 90
REMARK SMILES IDX 54 91 60 92 62 93 55 94 56 95 57 96 58 97 59 98
REMARK H PARENT 16 6 13 22 13 23 13 24 21 29 83 48 49 59
REMARK Flexibility Score: inf
ROOT
ATOM      1  C   UNL     1      -1.192   3.662   0.183  1.00  0.00     0.023 C 
ENDROOT
BRANCH   1   2
ATOM      2  C   UNL     1      -0.734   2.360  -0.483  1.00  0.00     0.116 C 
BRANCH   2   3
ATOM      3  N   UNL     1      -1.520   1.206  -0.080  1.00  0.00    -0.351 N 
ATOM      4  C   UNL     1      -2.180   0.244  -0.800  1.00  0.00     0.281 C 
ATOM      5  O   UNL     1      -2.821  -0.590  -0.157  1.00  0.00    -0.268 OA
ATOM      6  H   UNL     1      -1.592   1.094   0.895  1.00  0.00     0.163 HD
BRANCH   4   7
ATOM      7  C   UNL     1      -2.154   0.224  -2.354  1.00  0.00     0.176 C 
ATOM      8  C   UNL     1      -2.913  -0.977  -3.000  1.00  0.00     0.062 C 
ATOM      9  C   UNL     1      -3.117  -0.533  -4.462  1.00  0.00     0.011 C 
ATOM     10  C   UNL     1      -3.135   1.004  -4.420  1.00  0.00     0.008 C 
ATOM     11  C   UNL     1      -2.988   1.378  -2.944  1.00  0.00     0.079 C 
BRANCH   8  12
ATOM     12  C   UNL     1      -2.559  -2.477  -2.816  1.00  0.00     0.032 C 
BRANCH  12  13
ATOM     13  C   UNL     1      -1.294  -3.164  -3.368  1.00  0.00     0.124 C 
BRANCH  13  14
ATOM     14  N   UNL     1      -0.127  -3.024  -2.524  1.00  0.00    -0.335 N 
ATOM     15  C   UNL     1       1.981  -0.817  -0.652  1.00  0.00     0.069 C 
ATOM     16  C   UNL     1       1.281  -1.936  -1.317  1.00  0.00     0.058 A 
ATOM     17  N   UNL     1       0.834  -2.982  -0.551  1.00  0.00    -0.242 NA
ATOM     18  C   UNL     1       0.894  -2.110  -2.639  1.00  0.00     0.037 A 
ATOM     19  C   UNL     1       0.060  -3.685  -1.343  1.00  0.00     0.199 A 
ATOM     20  C   UNL     1       1.263  -1.429  -3.906  1.00  0.00     0.066 C 
ENDBRANCH  13  14
ENDBRANCH  12  13
ENDBRANCH   8  12
BRANCH   7  21
ATOM     21  N   UNL     1      -0.790   0.354  -2.872  1.00  0.00    -0.345 N 
ATOM     22  H   UNL     1      -0.810   0.337  -3.892  1.00  0.00     0.345 HD
ATOM     23  H   UNL     1      -0.221  -0.421  -2.530  1.00  0.00     0.345 HD
ATOM     24  H   UNL     1      -0.388   1.236  -2.554  1.00  0.00     0.345 HD
ENDBRANCH   7  21
ENDBRANCH   4   7
ENDBRANCH   2   3
ENDBRANCH   1   2
BRANCH   1  25
ATOM     25  C   UNL     1      -1.010   3.757   1.702  1.00  0.00     0.023 C 
BRANCH  25  26
ATOM     26  C   UNL     1       0.414   3.527   2.180  1.00  0.00     0.116 C 
BRANCH  26  27
ATOM     27  N   UNL     1       1.363   4.519   1.678  1.00  0.00    -0.352 N 
ATOM     28  C   UNL     1       2.694   4.659   2.043  1.00  0.00     0.251 C 
ATOM     29  H   UNL     1       1.021   5.156   1.009  1.00  0.00     0.163 HD
ATOM     30  O   UNL     1       3.298   5.699   1.846  1.00  0.00    -0.269 OA
BRANCH  28  31
ATOM     31  C   UNL     1       3.360   3.496   2.659  1.00  0.00     0.039 A 
ATOM     32  C   UNL     1       4.177   3.622   3.785  1.00  0.00     0.014 A 
ATOM     33  C   UNL     1       3.094   2.248   2.100  1.00  0.00     0.014 A 
ATOM     34  C   UNL     1       4.669   2.463   4.383  1.00  0.00     0.010 A 
ATOM     35  C   UNL     1       3.438   1.113   2.781  1.00  0.00     0.010 A 
ATOM     36  C   UNL     1       4.282   1.210   3.880  1.00  0.00    -0.014 A 
BRANCH  36  37
ATOM     37  C   UNL     1       4.642  -0.027   4.564  1.00  0.00     0.031 A 
ATOM     38  C   UNL     1       4.193  -0.080   5.984  1.00  0.00     0.074 A 
ATOM     39  C   UNL     1       5.100  -1.114   3.903  1.00  0.00     0.049 A 
ATOM     40  N   UNL     1       4.923  -0.044   7.050  1.00  0.00    -0.248 NA
ATOM     41  C   UNL     1       2.748   0.024   6.259  1.00  0.00     0.031 C 
ATOM     42  C   UNL     1       5.255  -1.307   2.455  1.00  0.00     0.029 A 
ATOM     43  N   UNL     1       5.424  -2.341   4.389  1.00  0.00    -0.354 N 
ATOM     44  C   UNL     1       4.041  -0.193   8.117  1.00  0.00     0.074 A 
ATOM     45  C   UNL     1       2.732   0.092   7.593  1.00  0.00     0.031 C 
ATOM     46  C   UNL     1       5.392  -2.624   2.180  1.00  0.00     0.029 A 
ATOM     47  C   UNL     1       5.517  -3.349   3.429  1.00  0.00     0.049 A 
ATOM     48  H   UNL     1       5.581  -2.506   5.347  1.00  0.00     0.167 HD
ATOM     49  C   UNL     1       4.428  -0.811   9.269  1.00  0.00     0.037 A 
ATOM     50  C   UNL     1       5.652  -4.681   3.667  1.00  0.00     0.037 A 
ATOM     51  C   UNL     1       5.868  -0.891   9.350  1.00  0.00     0.049 A 
ATOM     52  C   UNL     1       6.143  -4.814   5.066  1.00  0.00     0.074 A 
ATOM     53  C   UNL     1       6.893   0.036   9.305  1.00  0.00     0.029 A 
ATOM     54  N   UNL     1       6.459  -2.103   9.076  1.00  0.00    -0.354 N 
ATOM     55  N   UNL     1       7.317  -4.402   5.464  1.00  0.00    -0.248 NA
ATOM     56  C   UNL     1       5.138  -4.939   6.111  1.00  0.00     0.031 C 
ATOM     57  C   UNL     1       7.902  -0.573   8.502  1.00  0.00     0.029 A 
ATOM     58  C   UNL     1       7.480  -1.865   8.189  1.00  0.00     0.049 A 
ATOM     59  H   UNL     1       6.199  -2.977   9.448  1.00  0.00     0.167 HD
ATOM     60  C   UNL     1       7.087  -3.809   6.697  1.00  0.00     0.074 A 
ATOM     61  C   UNL     1       5.732  -4.222   7.068  1.00  0.00     0.031 C 
ATOM     62  C   UNL     1       7.886  -2.805   7.167  1.00  0.00     0.037 A 
BRANCH  49  63
ATOM     63  C   UNL     1       3.523  -1.682  10.117  1.00  0.00     0.058 A 
ATOM     64  C   UNL     1       4.000  -2.171  11.351  1.00  0.00     0.135 A 
ATOM     65  C   UNL     1       2.328  -2.279   9.654  1.00  0.00     0.135 A 
ATOM     66  F   UNL     1       5.130  -1.685  11.889  1.00  0.00    -0.206 F 
ATOM     67  C   UNL     1       3.381  -3.221  12.032  1.00  0.00     0.059 A 
ATOM     68  C   UNL     1       1.665  -3.288  10.344  1.00  0.00     0.059 A 
ATOM     69  F   UNL     1       1.788  -1.985   8.467  1.00  0.00    -0.206 F 
ATOM     70  C   UNL     1       2.219  -3.781  11.512  1.00  0.00     0.060 A 
BRANCH  70  71
ATOM     71  S   UNL     1       1.462  -5.187  12.344  1.00  0.00     0.124 S 
ATOM     72  O   UNL     1       2.454  -6.230  12.112  1.00  0.00    -0.237 OA
ATOM     73  O   UNL     1       1.353  -4.700  13.715  1.00  0.00    -0.237 OA
ATOM     74  O   UNL     1       0.194  -5.351  11.640  1.00  0.00    -0.744 OA
ENDBRANCH  70  71
ENDBRANCH  49  63
BRANCH  50  75
ATOM     75  C   UNL     1       5.036  -5.827   2.936  1.00  0.00     0.058 A 
ATOM     76  C   UNL     1       5.420  -7.153   3.214  1.00  0.00     0.135 A 
ATOM     77  C   UNL     1       3.852  -5.673   2.188  1.00  0.00     0.135 A 
ATOM     78  F   UNL     1       6.529  -7.398   3.929  1.00  0.00    -0.206 F 
ATOM     79  C   UNL     1       4.640  -8.255   2.837  1.00  0.00     0.059 A 
ATOM     80  C   UNL     1       3.063  -6.756   1.793  1.00  0.00     0.059 A 
ATOM     81  F   UNL     1       3.373  -4.454   1.903  1.00  0.00    -0.206 F 
ATOM     82  C   UNL     1       3.446  -8.044   2.150  1.00  0.00     0.060 A 
BRANCH  82  83
ATOM     83  S   UNL     1       2.339  -9.444   1.842  1.00  0.00     0.124 S 
ATOM     84  O   UNL     1       3.088 -10.214   0.855  1.00  0.00    -0.237 OA
ATOM     85  O   UNL     1       2.228 -10.048   3.166  1.00  0.00    -0.237 OA
ATOM     86  O   UNL     1       1.118  -8.815   1.344  1.00  0.00    -0.744 OA
ENDBRANCH  82  83
ENDBRANCH  50  75
BRANCH  62  87
ATOM     87  C   UNL     1       9.189  -2.524   6.456  1.00  0.00     0.058 A 
ATOM     88  C   UNL     1       9.310  -2.122   5.112  1.00  0.00     0.135 A 
ATOM     89  C   UNL     1      10.365  -2.537   7.221  1.00  0.00     0.135 A 
ATOM     90  F   UNL     1       8.228  -1.971   4.336  1.00  0.00    -0.206 F 
ATOM     91  C   UNL     1      10.548  -1.804   4.545  1.00  0.00     0.059 A 
ATOM     92  C   UNL     1      11.603  -2.192   6.686  1.00  0.00     0.059 A 
ATOM     93  F   UNL     1      10.315  -2.849   8.526  1.00  0.00    -0.206 F 
ATOM     94  C   UNL     1      11.691  -1.846   5.341  1.00  0.00     0.060 A 
BRANCH  94  95
ATOM     95  S   UNL     1      13.290  -1.407   4.623  1.00  0.00     0.124 S 
ATOM     96  O   UNL     1      13.534  -2.520   3.712  1.00  0.00    -0.237 OA
ATOM     97  O   UNL     1      13.013  -0.120   3.992  1.00  0.00    -0.237 OA
ATOM     98  O   UNL     1      14.179  -1.344   5.781  1.00  0.00    -0.744 OA
ENDBRANCH  94  95
ENDBRANCH  62  87
ENDBRANCH  36  37
ENDBRANCH  28  31
ENDBRANCH  26  27
ENDBRANCH  25  26
ENDBRANCH   1  25
TORSDOF 18
