REMARK SMILES CC1=C(C(=O)NCCCCNC(=O)c2ccc(-c3c4nc(c(-c5c(F)cc(S(=O)(=O)[O-])cc5F)c5ccc([nH]5)c(-c5c(F)cc(S(=O)(=O)[O-])cc5F)c5nc(c(-c6c(F)cc(S(=O)(=O)[O-])cc6F)c6ccc3[nH]6)C=C5)C=C4)cc2)N2C(=O)[C@H](NC(=O)c3c(Cl)c(C(F)(F)F)nn3C)[C@@H]2SC1
REMARK SMILES IDX 8 1 7 2 6 3 4 4 5 5 3 7 1 8 2 9 100 10 80 11 99 12 81 13
REMARK SMILES IDX 98 14 82 15 83 16 84 17 85 18 86 20 87 21 88 22 96 23 89 24
REMARK SMILES IDX 90 25 95 26 97 27 91 28 92 29 93 30 94 31 9 32 10 33 11 34
REMARK SMILES IDX 12 35 13 37 14 38 15 39 79 40 16 41 78 42 17 43 18 44 19 45
REMARK SMILES IDX 72 46 20 47 77 48 71 49 73 50 21 51 76 52 70 53 69 54 22 56
REMARK SMILES IDX 56 57 35 58 55 59 36 60 39 61 54 62 74 63 37 64 38 65 53 67
REMARK SMILES IDX 75 68 40 69 23 70 24 71 33 72 25 73 26 74 32 75 34 76 27 77
REMARK SMILES IDX 28 78 29 79 30 80 31 81 57 82 58 83 67 84 59 85 60 86 66 87
REMARK SMILES IDX 68 88 61 89 62 90 63 91 64 92 65 93 41 94 42 95 51 96 43 97
REMARK SMILES IDX 44 98 50 99 52 100 45 101 46 102 47 103 48 104 49 105
REMARK H PARENT 6 6 84 19 11 36 73 55 39 66
REMARK Flexibility Score: inf
ROOT
ATOM      1  C   UNL     1       0.520  -2.289   0.844  1.00  0.00     0.023 C 
ENDROOT
BRANCH   1   2
ATOM      2  C   UNL     1      -0.549  -1.494   0.081  1.00  0.00     0.116 C 
BRANCH   2   3
ATOM      3  N   UNL     1      -1.317  -0.721   1.029  1.00  0.00    -0.351 N 
ATOM      4  C   UNL     1      -1.150   0.518   1.548  1.00  0.00     0.268 C 
ATOM      5  O   UNL     1      -1.760   0.767   2.595  1.00  0.00    -0.268 OA
ATOM      6  H   UNL     1      -2.118  -1.186   1.362  1.00  0.00     0.163 HD
BRANCH   4   7
ATOM      7  C   UNL     1      -0.333   1.636   0.925  1.00  0.00     0.110 C 
ATOM      8  C   UNL     1       1.924   0.504   0.541  1.00  0.00     0.043 C 
ATOM      9  C   UNL     1       0.957   1.651   0.490  1.00  0.00    -0.034 C 
ATOM     10  C   UNL     1       1.677   2.881  -0.061  1.00  0.00     0.104 C 
ATOM     11  N   UNL     1      -0.964   2.845   1.017  1.00  0.00    -0.290 N 
ATOM     12  S   UNL     1       0.727   4.412  -0.165  1.00  0.00    -0.129 SA
ATOM     13  C   UNL     1      -2.209   3.342   1.145  1.00  0.00     0.253 C 
ATOM     14  C   UNL     1      -0.244   4.049   1.321  1.00  0.00     0.181 C 
ATOM     15  O   UNL     1      -3.313   2.868   0.990  1.00  0.00    -0.272 OA
ATOM     16  C   UNL     1      -1.624   4.760   1.470  1.00  0.00     0.206 C 
BRANCH  16  17
ATOM     17  N   UNL     1      -1.895   5.844   0.497  1.00  0.00    -0.336 N 
ATOM     18  C   UNL     1      -1.937   7.201   0.689  1.00  0.00     0.271 C 
ATOM     19  H   UNL     1      -2.071   5.545  -0.425  1.00  0.00     0.164 HD
ATOM     20  O   UNL     1      -2.115   7.919  -0.292  1.00  0.00    -0.267 OA
BRANCH  18  21
ATOM     21  C   UNL     1      -1.810   7.731   2.019  1.00  0.00     0.145 A 
ATOM     22  C   UNL     1      -2.705   8.550   2.683  1.00  0.00     0.104 A 
ATOM     23  N   UNL     1      -0.723   7.665   2.850  1.00  0.00    -0.261 N 
ATOM     24  Cl  UNL     1      -4.213   9.105   2.130  1.00  0.00    -0.079 Cl
ATOM     25  C   UNL     1      -2.124   8.841   3.941  1.00  0.00     0.185 A 
ATOM     26  N   UNL     1      -0.915   8.253   4.047  1.00  0.00    -0.166 NA
ATOM     27  C   UNL     1       0.586   7.115   2.584  1.00  0.00     0.174 C 
BRANCH  25  28
ATOM     28  C   UNL     1      -2.720   9.696   5.019  1.00  0.00     0.436 C 
ATOM     29  F   UNL     1      -2.828  10.996   4.631  1.00  0.00    -0.164 F 
ATOM     30  F   UNL     1      -3.972   9.289   5.363  1.00  0.00    -0.164 F 
ATOM     31  F   UNL     1      -1.992   9.700   6.169  1.00  0.00    -0.164 F 
ENDBRANCH  25  28
ENDBRANCH  18  21
ENDBRANCH  16  17
ENDBRANCH   4   7
ENDBRANCH   2   3
ENDBRANCH   1   2
BRANCH   1  32
ATOM     32  C   UNL     1       0.126  -3.703   1.251  1.00  0.00     0.023 C 
BRANCH  32  33
ATOM     33  C   UNL     1      -0.008  -4.667   0.088  1.00  0.00     0.116 C 
BRANCH  33  34
ATOM     34  N   UNL     1       1.212  -4.807  -0.698  1.00  0.00    -0.352 N 
ATOM     35  C   UNL     1       1.666  -5.927  -1.355  1.00  0.00     0.251 C 
ATOM     36  H   UNL     1       1.779  -4.005  -0.765  1.00  0.00     0.163 HD
ATOM     37  O   UNL     1       2.758  -5.926  -1.911  1.00  0.00    -0.269 OA
BRANCH  35  38
ATOM     38  C   UNL     1       0.827  -7.141  -1.325  1.00  0.00     0.039 A 
ATOM     39  C   UNL     1       1.389  -8.341  -0.889  1.00  0.00     0.014 A 
ATOM     40  C   UNL     1      -0.536  -7.055  -1.619  1.00  0.00     0.014 A 
ATOM     41  C   UNL     1       0.560  -9.443  -0.675  1.00  0.00     0.010 A 
ATOM     42  C   UNL     1      -1.370  -8.120  -1.308  1.00  0.00     0.010 A 
ATOM     43  C   UNL     1      -0.830  -9.327  -0.841  1.00  0.00    -0.014 A 
BRANCH  43  44
ATOM     44  C   UNL     1      -1.742 -10.461  -0.550  1.00  0.00     0.031 A 
ATOM     45  C   UNL     1      -2.585 -11.038  -1.654  1.00  0.00     0.074 A 
ATOM     46  C   UNL     1      -1.861 -10.921   0.712  1.00  0.00     0.049 A 
ATOM     47  N   UNL     1      -3.494 -11.976  -1.595  1.00  0.00    -0.248 NA
ATOM     48  C   UNL     1      -2.409 -10.459  -2.997  1.00  0.00     0.031 C 
ATOM     49  C   UNL     1      -1.141 -10.401   1.877  1.00  0.00     0.029 A 
ATOM     50  N   UNL     1      -2.641 -11.925   1.228  1.00  0.00    -0.354 N 
ATOM     51  C   UNL     1      -4.005 -12.086  -2.883  1.00  0.00     0.074 A 
ATOM     52  C   UNL     1      -3.356 -11.076  -3.686  1.00  0.00     0.031 C 
ATOM     53  C   UNL     1      -1.491 -11.108   2.963  1.00  0.00     0.029 A 
ATOM     54  C   UNL     1      -2.487 -12.105   2.583  1.00  0.00     0.049 A 
ATOM     55  H   UNL     1      -3.253 -12.467   0.679  1.00  0.00     0.167 HD
ATOM     56  C   UNL     1      -4.911 -12.971  -3.360  1.00  0.00     0.037 A 
ATOM     57  C   UNL     1      -3.085 -12.973   3.422  1.00  0.00     0.037 A 
ATOM     58  C   UNL     1      -5.528 -13.995  -2.560  1.00  0.00     0.049 A 
ATOM     59  C   UNL     1      -4.083 -13.954   2.867  1.00  0.00     0.074 A 
ATOM     60  C   UNL     1      -6.411 -14.982  -2.958  1.00  0.00     0.029 A 
ATOM     61  N   UNL     1      -5.324 -14.165  -1.198  1.00  0.00    -0.354 N 
ATOM     62  N   UNL     1      -4.504 -14.091   1.631  1.00  0.00    -0.248 NA
ATOM     63  C   UNL     1      -4.683 -14.902   3.815  1.00  0.00     0.031 C 
ATOM     64  C   UNL     1      -6.777 -15.721  -1.829  1.00  0.00     0.029 A 
ATOM     65  C   UNL     1      -6.080 -15.229  -0.736  1.00  0.00     0.049 A 
ATOM     66  H   UNL     1      -4.730 -13.611  -0.642  1.00  0.00     0.167 HD
ATOM     67  C   UNL     1      -5.394 -15.160   1.649  1.00  0.00     0.074 A 
ATOM     68  C   UNL     1      -5.441 -15.639   3.015  1.00  0.00     0.031 C 
ATOM     69  C   UNL     1      -6.105 -15.698   0.627  1.00  0.00     0.037 A 
BRANCH  56  70
ATOM     70  C   UNL     1      -5.279 -12.874  -4.815  1.00  0.00     0.058 A 
ATOM     71  C   UNL     1      -4.365 -13.203  -5.830  1.00  0.00     0.135 A 
ATOM     72  C   UNL     1      -6.567 -12.472  -5.202  1.00  0.00     0.135 A 
ATOM     73  F   UNL     1      -3.113 -13.575  -5.519  1.00  0.00    -0.206 F 
ATOM     74  C   UNL     1      -4.704 -13.104  -7.175  1.00  0.00     0.059 A 
ATOM     75  C   UNL     1      -6.938 -12.396  -6.541  1.00  0.00     0.059 A 
ATOM     76  F   UNL     1      -7.480 -12.143  -4.274  1.00  0.00    -0.206 F 
ATOM     77  C   UNL     1      -5.994 -12.700  -7.521  1.00  0.00     0.060 A 
BRANCH  77  78
ATOM     78  S   UNL     1      -6.418 -12.583  -9.271  1.00  0.00     0.124 S 
ATOM     79  O   UNL     1      -5.679 -11.390  -9.670  1.00  0.00    -0.237 OA
ATOM     80  O   UNL     1      -5.913 -13.847  -9.799  1.00  0.00    -0.237 OA
ATOM     81  O   UNL     1      -7.871 -12.447  -9.261  1.00  0.00    -0.744 OA
ENDBRANCH  77  78
ENDBRANCH  56  70
BRANCH  57  82
ATOM     82  C   UNL     1      -2.735 -12.975   4.868  1.00  0.00     0.058 A 
ATOM     83  C   UNL     1      -2.011 -14.035   5.435  1.00  0.00     0.135 A 
ATOM     84  C   UNL     1      -3.106 -11.915   5.711  1.00  0.00     0.135 A 
ATOM     85  F   UNL     1      -1.637 -15.074   4.672  1.00  0.00    -0.206 F 
ATOM     86  C   UNL     1      -1.683 -14.055   6.787  1.00  0.00     0.059 A 
ATOM     87  C   UNL     1      -2.767 -11.900   7.061  1.00  0.00     0.059 A 
ATOM     88  F   UNL     1      -3.783 -10.867   5.215  1.00  0.00    -0.206 F 
ATOM     89  C   UNL     1      -2.064 -12.980   7.592  1.00  0.00     0.060 A 
BRANCH  89  90
ATOM     90  S   UNL     1      -1.593 -12.995   9.335  1.00  0.00     0.124 S 
ATOM     91  O   UNL     1      -2.489 -14.012   9.873  1.00  0.00    -0.237 OA
ATOM     92  O   UNL     1      -0.181 -13.359   9.267  1.00  0.00    -0.237 OA
ATOM     93  O   UNL     1      -1.859 -11.626   9.766  1.00  0.00    -0.744 OA
ENDBRANCH  89  90
ENDBRANCH  57  82
BRANCH  69  94
ATOM     94  C   UNL     1      -6.967 -16.891   0.934  1.00  0.00     0.058 A 
ATOM     95  C   UNL     1      -8.159 -16.774   1.666  1.00  0.00     0.135 A 
ATOM     96  C   UNL     1      -6.624 -18.159   0.436  1.00  0.00     0.135 A 
ATOM     97  F   UNL     1      -8.529 -15.585   2.169  1.00  0.00    -0.206 F 
ATOM     98  C   UNL     1      -8.970 -17.877   1.913  1.00  0.00     0.059 A 
ATOM     99  C   UNL     1      -7.435 -19.269   0.646  1.00  0.00     0.059 A 
ATOM    100  F   UNL     1      -5.501 -18.323  -0.280  1.00  0.00    -0.206 F 
ATOM    101  C   UNL     1      -8.600 -19.120   1.396  1.00  0.00     0.060 A 
BRANCH 101 102
ATOM    102  S   UNL     1      -9.680 -20.535   1.693  1.00  0.00     0.124 S 
ATOM    103  O   UNL     1      -9.426 -20.809   3.103  1.00  0.00    -0.237 OA
ATOM    104  O   UNL     1     -10.999 -19.993   1.379  1.00  0.00    -0.237 OA
ATOM    105  O   UNL     1      -9.185 -21.543   0.759  1.00  0.00    -0.744 OA
ENDBRANCH 101 102
ENDBRANCH  69  94
ENDBRANCH  43  44
ENDBRANCH  35  38
ENDBRANCH  33  34
ENDBRANCH  32  33
ENDBRANCH   1  32
TORSDOF 17
