REMARK SMILES O=C(NCCCCNC(=O)[C@@H]1CC2(CC[NH2+]CC2)C[N@@H+]1Cc1cccc2nonc12)c1ccc(-c2c3nc(c(-c4c(F)cc(S(=O)(=O)[O-])cc4F)c4ccc([nH]4)c(-c4c(F)cc(S(=O)(=O)[O-])cc4F)c4nc(c(-c5c(F)cc(S(=O)(=O)[O-])cc5F)c5ccc2[nH]5)C=C4)C=C3)cc1
REMARK SMILES IDX 5 1 4 2 3 3 1 4 2 5 31 7 32 8 96 9 33 10 95 11 34 12 35 13
REMARK SMILES IDX 36 14 89 15 37 16 94 17 88 18 90 19 38 20 93 21 87 22 86 23
REMARK SMILES IDX 39 25 73 26 52 27 72 28 53 29 56 30 71 31 91 32 54 33 55 34
REMARK SMILES IDX 70 36 92 37 57 38 40 39 41 40 50 41 42 42 43 43 49 44 51 45
REMARK SMILES IDX 44 46 45 47 46 48 47 49 48 50 74 51 75 52 84 53 76 54 77 55
REMARK SMILES IDX 83 56 85 57 78 58 79 59 80 60 81 61 82 62 58 63 59 64 68 65
REMARK SMILES IDX 60 66 61 67 67 68 69 69 62 70 63 71 64 72 65 73 66 74 6 75
REMARK SMILES IDX 7 76 8 77 9 78 10 80 11 81 12 82 20 83 13 84 19 85 14 87
REMARK SMILES IDX 18 88 15 89 17 90 16 91 21 94 22 95 23 96 30 97 24 98 26 99
REMARK SMILES IDX 29 100 25 101 27 102 28 103
REMARK H PARENT 3 6 90 24 56 35 8 79 20 86 16 92 16 93
REMARK Flexibility Score: inf
ROOT
ATOM      1  C   UNL     1       4.795   1.584   1.431  1.00  0.00     0.023 C 
ENDROOT
BRANCH   1   2
ATOM      2  C   UNL     1       4.262   0.268   0.845  1.00  0.00     0.116 C 
BRANCH   2   3
ATOM      3  N   UNL     1       2.817   0.329   0.735  1.00  0.00    -0.352 N 
ATOM      4  O   UNL     1       0.867   0.539  -0.297  1.00  0.00    -0.269 OA
ATOM      5  C   UNL     1       1.973  -0.004  -0.284  1.00  0.00     0.251 C 
ATOM      6  H   UNL     1       2.365   0.672   1.539  1.00  0.00     0.163 HD
BRANCH   5   7
ATOM      7  C   UNL     1       2.303  -1.003  -1.329  1.00  0.00     0.039 A 
ATOM      8  C   UNL     1       1.617  -0.889  -2.547  1.00  0.00     0.014 A 
ATOM      9  C   UNL     1       3.093  -2.131  -1.089  1.00  0.00     0.014 A 
ATOM     10  C   UNL     1       1.701  -1.896  -3.508  1.00  0.00     0.010 A 
ATOM     11  C   UNL     1       3.182  -3.140  -2.059  1.00  0.00     0.010 A 
ATOM     12  C   UNL     1       2.479  -3.034  -3.268  1.00  0.00    -0.014 A 
BRANCH  12  13
ATOM     13  C   UNL     1       2.555  -4.053  -4.338  1.00  0.00     0.031 A 
ATOM     14  C   UNL     1       3.931  -4.483  -4.720  1.00  0.00     0.074 A 
ATOM     15  C   UNL     1       1.524  -4.888  -4.603  1.00  0.00     0.049 A 
ATOM     16  N   UNL     1       4.611  -5.331  -4.007  1.00  0.00    -0.248 NA
ATOM     17  C   UNL     1       4.717  -3.829  -5.765  1.00  0.00     0.031 C 
ATOM     18  C   UNL     1       0.540  -5.299  -3.592  1.00  0.00     0.029 A 
ATOM     19  N   UNL     1       1.258  -5.705  -5.681  1.00  0.00    -0.354 N 
ATOM     20  C   UNL     1       5.912  -5.315  -4.470  1.00  0.00     0.074 A 
ATOM     21  C   UNL     1       5.931  -4.373  -5.568  1.00  0.00     0.031 C 
ATOM     22  C   UNL     1      -0.099  -6.402  -4.032  1.00  0.00     0.029 A 
ATOM     23  C   UNL     1       0.304  -6.689  -5.408  1.00  0.00     0.049 A 
ATOM     24  H   UNL     1       1.697  -5.604  -6.556  1.00  0.00     0.167 HD
ATOM     25  C   UNL     1       6.890  -6.080  -3.918  1.00  0.00     0.037 A 
ATOM     26  C   UNL     1       0.286  -7.942  -5.946  1.00  0.00     0.037 A 
ATOM     27  C   UNL     1       6.471  -6.922  -2.836  1.00  0.00     0.049 A 
ATOM     28  C   UNL     1       1.555  -8.528  -5.378  1.00  0.00     0.074 A 
ATOM     29  C   UNL     1       6.415  -6.849  -1.461  1.00  0.00     0.029 A 
ATOM     30  N   UNL     1       5.868  -8.118  -3.150  1.00  0.00    -0.354 N 
ATOM     31  N   UNL     1       1.708  -9.002  -4.170  1.00  0.00    -0.248 NA
ATOM     32  C   UNL     1       2.804  -8.242  -6.087  1.00  0.00     0.031 C 
ATOM     33  C   UNL     1       5.383  -7.761  -1.075  1.00  0.00     0.029 A 
ATOM     34  C   UNL     1       4.851  -8.298  -2.246  1.00  0.00     0.049 A 
ATOM     35  H   UNL     1       6.119  -8.728  -3.881  1.00  0.00     0.167 HD
ATOM     36  C   UNL     1       3.059  -8.814  -3.869  1.00  0.00     0.074 A 
ATOM     37  C   UNL     1       3.677  -8.355  -5.096  1.00  0.00     0.031 C 
ATOM     38  C   UNL     1       3.572  -8.868  -2.606  1.00  0.00     0.037 A 
BRANCH  25  39
ATOM     39  C   UNL     1       8.260  -6.221  -4.447  1.00  0.00     0.058 A 
ATOM     40  C   UNL     1       8.553  -7.353  -5.222  1.00  0.00     0.135 A 
ATOM     41  C   UNL     1       9.321  -5.419  -4.015  1.00  0.00     0.135 A 
ATOM     42  F   UNL     1       7.558  -8.154  -5.641  1.00  0.00    -0.206 F 
ATOM     43  C   UNL     1       9.859  -7.715  -5.514  1.00  0.00     0.059 A 
ATOM     44  C   UNL     1      10.642  -5.759  -4.301  1.00  0.00     0.059 A 
ATOM     45  F   UNL     1       9.085  -4.332  -3.263  1.00  0.00    -0.206 F 
ATOM     46  C   UNL     1      10.900  -6.924  -5.028  1.00  0.00     0.060 A 
BRANCH  46  47
ATOM     47  S   UNL     1      12.592  -7.484  -5.319  1.00  0.00     0.124 S 
ATOM     48  O   UNL     1      12.615  -8.755  -4.602  1.00  0.00    -0.237 OA
ATOM     49  O   UNL     1      12.631  -7.574  -6.775  1.00  0.00    -0.237 OA
ATOM     50  O   UNL     1      13.407  -6.422  -4.738  1.00  0.00    -0.744 OA
ENDBRANCH  46  47
ENDBRANCH  25  39
BRANCH  26  51
ATOM     51  C   UNL     1      -0.088  -8.043  -7.396  1.00  0.00     0.058 A 
ATOM     52  C   UNL     1      -1.236  -7.361  -7.851  1.00  0.00     0.135 A 
ATOM     53  C   UNL     1       0.606  -8.785  -8.367  1.00  0.00     0.135 A 
ATOM     54  F   UNL     1      -2.047  -6.740  -6.978  1.00  0.00    -0.206 F 
ATOM     55  C   UNL     1      -1.580  -7.286  -9.200  1.00  0.00     0.059 A 
ATOM     56  C   UNL     1       0.299  -8.706  -9.728  1.00  0.00     0.059 A 
ATOM     57  F   UNL     1       1.617  -9.596  -8.027  1.00  0.00    -0.206 F 
ATOM     58  C   UNL     1      -0.776  -7.924 -10.138  1.00  0.00     0.060 A 
BRANCH  58  59
ATOM     59  S   UNL     1      -1.116  -7.661 -11.891  1.00  0.00     0.124 S 
ATOM     60  O   UNL     1      -2.424  -8.294 -12.044  1.00  0.00    -0.237 OA
ATOM     61  O   UNL     1      -1.105  -6.202 -11.979  1.00  0.00    -0.237 OA
ATOM     62  O   UNL     1      -0.010  -8.331 -12.557  1.00  0.00    -0.744 OA
ENDBRANCH  58  59
ENDBRANCH  26  51
BRANCH  38  63
ATOM     63  C   UNL     1       2.656  -9.349  -1.532  1.00  0.00     0.058 A 
ATOM     64  C   UNL     1       2.362 -10.714  -1.423  1.00  0.00     0.135 A 
ATOM     65  C   UNL     1       2.157  -8.487  -0.542  1.00  0.00     0.135 A 
ATOM     66  F   UNL     1       2.820 -11.582  -2.340  1.00  0.00    -0.206 F 
ATOM     67  C   UNL     1       1.648 -11.217  -0.340  1.00  0.00     0.059 A 
ATOM     68  C   UNL     1       1.458  -8.971   0.561  1.00  0.00     0.059 A 
ATOM     69  F   UNL     1       2.392  -7.165  -0.602  1.00  0.00    -0.206 F 
ATOM     70  C   UNL     1       1.223 -10.341   0.661  1.00  0.00     0.060 A 
BRANCH  70  71
ATOM     71  S   UNL     1       0.449 -11.034   2.137  1.00  0.00     0.124 S 
ATOM     72  O   UNL     1      -0.816 -11.539   1.613  1.00  0.00    -0.237 OA
ATOM     73  O   UNL     1       1.415 -12.051   2.545  1.00  0.00    -0.237 OA
ATOM     74  O   UNL     1       0.340  -9.891   3.039  1.00  0.00    -0.744 OA
ENDBRANCH  70  71
ENDBRANCH  38  63
ENDBRANCH  12  13
ENDBRANCH   5   7
ENDBRANCH   2   3
ENDBRANCH   1   2
BRANCH   1  75
ATOM     75  C   UNL     1       4.290   1.934   2.848  1.00  0.00     0.023 C 
BRANCH  75  76
ATOM     76  C   UNL     1       4.700   0.945   3.945  1.00  0.00     0.116 C 
BRANCH  76  77
ATOM     77  N   UNL     1       6.141   0.920   4.056  1.00  0.00    -0.351 N 
ATOM     78  C   UNL     1       6.916   1.643   4.913  1.00  0.00     0.278 C 
ATOM     79  H   UNL     1       6.616   0.312   3.443  1.00  0.00     0.163 HD
ATOM     80  O   UNL     1       7.962   2.096   4.450  1.00  0.00    -0.268 OA
BRANCH  78  81
ATOM     81  C   UNL     1       6.468   1.806   6.381  1.00  0.00     0.275 C 
ATOM     82  C   UNL     1       6.080   3.254   6.680  1.00  0.00     0.089 C 
ATOM     83  N   UNL     1       7.514   1.536   7.371  1.00  0.00    -0.320 N 
ATOM     84  C   UNL     1       7.319   3.909   7.340  1.00  0.00     0.036 C 
ATOM     85  C   UNL     1       8.002   2.722   8.039  1.00  0.00     0.270 C 
ATOM     86  H   UNL     1       6.992   0.998   8.063  1.00  0.00     0.349 HD
ATOM     87  C   UNL     1       6.916   5.006   8.345  1.00  0.00     0.074 C 
ATOM     88  C   UNL     1       8.284   4.574   6.328  1.00  0.00     0.074 C 
ATOM     89  C   UNL     1       6.349   6.242   7.642  1.00  0.00     0.261 C 
ATOM     90  C   UNL     1       7.674   5.807   5.665  1.00  0.00     0.261 C 
ATOM     91  N   UNL     1       7.284   6.805   6.665  1.00  0.00    -0.346 N 
ATOM     92  H   UNL     1       8.119   7.130   7.153  1.00  0.00     0.346 HD
ATOM     93  H   UNL     1       6.823   7.579   6.186  1.00  0.00     0.346 HD
BRANCH  83  94
ATOM     94  C   UNL     1       8.276   0.301   7.394  1.00  0.00     0.302 C 
BRANCH  94  95
ATOM     95  C   UNL     1       9.253   0.154   6.263  1.00  0.00     0.038 A 
ATOM     96  C   UNL     1      10.394   0.989   6.125  1.00  0.00     0.012 A 
ATOM     97  C   UNL     1       9.054  -0.702   5.152  1.00  0.00     0.144 A 
ATOM     98  C   UNL     1      11.202   1.043   4.958  1.00  0.00     0.003 A 
ATOM     99  C   UNL     1       9.881  -0.640   3.954  1.00  0.00     0.135 A 
ATOM    100  N   UNL     1       8.107  -1.630   4.953  1.00  0.00    -0.049 NA
ATOM    101  C   UNL     1      10.964   0.248   3.825  1.00  0.00     0.034 A 
ATOM    102  N   UNL     1       9.401  -1.518   3.066  1.00  0.00    -0.050 NA
ATOM    103  O   UNL     1       8.329  -2.134   3.684  1.00  0.00    -0.243 OA
ENDBRANCH  94  95
ENDBRANCH  83  94
ENDBRANCH  78  81
ENDBRANCH  76  77
ENDBRANCH  75  76
ENDBRANCH   1  75
TORSDOF 16
