REMARK SMILES CC[C@H](O)C[C@]1(C(=O)NCCCCNC(=O)c2ccc(-c3c4nc(c(-c5c(F)cc(S(=O)(=O)[O-])cc5F)c5ccc([nH]5)c(-c5c(F)cc(S(=O)(=O)[O-])cc5F)c5nc(c(-c6c(F)cc(S(=O)(=O)[O-])cc6F)c6ccc3[nH]6)C=C5)C=C4)cc2)CC[C@H](CC)CC1
REMARK SMILES IDX 11 1 10 2 9 3 7 4 8 5 6 7 85 8 88 9 84 10 89 11 83 12 86 13
REMARK SMILES IDX 87 14 5 15 3 16 4 17 2 19 1 20 12 21 13 22 14 23 15 24 16 26
REMARK SMILES IDX 17 27 18 28 82 29 19 30 81 31 20 32 21 33 22 34 75 35 23 36
REMARK SMILES IDX 80 37 74 38 76 39 24 40 79 41 73 42 72 43 25 45 59 46 38 47
REMARK SMILES IDX 58 48 39 49 42 50 57 51 77 52 40 53 41 54 56 56 78 57 43 58
REMARK SMILES IDX 26 59 27 60 36 61 28 62 29 63 35 64 37 65 30 66 31 67 32 68
REMARK SMILES IDX 33 69 34 70 60 71 61 72 70 73 62 74 63 75 69 76 71 77 64 78
REMARK SMILES IDX 65 79 66 80 67 81 68 82 44 83 45 84 54 85 46 86 47 87 53 88
REMARK SMILES IDX 55 89 48 90 49 91 50 92 51 93 52 94
REMARK H PARENT 9 6 4 18 14 25 76 44 42 55
REMARK Flexibility Score: inf
ROOT
ATOM      1  C   UNL     1       6.193   5.830   1.763  1.00  0.00     0.023 C 
ENDROOT
BRANCH   1   2
ATOM      2  C   UNL     1       4.830   6.006   2.416  1.00  0.00     0.116 C 
BRANCH   2   3
ATOM      3  N   UNL     1       3.846   6.626   1.548  1.00  0.00    -0.356 N 
ATOM      4  C   UNL     1       2.569   6.307   1.208  1.00  0.00     0.226 C 
ATOM      5  O   UNL     1       1.963   7.182   0.579  1.00  0.00    -0.274 OA
ATOM      6  H   UNL     1       4.171   7.449   1.116  1.00  0.00     0.163 HD
BRANCH   4   7
ATOM      7  C   UNL     1       1.856   4.993   1.627  1.00  0.00     0.052 C 
ATOM      8  C   UNL     1       0.771   2.354   0.485  1.00  0.00    -0.011 C 
ATOM      9  C   UNL     1      -0.149   3.537   0.799  1.00  0.00     0.005 C 
ATOM     10  C   UNL     1       2.022   2.411   1.363  1.00  0.00     0.005 C 
ATOM     11  C   UNL     1       0.595   4.871   0.692  1.00  0.00     0.017 C 
ATOM     12  C   UNL     1       2.734   3.759   1.306  1.00  0.00     0.017 C 
BRANCH   8  13
ATOM     13  C   UNL     1       0.029   1.019   0.676  1.00  0.00    -0.000 C 
ATOM     14  C   UNL     1       0.726  -0.144  -0.020  1.00  0.00     0.004 C 
ENDBRANCH   8  13
BRANCH   7  15
ATOM     15  C   UNL     1       1.299   5.059   3.093  1.00  0.00     0.048 C 
BRANCH  15  16
ATOM     16  C   UNL     1       2.226   5.414   4.265  1.00  0.00     0.115 C 
BRANCH  16  17
ATOM     17  O   UNL     1       2.511   6.811   4.300  1.00  0.00    -0.393 OA
ATOM     18  H   UNL     1       1.691   7.304   4.456  1.00  0.00     0.210 HD
ENDBRANCH  16  17
BRANCH  16  19
ATOM     19  C   UNL     1       1.616   5.103   5.641  1.00  0.00     0.028 C 
ATOM     20  C   UNL     1       1.399   3.622   5.903  1.00  0.00     0.006 C 
ENDBRANCH  16  19
ENDBRANCH  15  16
ENDBRANCH   7  15
ENDBRANCH   4   7
ENDBRANCH   2   3
ENDBRANCH   1   2
BRANCH   1  21
ATOM     21  C   UNL     1       7.025   7.106   1.682  1.00  0.00     0.023 C 
BRANCH  21  22
ATOM     22  C   UNL     1       7.146   7.897   2.981  1.00  0.00     0.116 C 
BRANCH  22  23
ATOM     23  N   UNL     1       7.592   7.100   4.118  1.00  0.00    -0.352 N 
ATOM     24  C   UNL     1       8.500   7.441   5.097  1.00  0.00     0.251 C 
ATOM     25  H   UNL     1       7.193   6.203   4.196  1.00  0.00     0.163 HD
ATOM     26  O   UNL     1       8.831   6.638   5.953  1.00  0.00    -0.269 OA
BRANCH  24  27
ATOM     27  C   UNL     1       9.096   8.791   5.052  1.00  0.00     0.039 A 
ATOM     28  C   UNL     1      10.485   8.913   4.985  1.00  0.00     0.014 A 
ATOM     29  C   UNL     1       8.272   9.915   4.965  1.00  0.00     0.014 A 
ATOM     30  C   UNL     1      11.049  10.166   4.741  1.00  0.00     0.010 A 
ATOM     31  C   UNL     1       8.831  11.145   4.646  1.00  0.00     0.010 A 
ATOM     32  C   UNL     1      10.224  11.281   4.524  1.00  0.00    -0.014 A 
BRANCH  32  33
ATOM     33  C   UNL     1      10.786  12.608   4.168  1.00  0.00     0.031 A 
ATOM     34  C   UNL     1      10.581  13.772   5.096  1.00  0.00     0.074 A 
ATOM     35  C   UNL     1      11.394  12.785   2.979  1.00  0.00     0.049 A 
ATOM     36  N   UNL     1      10.877  15.033   4.918  1.00  0.00    -0.248 NA
ATOM     37  C   UNL     1       9.920  13.482   6.378  1.00  0.00     0.031 C 
ATOM     38  C   UNL     1      11.612  11.742   1.973  1.00  0.00     0.029 A 
ATOM     39  N   UNL     1      11.928  13.912   2.408  1.00  0.00    -0.354 N 
ATOM     40  C   UNL     1      10.413  15.690   6.051  1.00  0.00     0.074 A 
ATOM     41  C   UNL     1       9.772  14.696   6.885  1.00  0.00     0.031 C 
ATOM     42  C   UNL     1      12.256  12.274   0.921  1.00  0.00     0.029 A 
ATOM     43  C   UNL     1      12.462  13.700   1.159  1.00  0.00     0.049 A 
ATOM     44  H   UNL     1      11.929  14.791   2.851  1.00  0.00     0.167 HD
ATOM     45  C   UNL     1      10.529  16.999   6.378  1.00  0.00     0.037 A 
ATOM     46  C   UNL     1      13.047  14.559   0.301  1.00  0.00     0.037 A 
ATOM     47  C   UNL     1      11.200  17.974   5.561  1.00  0.00     0.049 A 
ATOM     48  C   UNL     1      13.185  16.004   0.692  1.00  0.00     0.074 A 
ATOM     49  C   UNL     1      11.423  19.314   5.825  1.00  0.00     0.029 A 
ATOM     50  N   UNL     1      11.761  17.712   4.319  1.00  0.00    -0.354 N 
ATOM     51  N   UNL     1      12.783  16.603   1.788  1.00  0.00    -0.248 NA
ATOM     52  C   UNL     1      13.860  16.891  -0.266  1.00  0.00     0.031 C 
ATOM     53  C   UNL     1      12.097  19.868   4.730  1.00  0.00     0.029 A 
ATOM     54  C   UNL     1      12.324  18.865   3.800  1.00  0.00     0.049 A 
ATOM     55  H   UNL     1      11.758  16.834   3.872  1.00  0.00     0.167 HD
ATOM     56  C   UNL     1      13.181  17.929   1.665  1.00  0.00     0.074 A 
ATOM     57  C   UNL     1      13.857  18.045   0.389  1.00  0.00     0.031 C 
ATOM     58  C   UNL     1      13.005  18.956   2.533  1.00  0.00     0.037 A 
BRANCH  45  59
ATOM     59  C   UNL     1       9.911  17.436   7.676  1.00  0.00     0.058 A 
ATOM     60  C   UNL     1      10.449  17.047   8.914  1.00  0.00     0.135 A 
ATOM     61  C   UNL     1       8.755  18.231   7.685  1.00  0.00     0.135 A 
ATOM     62  F   UNL     1      11.544  16.272   8.962  1.00  0.00    -0.206 F 
ATOM     63  C   UNL     1       9.833  17.386  10.114  1.00  0.00     0.059 A 
ATOM     64  C   UNL     1       8.138  18.607   8.875  1.00  0.00     0.059 A 
ATOM     65  F   UNL     1       8.200  18.633   6.531  1.00  0.00    -0.206 F 
ATOM     66  C   UNL     1       8.671  18.158  10.083  1.00  0.00     0.060 A 
BRANCH  66  67
ATOM     67  S   UNL     1       7.857  18.560  11.643  1.00  0.00     0.124 S 
ATOM     68  O   UNL     1       7.176  17.304  11.945  1.00  0.00    -0.237 OA
ATOM     69  O   UNL     1       8.982  18.893  12.510  1.00  0.00    -0.237 OA
ATOM     70  O   UNL     1       6.988  19.678  11.293  1.00  0.00    -0.744 OA
ENDBRANCH  66  67
ENDBRANCH  45  59
BRANCH  46  71
ATOM     71  C   UNL     1      13.586  14.059  -0.990  1.00  0.00     0.058 A 
ATOM     72  C   UNL     1      14.969  13.916  -1.177  1.00  0.00     0.135 A 
ATOM     73  C   UNL     1      12.740  13.675  -2.041  1.00  0.00     0.135 A 
ATOM     74  F   UNL     1      15.818  14.276  -0.203  1.00  0.00    -0.206 F 
ATOM     75  C   UNL     1      15.496  13.414  -2.362  1.00  0.00     0.059 A 
ATOM     76  C   UNL     1      13.242  13.152  -3.229  1.00  0.00     0.059 A 
ATOM     77  F   UNL     1      11.409  13.778  -1.904  1.00  0.00    -0.206 F 
ATOM     78  C   UNL     1      14.623  13.028  -3.381  1.00  0.00     0.060 A 
BRANCH  78  79
ATOM     79  S   UNL     1      15.315  12.306  -4.885  1.00  0.00     0.124 S 
ATOM     80  O   UNL     1      15.867  13.480  -5.549  1.00  0.00    -0.237 OA
ATOM     81  O   UNL     1      16.287  11.357  -4.351  1.00  0.00    -0.237 OA
ATOM     82  O   UNL     1      14.153  11.702  -5.531  1.00  0.00    -0.744 OA
ENDBRANCH  78  79
ENDBRANCH  46  71
BRANCH  58  83
ATOM     83  C   UNL     1      13.589  20.288   2.155  1.00  0.00     0.058 A 
ATOM     84  C   UNL     1      12.985  21.110   1.193  1.00  0.00     0.135 A 
ATOM     85  C   UNL     1      14.729  20.773   2.814  1.00  0.00     0.135 A 
ATOM     86  F   UNL     1      11.897  20.689   0.529  1.00  0.00    -0.206 F 
ATOM     87  C   UNL     1      13.500  22.366   0.887  1.00  0.00     0.059 A 
ATOM     88  C   UNL     1      15.249  22.034   2.541  1.00  0.00     0.059 A 
ATOM     89  F   UNL     1      15.339  20.026   3.749  1.00  0.00    -0.206 F 
ATOM     90  C   UNL     1      14.631  22.820   1.569  1.00  0.00     0.060 A 
BRANCH  90  91
ATOM     91  S   UNL     1      15.262  24.471   1.201  1.00  0.00     0.124 S 
ATOM     92  O   UNL     1      15.940  24.249  -0.072  1.00  0.00    -0.237 OA
ATOM     93  O   UNL     1      14.041  25.268   1.139  1.00  0.00    -0.237 OA
ATOM     94  O   UNL     1      16.134  24.761   2.336  1.00  0.00    -0.744 OA
ENDBRANCH  90  91
ENDBRANCH  58  83
ENDBRANCH  32  33
ENDBRANCH  24  27
ENDBRANCH  22  23
ENDBRANCH  21  22
ENDBRANCH   1  21
TORSDOF 19
