REMARK SMILES C[N@H+](CC(=O)NCCCCNC(=O)c1ccc(-c2c3nc(c(-c4c(F)cc(S(=O)(=O)[O-])cc4F)c4ccc([nH]4)c(-c4c(F)cc(S(=O)(=O)[O-])cc4F)c4nc(c(-c5c(F)cc(S(=O)(=O)[O-])cc5F)c5ccc2[nH]5)C=C4)C=C3)cc1)Cc1nc(-c2ccsc2)no1
REMARK SMILES IDX 8 1 7 2 6 3 4 4 5 5 3 7 2 8 1 9 80 11 81 12 82 13 90 14
REMARK SMILES IDX 83 15 89 16 84 17 85 18 88 19 86 20 87 21 9 22 10 23 11 24
REMARK SMILES IDX 12 25 13 27 14 28 15 29 79 30 16 31 78 32 17 33 18 34 19 35
REMARK SMILES IDX 72 36 20 37 77 38 71 39 73 40 21 41 76 42 70 43 69 44 22 46
REMARK SMILES IDX 56 47 35 48 55 49 36 50 39 51 54 52 74 53 37 54 38 55 53 57
REMARK SMILES IDX 75 58 40 59 23 60 24 61 33 62 25 63 26 64 32 65 34 66 27 67
REMARK SMILES IDX 28 68 29 69 30 70 31 71 57 72 58 73 67 74 59 75 60 76 66 77
REMARK SMILES IDX 68 78 61 79 62 80 63 81 64 82 65 83 41 84 42 85 51 86 43 87
REMARK SMILES IDX 44 88 50 89 52 90 45 91 46 92 47 93 48 94 49 95
REMARK H PARENT 6 6 2 10 11 26 73 45 39 56
REMARK Flexibility Score: inf
ROOT
ATOM      1  C   UNL     1       0.787  -1.799   1.360  1.00  0.00     0.023 C 
ENDROOT
BRANCH   1   2
ATOM      2  C   UNL     1      -0.517  -1.529   0.611  1.00  0.00     0.116 C 
BRANCH   2   3
ATOM      3  N   UNL     1      -1.390  -0.596   1.297  1.00  0.00    -0.351 N 
ATOM      4  C   UNL     1      -1.571   0.739   1.059  1.00  0.00     0.275 C 
ATOM      5  O   UNL     1      -2.407   1.356   1.722  1.00  0.00    -0.269 OA
ATOM      6  H   UNL     1      -1.924  -0.974   2.033  1.00  0.00     0.163 HD
BRANCH   4   7
ATOM      7  C   UNL     1      -0.737   1.443  -0.018  1.00  0.00     0.363 C 
BRANCH   7   8
ATOM      8  N   UNL     1       0.657   1.538   0.396  1.00  0.00    -0.322 N 
ATOM      9  C   UNL     1       1.690   1.078  -0.495  1.00  0.00     0.333 C 
ATOM     10  H   UNL     1       0.623   0.707   0.987  1.00  0.00     0.348 HD
BRANCH   8  11
ATOM     11  C   UNL     1       1.022   2.507   1.427  1.00  0.00     0.364 C 
BRANCH  11  12
ATOM     12  C   UNL     1       0.625   2.081   2.802  1.00  0.00     0.282 A 
ATOM     13  N   UNL     1       0.931   0.989   3.472  1.00  0.00    -0.186 NA
ATOM     14  O   UNL     1      -0.247   2.896   3.465  1.00  0.00    -0.333 OA
ATOM     15  C   UNL     1       0.118   1.099   4.572  1.00  0.00     0.203 A 
ATOM     16  N   UNL     1      -0.585   2.235   4.647  1.00  0.00    -0.057 NA
BRANCH  15  17
ATOM     17  C   UNL     1      -0.013  -0.018   5.508  1.00  0.00     0.033 A 
ATOM     18  C   UNL     1      -1.250  -0.342   6.145  1.00  0.00     0.024 A 
ATOM     19  C   UNL     1       0.986  -0.908   5.840  1.00  0.00     0.077 A 
ATOM     20  C   UNL     1      -1.150  -1.474   6.925  1.00  0.00     0.065 A 
ATOM     21  S   UNL     1       0.429  -2.135   6.899  1.00  0.00    -0.152 S 
ENDBRANCH  15  17
ENDBRANCH  11  12
ENDBRANCH   8  11
ENDBRANCH   7   8
ENDBRANCH   4   7
ENDBRANCH   2   3
ENDBRANCH   1   2
BRANCH   1  22
ATOM     22  C   UNL     1       0.622  -2.492   2.705  1.00  0.00     0.023 C 
BRANCH  22  23
ATOM     23  C   UNL     1      -0.038  -3.856   2.667  1.00  0.00     0.116 C 
BRANCH  23  24
ATOM     24  N   UNL     1       0.675  -4.817   1.842  1.00  0.00    -0.352 N 
ATOM     25  C   UNL     1       0.973  -6.131   2.116  1.00  0.00     0.251 C 
ATOM     26  H   UNL     1       0.986  -4.483   0.970  1.00  0.00     0.163 HD
ATOM     27  O   UNL     1       1.694  -6.765   1.350  1.00  0.00    -0.269 OA
BRANCH  25  28
ATOM     28  C   UNL     1       0.450  -6.762   3.348  1.00  0.00     0.039 A 
ATOM     29  C   UNL     1       1.298  -7.574   4.105  1.00  0.00     0.014 A 
ATOM     30  C   UNL     1      -0.864  -6.539   3.768  1.00  0.00     0.014 A 
ATOM     31  C   UNL     1       0.840  -8.121   5.305  1.00  0.00     0.010 A 
ATOM     32  C   UNL     1      -1.283  -6.996   5.011  1.00  0.00     0.010 A 
ATOM     33  C   UNL     1      -0.446  -7.816   5.781  1.00  0.00    -0.014 A 
BRANCH  33  34
ATOM     34  C   UNL     1      -0.953  -8.391   7.053  1.00  0.00     0.031 A 
ATOM     35  C   UNL     1      -2.157  -9.298   7.034  1.00  0.00     0.074 A 
ATOM     36  C   UNL     1      -0.364  -8.063   8.220  1.00  0.00     0.049 A 
ATOM     37  N   UNL     1      -2.774  -9.873   8.034  1.00  0.00    -0.248 NA
ATOM     38  C   UNL     1      -2.772  -9.566   5.723  1.00  0.00     0.031 C 
ATOM     39  C   UNL     1       0.759  -7.134   8.372  1.00  0.00     0.029 A 
ATOM     40  N   UNL     1      -0.631  -8.471   9.502  1.00  0.00    -0.354 N 
ATOM     41  C   UNL     1      -3.857 -10.544   7.476  1.00  0.00     0.074 A 
ATOM     42  C   UNL     1      -3.851 -10.256   6.060  1.00  0.00     0.031 C 
ATOM     43  C   UNL     1       1.104  -7.069   9.668  1.00  0.00     0.029 A 
ATOM     44  C   UNL     1       0.213  -7.927  10.442  1.00  0.00     0.049 A 
ATOM     45  H   UNL     1      -1.359  -9.094   9.728  1.00  0.00     0.167 HD
ATOM     46  C   UNL     1      -4.756 -11.354   8.082  1.00  0.00     0.037 A 
ATOM     47  C   UNL     1       0.263  -8.108  11.776  1.00  0.00     0.037 A 
ATOM     48  C   UNL     1      -4.723 -11.678   9.483  1.00  0.00     0.049 A 
ATOM     49  C   UNL     1      -0.707  -9.065  12.417  1.00  0.00     0.074 A 
ATOM     50  C   UNL     1      -5.541 -12.543  10.187  1.00  0.00     0.029 A 
ATOM     51  N   UNL     1      -3.814 -11.156  10.392  1.00  0.00    -0.354 N 
ATOM     52  N   UNL     1      -1.681  -9.748  11.862  1.00  0.00    -0.248 NA
ATOM     53  C   UNL     1      -0.560  -9.292  13.860  1.00  0.00     0.031 C 
ATOM     54  C   UNL     1      -5.149 -12.519  11.530  1.00  0.00     0.029 A 
ATOM     55  C   UNL     1      -4.056 -11.675  11.652  1.00  0.00     0.049 A 
ATOM     56  H   UNL     1      -3.103 -10.511  10.174  1.00  0.00     0.167 HD
ATOM     57  C   UNL     1      -2.241 -10.509  12.882  1.00  0.00     0.074 A 
ATOM     58  C   UNL     1      -1.487 -10.213  14.083  1.00  0.00     0.031 C 
ATOM     59  C   UNL     1      -3.284 -11.376  12.832  1.00  0.00     0.037 A 
BRANCH  46  60
ATOM     60  C   UNL     1      -5.839 -11.960   7.231  1.00  0.00     0.058 A 
ATOM     61  C   UNL     1      -5.559 -12.950   6.274  1.00  0.00     0.135 A 
ATOM     62  C   UNL     1      -7.179 -11.575   7.398  1.00  0.00     0.135 A 
ATOM     63  F   UNL     1      -4.294 -13.343   6.058  1.00  0.00    -0.206 F 
ATOM     64  C   UNL     1      -6.564 -13.518   5.498  1.00  0.00     0.059 A 
ATOM     65  C   UNL     1      -8.204 -12.150   6.653  1.00  0.00     0.059 A 
ATOM     66  F   UNL     1      -7.503 -10.630   8.294  1.00  0.00    -0.206 F 
ATOM     67  C   UNL     1      -7.885 -13.113   5.697  1.00  0.00     0.060 A 
BRANCH  67  68
ATOM     68  S   UNL     1      -9.179 -13.877   4.697  1.00  0.00     0.124 S 
ATOM     69  O   UNL     1      -8.951 -13.252   3.398  1.00  0.00    -0.237 OA
ATOM     70  O   UNL     1      -8.845 -15.295   4.784  1.00  0.00    -0.237 OA
ATOM     71  O   UNL     1     -10.410 -13.483   5.375  1.00  0.00    -0.744 OA
ENDBRANCH  67  68
ENDBRANCH  46  60
BRANCH  47  72
ATOM     72  C   UNL     1       1.290  -7.402  12.589  1.00  0.00     0.058 A 
ATOM     73  C   UNL     1       2.358  -8.101  13.173  1.00  0.00     0.135 A 
ATOM     74  C   UNL     1       1.225  -6.016  12.801  1.00  0.00     0.135 A 
ATOM     75  F   UNL     1       2.464  -9.427  13.002  1.00  0.00    -0.206 F 
ATOM     76  C   UNL     1       3.307  -7.458  13.961  1.00  0.00     0.059 A 
ATOM     77  C   UNL     1       2.178  -5.346  13.563  1.00  0.00     0.059 A 
ATOM     78  F   UNL     1       0.235  -5.297  12.248  1.00  0.00    -0.206 F 
ATOM     79  C   UNL     1       3.207  -6.079  14.152  1.00  0.00     0.060 A 
BRANCH  79  80
ATOM     80  S   UNL     1       4.461  -5.249  15.152  1.00  0.00     0.124 S 
ATOM     81  O   UNL     1       4.080  -5.658  16.499  1.00  0.00    -0.237 OA
ATOM     82  O   UNL     1       5.699  -5.826  14.636  1.00  0.00    -0.237 OA
ATOM     83  O   UNL     1       4.259  -3.838  14.840  1.00  0.00    -0.744 OA
ENDBRANCH  79  80
ENDBRANCH  47  72
BRANCH  59  84
ATOM     84  C   UNL     1      -3.634 -12.101  14.101  1.00  0.00     0.058 A 
ATOM     85  C   UNL     1      -4.240 -11.448  15.185  1.00  0.00     0.135 A 
ATOM     86  C   UNL     1      -3.380 -13.477  14.221  1.00  0.00     0.135 A 
ATOM     87  F   UNL     1      -4.504 -10.133  15.120  1.00  0.00    -0.206 F 
ATOM     88  C   UNL     1      -4.541 -12.124  16.362  1.00  0.00     0.059 A 
ATOM     89  C   UNL     1      -3.701 -14.180  15.377  1.00  0.00     0.059 A 
ATOM     90  F   UNL     1      -2.818 -14.153  13.206  1.00  0.00    -0.206 F 
ATOM     91  C   UNL     1      -4.262 -13.489  16.451  1.00  0.00     0.060 A 
BRANCH  91  92
ATOM     92  S   UNL     1      -4.653 -14.358  17.984  1.00  0.00     0.124 S 
ATOM     93  O   UNL     1      -3.570 -13.915  18.855  1.00  0.00    -0.237 OA
ATOM     94  O   UNL     1      -5.979 -13.841  18.308  1.00  0.00    -0.237 OA
ATOM     95  O   UNL     1      -4.613 -15.765  17.596  1.00  0.00    -0.744 OA
ENDBRANCH  91  92
ENDBRANCH  59  84
ENDBRANCH  33  34
ENDBRANCH  25  28
ENDBRANCH  23  24
ENDBRANCH  22  23
ENDBRANCH   1  22
TORSDOF 18
