REMARK SMILES CC1(C)CC[C@@]2(C(=O)NCCCCNC(=O)c3ccc(-c4c5nc(c(-c6c(F)cc(S(=O)(=O)[O-])cc6F)c6ccc([nH]6)c(-c6c(F)cc(S(=O)(=O)[O-])cc6F)c6nc(c(-c7c(F)cc(S(=O)(=O)[O-])cc7F)c7ccc4[nH]7)C=C6)C=C5)cc3)CC[C@@]3(C)C(=CC[C@H]4[C@@]5(C)CC[C@H](O)C(C)(C)[C@@H]5CC[C@]43C)[C@@H]2C1
REMARK SMILES IDX 12 1 11 2 10 3 9 4 7 5 8 6 6 8 1 9 2 10 3 11 4 12 106 13
REMARK SMILES IDX 5 14 105 15 87 16 83 17 85 18 88 19 84 20 86 21 103 22 89 23
REMARK SMILES IDX 90 24 102 25 104 26 91 27 101 28 92 29 93 30 100 31 94 32
REMARK SMILES IDX 97 33 95 34 98 35 99 36 96 37 13 39 14 40 15 41 16 43 17 44
REMARK SMILES IDX 18 45 82 46 19 47 81 48 20 49 21 50 22 51 75 52 23 53 80 54
REMARK SMILES IDX 74 55 76 56 24 57 79 58 73 59 72 60 25 62 59 63 38 64 58 65
REMARK SMILES IDX 39 66 42 67 57 68 77 69 40 70 41 71 56 73 78 74 43 75 26 76
REMARK SMILES IDX 27 77 36 78 28 79 29 80 35 81 37 82 30 83 31 84 32 85 33 86
REMARK SMILES IDX 34 87 60 88 61 89 70 90 62 91 63 92 69 93 71 94 64 95 65 96
REMARK SMILES IDX 66 97 67 98 68 99 44 100 45 101 54 102 46 103 47 104 53 105
REMARK SMILES IDX 55 106 48 107 49 108 50 109 51 110 52 111
REMARK H PARENT 9 7 96 38 14 42 76 61 42 72
REMARK Flexibility Score: inf
ROOT
ATOM      1  C   UNL     1      -1.662  -0.251   4.564  1.00  0.00     0.023 C 
ENDROOT
BRANCH   1   2
ATOM      2  C   UNL     1      -2.007  -1.435   3.635  1.00  0.00     0.023 C 
BRANCH   2   3
ATOM      3  C   UNL     1      -1.238  -1.679   2.330  1.00  0.00     0.116 C 
BRANCH   3   4
ATOM      4  N   UNL     1       0.156  -2.075   2.367  1.00  0.00    -0.356 N 
ATOM      5  C   UNL     1       0.752  -3.050   1.593  1.00  0.00     0.226 C 
ATOM      6  O   UNL     1       0.124  -4.038   1.209  1.00  0.00    -0.274 OA
ATOM      7  H   UNL     1       0.735  -1.601   3.007  1.00  0.00     0.163 HD
BRANCH   5   8
ATOM      8  C   UNL     1       2.245  -2.786   1.118  1.00  0.00     0.056 C 
ATOM      9  C   UNL     1       1.871   0.362  -1.599  1.00  0.00     0.011 C 
ATOM     10  C   UNL     1       1.168  -0.425  -0.480  1.00  0.00    -0.035 C 
ATOM     11  C   UNL     1      -0.247   0.231  -0.370  1.00  0.00     0.011 C 
ATOM     12  C   UNL     1       0.996  -1.889  -0.943  1.00  0.00     0.007 C 
ATOM     13  C   UNL     1       1.975  -0.241   0.862  1.00  0.00     0.015 C 
ATOM     14  C   UNL     1       2.090  -2.841  -0.441  1.00  0.00     0.018 C 
ATOM     15  C   UNL     1       2.882  -1.411   1.441  1.00  0.00     0.031 C 
ATOM     16  C   UNL     1       3.218  -1.368   2.968  1.00  0.00    -0.064 C 
ATOM     17  C   UNL     1       3.264  -3.889   1.565  1.00  0.00     0.018 C 
ATOM     18  C   UNL     1       4.072  -2.474   3.708  1.00  0.00    -0.006 C 
ATOM     19  C   UNL     1       2.557  -0.471   3.717  1.00  0.00    -0.027 C 
ATOM     20  C   UNL     1       3.879  -3.855   3.009  1.00  0.00     0.013 C 
ATOM     21  C   UNL     1       5.581  -2.145   3.459  1.00  0.00     0.017 C 
ATOM     22  C   UNL     1       3.782  -2.355   5.391  1.00  0.00    -0.020 C 
ATOM     23  C   UNL     1       1.800  -0.921   4.934  1.00  0.00     0.032 C 
ATOM     24  C   UNL     1       2.243  -2.232   5.591  1.00  0.00     0.006 C 
ATOM     25  C   UNL     1       4.265  -3.384   6.494  1.00  0.00     0.008 C 
ATOM     26  C   UNL     1       4.475  -1.001   5.897  1.00  0.00     0.012 C 
ATOM     27  C   UNL     1       1.352  -3.636   5.588  1.00  0.00    -0.025 C 
ATOM     28  C   UNL     1       3.134  -4.100   7.324  1.00  0.00     0.005 C 
ATOM     29  C   UNL     1       0.038  -3.258   6.303  1.00  0.00     0.012 C 
ATOM     30  C   UNL     1       0.917  -4.314   4.264  1.00  0.00     0.010 C 
ATOM     31  C   UNL     1       2.185  -4.725   6.319  1.00  0.00     0.003 C 
ATOM     32  C   UNL     1       0.841  -5.869   4.113  1.00  0.00     0.033 C 
ATOM     33  C   UNL     1       1.491  -6.115   6.571  1.00  0.00    -0.006 C 
ATOM     34  C   UNL     1       1.544  -6.760   5.157  1.00  0.00     0.120 C 
ATOM     35  C   UNL     1       0.029  -6.139   7.066  1.00  0.00     0.014 C 
ATOM     36  C   UNL     1       2.275  -6.960   7.591  1.00  0.00     0.014 C 
BRANCH  34  37
ATOM     37  O   UNL     1       1.016  -8.084   5.134  1.00  0.00    -0.393 OA
ATOM     38  H   UNL     1       0.074  -8.061   5.365  1.00  0.00     0.210 HD
ENDBRANCH  34  37
ENDBRANCH   5   8
ENDBRANCH   3   4
ENDBRANCH   2   3
ENDBRANCH   1   2
BRANCH   1  39
ATOM     39  C   UNL     1      -0.916   0.948   3.993  1.00  0.00     0.116 C 
BRANCH  39  40
ATOM     40  N   UNL     1      -1.780   1.864   3.284  1.00  0.00    -0.352 N 
ATOM     41  C   UNL     1      -2.346   3.035   3.716  1.00  0.00     0.251 C 
ATOM     42  H   UNL     1      -1.992   1.610   2.357  1.00  0.00     0.163 HD
ATOM     43  O   UNL     1      -3.200   3.583   3.011  1.00  0.00    -0.269 OA
BRANCH  41  44
ATOM     44  C   UNL     1      -1.984   3.629   5.023  1.00  0.00     0.039 A 
ATOM     45  C   UNL     1      -3.014   4.070   5.856  1.00  0.00     0.014 A 
ATOM     46  C   UNL     1      -0.653   3.795   5.422  1.00  0.00     0.014 A 
ATOM     47  C   UNL     1      -2.714   4.636   7.098  1.00  0.00     0.010 A 
ATOM     48  C   UNL     1      -0.359   4.280   6.700  1.00  0.00     0.010 A 
ATOM     49  C   UNL     1      -1.385   4.725   7.547  1.00  0.00    -0.014 A 
BRANCH  49  50
ATOM     50  C   UNL     1      -1.086   5.311   8.884  1.00  0.00     0.031 A 
ATOM     51  C   UNL     1      -0.269   6.574   9.003  1.00  0.00     0.074 A 
ATOM     52  C   UNL     1      -1.555   4.709   9.996  1.00  0.00     0.049 A 
ATOM     53  N   UNL     1       0.040   7.259  10.075  1.00  0.00    -0.248 NA
ATOM     54  C   UNL     1       0.297   7.130   7.762  1.00  0.00     0.031 C 
ATOM     55  C   UNL     1      -2.298   3.446  10.023  1.00  0.00     0.029 A 
ATOM     56  N   UNL     1      -1.487   5.076  11.318  1.00  0.00    -0.354 N 
ATOM     57  C   UNL     1       0.841   8.310   9.641  1.00  0.00     0.074 A 
ATOM     58  C   UNL     1       1.018   8.145   8.217  1.00  0.00     0.031 C 
ATOM     59  C   UNL     1      -2.647   3.164  11.289  1.00  0.00     0.029 A 
ATOM     60  C   UNL     1      -2.129   4.205  12.170  1.00  0.00     0.049 A 
ATOM     61  H   UNL     1      -1.023   5.887  11.628  1.00  0.00     0.167 HD
ATOM     62  C   UNL     1       1.359   9.336  10.359  1.00  0.00     0.037 A 
ATOM     63  C   UNL     1      -2.284   4.240  13.509  1.00  0.00     0.037 A 
ATOM     64  C   UNL     1       1.146   9.518  11.772  1.00  0.00     0.049 A 
ATOM     65  C   UNL     1      -1.731   5.412  14.276  1.00  0.00     0.074 A 
ATOM     66  C   UNL     1       1.557  10.569  12.574  1.00  0.00     0.029 A 
ATOM     67  N   UNL     1       0.470   8.629  12.594  1.00  0.00    -0.354 N 
ATOM     68  N   UNL     1      -1.061   6.449  13.830  1.00  0.00    -0.248 NA
ATOM     69  C   UNL     1      -1.968   5.430  15.726  1.00  0.00     0.031 C 
ATOM     70  C   UNL     1       1.182  10.286  13.891  1.00  0.00     0.029 A 
ATOM     71  C   UNL     1       0.480   9.091  13.900  1.00  0.00     0.049 A 
ATOM     72  H   UNL     1       0.047   7.792  12.294  1.00  0.00     0.167 HD
ATOM     73  C   UNL     1      -0.817   7.251  14.940  1.00  0.00     0.074 A 
ATOM     74  C   UNL     1      -1.436   6.594  16.072  1.00  0.00     0.031 C 
ATOM     75  C   UNL     1      -0.140   8.425  15.017  1.00  0.00     0.037 A 
BRANCH  62  76
ATOM     76  C   UNL     1       2.207  10.350   9.637  1.00  0.00     0.058 A 
ATOM     77  C   UNL     1       1.657  11.261   8.721  1.00  0.00     0.135 A 
ATOM     78  C   UNL     1       3.580  10.455   9.918  1.00  0.00     0.135 A 
ATOM     79  F   UNL     1       0.355  11.197   8.401  1.00  0.00    -0.206 F 
ATOM     80  C   UNL     1       2.440  12.229   8.098  1.00  0.00     0.059 A 
ATOM     81  C   UNL     1       4.375  11.434   9.329  1.00  0.00     0.059 A 
ATOM     82  F   UNL     1       4.160   9.608  10.782  1.00  0.00    -0.206 F 
ATOM     83  C   UNL     1       3.797  12.312   8.414  1.00  0.00     0.060 A 
BRANCH  83  84
ATOM     84  S   UNL     1       4.788  13.598   7.624  1.00  0.00     0.124 S 
ATOM     85  O   UNL     1       4.861  13.108   6.251  1.00  0.00    -0.237 OA
ATOM     86  O   UNL     1       3.971  14.789   7.829  1.00  0.00    -0.237 OA
ATOM     87  O   UNL     1       6.043  13.566   8.368  1.00  0.00    -0.744 OA
ENDBRANCH  83  84
ENDBRANCH  62  76
BRANCH  63  88
ATOM     88  C   UNL     1      -2.999   3.138  14.212  1.00  0.00     0.058 A 
ATOM     89  C   UNL     1      -4.234   3.350  14.845  1.00  0.00     0.135 A 
ATOM     90  C   UNL     1      -2.448   1.849  14.280  1.00  0.00     0.135 A 
ATOM     91  F   UNL     1      -4.804   4.564  14.814  1.00  0.00    -0.206 F 
ATOM     92  C   UNL     1      -4.880   2.336  15.548  1.00  0.00     0.059 A 
ATOM     93  C   UNL     1      -3.089   0.810  14.949  1.00  0.00     0.059 A 
ATOM     94  F   UNL     1      -1.279   1.584  13.677  1.00  0.00    -0.206 F 
ATOM     95  C   UNL     1      -4.297   1.069  15.594  1.00  0.00     0.060 A 
BRANCH  95  96
ATOM     96  S   UNL     1      -5.151  -0.248  16.489  1.00  0.00     0.124 S 
ATOM     97  O   UNL     1      -4.942   0.155  17.874  1.00  0.00    -0.237 OA
ATOM     98  O   UNL     1      -6.516  -0.125  15.985  1.00  0.00    -0.237 OA
ATOM     99  O   UNL     1      -4.442  -1.453  16.067  1.00  0.00    -0.744 OA
ENDBRANCH  95  96
ENDBRANCH  63  88
BRANCH  75 100
ATOM    100  C   UNL     1      -0.061   9.087  16.366  1.00  0.00     0.058 A 
ATOM    101  C   UNL     1       0.699   8.545  17.415  1.00  0.00     0.135 A 
ATOM    102  C   UNL     1      -0.739  10.294  16.606  1.00  0.00     0.135 A 
ATOM    103  F   UNL     1       1.366   7.393  17.241  1.00  0.00    -0.206 F 
ATOM    104  C   UNL     1       0.746   9.150  18.667  1.00  0.00     0.059 A 
ATOM    105  C   UNL     1      -0.677  10.936  17.838  1.00  0.00     0.059 A 
ATOM    106  F   UNL     1      -1.467  10.866  15.634  1.00  0.00    -0.206 F 
ATOM    107  C   UNL     1       0.051  10.344  18.869  1.00  0.00     0.060 A 
BRANCH 107 108
ATOM    108  S   UNL     1       0.117  11.118  20.499  1.00  0.00     0.124 S 
ATOM    109  O   UNL     1      -0.739  10.230  21.279  1.00  0.00    -0.237 OA
ATOM    110  O   UNL     1       1.541  11.063  20.813  1.00  0.00    -0.237 OA
ATOM    111  O   UNL     1      -0.416  12.456  20.262  1.00  0.00    -0.744 OA
ENDBRANCH 107 108
ENDBRANCH  75 100
ENDBRANCH  49  50
ENDBRANCH  41  44
ENDBRANCH  39  40
ENDBRANCH   1  39
TORSDOF 15
