REMARK SMILES Nn1c(S[C@@H](C(=O)NCCCCNC(=O)c2ccc(-c3c4nc(c(-c5c(F)cc(S(=O)(=O)[O-])cc5F)c5ccc([nH]5)c(-c5c(F)cc(S(=O)(=O)[O-])cc5F)c5nc(c(-c6c(F)cc(S(=O)(=O)[O-])cc6F)c6ccc3[nH]6)C=C5)C=C4)cc2)c2ccccc2)nc2ccc(Br)cc2c1=O
REMARK SMILES IDX 10 1 9 2 8 3 6 4 7 5 5 7 4 8 3 9 2 10 96 11 88 12 95 13
REMARK SMILES IDX 97 14 89 15 94 16 90 17 92 18 91 19 93 20 1 21 82 24 83 25
REMARK SMILES IDX 87 26 84 27 86 28 85 29 11 30 12 31 13 32 14 33 15 35 16 36
REMARK SMILES IDX 17 37 81 38 18 39 80 40 19 41 20 42 21 43 74 44 22 45 79 46
REMARK SMILES IDX 73 47 75 48 23 49 78 50 72 51 71 52 24 54 58 55 37 56 57 57
REMARK SMILES IDX 38 58 41 59 56 60 76 61 39 62 40 63 55 65 77 66 42 67 25 68
REMARK SMILES IDX 26 69 35 70 27 71 28 72 34 73 36 74 29 75 30 76 31 77 32 78
REMARK SMILES IDX 33 79 59 80 60 81 69 82 61 83 62 84 68 85 70 86 63 87 64 88
REMARK SMILES IDX 65 89 66 90 67 91 43 92 44 93 53 94 45 95 46 96 52 97 54 98
REMARK SMILES IDX 47 99 48 100 49 101 50 102 51 103
REMARK H PARENT 8 6 1 22 1 23 13 34 75 53 41 64
REMARK Flexibility Score: inf
ROOT
ATOM      1  C   UNL     1       4.600  -3.576  -0.315  1.00  0.00     0.023 C 
ENDROOT
BRANCH   1   2
ATOM      2  C   UNL     1       4.985  -2.378   0.558  1.00  0.00     0.116 C 
BRANCH   2   3
ATOM      3  N   UNL     1       4.474  -1.113   0.060  1.00  0.00    -0.355 N 
ATOM      4  C   UNL     1       3.459  -0.300   0.499  1.00  0.00     0.238 C 
ATOM      5  O   UNL     1       3.414   0.795  -0.073  1.00  0.00    -0.273 OA
ATOM      6  H   UNL     1       4.941  -0.777  -0.739  1.00  0.00     0.163 HD
BRANCH   4   7
ATOM      7  C   UNL     1       2.532  -0.712   1.685  1.00  0.00     0.174 C 
BRANCH   7   8
ATOM      8  S   UNL     1       1.775  -2.333   1.381  1.00  0.00    -0.068 SA
BRANCH   8   9
ATOM      9  C   UNL     1       0.436  -2.262   0.260  1.00  0.00     0.191 A 
ATOM     10  N   UNL     1       0.067  -1.167  -0.516  1.00  0.00    -0.202 N 
ATOM     11  C   UNL     1      -1.067  -1.187  -1.335  1.00  0.00     0.280 A 
ATOM     12  N   UNL     1      -0.212  -3.386   0.217  1.00  0.00    -0.222 NA
ATOM     13  C   UNL     1      -1.791  -2.462  -1.406  1.00  0.00     0.069 A 
ATOM     14  O   UNL     1      -1.476  -0.211  -1.963  1.00  0.00    -0.267 OA
ATOM     15  C   UNL     1      -1.314  -3.515  -0.630  1.00  0.00     0.079 A 
ATOM     16  C   UNL     1      -2.917  -2.609  -2.223  1.00  0.00     0.031 A 
ATOM     17  C   UNL     1      -1.971  -4.745  -0.690  1.00  0.00     0.030 A 
ATOM     18  C   UNL     1      -3.566  -3.839  -2.261  1.00  0.00     0.018 A 
ATOM     19  C   UNL     1      -3.096  -4.911  -1.504  1.00  0.00     0.018 A 
ATOM     20  Br  UNL     1      -5.102  -4.056  -3.340  1.00  0.00    -0.051 Br
BRANCH  10  21
ATOM     21  N   UNL     1       0.773   0.043  -0.512  1.00  0.00    -0.334 N 
ATOM     22  H   UNL     1       1.583   0.138   0.039  1.00  0.00     0.178 HD
ATOM     23  H   UNL     1       0.460   0.798  -1.061  1.00  0.00     0.178 HD
ENDBRANCH  10  21
ENDBRANCH   8   9
ENDBRANCH   7   8
BRANCH   7  24
ATOM     24  C   UNL     1       1.602   0.354   2.299  1.00  0.00    -0.025 A 
ATOM     25  C   UNL     1       0.391   0.015   2.941  1.00  0.00     0.005 A 
ATOM     26  C   UNL     1       1.953   1.716   2.295  1.00  0.00     0.005 A 
ATOM     27  C   UNL     1      -0.470   0.991   3.449  1.00  0.00     0.000 A 
ATOM     28  C   UNL     1       1.093   2.695   2.805  1.00  0.00     0.000 A 
ATOM     29  C   UNL     1      -0.126   2.334   3.367  1.00  0.00     0.000 A 
ENDBRANCH   7  24
ENDBRANCH   4   7
ENDBRANCH   2   3
ENDBRANCH   1   2
BRANCH   1  30
ATOM     30  C   UNL     1       4.988  -3.477  -1.791  1.00  0.00     0.023 C 
BRANCH  30  31
ATOM     31  C   UNL     1       6.461  -3.216  -2.071  1.00  0.00     0.116 C 
BRANCH  31  32
ATOM     32  N   UNL     1       7.347  -4.235  -1.529  1.00  0.00    -0.352 N 
ATOM     33  C   UNL     1       8.432  -4.841  -2.123  1.00  0.00     0.251 C 
ATOM     34  H   UNL     1       7.144  -4.532  -0.613  1.00  0.00     0.163 HD
ATOM     35  O   UNL     1       9.026  -5.747  -1.547  1.00  0.00    -0.269 OA
BRANCH  33  36
ATOM     36  C   UNL     1       8.840  -4.426  -3.483  1.00  0.00     0.039 A 
ATOM     37  C   UNL     1       8.973  -3.074  -3.803  1.00  0.00     0.014 A 
ATOM     38  C   UNL     1       9.015  -5.404  -4.467  1.00  0.00     0.014 A 
ATOM     39  C   UNL     1       9.096  -2.694  -5.135  1.00  0.00     0.010 A 
ATOM     40  C   UNL     1       9.218  -5.020  -5.796  1.00  0.00     0.010 A 
ATOM     41  C   UNL     1       9.196  -3.662  -6.149  1.00  0.00    -0.014 A 
BRANCH  41  42
ATOM     42  C   UNL     1       9.227  -3.228  -7.571  1.00  0.00     0.031 A 
ATOM     43  C   UNL     1       8.083  -3.555  -8.496  1.00  0.00     0.074 A 
ATOM     44  C   UNL     1      10.250  -2.469  -8.008  1.00  0.00     0.049 A 
ATOM     45  N   UNL     1       7.925  -3.235  -9.756  1.00  0.00    -0.248 NA
ATOM     46  C   UNL     1       6.973  -4.344  -7.938  1.00  0.00     0.031 C 
ATOM     47  C   UNL     1      11.405  -2.067  -7.202  1.00  0.00     0.029 A 
ATOM     48  N   UNL     1      10.470  -1.873  -9.224  1.00  0.00    -0.354 N 
ATOM     49  C   UNL     1       6.713  -3.794 -10.144  1.00  0.00     0.074 A 
ATOM     50  C   UNL     1       6.186  -4.497  -8.995  1.00  0.00     0.031 C 
ATOM     51  C   UNL     1      12.179  -1.243  -7.925  1.00  0.00     0.029 A 
ATOM     52  C   UNL     1      11.608  -1.104  -9.261  1.00  0.00     0.049 A 
ATOM     53  H   UNL     1       9.869  -1.986  -9.996  1.00  0.00     0.167 HD
ATOM     54  C   UNL     1       6.088  -3.717 -11.344  1.00  0.00     0.037 A 
ATOM     55  C   UNL     1      12.137  -0.371 -10.259  1.00  0.00     0.037 A 
ATOM     56  C   UNL     1       6.599  -2.994 -12.480  1.00  0.00     0.049 A 
ATOM     57  C   UNL     1      11.444  -0.329 -11.589  1.00  0.00     0.074 A 
ATOM     58  C   UNL     1       6.034  -2.853 -13.736  1.00  0.00     0.029 A 
ATOM     59  N   UNL     1       7.788  -2.281 -12.495  1.00  0.00    -0.354 N 
ATOM     60  N   UNL     1      10.311  -0.886 -11.943  1.00  0.00    -0.248 NA
ATOM     61  C   UNL     1      12.107   0.426 -12.660  1.00  0.00     0.031 C 
ATOM     62  C   UNL     1       6.896  -2.079 -14.520  1.00  0.00     0.029 A 
ATOM     63  C   UNL     1       7.981  -1.709 -13.742  1.00  0.00     0.049 A 
ATOM     64  H   UNL     1       8.404  -2.194 -11.732  1.00  0.00     0.167 HD
ATOM     65  C   UNL     1      10.124  -0.548 -13.278  1.00  0.00     0.074 A 
ATOM     66  C   UNL     1      11.249   0.280 -13.662  1.00  0.00     0.031 C 
ATOM     67  C   UNL     1       9.113  -0.897 -14.111  1.00  0.00     0.037 A 
BRANCH  54  68
ATOM     68  C   UNL     1       4.779  -4.441 -11.498  1.00  0.00     0.058 A 
ATOM     69  C   UNL     1       3.595  -3.945 -10.931  1.00  0.00     0.135 A 
ATOM     70  C   UNL     1       4.699  -5.617 -12.261  1.00  0.00     0.135 A 
ATOM     71  F   UNL     1       3.620  -2.834 -10.178  1.00  0.00    -0.206 F 
ATOM     72  C   UNL     1       2.379  -4.600 -11.100  1.00  0.00     0.059 A 
ATOM     73  C   UNL     1       3.490  -6.278 -12.459  1.00  0.00     0.059 A 
ATOM     74  F   UNL     1       5.803  -6.134 -12.823  1.00  0.00    -0.206 F 
ATOM     75  C   UNL     1       2.337  -5.768 -11.865  1.00  0.00     0.060 A 
BRANCH  75  76
ATOM     76  S   UNL     1       0.751  -6.603 -12.078  1.00  0.00     0.124 S 
ATOM     77  O   UNL     1       0.557  -7.199 -10.759  1.00  0.00    -0.237 OA
ATOM     78  O   UNL     1      -0.143  -5.498 -12.411  1.00  0.00    -0.237 OA
ATOM     79  O   UNL     1       1.006  -7.547 -13.161  1.00  0.00    -0.744 OA
ENDBRANCH  75  76
ENDBRANCH  54  68
BRANCH  55  80
ATOM     80  C   UNL     1      13.394   0.384 -10.024  1.00  0.00     0.058 A 
ATOM     81  C   UNL     1      13.380   1.781  -9.903  1.00  0.00     0.135 A 
ATOM     82  C   UNL     1      14.621  -0.278  -9.869  1.00  0.00     0.135 A 
ATOM     83  F   UNL     1      12.231   2.456 -10.051  1.00  0.00    -0.206 F 
ATOM     84  C   UNL     1      14.541   2.497  -9.631  1.00  0.00     0.059 A 
ATOM     85  C   UNL     1      15.791   0.414  -9.575  1.00  0.00     0.059 A 
ATOM     86  F   UNL     1      14.680  -1.615  -9.963  1.00  0.00    -0.206 F 
ATOM     87  C   UNL     1      15.741   1.803  -9.461  1.00  0.00     0.060 A 
BRANCH  87  88
ATOM     88  S   UNL     1      17.227   2.733  -9.028  1.00  0.00     0.124 S 
ATOM     89  O   UNL     1      17.574   3.344 -10.306  1.00  0.00    -0.237 OA
ATOM     90  O   UNL     1      16.733   3.641  -7.998  1.00  0.00    -0.237 OA
ATOM     91  O   UNL     1      18.141   1.698  -8.553  1.00  0.00    -0.744 OA
ENDBRANCH  87  88
ENDBRANCH  55  80
BRANCH  67  92
ATOM     92  C   UNL     1       9.178  -0.389 -15.521  1.00  0.00     0.058 A 
ATOM     93  C   UNL     1      10.039  -0.970 -16.465  1.00  0.00     0.135 A 
ATOM     94  C   UNL     1       8.335   0.649 -15.948  1.00  0.00     0.135 A 
ATOM     95  F   UNL     1      10.869  -1.960 -16.102  1.00  0.00    -0.206 F 
ATOM     96  C   UNL     1      10.071  -0.530 -17.783  1.00  0.00     0.059 A 
ATOM     97  C   UNL     1       8.338   1.093 -17.267  1.00  0.00     0.059 A 
ATOM     98  F   UNL     1       7.489   1.232 -15.084  1.00  0.00    -0.206 F 
ATOM     99  C   UNL     1       9.216   0.502 -18.175  1.00  0.00     0.060 A 
BRANCH  99 100
ATOM    100  S   UNL     1       9.241   1.038 -19.899  1.00  0.00     0.124 S 
ATOM    101  O   UNL     1      10.479   1.807 -19.950  1.00  0.00    -0.237 OA
ATOM    102  O   UNL     1       9.252  -0.230 -20.622  1.00  0.00    -0.237 OA
ATOM    103  O   UNL     1       8.012   1.815 -20.031  1.00  0.00    -0.744 OA
ENDBRANCH  99 100
ENDBRANCH  67  92
ENDBRANCH  41  42
ENDBRANCH  33  36
ENDBRANCH  31  32
ENDBRANCH  30  31
ENDBRANCH   1  30
TORSDOF 18
