REMARK SMILES COC[C@@H](C)Nc1ccc([N+](=O)[O-])c(C(=O)NCCCCNC(=O)c2ccc(-c3c4nc(c(-c5c(F)cc(S(=O)(=O)[O-])cc5F)c5ccc([nH]5)c(-c5c(F)cc(S(=O)(=O)[O-])cc5F)c5nc(c(-c6c(F)cc(S(=O)(=O)[O-])cc6F)c6ccc3[nH]6)C=C5)C=C4)cc2)c1
REMARK SMILES IDX 19 1 18 2 17 3 15 4 16 5 14 7 7 8 8 9 91 10 9 11 10 12 6 13
REMARK SMILES IDX 4 15 5 16 3 17 2 18 1 19 11 20 12 21 13 22 20 23 21 24 22 25
REMARK SMILES IDX 23 26 24 28 25 29 26 30 90 31 27 32 89 33 28 34 29 35 30 36
REMARK SMILES IDX 83 37 31 38 88 39 82 40 84 41 32 42 87 43 81 44 80 45 33 47
REMARK SMILES IDX 67 48 46 49 66 50 47 51 50 52 65 53 85 54 48 55 49 56 64 58
REMARK SMILES IDX 86 59 51 60 34 61 35 62 44 63 36 64 37 65 43 66 45 67 38 68
REMARK SMILES IDX 39 69 40 70 41 71 42 72 68 73 69 74 78 75 70 76 71 77 77 78
REMARK SMILES IDX 79 79 72 80 73 81 74 82 75 83 76 84 52 85 53 86 62 87 54 88
REMARK SMILES IDX 55 89 61 90 63 91 56 92 57 93 58 94 59 95 60 96
REMARK H PARENT 17 6 6 14 22 27 84 46 50 57
REMARK Flexibility Score: inf
ROOT
ATOM      1  C   UNL     1      -1.512   1.964  -5.624  1.00  0.00     0.023 C 
ENDROOT
BRANCH   1   2
ATOM      2  C   UNL     1      -1.959   0.637  -5.028  1.00  0.00     0.116 C 
BRANCH   2   3
ATOM      3  N   UNL     1      -2.951  -0.095  -5.802  1.00  0.00    -0.352 N 
ATOM      4  C   UNL     1      -3.077  -1.438  -6.103  1.00  0.00     0.258 C 
ATOM      5  O   UNL     1      -4.023  -1.778  -6.806  1.00  0.00    -0.269 OA
ATOM      6  H   UNL     1      -3.662   0.471  -6.181  1.00  0.00     0.163 HD
BRANCH   4   7
ATOM      7  C   UNL     1      -2.071  -2.453  -5.675  1.00  0.00     0.119 A 
ATOM      8  C   UNL     1      -0.135  -2.976  -4.258  1.00  0.00     0.036 A 
ATOM      9  C   UNL     1       0.187  -4.029  -5.122  1.00  0.00     0.033 A 
ATOM     10  C   UNL     1      -1.322  -2.275  -4.505  1.00  0.00     0.046 A 
ATOM     11  C   UNL     1      -0.647  -4.364  -6.189  1.00  0.00     0.088 A 
ATOM     12  C   UNL     1      -1.773  -3.572  -6.452  1.00  0.00     0.282 A 
BRANCH   8  13
ATOM     13  N   UNL     1       0.706  -2.691  -3.199  1.00  0.00    -0.380 N 
ATOM     14  H   UNL     1       1.500  -3.262  -3.088  1.00  0.00     0.160 HD
BRANCH  13  15
ATOM     15  C   UNL     1       0.515  -1.608  -2.223  1.00  0.00     0.102 C 
ATOM     16  C   UNL     1       1.147  -0.324  -2.770  1.00  0.00     0.033 C 
BRANCH  15  17
ATOM     17  C   UNL     1       1.141  -2.031  -0.873  1.00  0.00     0.184 C 
BRANCH  17  18
ATOM     18  O   UNL     1       0.533  -1.428   0.270  1.00  0.00    -0.383 OA
ATOM     19  C   UNL     1       0.955  -0.098   0.529  1.00  0.00     0.194 C 
ENDBRANCH  17  18
ENDBRANCH  15  17
ENDBRANCH  13  15
ENDBRANCH   8  13
BRANCH  12  20
ATOM     20  N   UNL     1      -2.659  -4.036  -7.498  1.00  0.00     0.063 N 
ATOM     21  O   UNL     1      -2.240  -3.954  -8.661  1.00  0.00    -0.258 OA
ATOM     22  O   UNL     1      -3.683  -4.632  -7.134  1.00  0.00    -0.258 OA
ENDBRANCH  12  20
ENDBRANCH   4   7
ENDBRANCH   2   3
ENDBRANCH   1   2
BRANCH   1  23
ATOM     23  C   UNL     1      -2.574   3.046  -5.755  1.00  0.00     0.023 C 
BRANCH  23  24
ATOM     24  C   UNL     1      -3.375   3.359  -4.496  1.00  0.00     0.116 C 
BRANCH  24  25
ATOM     25  N   UNL     1      -2.556   3.747  -3.355  1.00  0.00    -0.352 N 
ATOM     26  C   UNL     1      -2.645   4.860  -2.546  1.00  0.00     0.251 C 
ATOM     27  H   UNL     1      -1.830   3.122  -3.129  1.00  0.00     0.163 HD
ATOM     28  O   UNL     1      -1.806   5.046  -1.673  1.00  0.00    -0.269 OA
BRANCH  26  29
ATOM     29  C   UNL     1      -3.727   5.846  -2.767  1.00  0.00     0.039 A 
ATOM     30  C   UNL     1      -3.396   7.201  -2.855  1.00  0.00     0.014 A 
ATOM     31  C   UNL     1      -5.050   5.435  -2.938  1.00  0.00     0.014 A 
ATOM     32  C   UNL     1      -4.375   8.129  -3.221  1.00  0.00     0.010 A 
ATOM     33  C   UNL     1      -6.005   6.347  -3.380  1.00  0.00     0.010 A 
ATOM     34  C   UNL     1      -5.674   7.701  -3.542  1.00  0.00    -0.014 A 
BRANCH  34  35
ATOM     35  C   UNL     1      -6.688   8.643  -4.087  1.00  0.00     0.031 A 
ATOM     36  C   UNL     1      -7.963   8.905  -3.334  1.00  0.00     0.074 A 
ATOM     37  C   UNL     1      -6.497   9.193  -5.303  1.00  0.00     0.049 A 
ATOM     38  N   UNL     1      -8.997   9.623  -3.689  1.00  0.00    -0.248 NA
ATOM     39  C   UNL     1      -8.107   8.251  -2.024  1.00  0.00     0.031 C 
ATOM     40  C   UNL     1      -5.330   8.968  -6.162  1.00  0.00     0.029 A 
ATOM     41  N   UNL     1      -7.287  10.041  -6.039  1.00  0.00    -0.354 N 
ATOM     42  C   UNL     1      -9.920   9.494  -2.658  1.00  0.00     0.074 A 
ATOM     43  C   UNL     1      -9.343   8.589  -1.687  1.00  0.00     0.031 C 
ATOM     44  C   UNL     1      -5.472   9.676  -7.293  1.00  0.00     0.029 A 
ATOM     45  C   UNL     1      -6.753  10.375  -7.262  1.00  0.00     0.049 A 
ATOM     46  H   UNL     1      -8.155  10.380  -5.721  1.00  0.00     0.167 HD
ATOM     47  C   UNL     1     -11.128  10.092  -2.521  1.00  0.00     0.037 A 
ATOM     48  C   UNL     1      -7.241  11.148  -8.251  1.00  0.00     0.037 A 
ATOM     49  C   UNL     1     -11.685  11.014  -3.477  1.00  0.00     0.049 A 
ATOM     50  C   UNL     1      -8.580  11.809  -8.073  1.00  0.00     0.074 A 
ATOM     51  C   UNL     1     -12.867  11.728  -3.394  1.00  0.00     0.029 A 
ATOM     52  N   UNL     1     -11.102  11.345  -4.691  1.00  0.00    -0.354 N 
ATOM     53  N   UNL     1      -9.406  11.735  -7.057  1.00  0.00    -0.248 NA
ATOM     54  C   UNL     1      -9.053  12.662  -9.172  1.00  0.00     0.031 C 
ATOM     55  C   UNL     1     -13.018  12.463  -4.575  1.00  0.00     0.029 A 
ATOM     56  C   UNL     1     -11.910  12.238  -5.377  1.00  0.00     0.049 A 
ATOM     57  H   UNL     1     -10.241  10.998  -5.018  1.00  0.00     0.167 HD
ATOM     58  C   UNL     1     -10.488  12.543  -7.386  1.00  0.00     0.074 A 
ATOM     59  C   UNL     1     -10.204  13.111  -8.689  1.00  0.00     0.031 C 
ATOM     60  C   UNL     1     -11.614  12.793  -6.674  1.00  0.00     0.037 A 
BRANCH  47  61
ATOM     61  C   UNL     1     -11.924   9.773  -1.286  1.00  0.00     0.058 A 
ATOM     62  C   UNL     1     -11.535  10.240  -0.020  1.00  0.00     0.135 A 
ATOM     63  C   UNL     1     -13.102   9.014  -1.370  1.00  0.00     0.135 A 
ATOM     64  F   UNL     1     -10.409  10.957   0.119  1.00  0.00    -0.206 F 
ATOM     65  C   UNL     1     -12.266   9.937   1.123  1.00  0.00     0.059 A 
ATOM     66  C   UNL     1     -13.865   8.722  -0.242  1.00  0.00     0.059 A 
ATOM     67  F   UNL     1     -13.521   8.544  -2.555  1.00  0.00    -0.206 F 
ATOM     68  C   UNL     1     -13.429   9.174   1.002  1.00  0.00     0.060 A 
BRANCH  68  69
ATOM     69  S   UNL     1     -14.364   8.785   2.497  1.00  0.00     0.124 S 
ATOM     70  O   UNL     1     -13.518   7.766   3.111  1.00  0.00    -0.237 OA
ATOM     71  O   UNL     1     -14.404  10.072   3.185  1.00  0.00    -0.237 OA
ATOM     72  O   UNL     1     -15.645   8.313   1.983  1.00  0.00    -0.744 OA
ENDBRANCH  68  69
ENDBRANCH  47  61
BRANCH  48  73
ATOM     73  C   UNL     1      -6.446  11.357  -9.490  1.00  0.00     0.058 A 
ATOM     74  C   UNL     1      -5.830  12.591  -9.749  1.00  0.00     0.135 A 
ATOM     75  C   UNL     1      -6.264  10.327 -10.425  1.00  0.00     0.135 A 
ATOM     76  F   UNL     1      -5.981  13.609  -8.889  1.00  0.00    -0.206 F 
ATOM     77  C   UNL     1      -5.071  12.800 -10.896  1.00  0.00     0.059 A 
ATOM     78  C   UNL     1      -5.491  10.504 -11.568  1.00  0.00     0.059 A 
ATOM     79  F   UNL     1      -6.819   9.123 -10.214  1.00  0.00    -0.206 F 
ATOM     80  C   UNL     1      -4.904  11.748 -11.799  1.00  0.00     0.060 A 
BRANCH  80  81
ATOM     81  S   UNL     1      -3.865  12.011 -13.252  1.00  0.00     0.124 S 
ATOM     82  O   UNL     1      -4.731  12.835 -14.087  1.00  0.00    -0.237 OA
ATOM     83  O   UNL     1      -2.701  12.682 -12.681  1.00  0.00    -0.237 OA
ATOM     84  O   UNL     1      -3.620  10.656 -13.737  1.00  0.00    -0.744 OA
ENDBRANCH  80  81
ENDBRANCH  48  73
BRANCH  60  85
ATOM     85  C   UNL     1     -12.619  13.733  -7.278  1.00  0.00     0.058 A 
ATOM     86  C   UNL     1     -13.439  13.344  -8.348  1.00  0.00     0.135 A 
ATOM     87  C   UNL     1     -12.800  15.021  -6.747  1.00  0.00     0.135 A 
ATOM     88  F   UNL     1     -13.300  12.127  -8.898  1.00  0.00    -0.206 F 
ATOM     89  C   UNL     1     -14.391  14.204  -8.884  1.00  0.00     0.059 A 
ATOM     90  C   UNL     1     -13.763  15.889  -7.250  1.00  0.00     0.059 A 
ATOM     91  F   UNL     1     -12.047  15.439  -5.717  1.00  0.00    -0.206 F 
ATOM     92  C   UNL     1     -14.548  15.475  -8.326  1.00  0.00     0.060 A 
BRANCH  92  93
ATOM     93  S   UNL     1     -15.813  16.569  -9.005  1.00  0.00     0.124 S 
ATOM     94  O   UNL     1     -15.191  17.000 -10.252  1.00  0.00    -0.237 OA
ATOM     95  O   UNL     1     -16.959  15.675  -9.144  1.00  0.00    -0.237 OA
ATOM     96  O   UNL     1     -15.953  17.602  -7.982  1.00  0.00    -0.744 OA
ENDBRANCH  92  93
ENDBRANCH  60  85
ENDBRANCH  34  35
ENDBRANCH  26  29
ENDBRANCH  24  25
ENDBRANCH  23  24
ENDBRANCH   1  23
TORSDOF 19
