REMARK SMILES COc1ccc(/C=C2/C(=O)N(c3ccccc3)C(=O)[NH+]=C2NCCCCNC(=O)c2ccc(-c3c4nc(c(-c5c(F)cc(S(=O)(=O)[O-])cc5F)c5ccc([nH]5)c(-c5c(F)cc(S(=O)(=O)[O-])cc5F)c5nc(c(-c6c(F)cc(S(=O)(=O)[O-])cc6F)c6ccc3[nH]6)C=C5)C=C4)cc2)cc1C(=O)[O-]
REMARK SMILES IDX 25 1 24 2 23 3 22 4 7 5 8 6 9 7 21 8 10 9 11 10 20 11 18 12
REMARK SMILES IDX 19 15 6 16 3 17 4 18 97 19 5 20 96 21 2 22 1 23 98 24 99 25
REMARK SMILES IDX 100 26 12 27 13 28 17 29 14 30 16 31 15 32 26 33 27 34 28 35
REMARK SMILES IDX 29 37 30 38 31 39 95 40 32 41 94 42 33 43 34 44 35 45 88 46
REMARK SMILES IDX 36 47 93 48 87 49 89 50 37 51 92 52 86 53 85 54 38 56 72 57
REMARK SMILES IDX 51 58 71 59 52 60 55 61 70 62 90 63 53 64 54 65 69 67 91 68
REMARK SMILES IDX 56 69 39 70 40 71 49 72 41 73 42 74 48 75 50 76 43 77 44 78
REMARK SMILES IDX 45 79 46 80 47 81 73 82 74 83 83 84 75 85 76 86 82 87 84 88
REMARK SMILES IDX 77 89 78 90 79 91 80 92 81 93 57 94 58 95 67 96 59 97 60 98
REMARK SMILES IDX 66 99 68 100 61 101 62 102 63 103 64 104 65 105
REMARK H PARENT 20 13 22 14 27 36 89 55 55 66
REMARK Flexibility Score: inf
ROOT
ATOM      1  C   UNL     1      -2.197  -1.318  -2.253  1.00  0.00     0.024 C 
ENDROOT
BRANCH   1   2
ATOM      2  C   UNL     1      -1.395  -1.767  -3.483  1.00  0.00     0.039 C 
BRANCH   2   3
ATOM      3  C   UNL     1      -1.452  -3.267  -3.736  1.00  0.00     0.194 C 
BRANCH   3   4
ATOM      4  N   UNL     1      -1.317  -3.602  -5.118  1.00  0.00    -0.305 N 
ATOM      5  C   UNL     1       2.104  -3.270  -5.681  1.00  0.00     0.030 C 
ATOM      6  C   UNL     1       1.039  -3.703  -6.409  1.00  0.00     0.129 C 
ATOM      7  C   UNL     1       1.476  -4.167  -7.802  1.00  0.00     0.328 C 
ATOM      8  C   UNL     1      -0.440  -3.812  -6.141  1.00  0.00     0.236 C 
ATOM      9  O   UNL     1       2.674  -4.186  -8.104  1.00  0.00    -0.249 OA
ATOM     10  N   UNL     1       0.473  -4.529  -8.692  1.00  0.00    -0.155 N 
ATOM     11  N   UNL     1      -1.242  -4.203  -7.099  1.00  0.00    -0.209 N 
ATOM     12  C   UNL     1      -0.871  -4.559  -8.348  1.00  0.00     0.448 C 
ATOM     13  H   UNL     1      -2.203  -4.241  -6.891  1.00  0.00     0.270 HD
ATOM     14  H   UNL     1      -2.224  -3.737  -5.477  1.00  0.00     0.256 HD
ATOM     15  O   UNL     1      -1.751  -4.948  -9.114  1.00  0.00    -0.212 OA
BRANCH   5  16
ATOM     16  C   UNL     1       2.278  -2.829  -4.293  1.00  0.00    -0.024 A 
ATOM     17  C   UNL     1       2.361  -1.870  -1.674  1.00  0.00     0.127 A 
ATOM     18  C   UNL     1       1.613  -3.000  -1.986  1.00  0.00     0.048 A 
ATOM     19  C   UNL     1       3.331  -1.444  -2.574  1.00  0.00     0.040 A 
ATOM     20  C   UNL     1       1.621  -3.507  -3.281  1.00  0.00     0.012 A 
ATOM     21  C   UNL     1       3.242  -1.873  -3.912  1.00  0.00     0.022 A 
BRANCH  17  22
ATOM     22  O   UNL     1       2.082  -1.267  -0.481  1.00  0.00    -0.496 OA
ATOM     23  C   UNL     1       1.765   0.129  -0.620  1.00  0.00     0.278 C 
ENDBRANCH  17  22
BRANCH  19  24
ATOM     24  C   UNL     1       4.515  -0.670  -2.119  1.00  0.00     0.075 C 
ATOM     25  O   UNL     1       5.277  -0.039  -2.829  1.00  0.00    -0.545 OA
ATOM     26  O   UNL     1       4.751  -0.840  -0.804  1.00  0.00    -0.545 OA
ENDBRANCH  19  24
ENDBRANCH   5  16
BRANCH  10  27
ATOM     27  C   UNL     1       0.813  -4.964 -10.020  1.00  0.00     0.111 A 
ATOM     28  C   UNL     1       0.104  -4.472 -11.130  1.00  0.00     0.044 A 
ATOM     29  C   UNL     1       1.790  -5.945 -10.232  1.00  0.00     0.044 A 
ATOM     30  C   UNL     1       0.351  -4.958 -12.414  1.00  0.00     0.004 A 
ATOM     31  C   UNL     1       2.022  -6.446 -11.518  1.00  0.00     0.004 A 
ATOM     32  C   UNL     1       1.304  -5.953 -12.606  1.00  0.00     0.000 A 
ENDBRANCH  10  27
ENDBRANCH   3   4
ENDBRANCH   2   3
ENDBRANCH   1   2
BRANCH   1  33
ATOM     33  C   UNL     1      -2.050  -2.135  -0.974  1.00  0.00     0.116 C 
BRANCH  33  34
ATOM     34  N   UNL     1      -0.885  -1.810  -0.167  1.00  0.00    -0.352 N 
ATOM     35  C   UNL     1      -0.774  -1.798   1.208  1.00  0.00     0.251 C 
ATOM     36  H   UNL     1      -0.071  -1.569  -0.666  1.00  0.00     0.163 HD
ATOM     37  O   UNL     1       0.272  -1.534   1.786  1.00  0.00    -0.269 OA
BRANCH  35  38
ATOM     38  C   UNL     1      -1.993  -2.015   1.988  1.00  0.00     0.039 A 
ATOM     39  C   UNL     1      -2.447  -0.963   2.785  1.00  0.00     0.014 A 
ATOM     40  C   UNL     1      -2.760  -3.155   1.758  1.00  0.00     0.014 A 
ATOM     41  C   UNL     1      -3.740  -1.013   3.284  1.00  0.00     0.010 A 
ATOM     42  C   UNL     1      -4.082  -3.148   2.160  1.00  0.00     0.010 A 
ATOM     43  C   UNL     1      -4.578  -2.079   2.926  1.00  0.00    -0.014 A 
BRANCH  43  44
ATOM     44  C   UNL     1      -5.982  -2.124   3.377  1.00  0.00     0.031 A 
ATOM     45  C   UNL     1      -6.408  -3.247   4.274  1.00  0.00     0.074 A 
ATOM     46  C   UNL     1      -6.858  -1.208   2.921  1.00  0.00     0.049 A 
ATOM     47  N   UNL     1      -7.598  -3.545   4.716  1.00  0.00    -0.248 NA
ATOM     48  C   UNL     1      -5.356  -4.192   4.688  1.00  0.00     0.031 C 
ATOM     49  C   UNL     1      -6.538  -0.105   2.010  1.00  0.00     0.029 A 
ATOM     50  N   UNL     1      -8.197  -1.057   3.164  1.00  0.00    -0.354 N 
ATOM     51  C   UNL     1      -7.441  -4.726   5.430  1.00  0.00     0.074 A 
ATOM     52  C   UNL     1      -6.062  -5.132   5.293  1.00  0.00     0.031 C 
ATOM     53  C   UNL     1      -7.640   0.636   1.811  1.00  0.00     0.029 A 
ATOM     54  C   UNL     1      -8.751   0.037   2.543  1.00  0.00     0.049 A 
ATOM     55  H   UNL     1      -8.714  -1.674   3.730  1.00  0.00     0.167 HD
ATOM     56  C   UNL     1      -8.362  -5.390   6.165  1.00  0.00     0.037 A 
ATOM     57  C   UNL     1     -10.015   0.499   2.575  1.00  0.00     0.037 A 
ATOM     58  C   UNL     1      -9.718  -4.937   6.311  1.00  0.00     0.049 A 
ATOM     59  C   UNL     1     -11.024  -0.253   3.399  1.00  0.00     0.074 A 
ATOM     60  C   UNL     1     -10.733  -5.483   7.072  1.00  0.00     0.029 A 
ATOM     61  N   UNL     1     -10.245  -3.820   5.675  1.00  0.00    -0.354 N 
ATOM     62  N   UNL     1     -10.854  -1.337   4.121  1.00  0.00    -0.248 NA
ATOM     63  C   UNL     1     -12.392   0.277   3.417  1.00  0.00     0.031 C 
ATOM     64  C   UNL     1     -11.888  -4.723   6.856  1.00  0.00     0.029 A 
ATOM     65  C   UNL     1     -11.579  -3.671   6.006  1.00  0.00     0.049 A 
ATOM     66  H   UNL     1      -9.742  -3.221   5.076  1.00  0.00     0.167 HD
ATOM     67  C   UNL     1     -12.086  -1.603   4.706  1.00  0.00     0.074 A 
ATOM     68  C   UNL     1     -12.988  -0.558   4.258  1.00  0.00     0.031 C 
ATOM     69  C   UNL     1     -12.443  -2.612   5.540  1.00  0.00     0.037 A 
BRANCH  56  70
ATOM     70  C   UNL     1      -7.918  -6.663   6.835  1.00  0.00     0.058 A 
ATOM     71  C   UNL     1      -6.951  -6.669   7.855  1.00  0.00     0.135 A 
ATOM     72  C   UNL     1      -8.431  -7.901   6.417  1.00  0.00     0.135 A 
ATOM     73  F   UNL     1      -6.409  -5.517   8.282  1.00  0.00    -0.206 F 
ATOM     74  C   UNL     1      -6.463  -7.857   8.391  1.00  0.00     0.059 A 
ATOM     75  C   UNL     1      -7.986  -9.100   6.967  1.00  0.00     0.059 A 
ATOM     76  F   UNL     1      -9.355  -7.958   5.445  1.00  0.00    -0.206 F 
ATOM     77  C   UNL     1      -6.982  -9.068   7.934  1.00  0.00     0.060 A 
BRANCH  77  78
ATOM     78  S   UNL     1      -6.313 -10.602   8.610  1.00  0.00     0.124 S 
ATOM     79  O   UNL     1      -5.005 -10.658   7.963  1.00  0.00    -0.237 OA
ATOM     80  O   UNL     1      -6.298 -10.331  10.044  1.00  0.00    -0.237 OA
ATOM     81  O   UNL     1      -7.272 -11.612   8.175  1.00  0.00    -0.744 OA
ENDBRANCH  77  78
ENDBRANCH  56  70
BRANCH  57  82
ATOM     82  C   UNL     1     -10.368   1.758   1.865  1.00  0.00     0.058 A 
ATOM     83  C   UNL     1     -10.657   2.927   2.586  1.00  0.00     0.135 A 
ATOM     84  C   UNL     1     -10.383   1.839   0.463  1.00  0.00     0.135 A 
ATOM     85  F   UNL     1     -10.659   2.902   3.927  1.00  0.00    -0.206 F 
ATOM     86  C   UNL     1     -10.952   4.127   1.947  1.00  0.00     0.059 A 
ATOM     87  C   UNL     1     -10.652   3.034  -0.199  1.00  0.00     0.059 A 
ATOM     88  F   UNL     1     -10.096   0.755  -0.276  1.00  0.00    -0.206 F 
ATOM     89  C   UNL     1     -10.939   4.172   0.552  1.00  0.00     0.060 A 
BRANCH  89  90
ATOM     90  S   UNL     1     -11.255   5.754  -0.262  1.00  0.00     0.124 S 
ATOM     91  O   UNL     1     -12.675   5.946   0.008  1.00  0.00    -0.237 OA
ATOM     92  O   UNL     1     -10.343   6.647   0.446  1.00  0.00    -0.237 OA
ATOM     93  O   UNL     1     -10.907   5.490  -1.655  1.00  0.00    -0.744 OA
ENDBRANCH  89  90
ENDBRANCH  57  82
BRANCH  69  94
ATOM     94  C   UNL     1     -13.858  -2.613   6.045  1.00  0.00     0.058 A 
ATOM     95  C   UNL     1     -14.938  -2.942   5.214  1.00  0.00     0.135 A 
ATOM     96  C   UNL     1     -14.124  -2.339   7.397  1.00  0.00     0.135 A 
ATOM     97  F   UNL     1     -14.736  -3.205   3.913  1.00  0.00    -0.206 F 
ATOM     98  C   UNL     1     -16.240  -2.977   5.700  1.00  0.00     0.059 A 
ATOM     99  C   UNL     1     -15.413  -2.401   7.912  1.00  0.00     0.059 A 
ATOM    100  F   UNL     1     -13.121  -2.031   8.235  1.00  0.00    -0.206 F 
ATOM    101  C   UNL     1     -16.466  -2.709   7.052  1.00  0.00     0.060 A 
BRANCH 101 102
ATOM    102  S   UNL     1     -18.155  -2.797   7.678  1.00  0.00     0.124 S 
ATOM    103  O   UNL     1     -18.742  -1.589   7.108  1.00  0.00    -0.237 OA
ATOM    104  O   UNL     1     -18.629  -4.059   7.117  1.00  0.00    -0.237 OA
ATOM    105  O   UNL     1     -17.982  -2.788   9.127  1.00  0.00    -0.744 OA
ENDBRANCH 101 102
ENDBRANCH  69  94
ENDBRANCH  43  44
ENDBRANCH  35  38
ENDBRANCH  33  34
ENDBRANCH   1  33
TORSDOF 17
