REMARK SMILES O=C(NCCCCNC(=O)[C@H](c1cnn(Cc2ccccc2)c1)[NH+]1CCOCC1)c1ccc(-c2c3nc(c(-c4c(F)cc(S(=O)(=O)[O-])cc4F)c4ccc([nH]4)c(-c4c(F)cc(S(=O)(=O)[O-])cc4F)c4nc(c(-c5c(F)cc(S(=O)(=O)[O-])cc5F)c5ccc2[nH]5)C=C4)C=C3)cc1
REMARK SMILES IDX 5 1 4 2 3 3 1 4 2 5 30 7 31 8 95 9 32 10 94 11 33 12 34 13
REMARK SMILES IDX 35 14 88 15 36 16 93 17 87 18 89 19 37 20 92 21 86 22 85 23
REMARK SMILES IDX 38 25 72 26 51 27 71 28 52 29 55 30 70 31 90 32 53 33 54 34
REMARK SMILES IDX 69 36 91 37 56 38 39 39 40 40 49 41 41 42 42 43 48 44 50 45
REMARK SMILES IDX 43 46 44 47 45 48 46 49 47 50 73 51 74 52 83 53 75 54 76 55
REMARK SMILES IDX 82 56 84 57 77 58 78 59 79 60 80 61 81 62 57 63 58 64 67 65
REMARK SMILES IDX 59 66 60 67 66 68 68 69 61 70 62 71 63 72 64 73 65 74 6 75
REMARK SMILES IDX 7 76 8 77 9 78 10 80 11 81 24 82 25 83 29 84 26 86 28 87
REMARK SMILES IDX 27 88 12 89 13 90 23 91 14 92 15 93 16 94 17 95 18 96 22 97
REMARK SMILES IDX 19 98 21 99 20 100
REMARK H PARENT 3 6 89 24 55 35 8 79 24 85
REMARK Flexibility Score: inf
ROOT
ATOM      1  C   UNL     1       4.213   6.005  -9.663  1.00  0.00     0.023 C 
ENDROOT
BRANCH   1   2
ATOM      2  C   UNL     1       2.847   6.406  -9.088  1.00  0.00     0.116 C 
BRANCH   2   3
ATOM      3  N   UNL     1       2.629   7.817  -8.828  1.00  0.00    -0.352 N 
ATOM      4  O   UNL     1       1.820   9.873  -8.984  1.00  0.00    -0.269 OA
ATOM      5  C   UNL     1       2.202   8.872  -9.596  1.00  0.00     0.251 C 
ATOM      6  H   UNL     1       2.831   8.073  -7.900  1.00  0.00     0.163 HD
BRANCH   5   7
ATOM      7  C   UNL     1       2.248   8.917 -11.084  1.00  0.00     0.039 A 
ATOM      8  C   UNL     1       2.480   7.820 -11.908  1.00  0.00     0.014 A 
ATOM      9  C   UNL     1       2.106  10.183 -11.684  1.00  0.00     0.014 A 
ATOM     10  C   UNL     1       2.719   7.992 -13.266  1.00  0.00     0.010 A 
ATOM     11  C   UNL     1       2.289  10.356 -13.056  1.00  0.00     0.010 A 
ATOM     12  C   UNL     1       2.650   9.263 -13.840  1.00  0.00    -0.014 A 
BRANCH  12  13
ATOM     13  C   UNL     1       2.849   9.350 -15.287  1.00  0.00     0.031 A 
ATOM     14  C   UNL     1       1.878   8.574 -16.116  1.00  0.00     0.074 A 
ATOM     15  C   UNL     1       3.748  10.158 -15.882  1.00  0.00     0.049 A 
ATOM     16  N   UNL     1       2.110   7.638 -16.980  1.00  0.00    -0.248 NA
ATOM     17  C   UNL     1       0.449   8.829 -15.879  1.00  0.00     0.031 C 
ATOM     18  C   UNL     1       4.562  11.206 -15.263  1.00  0.00     0.029 A 
ATOM     19  N   UNL     1       4.038  10.279 -17.210  1.00  0.00    -0.354 N 
ATOM     20  C   UNL     1       0.873   7.320 -17.542  1.00  0.00     0.074 A 
ATOM     21  C   UNL     1      -0.120   7.981 -16.735  1.00  0.00     0.031 C 
ATOM     22  C   UNL     1       5.075  11.995 -16.232  1.00  0.00     0.029 A 
ATOM     23  C   UNL     1       4.733  11.436 -17.530  1.00  0.00     0.049 A 
ATOM     24  H   UNL     1       3.779   9.606 -17.880  1.00  0.00     0.167 HD
ATOM     25  C   UNL     1       0.756   6.694 -18.747  1.00  0.00     0.037 A 
ATOM     26  C   UNL     1       4.936  11.945 -18.770  1.00  0.00     0.037 A 
ATOM     27  C   UNL     1       1.966   6.003 -19.109  1.00  0.00     0.049 A 
ATOM     28  C   UNL     1       4.751  10.848 -19.753  1.00  0.00     0.074 A 
ATOM     29  C   UNL     1       2.724   4.996 -18.541  1.00  0.00     0.029 A 
ATOM     30  N   UNL     1       2.748   6.531 -20.105  1.00  0.00    -0.354 N 
ATOM     31  N   UNL     1       5.550   9.824 -19.879  1.00  0.00    -0.248 NA
ATOM     32  C   UNL     1       3.446  10.698 -20.379  1.00  0.00     0.031 C 
ATOM     33  C   UNL     1       4.072   5.294 -18.898  1.00  0.00     0.029 A 
ATOM     34  C   UNL     1       4.048   6.451 -19.677  1.00  0.00     0.049 A 
ATOM     35  H   UNL     1       2.435   6.898 -20.964  1.00  0.00     0.167 HD
ATOM     36  C   UNL     1       4.724   8.769 -20.234  1.00  0.00     0.074 A 
ATOM     37  C   UNL     1       3.469   9.390 -20.642  1.00  0.00     0.031 C 
ATOM     38  C   UNL     1       5.037   7.480 -19.908  1.00  0.00     0.037 A 
BRANCH  25  39
ATOM     39  C   UNL     1      -0.335   6.993 -19.758  1.00  0.00     0.058 A 
ATOM     40  C   UNL     1      -0.420   6.217 -20.936  1.00  0.00     0.135 A 
ATOM     41  C   UNL     1      -1.091   8.186 -19.766  1.00  0.00     0.135 A 
ATOM     42  F   UNL     1       0.243   5.054 -21.039  1.00  0.00    -0.206 F 
ATOM     43  C   UNL     1      -1.103   6.653 -22.072  1.00  0.00     0.059 A 
ATOM     44  C   UNL     1      -1.825   8.611 -20.869  1.00  0.00     0.059 A 
ATOM     45  F   UNL     1      -1.077   9.052 -18.746  1.00  0.00    -0.206 F 
ATOM     46  C   UNL     1      -1.776   7.870 -22.036  1.00  0.00     0.060 A 
BRANCH  46  47
ATOM     47  S   UNL     1      -2.506   8.526 -23.547  1.00  0.00     0.124 S 
ATOM     48  O   UNL     1      -1.314   8.900 -24.299  1.00  0.00    -0.237 OA
ATOM     49  O   UNL     1      -3.249   7.377 -24.052  1.00  0.00    -0.237 OA
ATOM     50  O   UNL     1      -3.326   9.634 -23.066  1.00  0.00    -0.744 OA
ENDBRANCH  46  47
ENDBRANCH  25  39
BRANCH  26  51
ATOM     51  C   UNL     1       4.969  13.377 -19.165  1.00  0.00     0.058 A 
ATOM     52  C   UNL     1       5.461  13.780 -20.418  1.00  0.00     0.135 A 
ATOM     53  C   UNL     1       4.275  14.357 -18.425  1.00  0.00     0.135 A 
ATOM     54  F   UNL     1       6.106  12.904 -21.203  1.00  0.00    -0.206 F 
ATOM     55  C   UNL     1       5.247  15.067 -20.924  1.00  0.00     0.059 A 
ATOM     56  C   UNL     1       4.065  15.649 -18.899  1.00  0.00     0.059 A 
ATOM     57  F   UNL     1       3.696  14.062 -17.252  1.00  0.00    -0.206 F 
ATOM     58  C   UNL     1       4.533  15.991 -20.161  1.00  0.00     0.060 A 
BRANCH  58  59
ATOM     59  S   UNL     1       4.115  17.600 -20.870  1.00  0.00     0.124 S 
ATOM     60  O   UNL     1       5.417  18.257 -20.913  1.00  0.00    -0.237 OA
ATOM     61  O   UNL     1       3.544  17.230 -22.160  1.00  0.00    -0.237 OA
ATOM     62  O   UNL     1       3.167  18.158 -19.909  1.00  0.00    -0.744 OA
ENDBRANCH  58  59
ENDBRANCH  26  51
BRANCH  38  63
ATOM     63  C   UNL     1       6.447   7.171 -19.482  1.00  0.00     0.058 A 
ATOM     64  C   UNL     1       7.049   7.687 -18.322  1.00  0.00     0.135 A 
ATOM     65  C   UNL     1       7.157   6.189 -20.191  1.00  0.00     0.135 A 
ATOM     66  F   UNL     1       6.393   8.546 -17.528  1.00  0.00    -0.206 F 
ATOM     67  C   UNL     1       8.317   7.276 -17.909  1.00  0.00     0.059 A 
ATOM     68  C   UNL     1       8.410   5.740 -19.779  1.00  0.00     0.059 A 
ATOM     69  F   UNL     1       6.608   5.609 -21.272  1.00  0.00    -0.206 F 
ATOM     70  C   UNL     1       8.988   6.297 -18.641  1.00  0.00     0.060 A 
BRANCH  70  71
ATOM     71  S   UNL     1      10.579   5.687 -18.042  1.00  0.00     0.124 S 
ATOM     72  O   UNL     1      11.475   6.796 -18.368  1.00  0.00    -0.237 OA
ATOM     73  O   UNL     1      10.325   5.484 -16.615  1.00  0.00    -0.237 OA
ATOM     74  O   UNL     1      10.790   4.467 -18.806  1.00  0.00    -0.744 OA
ENDBRANCH  70  71
ENDBRANCH  38  63
ENDBRANCH  12  13
ENDBRANCH   5   7
ENDBRANCH   2   3
ENDBRANCH   1   2
BRANCH   1  75
ATOM     75  C   UNL     1       5.459   6.409  -8.874  1.00  0.00     0.023 C 
BRANCH  75  76
ATOM     76  C   UNL     1       5.439   6.084  -7.391  1.00  0.00     0.116 C 
BRANCH  76  77
ATOM     77  N   UNL     1       5.357   4.679  -7.066  1.00  0.00    -0.351 N 
ATOM     78  C   UNL     1       5.544   4.100  -5.833  1.00  0.00     0.283 C 
ATOM     79  H   UNL     1       5.144   4.069  -7.809  1.00  0.00     0.163 HD
ATOM     80  O   UNL     1       5.098   2.957  -5.688  1.00  0.00    -0.268 OA
BRANCH  78  81
ATOM     81  C   UNL     1       6.284   4.883  -4.701  1.00  0.00     0.308 C 
BRANCH  81  82
ATOM     82  N   UNL     1       5.409   5.620  -3.774  1.00  0.00    -0.317 N 
ATOM     83  C   UNL     1       4.017   5.215  -3.606  1.00  0.00     0.292 C 
ATOM     84  C   UNL     1       5.576   7.069  -3.694  1.00  0.00     0.292 C 
ATOM     85  H   UNL     1       5.853   5.232  -2.941  1.00  0.00     0.349 HD
ATOM     86  C   UNL     1       3.050   6.016  -4.486  1.00  0.00     0.221 C 
ATOM     87  C   UNL     1       4.538   7.883  -4.481  1.00  0.00     0.221 C 
ATOM     88  O   UNL     1       3.195   7.427  -4.283  1.00  0.00    -0.370 OA
ENDBRANCH  81  82
BRANCH  81  89
ATOM     89  C   UNL     1       7.124   3.955  -3.850  1.00  0.00     0.057 A 
ATOM     90  C   UNL     1       6.693   2.841  -3.087  1.00  0.00     0.145 A 
ATOM     91  C   UNL     1       8.490   3.991  -3.621  1.00  0.00     0.119 A 
ATOM     92  N   UNL     1       7.691   2.217  -2.458  1.00  0.00    -0.181 NA
ATOM     93  N   UNL     1       8.776   2.958  -2.767  1.00  0.00    -0.268 N 
BRANCH  93  94
ATOM     94  C   UNL     1      10.098   2.539  -2.312  1.00  0.00     0.179 C 
BRANCH  94  95
ATOM     95  C   UNL     1      10.337   2.816  -0.845  1.00  0.00    -0.027 A 
ATOM     96  C   UNL     1      11.285   3.766  -0.436  1.00  0.00     0.005 A 
ATOM     97  C   UNL     1       9.637   2.101   0.140  1.00  0.00     0.005 A 
ATOM     98  C   UNL     1      11.519   3.996   0.923  1.00  0.00     0.000 A 
ATOM     99  C   UNL     1       9.868   2.335   1.496  1.00  0.00     0.000 A 
ATOM    100  C   UNL     1      10.810   3.283   1.887  1.00  0.00     0.000 A 
ENDBRANCH  94  95
ENDBRANCH  93  94
ENDBRANCH  81  89
ENDBRANCH  78  81
ENDBRANCH  76  77
ENDBRANCH  75  76
ENDBRANCH   1  75
TORSDOF 18
