REMARK SMILES Cc1cc(C(=O)NCCCCNC(=O)c2ccc(-c3c4nc(c(-c5c(F)cc(S(=O)(=O)[O-])cc5F)c5ccc([nH]5)c(-c5c(F)cc(S(=O)(=O)[O-])cc5F)c5nc(c(-c6c(F)cc(S(=O)(=O)[O-])cc6F)c6ccc3[nH]6)C=C5)C=C4)cc2)ccc1NS(=O)(=O)c1c(F)cccc1F
REMARK SMILES IDX 9 1 8 2 7 3 5 4 6 5 4 7 1 8 2 9 3 10 83 11 82 12 81 13 84 14
REMARK SMILES IDX 85 16 86 17 87 18 88 19 89 20 94 21 90 22 91 23 93 24 95 25
REMARK SMILES IDX 92 26 10 27 11 28 12 29 13 30 14 32 15 33 16 34 80 35 17 36
REMARK SMILES IDX 79 37 18 38 19 39 20 40 73 41 21 42 78 43 72 44 74 45 22 46
REMARK SMILES IDX 77 47 71 48 70 49 23 51 57 52 36 53 56 54 37 55 40 56 55 57
REMARK SMILES IDX 75 58 38 59 39 60 54 62 76 63 41 64 24 65 25 66 34 67 26 68
REMARK SMILES IDX 27 69 33 70 35 71 28 72 29 73 30 74 31 75 32 76 58 77 59 78
REMARK SMILES IDX 68 79 60 80 61 81 67 82 69 83 62 84 63 85 64 86 65 87 66 88
REMARK SMILES IDX 42 89 43 90 52 91 44 92 45 93 51 94 53 95 46 96 47 97 48 98
REMARK SMILES IDX 49 99 50 100
REMARK H PARENT 7 6 84 15 12 31 74 50 40 61
REMARK Flexibility Score: inf
ROOT
ATOM      1  C   UNL     1      -4.712  -1.021  -1.393  1.00  0.00     0.023 C 
ENDROOT
BRANCH   1   2
ATOM      2  C   UNL     1      -4.161  -1.349   0.002  1.00  0.00     0.116 C 
BRANCH   2   3
ATOM      3  N   UNL     1      -3.147  -2.398   0.020  1.00  0.00    -0.352 N 
ATOM      4  C   UNL     1      -1.789  -2.400   0.241  1.00  0.00     0.251 C 
ATOM      5  O   UNL     1      -1.187  -3.471   0.155  1.00  0.00    -0.269 OA
ATOM      6  H   UNL     1      -3.512  -3.294  -0.165  1.00  0.00     0.163 HD
BRANCH   4   7
ATOM      7  C   UNL     1      -1.001  -1.161   0.476  1.00  0.00     0.040 A 
ATOM      8  C   UNL     1       2.451   0.057  -0.536  1.00  0.00     0.046 C 
ATOM      9  C   UNL     1       1.020   0.095  -0.073  1.00  0.00    -0.026 A 
ATOM     10  C   UNL     1       0.289  -1.104  -0.069  1.00  0.00     0.019 A 
ATOM     11  C   UNL     1       0.392   1.260   0.390  1.00  0.00     0.052 A 
ATOM     12  C   UNL     1      -0.742   1.135   1.192  1.00  0.00     0.028 A 
ATOM     13  C   UNL     1      -1.440  -0.080   1.235  1.00  0.00     0.016 A 
BRANCH  11  14
ATOM     14  N   UNL     1       0.880   2.510  -0.099  1.00  0.00    -0.279 N 
ATOM     15  H   UNL     1       1.713   2.481  -0.624  1.00  0.00     0.180 HD
BRANCH  14  16
ATOM     16  S   UNL     1       0.188   4.019   0.124  1.00  0.00     0.267 S 
ATOM     17  O   UNL     1       0.369   4.335   1.525  1.00  0.00    -0.201 OA
ATOM     18  O   UNL     1       0.766   4.855  -0.910  1.00  0.00    -0.201 OA
BRANCH  16  19
ATOM     19  C   UNL     1      -1.531   3.934  -0.203  1.00  0.00     0.158 A 
ATOM     20  C   UNL     1      -2.366   4.808   0.486  1.00  0.00     0.146 A 
ATOM     21  C   UNL     1      -2.094   2.970  -1.027  1.00  0.00     0.146 A 
ATOM     22  F   UNL     1      -1.866   5.816   1.212  1.00  0.00    -0.205 F 
ATOM     23  C   UNL     1      -3.752   4.668   0.427  1.00  0.00     0.041 A 
ATOM     24  C   UNL     1      -3.480   2.805  -1.075  1.00  0.00     0.041 A 
ATOM     25  F   UNL     1      -1.336   2.158  -1.776  1.00  0.00    -0.205 F 
ATOM     26  C   UNL     1      -4.312   3.643  -0.332  1.00  0.00     0.006 A 
ENDBRANCH  16  19
ENDBRANCH  14  16
ENDBRANCH  11  14
ENDBRANCH   4   7
ENDBRANCH   2   3
ENDBRANCH   1   2
BRANCH   1  27
ATOM     27  C   UNL     1      -5.551  -2.113  -2.063  1.00  0.00     0.023 C 
BRANCH  27  28
ATOM     28  C   UNL     1      -6.840  -2.455  -1.318  1.00  0.00     0.116 C 
BRANCH  28  29
ATOM     29  N   UNL     1      -8.070  -2.069  -1.996  1.00  0.00    -0.352 N 
ATOM     30  C   UNL     1      -9.380  -2.327  -1.605  1.00  0.00     0.251 C 
ATOM     31  H   UNL     1      -7.960  -1.562  -2.834  1.00  0.00     0.163 HD
ATOM     32  O   UNL     1     -10.318  -2.151  -2.357  1.00  0.00    -0.269 OA
BRANCH  30  33
ATOM     33  C   UNL     1      -9.605  -2.730  -0.195  1.00  0.00     0.039 A 
ATOM     34  C   UNL     1     -10.339  -1.859   0.619  1.00  0.00     0.014 A 
ATOM     35  C   UNL     1      -8.879  -3.779   0.358  1.00  0.00     0.014 A 
ATOM     36  C   UNL     1     -10.167  -1.904   2.001  1.00  0.00     0.010 A 
ATOM     37  C   UNL     1      -8.631  -3.759   1.715  1.00  0.00     0.010 A 
ATOM     38  C   UNL     1      -9.230  -2.787   2.531  1.00  0.00    -0.014 A 
BRANCH  38  39
ATOM     39  C   UNL     1      -8.716  -2.717   3.896  1.00  0.00     0.031 A 
ATOM     40  C   UNL     1      -9.004  -3.804   4.861  1.00  0.00     0.074 A 
ATOM     41  C   UNL     1      -7.833  -1.748   4.220  1.00  0.00     0.049 A 
ATOM     42  N   UNL     1      -8.778  -3.747   6.131  1.00  0.00    -0.248 NA
ATOM     43  C   UNL     1      -9.639  -5.050   4.455  1.00  0.00     0.031 C 
ATOM     44  C   UNL     1      -6.885  -1.754   5.330  1.00  0.00     0.029 A 
ATOM     45  N   UNL     1      -7.734  -0.462   3.699  1.00  0.00    -0.354 N 
ATOM     46  C   UNL     1      -8.938  -5.016   6.649  1.00  0.00     0.074 A 
ATOM     47  C   UNL     1      -9.564  -5.759   5.583  1.00  0.00     0.031 C 
ATOM     48  C   UNL     1      -6.463  -0.500   5.554  1.00  0.00     0.029 A 
ATOM     49  C   UNL     1      -7.255   0.382   4.713  1.00  0.00     0.049 A 
ATOM     50  H   UNL     1      -7.962  -0.190   2.780  1.00  0.00     0.167 HD
ATOM     51  C   UNL     1      -8.386  -5.308   7.866  1.00  0.00     0.037 A 
ATOM     52  C   UNL     1      -8.022   1.406   5.195  1.00  0.00     0.037 A 
ATOM     53  C   UNL     1      -7.888  -4.088   8.512  1.00  0.00     0.049 A 
ATOM     54  C   UNL     1      -8.419   1.257   6.648  1.00  0.00     0.074 A 
ATOM     55  C   UNL     1      -6.623  -3.537   8.641  1.00  0.00     0.029 A 
ATOM     56  N   UNL     1      -8.786  -3.091   8.886  1.00  0.00    -0.354 N 
ATOM     57  N   UNL     1      -8.304   0.148   7.325  1.00  0.00    -0.248 NA
ATOM     58  C   UNL     1      -8.987   2.338   7.451  1.00  0.00     0.031 C 
ATOM     59  C   UNL     1      -6.770  -2.175   9.009  1.00  0.00     0.029 A 
ATOM     60  C   UNL     1      -8.122  -1.904   9.132  1.00  0.00     0.049 A 
ATOM     61  H   UNL     1      -9.760  -3.216   8.965  1.00  0.00     0.167 HD
ATOM     62  C   UNL     1      -8.797   0.324   8.592  1.00  0.00     0.074 A 
ATOM     63  C   UNL     1      -9.184   1.722   8.631  1.00  0.00     0.031 C 
ATOM     64  C   UNL     1      -8.857  -0.699   9.496  1.00  0.00     0.037 A 
BRANCH  51  65
ATOM     65  C   UNL     1      -8.012  -6.715   8.332  1.00  0.00     0.058 A 
ATOM     66  C   UNL     1      -6.993  -6.908   9.297  1.00  0.00     0.135 A 
ATOM     67  C   UNL     1      -8.532  -7.918   7.814  1.00  0.00     0.135 A 
ATOM     68  F   UNL     1      -6.471  -5.880   9.979  1.00  0.00    -0.206 F 
ATOM     69  C   UNL     1      -6.454  -8.162   9.609  1.00  0.00     0.059 A 
ATOM     70  C   UNL     1      -7.983  -9.179   8.074  1.00  0.00     0.059 A 
ATOM     71  F   UNL     1      -9.644  -7.948   7.075  1.00  0.00    -0.206 F 
ATOM     72  C   UNL     1      -6.927  -9.292   8.961  1.00  0.00     0.060 A 
BRANCH  72  73
ATOM     73  S   UNL     1      -6.175 -10.893   9.303  1.00  0.00     0.124 S 
ATOM     74  O   UNL     1      -4.780 -10.658   8.943  1.00  0.00    -0.237 OA
ATOM     75  O   UNL     1      -6.446 -11.061  10.726  1.00  0.00    -0.237 OA
ATOM     76  O   UNL     1      -6.897 -11.804   8.418  1.00  0.00    -0.744 OA
ENDBRANCH  72  73
ENDBRANCH  51  65
BRANCH  52  77
ATOM     77  C   UNL     1      -8.827   2.075   4.137  1.00  0.00     0.058 A 
ATOM     78  C   UNL     1      -8.121   2.828   3.180  1.00  0.00     0.135 A 
ATOM     79  C   UNL     1     -10.102   1.604   3.786  1.00  0.00     0.135 A 
ATOM     80  F   UNL     1      -6.904   3.315   3.470  1.00  0.00    -0.206 F 
ATOM     81  C   UNL     1      -8.571   2.944   1.872  1.00  0.00     0.059 A 
ATOM     82  C   UNL     1     -10.575   1.715   2.477  1.00  0.00     0.059 A 
ATOM     83  F   UNL     1     -10.822   0.888   4.662  1.00  0.00    -0.206 F 
ATOM     84  C   UNL     1      -9.761   2.314   1.515  1.00  0.00     0.060 A 
BRANCH  84  85
ATOM     85  S   UNL     1     -10.085   2.100  -0.251  1.00  0.00     0.124 S 
ATOM     86  O   UNL     1     -10.083   3.478  -0.730  1.00  0.00    -0.237 OA
ATOM     87  O   UNL     1      -8.931   1.294  -0.652  1.00  0.00    -0.237 OA
ATOM     88  O   UNL     1     -11.373   1.420  -0.275  1.00  0.00    -0.744 OA
ENDBRANCH  84  85
ENDBRANCH  52  77
BRANCH  64  89
ATOM     89  C   UNL     1      -9.540  -0.640  10.840  1.00  0.00     0.058 A 
ATOM     90  C   UNL     1     -10.698   0.111  11.101  1.00  0.00     0.135 A 
ATOM     91  C   UNL     1      -9.105  -1.479  11.895  1.00  0.00     0.135 A 
ATOM     92  F   UNL     1     -11.268   0.863  10.147  1.00  0.00    -0.206 F 
ATOM     93  C   UNL     1     -11.345   0.083  12.338  1.00  0.00     0.059 A 
ATOM     94  C   UNL     1      -9.766  -1.563  13.118  1.00  0.00     0.059 A 
ATOM     95  F   UNL     1      -8.021  -2.259  11.764  1.00  0.00    -0.206 F 
ATOM     96  C   UNL     1     -10.873  -0.757  13.341  1.00  0.00     0.060 A 
BRANCH  96  97
ATOM     97  S   UNL     1     -11.736  -0.852  14.921  1.00  0.00     0.124 S 
ATOM     98  O   UNL     1     -11.005   0.134  15.711  1.00  0.00    -0.237 OA
ATOM     99  O   UNL     1     -13.105  -0.487  14.568  1.00  0.00    -0.237 OA
ATOM    100  O   UNL     1     -11.550  -2.245  15.315  1.00  0.00    -0.744 OA
ENDBRANCH  96  97
ENDBRANCH  64  89
ENDBRANCH  38  39
ENDBRANCH  30  33
ENDBRANCH  28  29
ENDBRANCH  27  28
ENDBRANCH   1  27
TORSDOF 17
