REMARK SMILES COC(=O)c1sc(SCC(=O)NCCCCNC(=O)c2ccc(-c3c4nc(c(-c5c(F)cc(S(=O)(=O)[O-])cc5F)c5ccc([nH]5)c(-c5c(F)cc(S(=O)(=O)[O-])cc5F)c5nc(c(-c6c(F)cc(S(=O)(=O)[O-])cc6F)c6ccc3[nH]6)C=C5)C=C4)cc2)c(NC(=O)c2ccccc2)c1O
REMARK SMILES IDX 14 1 13 2 12 3 10 4 11 5 9 7 8 8 7 9 5 10 6 11 96 12 86 13
REMARK SMILES IDX 3 14 4 15 2 16 1 17 97 18 87 20 88 21 89 23 90 24 91 25
REMARK SMILES IDX 95 26 92 27 94 28 93 29 15 30 16 31 17 32 18 33 19 35 20 36
REMARK SMILES IDX 21 37 85 38 22 39 84 40 23 41 24 42 25 43 78 44 26 45 83 46
REMARK SMILES IDX 77 47 79 48 27 49 82 50 76 51 75 52 28 54 62 55 41 56 61 57
REMARK SMILES IDX 42 58 45 59 60 60 80 61 43 62 44 63 59 65 81 66 46 67 29 68
REMARK SMILES IDX 30 69 39 70 31 71 32 72 38 73 40 74 33 75 34 76 35 77 36 78
REMARK SMILES IDX 37 79 63 80 64 81 73 82 65 83 66 84 72 85 74 86 67 87 68 88
REMARK SMILES IDX 69 89 70 90 71 91 47 92 48 93 57 94 49 95 50 96 56 97 58 98
REMARK SMILES IDX 51 99 52 100 53 101 54 102 55 103
REMARK H PARENT 12 6 97 19 87 22 17 34 79 53 45 64
REMARK Flexibility Score: inf
ROOT
ATOM      1  C   UNL     1       1.198  -0.054  -9.268  1.00  0.00     0.023 C 
ENDROOT
BRANCH   1   2
ATOM      2  C   UNL     1       0.146   0.529 -10.217  1.00  0.00     0.116 C 
BRANCH   2   3
ATOM      3  N   UNL     1      -1.193   0.518  -9.680  1.00  0.00    -0.355 N 
ATOM      4  C   UNL     1      -1.951   1.527  -9.138  1.00  0.00     0.230 C 
ATOM      5  O   UNL     1      -3.123   1.228  -8.889  1.00  0.00    -0.274 OA
ATOM      6  H   UNL     1      -1.638  -0.359  -9.706  1.00  0.00     0.163 HD
BRANCH   4   7
ATOM      7  C   UNL     1      -1.296   3.149  -8.904  1.00  0.00     0.175 C 
BRANCH   7   8
ATOM      8  S   UNL     1      -0.539   4.288  -6.725  1.00  0.00    -0.103 SA
BRANCH   8   9
ATOM      9  C   UNL     1      -0.531   3.265  -5.138  1.00  0.00     0.089 A 
ATOM     10  C   UNL     1       0.250   2.119  -3.045  1.00  0.00     0.157 A 
ATOM     11  S   UNL     1       0.909   3.241  -4.170  1.00  0.00    -0.116 S 
ATOM     12  C   UNL     1      -1.049   1.811  -3.382  1.00  0.00     0.166 A 
ATOM     13  C   UNL     1      -1.521   2.478  -4.544  1.00  0.00     0.109 A 
BRANCH  10  14
ATOM     14  C   UNL     1       1.040   1.645  -1.923  1.00  0.00     0.352 C 
ATOM     15  O   UNL     1       2.114   2.085  -1.535  1.00  0.00    -0.245 OA
BRANCH  14  16
ATOM     16  O   UNL     1       0.373   0.610  -1.316  1.00  0.00    -0.465 OA
ATOM     17  C   UNL     1       0.971   0.091  -0.125  1.00  0.00     0.282 C 
ENDBRANCH  14  16
ENDBRANCH  10  14
BRANCH  12  18
ATOM     18  O   UNL     1      -1.827   0.935  -2.702  1.00  0.00    -0.504 OA
ATOM     19  H   UNL     1      -1.494   0.508  -1.938  1.00  0.00     0.293 HD
ENDBRANCH  12  18
BRANCH  13  20
ATOM     20  N   UNL     1      -2.824   2.242  -4.968  1.00  0.00    -0.317 N 
ATOM     21  C   UNL     1      -3.357   2.631  -6.156  1.00  0.00     0.255 C 
ATOM     22  H   UNL     1      -3.413   1.748  -4.353  1.00  0.00     0.170 HD
ATOM     23  O   UNL     1      -4.555   2.742  -6.359  1.00  0.00    -0.269 OA
BRANCH  21  24
ATOM     24  C   UNL     1      -2.362   2.980  -7.164  1.00  0.00     0.040 A 
ATOM     25  C   UNL     1      -2.534   4.587  -7.928  1.00  0.00     0.014 A 
ATOM     26  C   UNL     1      -0.765   2.068  -7.273  1.00  0.00     0.014 A 
ATOM     27  C   UNL     1      -1.142   5.289  -8.806  1.00  0.00     0.001 A 
ATOM     28  C   UNL     1       0.623   2.835  -8.135  1.00  0.00     0.001 A 
ATOM     29  C   UNL     1       0.422   4.445  -8.890  1.00  0.00     0.000 A 
ENDBRANCH  21  24
ENDBRANCH  13  20
ENDBRANCH   8   9
ENDBRANCH   7   8
ENDBRANCH   4   7
ENDBRANCH   2   3
ENDBRANCH   1   2
BRANCH   1  30
ATOM     30  C   UNL     1       1.239  -1.569  -9.085  1.00  0.00     0.023 C 
BRANCH  30  31
ATOM     31  C   UNL     1       1.381  -2.350 -10.374  1.00  0.00     0.116 C 
BRANCH  31  32
ATOM     32  N   UNL     1       2.537  -1.928 -11.174  1.00  0.00    -0.352 N 
ATOM     33  C   UNL     1       2.847  -2.311 -12.471  1.00  0.00     0.251 C 
ATOM     34  H   UNL     1       3.163  -1.303 -10.742  1.00  0.00     0.163 HD
ATOM     35  O   UNL     1       3.981  -2.207 -12.917  1.00  0.00    -0.269 OA
BRANCH  33  36
ATOM     36  C   UNL     1       1.733  -2.780 -13.308  1.00  0.00     0.039 A 
ATOM     37  C   UNL     1       1.751  -3.952 -14.059  1.00  0.00     0.014 A 
ATOM     38  C   UNL     1       0.576  -2.025 -13.186  1.00  0.00     0.014 A 
ATOM     39  C   UNL     1       0.558  -4.358 -14.656  1.00  0.00     0.010 A 
ATOM     40  C   UNL     1      -0.620  -2.599 -13.475  1.00  0.00     0.010 A 
ATOM     41  C   UNL     1      -0.628  -3.664 -14.349  1.00  0.00    -0.014 A 
BRANCH  41  42
ATOM     42  C   UNL     1      -1.948  -4.076 -14.793  1.00  0.00     0.031 A 
ATOM     43  C   UNL     1      -2.269  -5.458 -14.366  1.00  0.00     0.074 A 
ATOM     44  C   UNL     1      -2.848  -3.198 -15.303  1.00  0.00     0.049 A 
ATOM     45  N   UNL     1      -2.210  -6.525 -15.088  1.00  0.00    -0.248 NA
ATOM     46  C   UNL     1      -2.410  -5.734 -12.923  1.00  0.00     0.031 C 
ATOM     47  C   UNL     1      -2.740  -1.738 -15.459  1.00  0.00     0.029 A 
ATOM     48  N   UNL     1      -4.115  -3.435 -15.743  1.00  0.00    -0.354 N 
ATOM     49  C   UNL     1      -2.630  -7.556 -14.257  1.00  0.00     0.074 A 
ATOM     50  C   UNL     1      -2.463  -7.069 -12.915  1.00  0.00     0.031 C 
ATOM     51  C   UNL     1      -3.954  -1.206 -15.738  1.00  0.00     0.029 A 
ATOM     52  C   UNL     1      -4.892  -2.288 -15.960  1.00  0.00     0.049 A 
ATOM     53  H   UNL     1      -4.460  -4.344 -15.898  1.00  0.00     0.167 HD
ATOM     54  C   UNL     1      -3.374  -8.581 -14.759  1.00  0.00     0.037 A 
ATOM     55  C   UNL     1      -6.210  -2.263 -16.310  1.00  0.00     0.037 A 
ATOM     56  C   UNL     1      -3.320  -8.575 -16.205  1.00  0.00     0.049 A 
ATOM     57  C   UNL     1      -6.504  -3.604 -16.892  1.00  0.00     0.074 A 
ATOM     58  C   UNL     1      -2.311  -8.692 -17.141  1.00  0.00     0.029 A 
ATOM     59  N   UNL     1      -4.373  -7.980 -16.859  1.00  0.00    -0.354 N 
ATOM     60  N   UNL     1      -5.940  -4.049 -17.986  1.00  0.00    -0.248 NA
ATOM     61  C   UNL     1      -6.971  -4.626 -15.967  1.00  0.00     0.031 C 
ATOM     62  C   UNL     1      -2.632  -7.734 -18.149  1.00  0.00     0.029 A 
ATOM     63  C   UNL     1      -3.869  -7.165 -17.841  1.00  0.00     0.049 A 
ATOM     64  H   UNL     1      -5.327  -8.115 -16.657  1.00  0.00     0.167 HD
ATOM     65  C   UNL     1      -5.592  -5.363 -17.700  1.00  0.00     0.074 A 
ATOM     66  C   UNL     1      -6.280  -5.667 -16.442  1.00  0.00     0.031 C 
ATOM     67  C   UNL     1      -4.543  -5.977 -18.328  1.00  0.00     0.037 A 
BRANCH  54  68
ATOM     68  C   UNL     1      -4.473  -9.298 -14.006  1.00  0.00     0.058 A 
ATOM     69  C   UNL     1      -5.096 -10.408 -14.614  1.00  0.00     0.135 A 
ATOM     70  C   UNL     1      -5.124  -8.794 -12.857  1.00  0.00     0.135 A 
ATOM     71  F   UNL     1      -4.569 -10.972 -15.712  1.00  0.00    -0.206 F 
ATOM     72  C   UNL     1      -6.311 -10.926 -14.163  1.00  0.00     0.059 A 
ATOM     73  C   UNL     1      -6.309  -9.327 -12.362  1.00  0.00     0.059 A 
ATOM     74  F   UNL     1      -4.701  -7.708 -12.203  1.00  0.00    -0.206 F 
ATOM     75  C   UNL     1      -6.914 -10.369 -13.041  1.00  0.00     0.060 A 
BRANCH  75  76
ATOM     76  S   UNL     1      -8.510 -10.997 -12.493  1.00  0.00     0.124 S 
ATOM     77  O   UNL     1      -9.376 -10.595 -13.595  1.00  0.00    -0.237 OA
ATOM     78  O   UNL     1      -8.242 -12.427 -12.377  1.00  0.00    -0.237 OA
ATOM     79  O   UNL     1      -8.728 -10.302 -11.228  1.00  0.00    -0.744 OA
ENDBRANCH  75  76
ENDBRANCH  54  68
BRANCH  55  80
ATOM     80  C   UNL     1      -7.289  -1.380 -15.766  1.00  0.00     0.058 A 
ATOM     81  C   UNL     1      -8.568  -1.310 -16.355  1.00  0.00     0.135 A 
ATOM     82  C   UNL     1      -7.178  -0.815 -14.480  1.00  0.00     0.135 A 
ATOM     83  F   UNL     1      -8.780  -1.847 -17.567  1.00  0.00    -0.206 F 
ATOM     84  C   UNL     1      -9.675  -0.749 -15.695  1.00  0.00     0.059 A 
ATOM     85  C   UNL     1      -8.264  -0.252 -13.803  1.00  0.00     0.059 A 
ATOM     86  F   UNL     1      -6.022  -0.877 -13.803  1.00  0.00    -0.206 F 
ATOM     87  C   UNL     1      -9.516  -0.238 -14.407  1.00  0.00     0.060 A 
BRANCH  87  88
ATOM     88  S   UNL     1     -10.963   0.350 -13.485  1.00  0.00     0.124 S 
ATOM     89  O   UNL     1     -11.329   1.551 -14.228  1.00  0.00    -0.237 OA
ATOM     90  O   UNL     1     -11.885  -0.775 -13.603  1.00  0.00    -0.237 OA
ATOM     91  O   UNL     1     -10.439   0.583 -12.142  1.00  0.00    -0.744 OA
ENDBRANCH  87  88
ENDBRANCH  55  80
BRANCH  67  92
ATOM     92  C   UNL     1      -3.926  -5.304 -19.534  1.00  0.00     0.058 A 
ATOM     93  C   UNL     1      -3.193  -4.102 -19.514  1.00  0.00     0.135 A 
ATOM     94  C   UNL     1      -3.935  -6.020 -20.739  1.00  0.00     0.135 A 
ATOM     95  F   UNL     1      -3.057  -3.397 -18.383  1.00  0.00    -0.206 F 
ATOM     96  C   UNL     1      -2.521  -3.627 -20.647  1.00  0.00     0.059 A 
ATOM     97  C   UNL     1      -3.251  -5.583 -21.869  1.00  0.00     0.059 A 
ATOM     98  F   UNL     1      -4.567  -7.203 -20.811  1.00  0.00    -0.206 F 
ATOM     99  C   UNL     1      -2.553  -4.379 -21.822  1.00  0.00     0.060 A 
BRANCH  99 100
ATOM    100  S   UNL     1      -1.638  -3.813 -23.274  1.00  0.00     0.124 S 
ATOM    101  O   UNL     1      -2.388  -2.624 -23.666  1.00  0.00    -0.237 OA
ATOM    102  O   UNL     1      -0.303  -3.571 -22.733  1.00  0.00    -0.237 OA
ATOM    103  O   UNL     1      -1.730  -4.941 -24.198  1.00  0.00    -0.744 OA
ENDBRANCH  99 100
ENDBRANCH  67  92
ENDBRANCH  41  42
ENDBRANCH  33  36
ENDBRANCH  31  32
ENDBRANCH  30  31
ENDBRANCH   1  30
TORSDOF 21
