REMARK SMILES CC/C(=C/C(=O)[C@H](Cc1ccc(Cl)cc1Cl)C(=O)NCCCCNC(=O)c1ccc(-c2c3nc(c(-c4c(F)cc(S(=O)(=O)[O-])cc4F)c4ccc([nH]4)c(-c4c(F)cc(S(=O)(=O)[O-])cc4F)c4nc(c(-c5c(F)cc(S(=O)(=O)[O-])cc5F)c5ccc2[nH]5)C=C4)C=C3)cc1)N(C)C
REMARK SMILES IDX 21 1 20 2 19 3 17 4 18 5 7 7 5 8 6 9 4 10 3 11 2 12 1 13
REMARK SMILES IDX 93 14 94 15 95 16 8 17 9 18 10 19 15 20 11 21 14 22 16 23
REMARK SMILES IDX 12 24 13 25 22 26 23 27 24 28 25 29 26 31 27 32 28 33 92 34
REMARK SMILES IDX 29 35 91 36 30 37 31 38 32 39 85 40 33 41 90 42 84 43 86 44
REMARK SMILES IDX 34 45 89 46 83 47 82 48 35 50 69 51 48 52 68 53 49 54 52 55
REMARK SMILES IDX 67 56 87 57 50 58 51 59 66 61 88 62 53 63 36 64 37 65 46 66
REMARK SMILES IDX 38 67 39 68 45 69 47 70 40 71 41 72 42 73 43 74 44 75 70 76
REMARK SMILES IDX 71 77 80 78 72 79 73 80 79 81 81 82 74 83 75 84 76 85 77 86
REMARK SMILES IDX 78 87 54 88 55 89 64 90 56 91 57 92 63 93 65 94 58 95 59 96
REMARK SMILES IDX 60 97 61 98 62 99
REMARK H PARENT 19 6 24 30 86 49 52 60
REMARK Flexibility Score: inf
ROOT
ATOM      1  C   UNL     1       1.048  -0.560   0.946  1.00  0.00     0.023 C 
ENDROOT
BRANCH   1   2
ATOM      2  C   UNL     1       2.339  -1.351   0.711  1.00  0.00     0.116 C 
BRANCH   2   3
ATOM      3  N   UNL     1       2.990  -1.735   1.939  1.00  0.00    -0.355 N 
ATOM      4  C   UNL     1       2.890  -2.840   2.721  1.00  0.00     0.231 C 
ATOM      5  O   UNL     1       3.618  -2.836   3.724  1.00  0.00    -0.274 OA
ATOM      6  H   UNL     1       3.631  -1.067   2.275  1.00  0.00     0.163 HD
BRANCH   4   7
ATOM      7  C   UNL     1       1.911  -3.999   2.503  1.00  0.00     0.154 C 
BRANCH   7   8
ATOM      8  C   UNL     1       2.564  -5.378   2.390  1.00  0.00     0.170 C 
ATOM      9  O   UNL     1       3.771  -5.569   2.534  1.00  0.00    -0.294 OA
BRANCH   8  10
ATOM     10  C   UNL     1       1.740  -6.553   1.979  1.00  0.00     0.069 C 
ATOM     11  C   UNL     1       0.468  -6.840   2.322  1.00  0.00     0.016 C 
BRANCH  11  12
ATOM     12  C   UNL     1      -0.289  -7.662   1.278  1.00  0.00     0.050 C 
ATOM     13  C   UNL     1      -0.858  -8.975   1.779  1.00  0.00     0.010 C 
ENDBRANCH  11  12
BRANCH  11  14
ATOM     14  N   UNL     1      -0.233  -6.343   3.435  1.00  0.00    -0.381 N 
ATOM     15  C   UNL     1      -1.685  -6.133   3.474  1.00  0.00     0.143 C 
ATOM     16  C   UNL     1       0.405  -6.098   4.739  1.00  0.00     0.143 C 
ENDBRANCH  11  14
ENDBRANCH   8  10
ENDBRANCH   7   8
BRANCH   7  17
ATOM     17  C   UNL     1       0.606  -3.739   1.730  1.00  0.00     0.059 C 
BRANCH  17  18
ATOM     18  C   UNL     1       0.221  -4.016   0.284  1.00  0.00    -0.028 A 
ATOM     19  C   UNL     1      -1.129  -3.686  -0.007  1.00  0.00     0.007 A 
ATOM     20  C   UNL     1       0.972  -4.580  -0.758  1.00  0.00     0.045 A 
ATOM     21  C   UNL     1      -1.721  -3.976  -1.235  1.00  0.00     0.021 A 
ATOM     22  C   UNL     1       0.364  -4.909  -1.982  1.00  0.00     0.041 A 
ATOM     23  Cl  UNL     1       2.672  -4.848  -0.688  1.00  0.00    -0.084 Cl
ATOM     24  C   UNL     1      -0.977  -4.620  -2.208  1.00  0.00     0.042 A 
ATOM     25  Cl  UNL     1      -1.716  -5.054  -3.699  1.00  0.00    -0.084 Cl
ENDBRANCH  17  18
ENDBRANCH   7  17
ENDBRANCH   4   7
ENDBRANCH   2   3
ENDBRANCH   1   2
BRANCH   1  26
ATOM     26  C   UNL     1       1.205   0.941   1.117  1.00  0.00     0.023 C 
BRANCH  26  27
ATOM     27  C   UNL     1       1.972   1.622   0.007  1.00  0.00     0.116 C 
BRANCH  27  28
ATOM     28  N   UNL     1       1.498   1.293  -1.331  1.00  0.00    -0.352 N 
ATOM     29  C   UNL     1       1.613   2.077  -2.455  1.00  0.00     0.251 C 
ATOM     30  H   UNL     1       1.051   0.423  -1.441  1.00  0.00     0.163 HD
ATOM     31  O   UNL     1       1.106   1.743  -3.519  1.00  0.00    -0.269 OA
BRANCH  29  32
ATOM     32  C   UNL     1       2.325   3.358  -2.310  1.00  0.00     0.039 A 
ATOM     33  C   UNL     1       1.650   4.544  -2.596  1.00  0.00     0.014 A 
ATOM     34  C   UNL     1       3.597   3.371  -1.732  1.00  0.00     0.014 A 
ATOM     35  C   UNL     1       2.239   5.758  -2.247  1.00  0.00     0.010 A 
ATOM     36  C   UNL     1       4.128   4.570  -1.289  1.00  0.00     0.010 A 
ATOM     37  C   UNL     1       3.465   5.776  -1.561  1.00  0.00    -0.014 A 
BRANCH  37  38
ATOM     38  C   UNL     1       4.113   7.050  -1.173  1.00  0.00     0.031 A 
ATOM     39  C   UNL     1       5.452   7.395  -1.766  1.00  0.00     0.074 A 
ATOM     40  C   UNL     1       3.537   7.852  -0.256  1.00  0.00     0.049 A 
ATOM     41  N   UNL     1       6.234   8.409  -1.508  1.00  0.00    -0.248 NA
ATOM     42  C   UNL     1       6.005   6.449  -2.752  1.00  0.00     0.031 C 
ATOM     43  C   UNL     1       2.270   7.587   0.430  1.00  0.00     0.029 A 
ATOM     44  N   UNL     1       3.948   9.053   0.262  1.00  0.00    -0.354 N 
ATOM     45  C   UNL     1       7.373   8.210  -2.279  1.00  0.00     0.074 A 
ATOM     46  C   UNL     1       7.214   6.945  -2.958  1.00  0.00     0.031 C 
ATOM     47  C   UNL     1       1.994   8.611   1.256  1.00  0.00     0.029 A 
ATOM     48  C   UNL     1       3.076   9.587   1.182  1.00  0.00     0.049 A 
ATOM     49  H   UNL     1       4.789   9.492   0.000  1.00  0.00     0.167 HD
ATOM     50  C   UNL     1       8.439   9.027  -2.437  1.00  0.00     0.037 A 
ATOM     51  C   UNL     1       3.147  10.736   1.881  1.00  0.00     0.037 A 
ATOM     52  C   UNL     1       8.562  10.307  -1.796  1.00  0.00     0.049 A 
ATOM     53  C   UNL     1       4.329  11.644   1.665  1.00  0.00     0.074 A 
ATOM     54  C   UNL     1       9.569  11.244  -1.930  1.00  0.00     0.029 A 
ATOM     55  N   UNL     1       7.636  10.834  -0.906  1.00  0.00    -0.354 N 
ATOM     56  N   UNL     1       5.370  11.470   0.886  1.00  0.00    -0.248 NA
ATOM     57  C   UNL     1       4.341  12.909   2.412  1.00  0.00     0.031 C 
ATOM     58  C   UNL     1       9.268  12.326  -1.096  1.00  0.00     0.029 A 
ATOM     59  C   UNL     1       8.052  12.081  -0.477  1.00  0.00     0.049 A 
ATOM     60  H   UNL     1       6.807  10.386  -0.622  1.00  0.00     0.167 HD
ATOM     61  C   UNL     1       6.145  12.615   1.025  1.00  0.00     0.074 A 
ATOM     62  C   UNL     1       5.448  13.479   1.956  1.00  0.00     0.031 C 
ATOM     63  C   UNL     1       7.327  12.928   0.436  1.00  0.00     0.037 A 
BRANCH  50  64
ATOM     64  C   UNL     1       9.537   8.565  -3.353  1.00  0.00     0.058 A 
ATOM     65  C   UNL     1       9.350   8.485  -4.743  1.00  0.00     0.135 A 
ATOM     66  C   UNL     1      10.796   8.211  -2.841  1.00  0.00     0.135 A 
ATOM     67  F   UNL     1       8.159   8.788  -5.284  1.00  0.00    -0.206 F 
ATOM     68  C   UNL     1      10.360   8.041  -5.589  1.00  0.00     0.059 A 
ATOM     69  C   UNL     1      11.831   7.794  -3.672  1.00  0.00     0.059 A 
ATOM     70  F   UNL     1      11.027   8.264  -1.520  1.00  0.00    -0.206 F 
ATOM     71  C   UNL     1      11.598   7.698  -5.044  1.00  0.00     0.060 A 
BRANCH  71  72
ATOM     72  S   UNL     1      12.902   7.136  -6.157  1.00  0.00     0.124 S 
ATOM     73  O   UNL     1      12.441   5.791  -6.489  1.00  0.00    -0.237 OA
ATOM     74  O   UNL     1      12.832   8.113  -7.239  1.00  0.00    -0.237 OA
ATOM     75  O   UNL     1      14.105   7.202  -5.333  1.00  0.00    -0.744 OA
ENDBRANCH  71  72
ENDBRANCH  50  64
BRANCH  51  76
ATOM     76  C   UNL     1       2.054  11.112   2.817  1.00  0.00     0.058 A 
ATOM     77  C   UNL     1       1.182  12.170   2.519  1.00  0.00     0.135 A 
ATOM     78  C   UNL     1       1.855  10.424   4.024  1.00  0.00     0.135 A 
ATOM     79  F   UNL     1       1.333  12.861   1.378  1.00  0.00    -0.206 F 
ATOM     80  C   UNL     1       0.167  12.549   3.392  1.00  0.00     0.059 A 
ATOM     81  C   UNL     1       0.831  10.768   4.902  1.00  0.00     0.059 A 
ATOM     82  F   UNL     1       2.648   9.391   4.348  1.00  0.00    -0.206 F 
ATOM     83  C   UNL     1      -0.000  11.841   4.583  1.00  0.00     0.060 A 
BRANCH  83  84
ATOM     84  S   UNL     1      -1.344  12.316   5.692  1.00  0.00     0.124 S 
ATOM     85  O   UNL     1      -0.827  13.551   6.268  1.00  0.00    -0.237 OA
ATOM     86  O   UNL     1      -2.467  12.461   4.770  1.00  0.00    -0.237 OA
ATOM     87  O   UNL     1      -1.439  11.182   6.607  1.00  0.00    -0.744 OA
ENDBRANCH  83  84
ENDBRANCH  51  76
BRANCH  63  88
ATOM     88  C   UNL     1       7.917  14.274   0.744  1.00  0.00     0.058 A 
ATOM     89  C   UNL     1       8.518  14.550   1.981  1.00  0.00     0.135 A 
ATOM     90  C   UNL     1       7.937  15.278  -0.237  1.00  0.00     0.135 A 
ATOM     91  F   UNL     1       8.521  13.624   2.953  1.00  0.00    -0.206 F 
ATOM     92  C   UNL     1       9.100  15.785   2.243  1.00  0.00     0.059 A 
ATOM     93  C   UNL     1       8.537  16.510  -0.007  1.00  0.00     0.059 A 
ATOM     94  F   UNL     1       7.386  15.057  -1.442  1.00  0.00    -0.206 F 
ATOM     95  C   UNL     1       9.106  16.759   1.242  1.00  0.00     0.060 A 
BRANCH  95  96
ATOM     96  S   UNL     1       9.897  18.345   1.581  1.00  0.00     0.124 S 
ATOM     97  O   UNL     1       8.911  18.985   2.445  1.00  0.00    -0.237 OA
ATOM     98  O   UNL     1      11.142  17.942   2.228  1.00  0.00    -0.237 OA
ATOM     99  O   UNL     1      10.051  18.937   0.255  1.00  0.00    -0.744 OA
ENDBRANCH  95  96
ENDBRANCH  63  88
ENDBRANCH  37  38
ENDBRANCH  29  32
ENDBRANCH  27  28
ENDBRANCH  26  27
ENDBRANCH   1  26
TORSDOF 20
