REMARK SMILES O=C(NCCCCNC(=O)c1cccc(Nc2nc(-c3ccc(F)cc3F)cs2)c1)c1ccc(-c2c3nc(c(-c4c(F)cc(S(=O)(=O)[O-])cc4F)c4ccc([nH]4)c(-c4c(F)cc(S(=O)(=O)[O-])cc4F)c4nc(c(-c5c(F)cc(S(=O)(=O)[O-])cc5F)c5ccc2[nH]5)C=C4)C=C3)cc1
REMARK SMILES IDX 5 1 4 2 3 3 1 4 2 5 31 7 32 8 96 9 33 10 95 11 34 12 35 13
REMARK SMILES IDX 36 14 89 15 37 16 94 17 88 18 90 19 38 20 93 21 87 22 86 23
REMARK SMILES IDX 39 25 73 26 52 27 72 28 53 29 56 30 71 31 91 32 54 33 55 34
REMARK SMILES IDX 70 36 92 37 57 38 40 39 41 40 50 41 42 42 43 43 49 44 51 45
REMARK SMILES IDX 44 46 45 47 46 48 47 49 48 50 74 51 75 52 84 53 76 54 77 55
REMARK SMILES IDX 83 56 85 57 78 58 79 59 80 60 81 61 82 62 58 63 59 64 68 65
REMARK SMILES IDX 60 66 61 67 67 68 69 69 62 70 63 71 64 72 65 73 66 74 6 75
REMARK SMILES IDX 7 76 8 77 9 78 10 80 11 81 12 82 30 83 13 84 15 85 14 86
REMARK SMILES IDX 16 87 17 89 18 90 29 91 19 92 28 93 20 94 21 95 26 96 22 97
REMARK SMILES IDX 25 98 27 99 23 100 24 101
REMARK H PARENT 3 6 90 24 56 35 8 79 16 88
REMARK Flexibility Score: inf
ROOT
ATOM      1  C   UNL     1       4.966  -2.621   0.394  1.00  0.00     0.023 C 
ENDROOT
BRANCH   1   2
ATOM      2  C   UNL     1       4.651  -1.295  -0.285  1.00  0.00     0.116 C 
BRANCH   2   3
ATOM      3  N   UNL     1       3.224  -1.054  -0.448  1.00  0.00    -0.352 N 
ATOM      4  O   UNL     1       1.239  -0.024  -0.149  1.00  0.00    -0.269 OA
ATOM      5  C   UNL     1       2.458   0.005  -0.013  1.00  0.00     0.251 C 
ATOM      6  H   UNL     1       2.734  -1.751  -0.942  1.00  0.00     0.163 HD
BRANCH   5   7
ATOM      7  C   UNL     1       3.107   1.156   0.652  1.00  0.00     0.039 A 
ATOM      8  C   UNL     1       4.269   1.721   0.126  1.00  0.00     0.014 A 
ATOM      9  C   UNL     1       2.564   1.652   1.841  1.00  0.00     0.014 A 
ATOM     10  C   UNL     1       4.988   2.642   0.879  1.00  0.00     0.010 A 
ATOM     11  C   UNL     1       3.240   2.652   2.549  1.00  0.00     0.010 A 
ATOM     12  C   UNL     1       4.486   3.117   2.102  1.00  0.00    -0.014 A 
BRANCH  12  13
ATOM     13  C   UNL     1       5.282   4.103   2.882  1.00  0.00     0.031 A 
ATOM     14  C   UNL     1       5.821   3.763   4.248  1.00  0.00     0.074 A 
ATOM     15  C   UNL     1       5.561   5.299   2.327  1.00  0.00     0.049 A 
ATOM     16  N   UNL     1       6.571   4.487   5.041  1.00  0.00    -0.248 NA
ATOM     17  C   UNL     1       5.465   2.447   4.802  1.00  0.00     0.031 C 
ATOM     18  C   UNL     1       5.089   5.748   1.014  1.00  0.00     0.029 A 
ATOM     19  N   UNL     1       6.326   6.343   2.778  1.00  0.00    -0.354 N 
ATOM     20  C   UNL     1       6.753   3.731   6.194  1.00  0.00     0.074 A 
ATOM     21  C   UNL     1       6.016   2.500   6.008  1.00  0.00     0.031 C 
ATOM     22  C   UNL     1       5.622   6.948   0.742  1.00  0.00     0.029 A 
ATOM     23  C   UNL     1       6.422   7.381   1.881  1.00  0.00     0.049 A 
ATOM     24  H   UNL     1       6.765   6.349   3.659  1.00  0.00     0.167 HD
ATOM     25  C   UNL     1       7.473   4.033   7.303  1.00  0.00     0.037 A 
ATOM     26  C   UNL     1       7.076   8.555   1.965  1.00  0.00     0.037 A 
ATOM     27  C   UNL     1       8.230   5.249   7.470  1.00  0.00     0.049 A 
ATOM     28  C   UNL     1       7.870   8.863   3.202  1.00  0.00     0.074 A 
ATOM     29  C   UNL     1       9.027   5.628   8.537  1.00  0.00     0.029 A 
ATOM     30  N   UNL     1       8.283   6.284   6.548  1.00  0.00    -0.354 N 
ATOM     31  N   UNL     1       8.054   8.122   4.269  1.00  0.00    -0.248 NA
ATOM     32  C   UNL     1       8.546  10.165   3.247  1.00  0.00     0.031 C 
ATOM     33  C   UNL     1       9.528   6.909   8.279  1.00  0.00     0.029 A 
ATOM     34  C   UNL     1       9.084   7.308   7.029  1.00  0.00     0.049 A 
ATOM     35  H   UNL     1       7.821   6.290   5.679  1.00  0.00     0.167 HD
ATOM     36  C   UNL     1       8.889   8.857   5.101  1.00  0.00     0.074 A 
ATOM     37  C   UNL     1       9.182  10.096   4.408  1.00  0.00     0.031 C 
ATOM     38  C   UNL     1       9.373   8.533   6.325  1.00  0.00     0.037 A 
BRANCH  25  39
ATOM     39  C   UNL     1       7.460   3.043   8.438  1.00  0.00     0.058 A 
ATOM     40  C   UNL     1       8.130   1.812   8.361  1.00  0.00     0.135 A 
ATOM     41  C   UNL     1       6.793   3.348   9.636  1.00  0.00     0.135 A 
ATOM     42  F   UNL     1       8.775   1.463   7.236  1.00  0.00    -0.206 F 
ATOM     43  C   UNL     1       8.111   0.904   9.416  1.00  0.00     0.059 A 
ATOM     44  C   UNL     1       6.782   2.467  10.714  1.00  0.00     0.059 A 
ATOM     45  F   UNL     1       6.139   4.513   9.768  1.00  0.00    -0.206 F 
ATOM     46  C   UNL     1       7.430   1.239  10.588  1.00  0.00     0.060 A 
BRANCH  46  47
ATOM     47  S   UNL     1       7.402   0.048  11.945  1.00  0.00     0.124 S 
ATOM     48  O   UNL     1       6.458  -0.944  11.440  1.00  0.00    -0.237 OA
ATOM     49  O   UNL     1       8.795  -0.383  12.014  1.00  0.00    -0.237 OA
ATOM     50  O   UNL     1       6.936   0.837  13.081  1.00  0.00    -0.744 OA
ENDBRANCH  46  47
ENDBRANCH  25  39
BRANCH  26  51
ATOM     51  C   UNL     1       7.019   9.512   0.830  1.00  0.00     0.058 A 
ATOM     52  C   UNL     1       8.145   9.748   0.029  1.00  0.00     0.135 A 
ATOM     53  C   UNL     1       5.830  10.183   0.504  1.00  0.00     0.135 A 
ATOM     54  F   UNL     1       9.305   9.132   0.304  1.00  0.00    -0.206 F 
ATOM     55  C   UNL     1       8.099  10.624  -1.050  1.00  0.00     0.059 A 
ATOM     56  C   UNL     1       5.752  11.042  -0.586  1.00  0.00     0.059 A 
ATOM     57  F   UNL     1       4.720   9.975   1.229  1.00  0.00    -0.206 F 
ATOM     58  C   UNL     1       6.896  11.264  -1.352  1.00  0.00     0.060 A 
BRANCH  58  59
ATOM     59  S   UNL     1       6.830  12.354  -2.789  1.00  0.00     0.124 S 
ATOM     60  O   UNL     1       7.543  13.528  -2.299  1.00  0.00    -0.237 OA
ATOM     61  O   UNL     1       7.519  11.565  -3.806  1.00  0.00    -0.237 OA
ATOM     62  O   UNL     1       5.397  12.531  -3.010  1.00  0.00    -0.744 OA
ENDBRANCH  58  59
ENDBRANCH  26  51
BRANCH  38  63
ATOM     63  C   UNL     1      10.309   9.515   6.974  1.00  0.00     0.058 A 
ATOM     64  C   UNL     1       9.854  10.732   7.505  1.00  0.00     0.135 A 
ATOM     65  C   UNL     1      11.677   9.221   7.085  1.00  0.00     0.135 A 
ATOM     66  F   UNL     1       8.556  11.065   7.419  1.00  0.00    -0.206 F 
ATOM     67  C   UNL     1      10.730  11.639   8.095  1.00  0.00     0.059 A 
ATOM     68  C   UNL     1      12.566  10.100   7.694  1.00  0.00     0.059 A 
ATOM     69  F   UNL     1      12.162   8.066   6.602  1.00  0.00    -0.206 F 
ATOM     70  C   UNL     1      12.085  11.314   8.182  1.00  0.00     0.060 A 
BRANCH  70  71
ATOM     71  S   UNL     1      13.211  12.491   8.961  1.00  0.00     0.124 S 
ATOM     72  O   UNL     1      13.358  13.495   7.912  1.00  0.00    -0.237 OA
ATOM     73  O   UNL     1      12.461  12.911  10.140  1.00  0.00    -0.237 OA
ATOM     74  O   UNL     1      14.401  11.690   9.236  1.00  0.00    -0.744 OA
ENDBRANCH  70  71
ENDBRANCH  38  63
ENDBRANCH  12  13
ENDBRANCH   5   7
ENDBRANCH   2   3
ENDBRANCH   1   2
BRANCH   1  75
ATOM     75  C   UNL     1       4.490  -3.867  -0.348  1.00  0.00     0.023 C 
BRANCH  75  76
ATOM     76  C   UNL     1       4.910  -3.956  -1.812  1.00  0.00     0.116 C 
BRANCH  76  77
ATOM     77  N   UNL     1       6.354  -3.975  -1.986  1.00  0.00    -0.352 N 
ATOM     78  C   UNL     1       7.129  -4.909  -2.627  1.00  0.00     0.251 C 
ATOM     79  H   UNL     1       6.841  -3.217  -1.589  1.00  0.00     0.163 HD
ATOM     80  O   UNL     1       8.354  -4.846  -2.594  1.00  0.00    -0.269 OA
BRANCH  78  81
ATOM     81  C   UNL     1       6.474  -6.013  -3.352  1.00  0.00     0.041 A 
ATOM     82  C   UNL     1       6.774  -7.325  -2.993  1.00  0.00     0.014 A 
ATOM     83  C   UNL     1       5.560  -5.742  -4.378  1.00  0.00     0.040 A 
ATOM     84  C   UNL     1       6.091  -8.367  -3.611  1.00  0.00     0.003 A 
ATOM     85  C   UNL     1       4.873  -6.783  -5.016  1.00  0.00     0.041 A 
ATOM     86  C   UNL     1       5.129  -8.093  -4.592  1.00  0.00     0.026 A 
BRANCH  85  87
ATOM     87  N   UNL     1       3.943  -6.455  -6.017  1.00  0.00    -0.332 N 
ATOM     88  H   UNL     1       3.977  -5.528  -6.345  1.00  0.00     0.169 HD
BRANCH  87  89
ATOM     89  C   UNL     1       3.007  -7.247  -6.588  1.00  0.00     0.187 A 
ATOM     90  N   UNL     1       2.415  -8.299  -6.061  1.00  0.00    -0.220 NA
ATOM     91  S   UNL     1       2.470  -6.853  -8.187  1.00  0.00    -0.105 S 
ATOM     92  C   UNL     1       1.474  -8.809  -6.933  1.00  0.00     0.086 A 
ATOM     93  C   UNL     1       1.416  -8.197  -8.167  1.00  0.00     0.097 A 
BRANCH  92  94
ATOM     94  C   UNL     1       0.592  -9.896  -6.569  1.00  0.00     0.037 A 
ATOM     95  C   UNL     1       0.759 -11.169  -7.133  1.00  0.00     0.016 A 
ATOM     96  C   UNL     1      -0.477  -9.671  -5.693  1.00  0.00     0.135 A 
ATOM     97  C   UNL     1      -0.148 -12.188  -6.830  1.00  0.00     0.040 A 
ATOM     98  C   UNL     1      -1.381 -10.683  -5.388  1.00  0.00     0.079 A 
ATOM     99  F   UNL     1      -0.679  -8.456  -5.161  1.00  0.00    -0.206 F 
ATOM    100  C   UNL     1      -1.210 -11.934  -5.965  1.00  0.00     0.126 A 
ATOM    101  F   UNL     1      -2.086 -12.910  -5.697  1.00  0.00    -0.207 F 
ENDBRANCH  92  94
ENDBRANCH  87  89
ENDBRANCH  85  87
ENDBRANCH  78  81
ENDBRANCH  76  77
ENDBRANCH  75  76
ENDBRANCH   1  75
TORSDOF 17
