REMARK SMILES CCOc1cc(N2CCOCC2)ccc1[C@H]([NH3+])C(=O)NCCCCNC(=O)c1ccc(-c2c3nc(c(-c4c(F)cc(S(=O)(=O)[O-])cc4F)c4ccc([nH]4)c(-c4c(F)cc(S(=O)(=O)[O-])cc4F)c4nc(c(-c5c(F)cc(S(=O)(=O)[O-])cc5F)c5ccc2[nH]5)C=C4)C=C3)cc1
REMARK SMILES IDX 22 1 21 2 20 3 18 4 19 5 16 7 15 8 4 9 5 10 6 11 14 12 13 13
REMARK SMILES IDX 3 14 2 15 1 16 7 17 8 18 12 19 9 20 11 21 10 22 17 23 23 27
REMARK SMILES IDX 24 28 25 29 26 30 27 32 28 33 29 34 93 35 30 36 92 37 31 38
REMARK SMILES IDX 32 39 33 40 86 41 34 42 91 43 85 44 87 45 35 46 90 47 84 48
REMARK SMILES IDX 83 49 36 51 70 52 49 53 69 54 50 55 53 56 68 57 88 58 51 59
REMARK SMILES IDX 52 60 67 62 89 63 54 64 37 65 38 66 47 67 39 68 40 69 46 70
REMARK SMILES IDX 48 71 41 72 42 73 43 74 44 75 45 76 71 77 72 78 81 79 73 80
REMARK SMILES IDX 74 81 80 82 82 83 75 84 76 85 77 86 78 87 79 88 55 89 56 90
REMARK SMILES IDX 65 91 57 92 58 93 64 94 66 95 59 96 60 97 61 98 62 99 63 100
REMARK H PARENT 20 6 17 24 17 25 17 26 25 31 87 50 53 61
REMARK Flexibility Score: inf
ROOT
ATOM      1  C   UNL     1       6.679   0.178  -0.830  1.00  0.00     0.023 C 
ENDROOT
BRANCH   1   2
ATOM      2  C   UNL     1       5.601  -0.628  -0.119  1.00  0.00     0.116 C 
BRANCH   2   3
ATOM      3  N   UNL     1       4.671   0.230   0.590  1.00  0.00    -0.351 N 
ATOM      4  C   UNL     1       3.319   0.384   0.417  1.00  0.00     0.283 C 
ATOM      5  O   UNL     1       2.749   1.265   1.069  1.00  0.00    -0.268 OA
ATOM      6  H   UNL     1       5.068   0.783   1.301  1.00  0.00     0.163 HD
BRANCH   4   7
ATOM      7  C   UNL     1       2.546  -0.465  -0.646  1.00  0.00     0.306 C 
BRANCH   7   8
ATOM      8  C   UNL     1       2.760  -1.963  -0.453  1.00  0.00     0.061 A 
ATOM      9  C   UNL     1       2.625  -2.529   0.825  1.00  0.00     0.131 A 
ATOM     10  C   UNL     1       3.278  -3.724   1.142  1.00  0.00     0.072 A 
ATOM     11  C   UNL     1       4.037  -4.395   0.178  1.00  0.00     0.040 A 
ATOM     12  C   UNL     1       3.295  -2.769  -1.470  1.00  0.00     0.016 A 
ATOM     13  C   UNL     1       3.952  -3.959  -1.147  1.00  0.00     0.027 A 
BRANCH   9  14
ATOM     14  O   UNL     1       2.082  -1.796   1.848  1.00  0.00    -0.493 OA
BRANCH  14  15
ATOM     15  C   UNL     1       0.688  -2.064   2.048  1.00  0.00     0.226 C 
ATOM     16  C   UNL     1      -0.168  -0.954   1.457  1.00  0.00     0.049 C 
ENDBRANCH  14  15
ENDBRANCH   9  14
BRANCH  11  17
ATOM     17  N   UNL     1       4.948  -5.353   0.557  1.00  0.00    -0.367 N 
ATOM     18  C   UNL     1       6.388  -5.095   0.414  1.00  0.00     0.145 C 
ATOM     19  C   UNL     1       4.573  -6.745   0.777  1.00  0.00     0.145 C 
ATOM     20  C   UNL     1       7.005  -6.063  -0.605  1.00  0.00     0.181 C 
ATOM     21  C   UNL     1       5.264  -7.633  -0.273  1.00  0.00     0.181 C 
ATOM     22  O   UNL     1       6.689  -7.433  -0.296  1.00  0.00    -0.378 OA
ENDBRANCH  11  17
ENDBRANCH   7   8
BRANCH   7  23
ATOM     23  N   UNL     1       2.890   0.060  -1.995  1.00  0.00    -0.343 N 
ATOM     24  H   UNL     1       3.895  -0.025  -2.147  1.00  0.00     0.345 HD
ATOM     25  H   UNL     1       2.619   1.042  -2.057  1.00  0.00     0.345 HD
ATOM     26  H   UNL     1       2.393  -0.476  -2.706  1.00  0.00     0.345 HD
ENDBRANCH   7  23
ENDBRANCH   4   7
ENDBRANCH   2   3
ENDBRANCH   1   2
BRANCH   1  27
ATOM     27  C   UNL     1       7.697   0.816   0.105  1.00  0.00     0.023 C 
BRANCH  27  28
ATOM     28  C   UNL     1       8.399  -0.162   1.039  1.00  0.00     0.116 C 
BRANCH  28  29
ATOM     29  N   UNL     1       9.057  -1.249   0.330  1.00  0.00    -0.352 N 
ATOM     30  C   UNL     1      10.333  -1.736   0.494  1.00  0.00     0.251 C 
ATOM     31  H   UNL     1       8.516  -1.696  -0.361  1.00  0.00     0.163 HD
ATOM     32  O   UNL     1      10.780  -2.565  -0.284  1.00  0.00    -0.269 OA
BRANCH  30  33
ATOM     33  C   UNL     1      11.155  -1.221   1.610  1.00  0.00     0.039 A 
ATOM     34  C   UNL     1      12.469  -0.825   1.360  1.00  0.00     0.014 A 
ATOM     35  C   UNL     1      10.610  -1.100   2.891  1.00  0.00     0.014 A 
ATOM     36  C   UNL     1      13.223  -0.262   2.391  1.00  0.00     0.010 A 
ATOM     37  C   UNL     1      11.327  -0.452   3.887  1.00  0.00     0.010 A 
ATOM     38  C   UNL     1      12.650  -0.048   3.656  1.00  0.00    -0.014 A 
BRANCH  38  39
ATOM     39  C   UNL     1      13.435   0.556   4.762  1.00  0.00     0.031 A 
ATOM     40  C   UNL     1      13.699  -0.240   6.013  1.00  0.00     0.074 A 
ATOM     41  C   UNL     1      13.866   1.828   4.665  1.00  0.00     0.049 A 
ATOM     42  N   UNL     1      14.331   0.116   7.102  1.00  0.00    -0.248 NA
ATOM     43  C   UNL     1      13.150  -1.605   6.059  1.00  0.00     0.031 C 
ATOM     44  C   UNL     1      13.613   2.723   3.533  1.00  0.00     0.029 A 
ATOM     45  N   UNL     1      14.601   2.593   5.535  1.00  0.00    -0.354 N 
ATOM     46  C   UNL     1      14.248  -0.976   7.959  1.00  0.00     0.074 A 
ATOM     47  C   UNL     1      13.437  -1.973   7.298  1.00  0.00     0.031 C 
ATOM     48  C   UNL     1      14.203   3.907   3.769  1.00  0.00     0.029 A 
ATOM     49  C   UNL     1      14.847   3.866   5.079  1.00  0.00     0.049 A 
ATOM     50  H   UNL     1      14.922   2.261   6.404  1.00  0.00     0.167 HD
ATOM     51  C   UNL     1      14.826  -1.149   9.172  1.00  0.00     0.037 A 
ATOM     52  C   UNL     1      15.515   4.886   5.652  1.00  0.00     0.037 A 
ATOM     53  C   UNL     1      15.644  -0.156   9.817  1.00  0.00     0.049 A 
ATOM     54  C   UNL     1      16.164   4.672   6.992  1.00  0.00     0.074 A 
ATOM     55  C   UNL     1      16.311  -0.242  11.026  1.00  0.00     0.029 A 
ATOM     56  N   UNL     1      15.904   1.108   9.305  1.00  0.00    -0.354 N 
ATOM     57  N   UNL     1      16.134   3.609   7.761  1.00  0.00    -0.248 NA
ATOM     58  C   UNL     1      16.953   5.785   7.534  1.00  0.00     0.031 C 
ATOM     59  C   UNL     1      16.939   0.986  11.265  1.00  0.00     0.029 A 
ATOM     60  C   UNL     1      16.711   1.817  10.179  1.00  0.00     0.049 A 
ATOM     61  H   UNL     1      15.565   1.450   8.447  1.00  0.00     0.167 HD
ATOM     62  C   UNL     1      16.920   3.916   8.867  1.00  0.00     0.074 A 
ATOM     63  C   UNL     1      17.423   5.259   8.657  1.00  0.00     0.031 C 
ATOM     64  C   UNL     1      17.203   3.155   9.955  1.00  0.00     0.037 A 
BRANCH  51  65
ATOM     65  C   UNL     1      14.592  -2.466   9.864  1.00  0.00     0.058 A 
ATOM     66  C   UNL     1      15.114  -3.668   9.356  1.00  0.00     0.135 A 
ATOM     67  C   UNL     1      13.832  -2.533  11.043  1.00  0.00     0.135 A 
ATOM     68  F   UNL     1      15.836  -3.668   8.224  1.00  0.00    -0.206 F 
ATOM     69  C   UNL     1      14.849  -4.892   9.961  1.00  0.00     0.059 A 
ATOM     70  C   UNL     1      13.584  -3.743  11.685  1.00  0.00     0.059 A 
ATOM     71  F   UNL     1      13.310  -1.417  11.576  1.00  0.00    -0.206 F 
ATOM     72  C   UNL     1      14.078  -4.920  11.123  1.00  0.00     0.060 A 
BRANCH  72  73
ATOM     73  S   UNL     1      13.723  -6.518  11.883  1.00  0.00     0.124 S 
ATOM     74  O   UNL     1      12.751  -7.075  10.946  1.00  0.00    -0.237 OA
ATOM     75  O   UNL     1      15.034  -7.159  11.890  1.00  0.00    -0.237 OA
ATOM     76  O   UNL     1      13.195  -6.162  13.196  1.00  0.00    -0.744 OA
ENDBRANCH  72  73
ENDBRANCH  51  65
BRANCH  52  77
ATOM     77  C   UNL     1      15.623   6.187   4.938  1.00  0.00     0.058 A 
ATOM     78  C   UNL     1      16.837   6.611   4.378  1.00  0.00     0.135 A 
ATOM     79  C   UNL     1      14.501   7.012   4.764  1.00  0.00     0.135 A 
ATOM     80  F   UNL     1      17.940   5.860   4.521  1.00  0.00    -0.206 F 
ATOM     81  C   UNL     1      16.938   7.809   3.678  1.00  0.00     0.059 A 
ATOM     82  C   UNL     1      14.571   8.202   4.046  1.00  0.00     0.059 A 
ATOM     83  F   UNL     1      13.311   6.643   5.265  1.00  0.00    -0.206 F 
ATOM     84  C   UNL     1      15.796   8.594   3.510  1.00  0.00     0.060 A 
BRANCH  84  85
ATOM     85  S   UNL     1      15.922  10.110   2.537  1.00  0.00     0.124 S 
ATOM     86  O   UNL     1      16.673  10.978   3.437  1.00  0.00    -0.237 OA
ATOM     87  O   UNL     1      16.636   9.651   1.349  1.00  0.00    -0.237 OA
ATOM     88  O   UNL     1      14.529  10.484   2.315  1.00  0.00    -0.744 OA
ENDBRANCH  84  85
ENDBRANCH  52  77
BRANCH  64  89
ATOM     89  C   UNL     1      18.127   3.742  10.987  1.00  0.00     0.058 A 
ATOM     90  C   UNL     1      17.728   4.792  11.829  1.00  0.00     0.135 A 
ATOM     91  C   UNL     1      19.417   3.216  11.162  1.00  0.00     0.135 A 
ATOM     92  F   UNL     1      16.506   5.334  11.702  1.00  0.00    -0.206 F 
ATOM     93  C   UNL     1      18.588   5.323  12.786  1.00  0.00     0.059 A 
ATOM     94  C   UNL     1      20.282   3.710  12.133  1.00  0.00     0.059 A 
ATOM     95  F   UNL     1      19.845   2.203  10.393  1.00  0.00    -0.206 F 
ATOM     96  C   UNL     1      19.864   4.775  12.929  1.00  0.00     0.060 A 
BRANCH  96  97
ATOM     97  S   UNL     1      20.965   5.462  14.184  1.00  0.00     0.124 S 
ATOM     98  O   UNL     1      21.344   6.734  13.578  1.00  0.00    -0.237 OA
ATOM     99  O   UNL     1      20.092   5.551  15.351  1.00  0.00    -0.237 OA
ATOM    100  O   UNL     1      22.031   4.470  14.282  1.00  0.00    -0.744 OA
ENDBRANCH  96  97
ENDBRANCH  64  89
ENDBRANCH  38  39
ENDBRANCH  30  33
ENDBRANCH  28  29
ENDBRANCH  27  28
ENDBRANCH   1  27
TORSDOF 19
