REMARK SMILES CC(C)C[C@H](NC(=O)[C@@H](NC(=O)[C@H](C)NC(=O)CNC(=O)OCc1ccccc1)C(C)C)C(=O)NCCCCNC(=O)c1ccc(-c2c3nc(c(-c4c(F)cc(S(=O)(=O)[O-])cc4F)c4ccc([nH]4)c(-c4c(F)cc(S(=O)(=O)[O-])cc4F)c4nc(c(-c5c(F)cc(S(=O)(=O)[O-])cc5F)c5ccc2[nH]5)C=C4)C=C3)cc1
REMARK SMILES IDX 5 1 4 2 2 3 1 4 3 5 33 6 34 7 35 8 36 10 37 11 38 12 39 13
REMARK SMILES IDX 40 14 41 15 42 17 43 18 44 19 108 20 45 21 107 22 46 23
REMARK SMILES IDX 47 24 48 25 101 26 49 27 106 28 100 29 102 30 50 31 105 32
REMARK SMILES IDX 99 33 98 34 51 36 85 37 64 38 84 39 65 40 68 41 83 42 103 43
REMARK SMILES IDX 66 44 67 45 82 47 104 48 69 49 52 50 53 51 62 52 54 53 55 54
REMARK SMILES IDX 61 55 63 56 56 57 57 58 58 59 59 60 60 61 86 62 87 63 96 64
REMARK SMILES IDX 88 65 89 66 95 67 97 68 90 69 91 70 92 71 93 72 94 73 70 74
REMARK SMILES IDX 71 75 80 76 72 77 73 78 79 79 81 80 74 81 75 82 76 83 77 84
REMARK SMILES IDX 78 85 6 86 7 87 8 89 9 90 10 91 11 92 12 94 13 95 14 96
REMARK SMILES IDX 15 97 16 98 17 100 18 101 19 102 20 103 21 105 22 106 23 107
REMARK SMILES IDX 24 108 25 109 29 110 26 111 28 112 27 113 30 114 31 115
REMARK SMILES IDX 32 116
REMARK H PARENT 35 9 40 16 102 35 68 46 6 88 10 93 15 99 19 104
REMARK Flexibility Score: inf
ROOT
ATOM      1  C   UNL     1      -2.499  -3.883  -1.352  1.00  0.00     0.171 C 
ENDROOT
BRANCH   1   2
ATOM      2  C   UNL     1      -3.910  -3.391  -0.966  1.00  0.00     0.038 C 
BRANCH   2   3
ATOM      3  C   UNL     1      -4.361  -3.758   0.462  1.00  0.00    -0.015 C 
ATOM      4  C   UNL     1      -3.649  -2.902   1.502  1.00  0.00     0.007 C 
ATOM      5  C   UNL     1      -5.871  -3.563   0.614  1.00  0.00     0.007 C 
ENDBRANCH   2   3
ENDBRANCH   1   2
BRANCH   1   6
ATOM      6  C   UNL     1      -2.404  -5.413  -1.481  1.00  0.00     0.242 C 
ATOM      7  O   UNL     1      -1.618  -6.050  -0.774  1.00  0.00    -0.273 OA
ATOM      8  N   UNL     1      -3.167  -6.133  -2.337  1.00  0.00    -0.354 N 
ATOM      9  H   UNL     1      -3.062  -7.107  -2.245  1.00  0.00     0.163 HD
BRANCH   8  10
ATOM     10  C   UNL     1      -4.110  -5.735  -3.360  1.00  0.00     0.116 C 
BRANCH  10  11
ATOM     11  C   UNL     1      -3.738  -6.340  -4.710  1.00  0.00     0.023 C 
BRANCH  11  12
ATOM     12  C   UNL     1      -3.708  -7.870  -4.744  1.00  0.00     0.023 C 
BRANCH  12  13
ATOM     13  C   UNL     1      -4.931  -8.561  -4.149  1.00  0.00     0.116 C 
BRANCH  13  14
ATOM     14  N   UNL     1      -6.181  -8.092  -4.726  1.00  0.00    -0.352 N 
ATOM     15  C   UNL     1      -7.255  -8.825  -5.167  1.00  0.00     0.251 C 
ATOM     16  H   UNL     1      -6.269  -7.116  -4.813  1.00  0.00     0.163 HD
ATOM     17  O   UNL     1      -8.191  -8.267  -5.730  1.00  0.00    -0.269 OA
BRANCH  15  18
ATOM     18  C   UNL     1      -7.249 -10.289  -4.991  1.00  0.00     0.039 A 
ATOM     19  C   UNL     1      -7.497 -11.099  -6.101  1.00  0.00     0.014 A 
ATOM     20  C   UNL     1      -6.956 -10.855  -3.746  1.00  0.00     0.014 A 
ATOM     21  C   UNL     1      -7.387 -12.484  -5.977  1.00  0.00     0.010 A 
ATOM     22  C   UNL     1      -6.782 -12.231  -3.643  1.00  0.00     0.010 A 
ATOM     23  C   UNL     1      -6.995 -13.058  -4.757  1.00  0.00    -0.014 A 
BRANCH  23  24
ATOM     24  C   UNL     1      -6.802 -14.523  -4.628  1.00  0.00     0.031 A 
ATOM     25  C   UNL     1      -7.697 -15.320  -3.722  1.00  0.00     0.074 A 
ATOM     26  C   UNL     1      -5.782 -15.119  -5.275  1.00  0.00     0.049 A 
ATOM     27  N   UNL     1      -7.647 -16.592  -3.424  1.00  0.00    -0.248 NA
ATOM     28  C   UNL     1      -8.774 -14.585  -3.040  1.00  0.00     0.031 C 
ATOM     29  C   UNL     1      -4.813 -14.438  -6.139  1.00  0.00     0.029 A 
ATOM     30  N   UNL     1      -5.381 -16.430  -5.300  1.00  0.00    -0.354 N 
ATOM     31  C   UNL     1      -8.672 -16.807  -2.510  1.00  0.00     0.074 A 
ATOM     32  C   UNL     1      -9.294 -15.524  -2.264  1.00  0.00     0.031 C 
ATOM     33  C   UNL     1      -3.943 -15.340  -6.621  1.00  0.00     0.029 A 
ATOM     34  C   UNL     1      -4.271 -16.655  -6.079  1.00  0.00     0.049 A 
ATOM     35  H   UNL     1      -5.845 -17.144  -4.805  1.00  0.00     0.167 HD
ATOM     36  C   UNL     1      -9.073 -17.971  -1.947  1.00  0.00     0.037 A 
ATOM     37  C   UNL     1      -3.593 -17.792  -6.325  1.00  0.00     0.037 A 
ATOM     38  C   UNL     1      -8.467 -19.247  -2.220  1.00  0.00     0.049 A 
ATOM     39  C   UNL     1      -4.069 -19.077  -5.705  1.00  0.00     0.074 A 
ATOM     40  C   UNL     1      -8.833 -20.494  -1.745  1.00  0.00     0.029 A 
ATOM     41  N   UNL     1      -7.367 -19.440  -3.043  1.00  0.00    -0.354 N 
ATOM     42  N   UNL     1      -5.078 -19.272  -4.890  1.00  0.00    -0.248 NA
ATOM     43  C   UNL     1      -3.322 -20.296  -6.043  1.00  0.00     0.031 C 
ATOM     44  C   UNL     1      -7.934 -21.437  -2.256  1.00  0.00     0.029 A 
ATOM     45  C   UNL     1      -7.033 -20.783  -3.081  1.00  0.00     0.049 A 
ATOM     46  H   UNL     1      -6.893 -18.727  -3.530  1.00  0.00     0.167 HD
ATOM     47  C   UNL     1      -5.102 -20.638  -4.635  1.00  0.00     0.074 A 
ATOM     48  C   UNL     1      -4.013 -21.222  -5.392  1.00  0.00     0.031 C 
ATOM     49  C   UNL     1      -5.948 -21.346  -3.846  1.00  0.00     0.037 A 
BRANCH  36  50
ATOM     50  C   UNL     1     -10.229 -17.912  -0.988  1.00  0.00     0.058 A 
ATOM     51  C   UNL     1     -11.537 -17.656  -1.429  1.00  0.00     0.135 A 
ATOM     52  C   UNL     1     -10.032 -18.125   0.386  1.00  0.00     0.135 A 
ATOM     53  F   UNL     1     -11.780 -17.428  -2.730  1.00  0.00    -0.206 F 
ATOM     54  C   UNL     1     -12.603 -17.578  -0.540  1.00  0.00     0.059 A 
ATOM     55  C   UNL     1     -11.088 -18.079   1.291  1.00  0.00     0.059 A 
ATOM     56  F   UNL     1      -8.802 -18.373   0.862  1.00  0.00    -0.206 F 
ATOM     57  C   UNL     1     -12.368 -17.786   0.820  1.00  0.00     0.060 A 
BRANCH  57  58
ATOM     58  S   UNL     1     -13.759 -17.669   1.964  1.00  0.00     0.124 S 
ATOM     59  O   UNL     1     -13.958 -16.225   2.032  1.00  0.00    -0.237 OA
ATOM     60  O   UNL     1     -14.801 -18.420   1.270  1.00  0.00    -0.237 OA
ATOM     61  O   UNL     1     -13.249 -18.291   3.182  1.00  0.00    -0.744 OA
ENDBRANCH  57  58
ENDBRANCH  36  50
BRANCH  37  62
ATOM     62  C   UNL     1      -2.409 -17.767  -7.224  1.00  0.00     0.058 A 
ATOM     63  C   UNL     1      -2.472 -18.315  -8.513  1.00  0.00     0.135 A 
ATOM     64  C   UNL     1      -1.202 -17.173  -6.823  1.00  0.00     0.135 A 
ATOM     65  F   UNL     1      -3.603 -18.898  -8.939  1.00  0.00    -0.206 F 
ATOM     66  C   UNL     1      -1.378 -18.286  -9.372  1.00  0.00     0.059 A 
ATOM     67  C   UNL     1      -0.101 -17.112  -7.672  1.00  0.00     0.059 A 
ATOM     68  F   UNL     1      -1.097 -16.618  -5.606  1.00  0.00    -0.206 F 
ATOM     69  C   UNL     1      -0.197 -17.679  -8.942  1.00  0.00     0.060 A 
BRANCH  69  70
ATOM     70  S   UNL     1       1.199 -17.593 -10.086  1.00  0.00     0.124 S 
ATOM     71  O   UNL     1       1.688 -18.966 -10.056  1.00  0.00    -0.237 OA
ATOM     72  O   UNL     1       0.555 -17.171 -11.326  1.00  0.00    -0.237 OA
ATOM     73  O   UNL     1       2.072 -16.597  -9.473  1.00  0.00    -0.744 OA
ENDBRANCH  69  70
ENDBRANCH  37  62
BRANCH  49  74
ATOM     74  C   UNL     1      -5.749 -22.833  -3.782  1.00  0.00     0.058 A 
ATOM     75  C   UNL     1      -4.691 -23.403  -3.059  1.00  0.00     0.135 A 
ATOM     76  C   UNL     1      -6.661 -23.699  -4.407  1.00  0.00     0.135 A 
ATOM     77  F   UNL     1      -3.789 -22.618  -2.449  1.00  0.00    -0.206 F 
ATOM     78  C   UNL     1      -4.531 -24.782  -2.973  1.00  0.00     0.059 A 
ATOM     79  C   UNL     1      -6.534 -25.081  -4.315  1.00  0.00     0.059 A 
ATOM     80  F   UNL     1      -7.696 -23.203  -5.103  1.00  0.00    -0.206 F 
ATOM     81  C   UNL     1      -5.459 -25.613  -3.604  1.00  0.00     0.060 A 
BRANCH  81  82
ATOM     82  S   UNL     1      -5.264 -27.402  -3.455  1.00  0.00     0.124 S 
ATOM     83  O   UNL     1      -4.168 -27.656  -4.383  1.00  0.00    -0.237 OA
ATOM     84  O   UNL     1      -4.947 -27.566  -2.039  1.00  0.00    -0.237 OA
ATOM     85  O   UNL     1      -6.567 -27.920  -3.862  1.00  0.00    -0.744 OA
ENDBRANCH  81  82
ENDBRANCH  49  74
ENDBRANCH  23  24
ENDBRANCH  15  18
ENDBRANCH  13  14
ENDBRANCH  12  13
ENDBRANCH  11  12
ENDBRANCH  10  11
ENDBRANCH   8  10
ENDBRANCH   1   6
BRANCH   1  86
ATOM     86  N   UNL     1      -2.045  -3.240  -2.588  1.00  0.00    -0.343 N 
ATOM     87  C   UNL     1      -1.252  -2.161  -2.816  1.00  0.00     0.243 C 
ATOM     88  H   UNL     1      -2.377  -3.672  -3.409  1.00  0.00     0.164 HD
ATOM     89  O   UNL     1      -1.164  -1.795  -3.995  1.00  0.00    -0.273 OA
BRANCH  87  90
ATOM     90  C   UNL     1      -0.359  -1.495  -1.729  1.00  0.00     0.174 C 
BRANCH  90  91
ATOM     91  N   UNL     1      -1.045  -1.463  -0.417  1.00  0.00    -0.342 N 
ATOM     92  C   UNL     1      -0.606  -1.327   0.865  1.00  0.00     0.242 C 
ATOM     93  H   UNL     1      -2.022  -1.561  -0.486  1.00  0.00     0.164 HD
ATOM     94  O   UNL     1      -1.148  -0.409   1.498  1.00  0.00    -0.273 OA
BRANCH  92  95
ATOM     95  C   UNL     1       0.181  -2.437   1.639  1.00  0.00     0.168 C 
ATOM     96  C   UNL     1       0.955  -1.787   2.788  1.00  0.00     0.041 C 
BRANCH  95  97
ATOM     97  N   UNL     1       1.075  -3.343   0.937  1.00  0.00    -0.343 N 
ATOM     98  C   UNL     1       1.062  -4.706   0.831  1.00  0.00     0.240 C 
ATOM     99  H   UNL     1       1.813  -2.902   0.458  1.00  0.00     0.164 HD
ATOM    100  O   UNL     1       1.993  -5.236   0.221  1.00  0.00    -0.273 OA
BRANCH  98 101
ATOM    101  C   UNL     1       0.003  -5.530   1.556  1.00  0.00     0.219 C 
BRANCH 101 102
ATOM    102  N   UNL     1       0.332  -5.490   2.967  1.00  0.00    -0.312 N 
ATOM    103  C   UNL     1      -0.494  -5.058   3.949  1.00  0.00     0.407 C 
ATOM    104  H   UNL     1       1.227  -5.802   3.233  1.00  0.00     0.167 HD
ATOM    105  O   UNL     1      -0.046  -4.702   5.040  1.00  0.00    -0.225 OA
BRANCH 103 106
ATOM    106  O   UNL     1      -1.794  -5.032   3.578  1.00  0.00    -0.445 OA
BRANCH 106 107
ATOM    107  C   UNL     1      -2.727  -4.615   4.584  1.00  0.00     0.270 C 
BRANCH 107 108
ATOM    108  C   UNL     1      -2.849  -5.631   5.687  1.00  0.00    -0.011 A 
ATOM    109  C   UNL     1      -2.345  -5.342   6.962  1.00  0.00     0.007 A 
ATOM    110  C   UNL     1      -3.391  -6.898   5.435  1.00  0.00     0.007 A 
ATOM    111  C   UNL     1      -2.360  -6.310   7.963  1.00  0.00     0.000 A 
ATOM    112  C   UNL     1      -3.412  -7.864   6.441  1.00  0.00     0.000 A 
ATOM    113  C   UNL     1      -2.890  -7.571   7.701  1.00  0.00     0.000 A 
ENDBRANCH 107 108
ENDBRANCH 106 107
ENDBRANCH 103 106
ENDBRANCH 101 102
ENDBRANCH  98 101
ENDBRANCH  95  97
ENDBRANCH  92  95
ENDBRANCH  90  91
BRANCH  90 114
ATOM    114  C   UNL     1       1.104  -1.982  -1.782  1.00  0.00     0.015 C 
ATOM    115  C   UNL     1       1.668  -2.193  -3.193  1.00  0.00     0.010 C 
ATOM    116  C   UNL     1       2.038  -0.988  -1.071  1.00  0.00     0.010 C 
ENDBRANCH  90 114
ENDBRANCH  87  90
ENDBRANCH   1  86
TORSDOF 27
