REMARK SMILES Nc1cc(Br)ccc1C(=O)NC1(C(=O)NCCCCNC(=O)c2ccc(-c3c4nc(c(-c5c(F)cc(S(=O)(=O)[O-])cc5F)c5ccc([nH]5)c(-c5c(F)cc(S(=O)(=O)[O-])cc5F)c5nc(c(-c6c(F)cc(S(=O)(=O)[O-])cc6F)c6ccc3[nH]6)C=C5)C=C4)cc2)CC1
REMARK SMILES IDX 17 1 16 2 15 3 13 4 14 5 12 7 89 8 90 9 11 10 9 11 10 12
REMARK SMILES IDX 8 14 2 15 3 16 4 17 7 18 5 19 6 20 1 21 18 24 19 25 20 26
REMARK SMILES IDX 21 27 22 29 23 30 24 31 88 32 25 33 87 34 26 35 27 36 28 37
REMARK SMILES IDX 81 38 29 39 86 40 80 41 82 42 30 43 85 44 79 45 78 46 31 48
REMARK SMILES IDX 65 49 44 50 64 51 45 52 48 53 63 54 83 55 46 56 47 57 62 59
REMARK SMILES IDX 84 60 49 61 32 62 33 63 42 64 34 65 35 66 41 67 43 68 36 69
REMARK SMILES IDX 37 70 38 71 39 72 40 73 66 74 67 75 76 76 68 77 69 78 75 79
REMARK SMILES IDX 77 80 70 81 71 82 72 83 73 84 74 85 50 86 51 87 60 88 52 89
REMARK SMILES IDX 53 90 59 91 61 92 54 93 55 94 56 95 57 96 58 97
REMARK H PARENT 15 6 11 13 1 22 1 23 20 28 82 47 48 58
REMARK Flexibility Score: inf
ROOT
ATOM      1  C   UNL     1       4.589  -0.101   0.361  1.00  0.00     0.023 C 
ENDROOT
BRANCH   1   2
ATOM      2  C   UNL     1       3.820  -1.112  -0.489  1.00  0.00     0.116 C 
BRANCH   2   3
ATOM      3  N   UNL     1       2.947  -1.973   0.279  1.00  0.00    -0.354 N 
ATOM      4  C   UNL     1       1.606  -2.239   0.243  1.00  0.00     0.245 C 
ATOM      5  O   UNL     1       1.247  -3.254   0.846  1.00  0.00    -0.272 OA
ATOM      6  H   UNL     1       3.422  -2.477   0.979  1.00  0.00     0.163 HD
BRANCH   4   7
ATOM      7  C   UNL     1       0.519  -1.398  -0.432  1.00  0.00     0.119 C 
ATOM      8  C   UNL     1       0.452  -1.680  -1.947  1.00  0.00     0.041 C 
ATOM      9  C   UNL     1       0.649  -0.290  -1.457  1.00  0.00     0.041 C 
BRANCH   7  10
ATOM     10  N   UNL     1      -0.740  -1.508   0.278  1.00  0.00    -0.338 N 
ATOM     11  C   UNL     1      -1.391  -0.755   1.224  1.00  0.00     0.254 C 
ATOM     12  O   UNL     1      -2.405  -1.279   1.706  1.00  0.00    -0.269 OA
ATOM     13  H   UNL     1      -1.247  -2.312   0.022  1.00  0.00     0.164 HD
BRANCH  11  14
ATOM     14  C   UNL     1      -1.055   0.636   1.673  1.00  0.00     0.062 A 
ATOM     15  C   UNL     1       0.186   1.289   1.645  1.00  0.00     0.045 A 
ATOM     16  C   UNL     1       0.283   2.626   2.089  1.00  0.00     0.042 A 
ATOM     17  C   UNL     1      -0.811   3.294   2.623  1.00  0.00     0.020 A 
ATOM     18  C   UNL     1      -2.148   1.341   2.235  1.00  0.00     0.017 A 
ATOM     19  Br  UNL     1      -0.617   5.062   3.259  1.00  0.00    -0.051 Br
ATOM     20  C   UNL     1      -2.031   2.649   2.716  1.00  0.00     0.016 A 
BRANCH  15  21
ATOM     21  N   UNL     1       1.386   0.685   1.303  1.00  0.00    -0.398 N 
ATOM     22  H   UNL     1       2.220   1.210   1.306  1.00  0.00     0.156 HD
ATOM     23  H   UNL     1       1.405  -0.267   1.056  1.00  0.00     0.156 HD
ENDBRANCH  15  21
ENDBRANCH  11  14
ENDBRANCH   7  10
ENDBRANCH   4   7
ENDBRANCH   2   3
ENDBRANCH   1   2
BRANCH   1  24
ATOM     24  C   UNL     1       5.454  -0.687   1.474  1.00  0.00     0.023 C 
BRANCH  24  25
ATOM     25  C   UNL     1       6.516  -1.673   1.013  1.00  0.00     0.116 C 
BRANCH  25  26
ATOM     26  N   UNL     1       7.407  -1.120   0.003  1.00  0.00    -0.352 N 
ATOM     27  C   UNL     1       8.780  -1.134  -0.062  1.00  0.00     0.251 C 
ATOM     28  H   UNL     1       6.958  -0.666  -0.747  1.00  0.00     0.163 HD
ATOM     29  O   UNL     1       9.351  -0.499  -0.945  1.00  0.00    -0.269 OA
BRANCH  27  30
ATOM     30  C   UNL     1       9.563  -1.880   0.948  1.00  0.00     0.039 A 
ATOM     31  C   UNL     1       9.152  -3.141   1.380  1.00  0.00     0.014 A 
ATOM     32  C   UNL     1      10.714  -1.298   1.488  1.00  0.00     0.014 A 
ATOM     33  C   UNL     1       9.773  -3.730   2.474  1.00  0.00     0.010 A 
ATOM     34  C   UNL     1      11.400  -1.942   2.523  1.00  0.00     0.010 A 
ATOM     35  C   UNL     1      10.905  -3.139   3.060  1.00  0.00    -0.014 A 
BRANCH  35  36
ATOM     36  C   UNL     1      11.539  -3.808   4.226  1.00  0.00     0.031 A 
ATOM     37  C   UNL     1      11.567  -3.145   5.579  1.00  0.00     0.074 A 
ATOM     38  C   UNL     1      12.019  -5.060   4.075  1.00  0.00     0.049 A 
ATOM     39  N   UNL     1      12.015  -3.619   6.714  1.00  0.00    -0.248 NA
ATOM     40  C   UNL     1      11.032  -1.777   5.677  1.00  0.00     0.031 C 
ATOM     41  C   UNL     1      12.053  -5.799   2.809  1.00  0.00     0.029 A 
ATOM     42  N   UNL     1      12.532  -5.946   4.987  1.00  0.00    -0.354 N 
ATOM     43  C   UNL     1      11.833  -2.609   7.651  1.00  0.00     0.074 A 
ATOM     44  C   UNL     1      11.258  -1.482   6.951  1.00  0.00     0.031 C 
ATOM     45  C   UNL     1      12.494  -7.045   3.038  1.00  0.00     0.029 A 
ATOM     46  C   UNL     1      12.832  -7.177   4.451  1.00  0.00     0.049 A 
ATOM     47  H   UNL     1      12.672  -5.722   5.936  1.00  0.00     0.167 HD
ATOM     48  C   UNL     1      12.106  -2.628   8.977  1.00  0.00     0.037 A 
ATOM     49  C   UNL     1      13.327  -8.288   5.028  1.00  0.00     0.037 A 
ATOM     50  C   UNL     1      12.638  -3.767   9.677  1.00  0.00     0.049 A 
ATOM     51  C   UNL     1      13.626  -8.277   6.500  1.00  0.00     0.074 A 
ATOM     52  C   UNL     1      12.914  -3.890  11.028  1.00  0.00     0.029 A 
ATOM     53  N   UNL     1      12.965  -4.979   9.089  1.00  0.00    -0.354 N 
ATOM     54  N   UNL     1      13.427  -7.316   7.369  1.00  0.00    -0.248 NA
ATOM     55  C   UNL     1      14.229  -9.490   7.069  1.00  0.00     0.031 C 
ATOM     56  C   UNL     1      13.440  -5.165  11.252  1.00  0.00     0.029 A 
ATOM     57  C   UNL     1      13.456  -5.850  10.047  1.00  0.00     0.049 A 
ATOM     58  H   UNL     1      12.863  -5.190   8.133  1.00  0.00     0.167 HD
ATOM     59  C   UNL     1      13.870  -7.811   8.588  1.00  0.00     0.074 A 
ATOM     60  C   UNL     1      14.332  -9.163   8.351  1.00  0.00     0.031 C 
ATOM     61  C   UNL     1      13.899  -7.197   9.795  1.00  0.00     0.037 A 
BRANCH  48  62
ATOM     62  C   UNL     1      11.829  -1.389   9.782  1.00  0.00     0.058 A 
ATOM     63  C   UNL     1      10.524  -1.039  10.160  1.00  0.00     0.135 A 
ATOM     64  C   UNL     1      12.888  -0.609  10.275  1.00  0.00     0.135 A 
ATOM     65  F   UNL     1       9.476  -1.742   9.703  1.00  0.00    -0.206 F 
ATOM     66  C   UNL     1      10.278   0.039  11.004  1.00  0.00     0.059 A 
ATOM     67  C   UNL     1      12.667   0.463  11.136  1.00  0.00     0.059 A 
ATOM     68  F   UNL     1      14.155  -0.901   9.940  1.00  0.00    -0.206 F 
ATOM     69  C   UNL     1      11.357   0.779  11.494  1.00  0.00     0.060 A 
BRANCH  69  70
ATOM     70  S   UNL     1      11.020   2.142  12.630  1.00  0.00     0.124 S 
ATOM     71  O   UNL     1      10.411   3.122  11.736  1.00  0.00    -0.237 OA
ATOM     72  O   UNL     1      10.120   1.524  13.598  1.00  0.00    -0.237 OA
ATOM     73  O   UNL     1      12.341   2.495  13.140  1.00  0.00    -0.744 OA
ENDBRANCH  69  70
ENDBRANCH  48  62
BRANCH  49  74
ATOM     74  C   UNL     1      13.574  -9.501   4.205  1.00  0.00     0.058 A 
ATOM     75  C   UNL     1      12.786 -10.650   4.355  1.00  0.00     0.135 A 
ATOM     76  C   UNL     1      14.591  -9.525   3.238  1.00  0.00     0.135 A 
ATOM     77  F   UNL     1      11.803 -10.676   5.269  1.00  0.00    -0.206 F 
ATOM     78  C   UNL     1      13.004 -11.788   3.584  1.00  0.00     0.059 A 
ATOM     79  C   UNL     1      14.813 -10.640   2.438  1.00  0.00     0.059 A 
ATOM     80  F   UNL     1      15.361  -8.443   3.045  1.00  0.00    -0.206 F 
ATOM     81  C   UNL     1      14.021 -11.772   2.627  1.00  0.00     0.060 A 
BRANCH  81  82
ATOM     82  S   UNL     1      14.272 -13.236   1.601  1.00  0.00     0.124 S 
ATOM     83  O   UNL     1      14.928 -14.140   2.539  1.00  0.00    -0.237 OA
ATOM     84  O   UNL     1      12.905 -13.587   1.225  1.00  0.00    -0.237 OA
ATOM     85  O   UNL     1      15.106 -12.741   0.510  1.00  0.00    -0.744 OA
ENDBRANCH  81  82
ENDBRANCH  49  74
BRANCH  61  86
ATOM     86  C   UNL     1      14.435  -7.971  10.963  1.00  0.00     0.058 A 
ATOM     87  C   UNL     1      15.814  -8.138  11.150  1.00  0.00     0.135 A 
ATOM     88  C   UNL     1      13.569  -8.445  11.961  1.00  0.00     0.135 A 
ATOM     89  F   UNL     1      16.680  -7.709  10.218  1.00  0.00    -0.206 F 
ATOM     90  C   UNL     1      16.320  -8.743  12.294  1.00  0.00     0.059 A 
ATOM     91  C   UNL     1      14.054  -9.035  13.123  1.00  0.00     0.059 A 
ATOM     92  F   UNL     1      12.241  -8.301  11.827  1.00  0.00    -0.206 F 
ATOM     93  C   UNL     1      15.432  -9.178  13.281  1.00  0.00     0.060 A 
BRANCH  93  94
ATOM     94  S   UNL     1      16.109  -9.879  14.801  1.00  0.00     0.124 S 
ATOM     95  O   UNL     1      16.582 -11.180  14.340  1.00  0.00    -0.237 OA
ATOM     96  O   UNL     1      17.147  -8.915  15.153  1.00  0.00    -0.237 OA
ATOM     97  O   UNL     1      14.960  -9.912  15.702  1.00  0.00    -0.744 OA
ENDBRANCH  93  94
ENDBRANCH  61  86
ENDBRANCH  35  36
ENDBRANCH  27  30
ENDBRANCH  25  26
ENDBRANCH  24  25
ENDBRANCH   1  24
TORSDOF 17
