REMARK SMILES COc1ccc(-c2nn(-c3ccccc3)cc2/C=C2\SC(=S)N(CCC(=O)NCCCCNC(=O)c3ccc(-c4c5nc(c(-c6c(F)cc(S(=O)(=O)[O-])cc6F)c6ccc([nH]6)c(-c6c(F)cc(S(=O)(=O)[O-])cc6F)c6nc(c(-c7c(F)cc(S(=O)(=O)[O-])cc7F)c7ccc4[nH]7)C=C6)C=C5)cc3)C2=O)c(C)c1
REMARK SMILES IDX 29 1 28 2 26 3 27 4 25 6 24 7 23 8 18 9 19 10 20 11 102 12
REMARK SMILES IDX 21 13 103 14 22 15 17 16 7 17 8 18 9 19 16 20 6 21 3 22 4 23
REMARK SMILES IDX 106 24 5 25 104 26 105 27 2 28 1 29 10 30 11 31 15 32 12 33
REMARK SMILES IDX 14 34 13 35 30 36 31 37 32 38 33 39 34 40 35 42 36 43 37 44
REMARK SMILES IDX 101 45 38 46 100 47 39 48 40 49 41 50 94 51 42 52 99 53
REMARK SMILES IDX 93 54 95 55 43 56 98 57 92 58 91 59 44 61 78 62 57 63 77 64
REMARK SMILES IDX 58 65 61 66 76 67 96 68 59 69 60 70 75 72 97 73 62 74 45 75
REMARK SMILES IDX 46 76 55 77 47 78 48 79 54 80 56 81 49 82 50 83 51 84 52 85
REMARK SMILES IDX 53 86 79 87 80 88 89 89 81 90 82 91 88 92 90 93 83 94 84 95
REMARK SMILES IDX 85 96 86 97 87 98 63 99 64 100 73 101 65 102 66 103 72 104
REMARK SMILES IDX 74 105 67 106 68 107 69 108 70 109 71 110
REMARK H PARENT 28 5 33 41 95 60 61 71
REMARK Flexibility Score: inf
ROOT
ATOM      1  C   UNL     1       6.421  -4.038  -2.431  1.00  0.00     0.116 C 
ENDROOT
BRANCH   1   2
ATOM      2  N   UNL     1       6.661  -5.481  -2.315  1.00  0.00    -0.356 N 
ATOM      3  C   UNL     1       7.481  -6.282  -3.065  1.00  0.00     0.221 C 
ATOM      4  O   UNL     1       7.556  -7.482  -2.797  1.00  0.00    -0.275 OA
ATOM      5  H   UNL     1       6.163  -5.937  -1.599  1.00  0.00     0.163 HD
BRANCH   3   6
ATOM      6  C   UNL     1       8.315  -5.678  -4.184  1.00  0.00     0.122 C 
BRANCH   6   7
ATOM      7  C   UNL     1       7.963  -6.200  -5.598  1.00  0.00     0.137 C 
BRANCH   7   8
ATOM      8  N   UNL     1       6.862  -5.497  -6.302  1.00  0.00    -0.292 N 
ATOM      9  C   UNL     1       3.257  -5.325  -6.623  1.00  0.00     0.033 C 
ATOM     10  C   UNL     1       4.576  -5.128  -6.882  1.00  0.00     0.081 C 
ATOM     11  S   UNL     1       5.393  -3.736  -7.493  1.00  0.00    -0.054 SA
ATOM     12  C   UNL     1       5.619  -6.110  -6.435  1.00  0.00     0.266 C 
ATOM     13  C   UNL     1       6.967  -4.237  -6.867  1.00  0.00     0.148 C 
ATOM     14  O   UNL     1       5.372  -7.287  -6.208  1.00  0.00    -0.268 OA
ATOM     15  S   UNL     1       8.325  -3.265  -6.938  1.00  0.00    -0.052 S 
BRANCH   9  16
ATOM     16  C   UNL     1       2.121  -4.468  -6.881  1.00  0.00     0.022 A 
ATOM     17  C   UNL     1       0.830  -4.215  -6.204  1.00  0.00     0.100 A 
ATOM     18  N   UNL     1       0.058  -3.470  -7.047  1.00  0.00    -0.167 NA
ATOM     19  N   UNL     1       0.883  -3.043  -8.055  1.00  0.00    -0.240 N 
ATOM     20  C   UNL     1       2.085  -3.695  -8.015  1.00  0.00     0.123 A 
BRANCH  17  21
ATOM     21  C   UNL     1       0.343  -4.527  -4.759  1.00  0.00     0.006 A 
ATOM     22  C   UNL     1      -0.134  -4.183  -1.883  1.00  0.00     0.119 A 
ATOM     23  C   UNL     1       1.108  -4.535  -2.364  1.00  0.00     0.047 A 
ATOM     24  C   UNL     1      -1.176  -4.175  -2.807  1.00  0.00     0.050 A 
ATOM     25  C   UNL     1       1.304  -4.792  -3.757  1.00  0.00     0.014 A 
ATOM     26  C   UNL     1      -0.958  -4.287  -4.231  1.00  0.00    -0.038 A 
ATOM     27  C   UNL     1      -2.210  -4.084  -5.039  1.00  0.00     0.045 C 
BRANCH  22  28
ATOM     28  O   UNL     1      -0.443  -3.862  -0.590  1.00  0.00    -0.497 OA
ATOM     29  C   UNL     1       0.536  -3.140   0.171  1.00  0.00     0.278 C 
ENDBRANCH  22  28
ENDBRANCH  17  21
BRANCH  19  30
ATOM     30  C   UNL     1       0.469  -2.359  -9.239  1.00  0.00     0.065 A 
ATOM     31  C   UNL     1       1.079  -1.143  -9.586  1.00  0.00     0.028 A 
ATOM     32  C   UNL     1      -0.225  -3.061 -10.231  1.00  0.00     0.028 A 
ATOM     33  C   UNL     1       0.964  -0.605 -10.871  1.00  0.00     0.002 A 
ATOM     34  C   UNL     1      -0.305  -2.538 -11.534  1.00  0.00     0.002 A 
ATOM     35  C   UNL     1       0.283  -1.310 -11.853  1.00  0.00     0.000 A 
ENDBRANCH  19  30
ENDBRANCH   9  16
ENDBRANCH   7   8
ENDBRANCH   6   7
ENDBRANCH   3   6
ENDBRANCH   1   2
BRANCH   1  36
ATOM     36  C   UNL     1       5.822  -3.668  -3.786  1.00  0.00     0.023 C 
BRANCH  36  37
ATOM     37  C   UNL     1       4.322  -3.553  -3.814  1.00  0.00     0.023 C 
BRANCH  37  38
ATOM     38  C   UNL     1       3.568  -2.246  -4.036  1.00  0.00     0.116 C 
BRANCH  38  39
ATOM     39  N   UNL     1       3.413  -1.614  -5.328  1.00  0.00    -0.352 N 
ATOM     40  C   UNL     1       2.323  -0.866  -5.779  1.00  0.00     0.251 C 
ATOM     41  H   UNL     1       4.159  -1.724  -5.960  1.00  0.00     0.163 HD
ATOM     42  O   UNL     1       2.340  -0.410  -6.917  1.00  0.00    -0.269 OA
BRANCH  40  43
ATOM     43  C   UNL     1       1.132  -0.482  -4.977  1.00  0.00     0.039 A 
ATOM     44  C   UNL     1       0.619   0.816  -5.066  1.00  0.00     0.014 A 
ATOM     45  C   UNL     1       0.545  -1.312  -4.049  1.00  0.00     0.014 A 
ATOM     46  C   UNL     1      -0.106   1.342  -3.981  1.00  0.00     0.010 A 
ATOM     47  C   UNL     1      -0.358  -0.860  -3.110  1.00  0.00     0.010 A 
ATOM     48  C   UNL     1      -0.399   0.503  -2.898  1.00  0.00    -0.014 A 
BRANCH  48  49
ATOM     49  C   UNL     1       0.097   0.756  -1.518  1.00  0.00     0.031 A 
ATOM     50  C   UNL     1      -0.695   0.508  -0.289  1.00  0.00     0.074 A 
ATOM     51  C   UNL     1       1.454   0.726  -1.383  1.00  0.00     0.049 A 
ATOM     52  N   UNL     1      -0.311   0.909   0.875  1.00  0.00    -0.248 NA
ATOM     53  C   UNL     1      -1.940  -0.241  -0.232  1.00  0.00     0.031 C 
ATOM     54  C   UNL     1       2.252   0.410  -0.202  1.00  0.00     0.029 A 
ATOM     55  N   UNL     1       2.428   0.968  -2.337  1.00  0.00    -0.354 N 
ATOM     56  C   UNL     1      -1.034   0.245   1.844  1.00  0.00     0.074 A 
ATOM     57  C   UNL     1      -2.109  -0.369   1.094  1.00  0.00     0.031 C 
ATOM     58  C   UNL     1       3.542   0.693  -0.446  1.00  0.00     0.029 A 
ATOM     59  C   UNL     1       3.643   1.303  -1.759  1.00  0.00     0.049 A 
ATOM     60  H   UNL     1       2.276   0.908  -3.308  1.00  0.00     0.167 HD
ATOM     61  C   UNL     1      -0.551   0.238   3.130  1.00  0.00     0.037 A 
ATOM     62  C   UNL     1       4.139   2.547  -2.015  1.00  0.00     0.037 A 
ATOM     63  C   UNL     1       0.700   1.024   3.215  1.00  0.00     0.049 A 
ATOM     64  C   UNL     1       3.834   3.528  -0.898  1.00  0.00     0.074 A 
ATOM     65  C   UNL     1       2.029   0.710   3.453  1.00  0.00     0.029 A 
ATOM     66  N   UNL     1       0.694   2.355   2.802  1.00  0.00    -0.354 N 
ATOM     67  N   UNL     1       3.373   3.174   0.275  1.00  0.00    -0.248 NA
ATOM     68  C   UNL     1       3.999   4.976  -0.990  1.00  0.00     0.031 C 
ATOM     69  C   UNL     1       2.823   1.831   3.069  1.00  0.00     0.029 A 
ATOM     70  C   UNL     1       1.980   2.836   2.623  1.00  0.00     0.049 A 
ATOM     71  H   UNL     1      -0.122   2.887   2.657  1.00  0.00     0.167 HD
ATOM     72  C   UNL     1       2.974   4.281   0.978  1.00  0.00     0.074 A 
ATOM     73  C   UNL     1       3.500   5.383   0.193  1.00  0.00     0.031 C 
ATOM     74  C   UNL     1       2.187   4.189   2.098  1.00  0.00     0.037 A 
BRANCH  61  75
ATOM     75  C   UNL     1      -1.074  -0.557   4.337  1.00  0.00     0.058 A 
ATOM     76  C   UNL     1      -0.417  -0.481   5.594  1.00  0.00     0.135 A 
ATOM     77  C   UNL     1      -2.191  -1.419   4.345  1.00  0.00     0.135 A 
ATOM     78  F   UNL     1       0.654   0.303   5.778  1.00  0.00    -0.206 F 
ATOM     79  C   UNL     1      -0.817  -1.202   6.730  1.00  0.00     0.059 A 
ATOM     80  C   UNL     1      -2.620  -2.138   5.470  1.00  0.00     0.059 A 
ATOM     81  F   UNL     1      -2.938  -1.629   3.261  1.00  0.00    -0.206 F 
ATOM     82  C   UNL     1      -1.923  -2.032   6.660  1.00  0.00     0.060 A 
BRANCH  82  83
ATOM     83  S   UNL     1      -2.437  -2.959   8.120  1.00  0.00     0.124 S 
ATOM     84  O   UNL     1      -1.275  -3.809   8.363  1.00  0.00    -0.237 OA
ATOM     85  O   UNL     1      -2.666  -1.899   9.095  1.00  0.00    -0.237 OA
ATOM     86  O   UNL     1      -3.636  -3.662   7.672  1.00  0.00    -0.744 OA
ENDBRANCH  82  83
ENDBRANCH  61  75
BRANCH  62  87
ATOM     87  C   UNL     1       4.318   2.775  -3.483  1.00  0.00     0.058 A 
ATOM     88  C   UNL     1       5.436   2.142  -4.064  1.00  0.00     0.135 A 
ATOM     89  C   UNL     1       3.299   3.174  -4.367  1.00  0.00     0.135 A 
ATOM     90  F   UNL     1       6.441   1.718  -3.280  1.00  0.00    -0.206 F 
ATOM     91  C   UNL     1       5.506   1.832  -5.421  1.00  0.00     0.059 A 
ATOM     92  C   UNL     1       3.353   2.880  -5.745  1.00  0.00     0.059 A 
ATOM     93  F   UNL     1       2.183   3.747  -3.890  1.00  0.00    -0.206 F 
ATOM     94  C   UNL     1       4.448   2.178  -6.255  1.00  0.00     0.060 A 
BRANCH  94  95
ATOM     95  S   UNL     1       4.529   1.608  -7.981  1.00  0.00     0.124 S 
ATOM     96  O   UNL     1       5.590   2.459  -8.513  1.00  0.00    -0.237 OA
ATOM     97  O   UNL     1       4.898   0.201  -7.828  1.00  0.00    -0.237 OA
ATOM     98  O   UNL     1       3.198   1.890  -8.509  1.00  0.00    -0.744 OA
ENDBRANCH  94  95
ENDBRANCH  62  87
BRANCH  74  99
ATOM     99  C   UNL     1       1.539   5.358   2.823  1.00  0.00     0.058 A 
ATOM    100  C   UNL     1       1.199   6.584   2.225  1.00  0.00     0.135 A 
ATOM    101  C   UNL     1       1.134   5.220   4.176  1.00  0.00     0.135 A 
ATOM    102  F   UNL     1       1.386   6.801   0.916  1.00  0.00    -0.206 F 
ATOM    103  C   UNL     1       0.606   7.630   2.938  1.00  0.00     0.059 A 
ATOM    104  C   UNL     1       0.475   6.223   4.885  1.00  0.00     0.059 A 
ATOM    105  F   UNL     1       1.361   4.089   4.862  1.00  0.00    -0.206 F 
ATOM    106  C   UNL     1       0.258   7.445   4.271  1.00  0.00     0.060 A 
BRANCH 106 107
ATOM    107  S   UNL     1      -0.505   8.792   5.193  1.00  0.00     0.124 S 
ATOM    108  O   UNL     1       0.669   9.512   5.676  1.00  0.00    -0.237 OA
ATOM    109  O   UNL     1      -1.289   9.479   4.171  1.00  0.00    -0.237 OA
ATOM    110  O   UNL     1      -1.287   8.101   6.213  1.00  0.00    -0.744 OA
ENDBRANCH 106 107
ENDBRANCH  74  99
ENDBRANCH  48  49
ENDBRANCH  40  43
ENDBRANCH  38  39
ENDBRANCH  37  38
ENDBRANCH  36  37
ENDBRANCH   1  36
TORSDOF 20
