REMARK SMILES CSCC[C@H](C(=O)NCCCCNC(=O)c1ccc(-c2c3nc(c(-c4c(F)cc(S(=O)(=O)[O-])cc4F)c4ccc([nH]4)c(-c4c(F)cc(S(=O)(=O)[O-])cc4F)c4nc(c(-c5c(F)cc(S(=O)(=O)[O-])cc5F)c5ccc2[nH]5)C=C4)C=C3)cc1)N1C(=O)/C(=C/c2ccc3ncccc3c2)SC1=S
REMARK SMILES IDX 10 1 9 2 8 3 6 4 7 5 5 7 4 8 3 9 2 10 1 11 82 12 83 13 98 14
REMARK SMILES IDX 84 15 85 16 97 17 99 18 86 19 87 20 88 21 96 22 89 23 95 24
REMARK SMILES IDX 90 25 94 26 91 27 93 28 92 29 11 30 12 31 13 32 14 33 15 35
REMARK SMILES IDX 16 36 17 37 81 38 18 39 80 40 19 41 20 42 21 43 74 44 22 45
REMARK SMILES IDX 79 46 73 47 75 48 23 49 78 50 72 51 71 52 24 54 58 55 37 56
REMARK SMILES IDX 57 57 38 58 41 59 56 60 76 61 39 62 40 63 55 65 77 66 42 67
REMARK SMILES IDX 25 68 26 69 35 70 27 71 28 72 34 73 36 74 29 75 30 76 31 77
REMARK SMILES IDX 32 78 33 79 59 80 60 81 69 82 61 83 62 84 68 85 70 86 63 87
REMARK SMILES IDX 64 88 65 89 66 90 67 91 43 92 44 93 53 94 45 95 46 96 52 97
REMARK SMILES IDX 54 98 47 99 48 100 49 101 50 102 51 103
REMARK H PARENT 8 6 13 34 75 53 41 64
REMARK Flexibility Score: inf
ROOT
ATOM      1  C   UNL     1       3.067  -3.978   3.537  1.00  0.00     0.023 C 
ENDROOT
BRANCH   1   2
ATOM      2  C   UNL     1       1.692  -4.065   2.870  1.00  0.00     0.116 C 
BRANCH   2   3
ATOM      3  N   UNL     1       1.129  -2.786   2.502  1.00  0.00    -0.354 N 
ATOM      4  C   UNL     1       0.597  -2.462   1.287  1.00  0.00     0.243 C 
ATOM      5  O   UNL     1      -0.432  -1.778   1.287  1.00  0.00    -0.273 OA
ATOM      6  H   UNL     1       1.128  -2.083   3.192  1.00  0.00     0.163 HD
BRANCH   4   7
ATOM      7  C   UNL     1       1.270  -2.847  -0.057  1.00  0.00     0.182 C 
BRANCH   7   8
ATOM      8  C   UNL     1       2.775  -3.194  -0.166  1.00  0.00     0.046 C 
BRANCH   8   9
ATOM      9  C   UNL     1       3.487  -4.552   0.031  1.00  0.00     0.072 C 
BRANCH   9  10
ATOM     10  S   UNL     1       2.893  -6.171  -0.540  1.00  0.00    -0.165 SA
ATOM     11  C   UNL     1       2.301  -6.975   0.998  1.00  0.00     0.085 C 
ENDBRANCH   9  10
ENDBRANCH   8   9
ENDBRANCH   7   8
BRANCH   7  12
ATOM     12  N   UNL     1       0.415  -3.561  -1.010  1.00  0.00    -0.280 N 
ATOM     13  C   UNL     1      -0.014  -4.814  -0.677  1.00  0.00     0.266 C 
ATOM     14  C   UNL     1       0.047  -3.143  -2.272  1.00  0.00     0.149 C 
ATOM     15  O   UNL     1      -0.179  -5.234   0.463  1.00  0.00    -0.268 OA
ATOM     16  C   UNL     1      -0.236  -5.603  -1.909  1.00  0.00     0.081 C 
ATOM     17  S   UNL     1      -0.486  -4.544  -3.224  1.00  0.00    -0.054 SA
ATOM     18  S   UNL     1       0.106  -1.609  -2.926  1.00  0.00    -0.052 S 
ATOM     19  C   UNL     1      -0.066  -6.928  -1.859  1.00  0.00     0.029 C 
BRANCH  19  20
ATOM     20  C   UNL     1      -0.095  -7.939  -2.910  1.00  0.00    -0.024 A 
ATOM     21  C   UNL     1      -0.856  -9.073  -2.629  1.00  0.00     0.010 A 
ATOM     22  C   UNL     1       0.625  -7.878  -4.106  1.00  0.00     0.018 A 
ATOM     23  C   UNL     1      -1.006 -10.075  -3.581  1.00  0.00     0.029 A 
ATOM     24  C   UNL     1       0.450  -8.885  -5.079  1.00  0.00     0.001 A 
ATOM     25  C   UNL     1      -0.410  -9.977  -4.824  1.00  0.00     0.070 A 
ATOM     26  C   UNL     1       1.071  -8.835  -6.336  1.00  0.00     0.012 A 
ATOM     27  N   UNL     1      -0.693 -10.914  -5.741  1.00  0.00    -0.256 NA
ATOM     28  C   UNL     1       0.758  -9.789  -7.300  1.00  0.00     0.021 A 
ATOM     29  C   UNL     1      -0.135 -10.788  -6.961  1.00  0.00     0.112 A 
ENDBRANCH  19  20
ENDBRANCH   7  12
ENDBRANCH   4   7
ENDBRANCH   2   3
ENDBRANCH   1   2
BRANCH   1  30
ATOM     30  C   UNL     1       3.164  -4.678   4.890  1.00  0.00     0.023 C 
BRANCH  30  31
ATOM     31  C   UNL     1       2.808  -6.162   4.904  1.00  0.00     0.116 C 
BRANCH  31  32
ATOM     32  N   UNL     1       3.784  -7.035   4.261  1.00  0.00    -0.352 N 
ATOM     33  C   UNL     1       4.254  -8.259   4.695  1.00  0.00     0.251 C 
ATOM     34  H   UNL     1       4.156  -6.710   3.409  1.00  0.00     0.163 HD
ATOM     35  O   UNL     1       5.080  -8.879   4.035  1.00  0.00    -0.269 OA
BRANCH  33  36
ATOM     36  C   UNL     1       3.798  -8.773   6.005  1.00  0.00     0.039 A 
ATOM     37  C   UNL     1       4.754  -9.066   6.980  1.00  0.00     0.014 A 
ATOM     38  C   UNL     1       2.436  -8.830   6.306  1.00  0.00     0.014 A 
ATOM     39  C   UNL     1       4.342  -9.309   8.293  1.00  0.00     0.010 A 
ATOM     40  C   UNL     1       2.038  -8.976   7.631  1.00  0.00     0.010 A 
ATOM     41  C   UNL     1       2.985  -9.204   8.643  1.00  0.00    -0.014 A 
BRANCH  41  42
ATOM     42  C   UNL     1       2.538  -9.309  10.059  1.00  0.00     0.031 A 
ATOM     43  C   UNL     1       1.568 -10.387  10.464  1.00  0.00     0.074 A 
ATOM     44  C   UNL     1       2.944  -8.393  10.963  1.00  0.00     0.049 A 
ATOM     45  N   UNL     1       1.010 -10.600  11.628  1.00  0.00    -0.248 NA
ATOM     46  C   UNL     1       1.146 -11.331   9.416  1.00  0.00     0.031 C 
ATOM     47  C   UNL     1       3.837  -7.264  10.687  1.00  0.00     0.029 A 
ATOM     48  N   UNL     1       2.653  -8.259  12.299  1.00  0.00    -0.354 N 
ATOM     49  C   UNL     1       0.161 -11.686  11.447  1.00  0.00     0.074 A 
ATOM     50  C   UNL     1       0.230 -12.048  10.049  1.00  0.00     0.031 C 
ATOM     51  C   UNL     1       4.047  -6.577  11.821  1.00  0.00     0.029 A 
ATOM     52  C   UNL     1       3.271  -7.184  12.898  1.00  0.00     0.049 A 
ATOM     53  H   UNL     1       2.058  -8.875  12.784  1.00  0.00     0.167 HD
ATOM     54  C   UNL     1      -0.587 -12.340  12.367  1.00  0.00     0.037 A 
ATOM     55  C   UNL     1       3.214  -6.733  14.168  1.00  0.00     0.037 A 
ATOM     56  C   UNL     1      -0.629 -11.994  13.763  1.00  0.00     0.049 A 
ATOM     57  C   UNL     1       2.370  -7.475  15.171  1.00  0.00     0.074 A 
ATOM     58  C   UNL     1      -1.302 -12.637  14.787  1.00  0.00     0.029 A 
ATOM     59  N   UNL     1       0.022 -10.909  14.332  1.00  0.00    -0.354 N 
ATOM     60  N   UNL     1       1.635  -8.548  14.997  1.00  0.00    -0.248 NA
ATOM     61  C   UNL     1       2.352  -6.950  16.544  1.00  0.00     0.031 C 
ATOM     62  C   UNL     1      -1.104 -11.909  15.964  1.00  0.00     0.029 A 
ATOM     63  C   UNL     1      -0.256 -10.849  15.688  1.00  0.00     0.049 A 
ATOM     64  H   UNL     1       0.597 -10.276  13.845  1.00  0.00     0.167 HD
ATOM     65  C   UNL     1       1.094  -8.845  16.245  1.00  0.00     0.074 A 
ATOM     66  C   UNL     1       1.597  -7.846  17.165  1.00  0.00     0.031 C 
ATOM     67  C   UNL     1       0.260  -9.854  16.596  1.00  0.00     0.037 A 
BRANCH  54  68
ATOM     68  C   UNL     1      -1.420 -13.502  11.894  1.00  0.00     0.058 A 
ATOM     69  C   UNL     1      -0.836 -14.703  11.458  1.00  0.00     0.135 A 
ATOM     70  C   UNL     1      -2.822 -13.428  11.914  1.00  0.00     0.135 A 
ATOM     71  F   UNL     1       0.500 -14.825  11.402  1.00  0.00    -0.206 F 
ATOM     72  C   UNL     1      -1.611 -15.776  11.032  1.00  0.00     0.059 A 
ATOM     73  C   UNL     1      -3.618 -14.501  11.524  1.00  0.00     0.059 A 
ATOM     74  F   UNL     1      -3.434 -12.304  12.320  1.00  0.00    -0.206 F 
ATOM     75  C   UNL     1      -3.002 -15.666  11.071  1.00  0.00     0.060 A 
BRANCH  75  76
ATOM     76  S   UNL     1      -3.990 -17.075  10.527  1.00  0.00     0.124 S 
ATOM     77  O   UNL     1      -3.761 -17.051   9.085  1.00  0.00    -0.237 OA
ATOM     78  O   UNL     1      -3.374 -18.184  11.248  1.00  0.00    -0.237 OA
ATOM     79  O   UNL     1      -5.342 -16.727  10.952  1.00  0.00    -0.744 OA
ENDBRANCH  75  76
ENDBRANCH  54  68
BRANCH  55  80
ATOM     80  C   UNL     1       3.997  -5.532  14.574  1.00  0.00     0.058 A 
ATOM     81  C   UNL     1       5.086  -5.644  15.453  1.00  0.00     0.135 A 
ATOM     82  C   UNL     1       3.673  -4.252  14.099  1.00  0.00     0.135 A 
ATOM     83  F   UNL     1       5.432  -6.844  15.943  1.00  0.00    -0.206 F 
ATOM     84  C   UNL     1       5.812  -4.529  15.862  1.00  0.00     0.059 A 
ATOM     85  C   UNL     1       4.403  -3.126  14.471  1.00  0.00     0.059 A 
ATOM     86  F   UNL     1       2.651  -4.089  13.245  1.00  0.00    -0.206 F 
ATOM     87  C   UNL     1       5.464  -3.274  15.363  1.00  0.00     0.060 A 
BRANCH  87  88
ATOM     88  S   UNL     1       6.441  -1.840  15.867  1.00  0.00     0.124 S 
ATOM     89  O   UNL     1       6.033  -1.681  17.258  1.00  0.00    -0.237 OA
ATOM     90  O   UNL     1       7.805  -2.310  15.650  1.00  0.00    -0.237 OA
ATOM     91  O   UNL     1       5.994  -0.792  14.954  1.00  0.00    -0.744 OA
ENDBRANCH  87  88
ENDBRANCH  55  80
BRANCH  67  92
ATOM     92  C   UNL     1      -0.133  -9.962  18.045  1.00  0.00     0.058 A 
ATOM     93  C   UNL     1      -1.006  -9.044  18.648  1.00  0.00     0.135 A 
ATOM     94  C   UNL     1       0.327 -11.037  18.824  1.00  0.00     0.135 A 
ATOM     95  F   UNL     1      -1.471  -7.995  17.951  1.00  0.00    -0.206 F 
ATOM     96  C   UNL     1      -1.390  -9.173  19.979  1.00  0.00     0.059 A 
ATOM     97  C   UNL     1      -0.070 -11.204  20.147  1.00  0.00     0.059 A 
ATOM     98  F   UNL     1       1.155 -11.951  18.295  1.00  0.00    -0.206 F 
ATOM     99  C   UNL     1      -0.919 -10.259  20.720  1.00  0.00     0.060 A 
BRANCH  99 100
ATOM    100  S   UNL     1      -1.455 -10.433  22.435  1.00  0.00     0.124 S 
ATOM    101  O   UNL     1      -0.712  -9.358  23.085  1.00  0.00    -0.237 OA
ATOM    102  O   UNL     1      -2.897 -10.235  22.332  1.00  0.00    -0.237 OA
ATOM    103  O   UNL     1      -1.037 -11.787  22.786  1.00  0.00    -0.744 OA
ENDBRANCH  99 100
ENDBRANCH  67  92
ENDBRANCH  41  42
ENDBRANCH  33  36
ENDBRANCH  31  32
ENDBRANCH  30  31
ENDBRANCH   1  30
TORSDOF 19
