REMARK SMILES O=C(NCCCCNC(=O)c1cc(NC(=S)NC(=O)c2ccccc2Cl)c(Cl)cc1Cl)c1ccc(-c2c3nc(c(-c4c(F)cc(S(=O)(=O)[O-])cc4F)c4ccc([nH]4)c(-c4c(F)cc(S(=O)(=O)[O-])cc4F)c4nc(c(-c5c(F)cc(S(=O)(=O)[O-])cc5F)c5ccc2[nH]5)C=C4)C=C3)cc1
REMARK SMILES IDX 6 1 5 2 4 3 3 4 1 5 2 6 32 8 33 9 97 10 34 11 96 12 35 13
REMARK SMILES IDX 36 14 37 15 90 16 38 17 95 18 89 19 91 20 39 21 94 22 88 23
REMARK SMILES IDX 87 24 40 26 74 27 53 28 73 29 54 30 57 31 72 32 92 33 55 34
REMARK SMILES IDX 56 35 71 37 93 38 58 39 41 40 42 41 51 42 43 43 44 44 50 45
REMARK SMILES IDX 52 46 45 47 46 48 47 49 48 50 49 51 75 52 76 53 85 54 77 55
REMARK SMILES IDX 78 56 84 57 86 58 79 59 80 60 81 61 82 62 83 63 59 64 60 65
REMARK SMILES IDX 69 66 61 67 62 68 68 69 70 70 63 71 64 72 65 73 66 74 67 75
REMARK SMILES IDX 7 76 8 77 9 78 10 80 11 81 12 82 30 83 13 84 29 85 31 86
REMARK SMILES IDX 27 87 28 88 14 89 15 91 16 92 17 93 18 94 19 96 20 97 21 98
REMARK SMILES IDX 25 99 22 100 24 101 26 102 23 103
REMARK H PARENT 3 7 91 25 57 36 8 79 14 90 17 95
REMARK Flexibility Score: inf
ROOT
ATOM      1  C   UNL     1       5.323   3.195   1.094  1.00  0.00     0.023 C 
ENDROOT
BRANCH   1   2
ATOM      2  C   UNL     1       5.322   2.301  -0.136  1.00  0.00     0.023 C 
BRANCH   2   3
ATOM      3  C   UNL     1       4.746   0.918   0.113  1.00  0.00     0.116 C 
BRANCH   3   4
ATOM      4  N   UNL     1       3.303   0.895   0.309  1.00  0.00    -0.352 N 
ATOM      5  O   UNL     1       1.215   0.061  -0.052  1.00  0.00    -0.269 OA
ATOM      6  C   UNL     1       2.425  -0.036  -0.210  1.00  0.00     0.251 C 
ATOM      7  H   UNL     1       2.917   1.610   0.864  1.00  0.00     0.163 HD
BRANCH   6   8
ATOM      8  C   UNL     1       3.010  -1.138  -1.001  1.00  0.00     0.039 A 
ATOM      9  C   UNL     1       4.039  -1.897  -0.437  1.00  0.00     0.014 A 
ATOM     10  C   UNL     1       2.660  -1.285  -2.344  1.00  0.00     0.014 A 
ATOM     11  C   UNL     1       4.826  -2.687  -1.259  1.00  0.00     0.010 A 
ATOM     12  C   UNL     1       3.381  -2.177  -3.142  1.00  0.00     0.010 A 
ATOM     13  C   UNL     1       4.480  -2.870  -2.609  1.00  0.00    -0.014 A 
BRANCH  13  14
ATOM     14  C   UNL     1       5.185  -3.916  -3.389  1.00  0.00     0.031 A 
ATOM     15  C   UNL     1       5.979  -3.596  -4.623  1.00  0.00     0.074 A 
ATOM     16  C   UNL     1       5.070  -5.186  -2.950  1.00  0.00     0.049 A 
ATOM     17  N   UNL     1       6.591  -4.420  -5.434  1.00  0.00    -0.248 NA
ATOM     18  C   UNL     1       6.102  -2.180  -5.007  1.00  0.00     0.031 C 
ATOM     19  C   UNL     1       4.300  -5.599  -1.769  1.00  0.00     0.029 A 
ATOM     20  N   UNL     1       5.586  -6.360  -3.429  1.00  0.00    -0.354 N 
ATOM     21  C   UNL     1       7.144  -3.635  -6.440  1.00  0.00     0.074 A 
ATOM     22  C   UNL     1       6.797  -2.263  -6.138  1.00  0.00     0.031 C 
ATOM     23  C   UNL     1       4.422  -6.920  -1.599  1.00  0.00     0.029 A 
ATOM     24  C   UNL     1       5.191  -7.462  -2.708  1.00  0.00     0.049 A 
ATOM     25  H   UNL     1       6.181  -6.410  -4.212  1.00  0.00     0.167 HD
ATOM     26  C   UNL     1       7.866  -4.038  -7.513  1.00  0.00     0.037 A 
ATOM     27  C   UNL     1       5.372  -8.774  -2.941  1.00  0.00     0.037 A 
ATOM     28  C   UNL     1       8.218  -5.413  -7.775  1.00  0.00     0.049 A 
ATOM     29  C   UNL     1       6.147  -9.182  -4.157  1.00  0.00     0.074 A 
ATOM     30  C   UNL     1       9.014  -5.915  -8.790  1.00  0.00     0.029 A 
ATOM     31  N   UNL     1       7.785  -6.503  -7.033  1.00  0.00    -0.354 N 
ATOM     32  N   UNL     1       6.723  -8.421  -5.057  1.00  0.00    -0.248 NA
ATOM     33  C   UNL     1       6.287 -10.622  -4.401  1.00  0.00     0.031 C 
ATOM     34  C   UNL     1       9.006  -7.311  -8.703  1.00  0.00     0.029 A 
ATOM     35  C   UNL     1       8.255  -7.677  -7.598  1.00  0.00     0.049 A 
ATOM     36  H   UNL     1       7.225  -6.449  -6.224  1.00  0.00     0.167 HD
ATOM     37  C   UNL     1       7.298  -9.290  -5.972  1.00  0.00     0.074 A 
ATOM     38  C   UNL     1       7.032 -10.633  -5.497  1.00  0.00     0.031 C 
ATOM     39  C   UNL     1       7.975  -9.004  -7.110  1.00  0.00     0.037 A 
BRANCH  26  40
ATOM     40  C   UNL     1       8.318  -3.009  -8.515  1.00  0.00     0.058 A 
ATOM     41  C   UNL     1       9.376  -2.126  -8.250  1.00  0.00     0.135 A 
ATOM     42  C   UNL     1       7.769  -3.000  -9.809  1.00  0.00     0.135 A 
ATOM     43  F   UNL     1       9.931  -2.082  -7.029  1.00  0.00    -0.206 F 
ATOM     44  C   UNL     1       9.877  -1.276  -9.234  1.00  0.00     0.059 A 
ATOM     45  C   UNL     1       8.269  -2.175 -10.814  1.00  0.00     0.059 A 
ATOM     46  F   UNL     1       6.754  -3.823 -10.117  1.00  0.00    -0.206 F 
ATOM     47  C   UNL     1       9.325  -1.317 -10.516  1.00  0.00     0.060 A 
BRANCH  47  48
ATOM     48  S   UNL     1      10.030  -0.252 -11.794  1.00  0.00     0.124 S 
ATOM     49  O   UNL     1       9.605   1.069 -11.341  1.00  0.00    -0.237 OA
ATOM     50  O   UNL     1      11.457  -0.532 -11.678  1.00  0.00    -0.237 OA
ATOM     51  O   UNL     1       9.398  -0.726 -13.021  1.00  0.00    -0.744 OA
ENDBRANCH  47  48
ENDBRANCH  26  40
BRANCH  27  52
ATOM     52  C   UNL     1       4.747  -9.780  -2.045  1.00  0.00     0.058 A 
ATOM     53  C   UNL     1       5.527 -10.637  -1.257  1.00  0.00     0.135 A 
ATOM     54  C   UNL     1       3.350  -9.904  -1.960  1.00  0.00     0.135 A 
ATOM     55  F   UNL     1       6.866 -10.555  -1.301  1.00  0.00    -0.206 F 
ATOM     56  C   UNL     1       4.947 -11.606  -0.446  1.00  0.00     0.059 A 
ATOM     57  C   UNL     1       2.746 -10.838  -1.129  1.00  0.00     0.059 A 
ATOM     58  F   UNL     1       2.556  -9.090  -2.674  1.00  0.00    -0.206 F 
ATOM     59  C   UNL     1       3.555 -11.701  -0.393  1.00  0.00     0.060 A 
BRANCH  59  60
ATOM     60  S   UNL     1       2.812 -12.965   0.658  1.00  0.00     0.124 S 
ATOM     61  O   UNL     1       3.082 -14.176  -0.109  1.00  0.00    -0.237 OA
ATOM     62  O   UNL     1       3.564 -12.814   1.899  1.00  0.00    -0.237 OA
ATOM     63  O   UNL     1       1.411 -12.561   0.729  1.00  0.00    -0.744 OA
ENDBRANCH  59  60
ENDBRANCH  27  52
BRANCH  39  64
ATOM     64  C   UNL     1       8.479 -10.169  -7.914  1.00  0.00     0.058 A 
ATOM     65  C   UNL     1       7.603 -10.982  -8.649  1.00  0.00     0.135 A 
ATOM     66  C   UNL     1       9.853 -10.446  -7.986  1.00  0.00     0.135 A 
ATOM     67  F   UNL     1       6.278 -10.767  -8.599  1.00  0.00    -0.206 F 
ATOM     68  C   UNL     1       8.071 -12.040  -9.418  1.00  0.00     0.059 A 
ATOM     69  C   UNL     1      10.346 -11.480  -8.774  1.00  0.00     0.059 A 
ATOM     70  F   UNL     1      10.732  -9.695  -7.303  1.00  0.00    -0.206 F 
ATOM     71  C   UNL     1       9.445 -12.277  -9.480  1.00  0.00     0.060 A 
BRANCH  71  72
ATOM     72  S   UNL     1      10.040 -13.622 -10.525  1.00  0.00     0.124 S 
ATOM     73  O   UNL     1       9.620 -14.794  -9.764  1.00  0.00    -0.237 OA
ATOM     74  O   UNL     1       9.324 -13.386 -11.774  1.00  0.00    -0.237 OA
ATOM     75  O   UNL     1      11.482 -13.396 -10.583  1.00  0.00    -0.744 OA
ENDBRANCH  71  72
ENDBRANCH  39  64
ENDBRANCH  13  14
ENDBRANCH   6   8
ENDBRANCH   3   4
ENDBRANCH   2   3
ENDBRANCH   1   2
BRANCH   1  76
ATOM     76  C   UNL     1       6.106   2.599   2.269  1.00  0.00     0.116 C 
BRANCH  76  77
ATOM     77  N   UNL     1       7.127   3.509   2.792  1.00  0.00    -0.352 N 
ATOM     78  C   UNL     1       7.424   4.494   3.695  1.00  0.00     0.252 C 
ATOM     79  H   UNL     1       7.948   3.341   2.276  1.00  0.00     0.163 HD
ATOM     80  O   UNL     1       8.633   4.742   3.586  1.00  0.00    -0.269 OA
BRANCH  78  81
ATOM     81  C   UNL     1       6.654   5.285   4.830  1.00  0.00     0.060 A 
ATOM     82  C   UNL     1       4.864   5.298   5.768  1.00  0.00     0.043 A 
ATOM     83  C   UNL     1       7.837   6.522   5.518  1.00  0.00     0.055 A 
ATOM     84  C   UNL     1       4.514   6.207   7.154  1.00  0.00     0.060 A 
ATOM     85  C   UNL     1       7.317   7.526   6.912  1.00  0.00     0.044 A 
ATOM     86  Cl  UNL     1       9.409   6.939   4.937  1.00  0.00    -0.083 Cl
ATOM     87  C   UNL     1       5.717   7.347   7.688  1.00  0.00     0.066 A 
ATOM     88  Cl  UNL     1       5.438   8.210   9.155  1.00  0.00    -0.082 Cl
BRANCH  84  89
ATOM     89  N   UNL     1       3.526   5.546   7.913  1.00  0.00    -0.331 N 
ATOM     90  H   UNL     1       3.199   6.055   8.690  1.00  0.00     0.169 HD
BRANCH  89  91
ATOM     91  C   UNL     1       2.938   4.305   7.752  1.00  0.00     0.177 C 
ATOM     92  S   UNL     1       1.696   3.938   8.827  1.00  0.00    -0.040 S 
BRANCH  91  93
ATOM     93  N   UNL     1       3.246   3.271   6.805  1.00  0.00    -0.299 N 
ATOM     94  C   UNL     1       4.000   2.671   5.666  1.00  0.00     0.258 C 
ATOM     95  H   UNL     1       2.599   2.565   7.035  1.00  0.00     0.172 HD
ATOM     96  O   UNL     1       3.606   1.634   5.140  1.00  0.00    -0.269 OA
BRANCH  94  97
ATOM     97  C   UNL     1       5.203   3.364   5.067  1.00  0.00     0.058 A 
ATOM     98  C   UNL     1       4.690   4.559   3.794  1.00  0.00     0.015 A 
ATOM     99  C   UNL     1       6.194   3.779   6.425  1.00  0.00     0.053 A 
ATOM    100  C   UNL     1       4.953   6.312   3.942  1.00  0.00     0.001 A 
ATOM    101  C   UNL     1       6.486   5.489   6.726  1.00  0.00     0.021 A 
ATOM    102  Cl  UNL     1       6.580   2.644   7.656  1.00  0.00    -0.083 Cl
ATOM    103  C   UNL     1       5.780   6.885   5.438  1.00  0.00     0.002 A 
ENDBRANCH  94  97
ENDBRANCH  91  93
ENDBRANCH  89  91
ENDBRANCH  84  89
ENDBRANCH  78  81
ENDBRANCH  76  77
ENDBRANCH   1  76
TORSDOF 18
