REMARK SMILES Cc1cc2nc(NC(=O)[C@H]3[C@@H](C(=O)NCCCCNC(=O)c4ccc(-c5c6nc(c(-c7c(F)cc(S(=O)(=O)[O-])cc7F)c7ccc([nH]7)c(-c7c(F)cc(S(=O)(=O)[O-])cc7F)c7nc(c(-c8c(F)cc(S(=O)(=O)[O-])cc8F)c8ccc5[nH]8)C=C7)C=C6)cc4)[C@@H]4C=C[C@H]3C4)sc2cc1C
REMARK SMILES IDX 17 1 16 2 15 3 14 4 12 5 13 6 11 8 10 9 91 10 88 11 90 12
REMARK SMILES IDX 92 13 89 14 8 15 7 16 9 18 6 19 1 20 2 21 3 22 96 23 4 24
REMARK SMILES IDX 95 25 97 26 5 27 94 28 93 29 18 30 19 31 20 32 21 34 22 35
REMARK SMILES IDX 23 36 87 37 24 38 86 39 25 40 26 41 27 42 80 43 28 44 85 45
REMARK SMILES IDX 79 46 81 47 29 48 84 49 78 50 77 51 30 53 64 54 43 55 63 56
REMARK SMILES IDX 44 57 47 58 62 59 82 60 45 61 46 62 61 64 83 65 48 66 31 67
REMARK SMILES IDX 32 68 41 69 33 70 34 71 40 72 42 73 35 74 36 75 37 76 38 77
REMARK SMILES IDX 39 78 65 79 66 80 75 81 67 82 68 83 74 84 76 85 69 86 70 87
REMARK SMILES IDX 71 88 72 89 73 90 49 91 50 92 59 93 51 94 52 95 58 96 60 97
REMARK SMILES IDX 53 98 54 99 55 100 56 101 57 102
REMARK H PARENT 14 7 7 17 19 33 81 52 47 63
REMARK Flexibility Score: inf
ROOT
ATOM      1  C   UNL     1       1.072   4.035   4.429  1.00  0.00     0.023 C 
ENDROOT
BRANCH   1   2
ATOM      2  C   UNL     1      -0.440   4.108   4.658  1.00  0.00     0.023 C 
BRANCH   2   3
ATOM      3  C   UNL     1      -1.121   3.172   5.654  1.00  0.00     0.116 C 
BRANCH   3   4
ATOM      4  N   UNL     1      -0.420   2.834   6.860  1.00  0.00    -0.356 N 
ATOM      5  C   UNL     1      -0.745   1.949   7.838  1.00  0.00     0.224 C 
ATOM      6  O   UNL     1      -0.039   1.996   8.856  1.00  0.00    -0.275 OA
ATOM      7  H   UNL     1       0.426   3.318   7.000  1.00  0.00     0.163 HD
BRANCH   5   8
ATOM      8  C   UNL     1      -1.926   0.967   7.815  1.00  0.00     0.098 C 
ATOM      9  C   UNL     1      -2.102  -0.159   6.733  1.00  0.00     0.099 C 
ATOM     10  C   UNL     1      -3.619  -0.092   6.448  1.00  0.00     0.025 C 
ATOM     11  C   UNL     1      -3.349   1.591   7.912  1.00  0.00     0.025 C 
ATOM     12  C   UNL     1      -4.391  -0.455   7.705  1.00  0.00    -0.027 C 
ATOM     13  C   UNL     1      -3.900   1.415   6.501  1.00  0.00     0.017 C 
ATOM     14  C   UNL     1      -4.255   0.562   8.570  1.00  0.00    -0.027 C 
BRANCH   9  15
ATOM     15  C   UNL     1      -1.002  -0.259   5.665  1.00  0.00     0.230 C 
ATOM     16  N   UNL     1      -1.095  -0.126   4.318  1.00  0.00    -0.302 N 
ATOM     17  H   UNL     1      -0.293  -0.401   3.816  1.00  0.00     0.172 HD
ATOM     18  O   UNL     1       0.149  -0.499   6.073  1.00  0.00    -0.274 OA
BRANCH  16  19
ATOM     19  C   UNL     1      -2.126   0.330   3.551  1.00  0.00     0.190 A 
ATOM     20  C   UNL     1      -7.217   3.224   2.375  1.00  0.00     0.044 C 
ATOM     21  C   UNL     1      -5.811   2.732   2.172  1.00  0.00    -0.046 A 
ATOM     22  C   UNL     1      -5.292   1.835   3.115  1.00  0.00     0.033 A 
ATOM     23  C   UNL     1      -5.011   3.130   1.084  1.00  0.00    -0.047 A 
ATOM     24  C   UNL     1      -3.990   1.334   2.978  1.00  0.00     0.084 A 
ATOM     25  C   UNL     1      -3.704   2.612   0.929  1.00  0.00     0.025 A 
ATOM     26  C   UNL     1      -5.485   4.136   0.066  1.00  0.00     0.044 C 
ATOM     27  N   UNL     1      -3.358   0.531   3.896  1.00  0.00    -0.220 NA
ATOM     28  C   UNL     1      -3.224   1.698   1.878  1.00  0.00     0.057 A 
ATOM     29  S   UNL     1      -1.731   0.839   1.972  1.00  0.00    -0.097 S 
ENDBRANCH  16  19
ENDBRANCH   9  15
ENDBRANCH   5   8
ENDBRANCH   3   4
ENDBRANCH   2   3
ENDBRANCH   1   2
BRANCH   1  30
ATOM     30  C   UNL     1       1.683   2.707   3.990  1.00  0.00     0.116 C 
BRANCH  30  31
ATOM     31  N   UNL     1       1.107   2.120   2.798  1.00  0.00    -0.352 N 
ATOM     32  C   UNL     1       1.609   1.942   1.534  1.00  0.00     0.251 C 
ATOM     33  H   UNL     1       0.188   1.788   2.917  1.00  0.00     0.163 HD
ATOM     34  O   UNL     1       1.398   0.860   0.982  1.00  0.00    -0.269 OA
BRANCH  32  35
ATOM     35  C   UNL     1       2.153   3.065   0.740  1.00  0.00     0.039 A 
ATOM     36  C   UNL     1       2.761   4.188   1.290  1.00  0.00     0.014 A 
ATOM     37  C   UNL     1       1.930   3.004  -0.650  1.00  0.00     0.014 A 
ATOM     38  C   UNL     1       3.044   5.279   0.479  1.00  0.00     0.010 A 
ATOM     39  C   UNL     1       2.232   4.085  -1.467  1.00  0.00     0.010 A 
ATOM     40  C   UNL     1       2.747   5.240  -0.890  1.00  0.00    -0.014 A 
BRANCH  40  41
ATOM     41  C   UNL     1       3.136   6.391  -1.701  1.00  0.00     0.031 A 
ATOM     42  C   UNL     1       4.599   6.684  -1.665  1.00  0.00     0.074 A 
ATOM     43  C   UNL     1       2.288   7.081  -2.490  1.00  0.00     0.049 A 
ATOM     44  N   UNL     1       5.186   7.731  -1.185  1.00  0.00    -0.248 NA
ATOM     45  C   UNL     1       5.527   5.614  -2.069  1.00  0.00     0.031 C 
ATOM     46  C   UNL     1       0.896   6.774  -2.827  1.00  0.00     0.029 A 
ATOM     47  N   UNL     1       2.538   8.192  -3.237  1.00  0.00    -0.354 N 
ATOM     48  C   UNL     1       6.551   7.539  -1.388  1.00  0.00     0.074 A 
ATOM     49  C   UNL     1       6.711   6.168  -1.800  1.00  0.00     0.031 C 
ATOM     50  C   UNL     1       0.511   7.537  -3.877  1.00  0.00     0.029 A 
ATOM     51  C   UNL     1       1.574   8.474  -4.199  1.00  0.00     0.049 A 
ATOM     52  H   UNL     1       3.337   8.752  -3.106  1.00  0.00     0.167 HD
ATOM     53  C   UNL     1       7.437   8.574  -1.372  1.00  0.00     0.037 A 
ATOM     54  C   UNL     1       1.683   9.369  -5.216  1.00  0.00     0.037 A 
ATOM     55  C   UNL     1       6.865   9.746  -0.767  1.00  0.00     0.049 A 
ATOM     56  C   UNL     1       2.746  10.337  -4.829  1.00  0.00     0.074 A 
ATOM     57  C   UNL     1       6.408  10.055   0.499  1.00  0.00     0.029 A 
ATOM     58  N   UNL     1       6.355  10.713  -1.599  1.00  0.00    -0.354 N 
ATOM     59  N   UNL     1       2.628  11.182  -3.841  1.00  0.00    -0.248 NA
ATOM     60  C   UNL     1       4.113  10.039  -5.232  1.00  0.00     0.031 C 
ATOM     61  C   UNL     1       5.270  10.884   0.287  1.00  0.00     0.029 A 
ATOM     62  C   UNL     1       5.136  11.083  -1.088  1.00  0.00     0.049 A 
ATOM     63  H   UNL     1       6.783  11.072  -2.409  1.00  0.00     0.167 HD
ATOM     64  C   UNL     1       3.872  11.191  -3.227  1.00  0.00     0.074 A 
ATOM     65  C   UNL     1       4.767  10.525  -4.173  1.00  0.00     0.031 C 
ATOM     66  C   UNL     1       4.008  11.480  -1.900  1.00  0.00     0.037 A 
BRANCH  53  67
ATOM     67  C   UNL     1       8.704   8.630  -2.184  1.00  0.00     0.058 A 
ATOM     68  C   UNL     1       9.654   9.641  -1.930  1.00  0.00     0.135 A 
ATOM     69  C   UNL     1       8.884   7.907  -3.383  1.00  0.00     0.135 A 
ATOM     70  F   UNL     1       9.574  10.393  -0.821  1.00  0.00    -0.206 F 
ATOM     71  C   UNL     1      10.665   9.958  -2.838  1.00  0.00     0.059 A 
ATOM     72  C   UNL     1       9.915   8.173  -4.277  1.00  0.00     0.059 A 
ATOM     73  F   UNL     1       8.010   6.978  -3.790  1.00  0.00    -0.206 F 
ATOM     74  C   UNL     1      10.775   9.228  -4.018  1.00  0.00     0.060 A 
BRANCH  74  75
ATOM     75  S   UNL     1      12.002   9.709  -5.246  1.00  0.00     0.124 S 
ATOM     76  O   UNL     1      11.500  11.018  -5.660  1.00  0.00    -0.237 OA
ATOM     77  O   UNL     1      13.230   9.720  -4.455  1.00  0.00    -0.237 OA
ATOM     78  O   UNL     1      11.913   8.656  -6.245  1.00  0.00    -0.744 OA
ENDBRANCH  74  75
ENDBRANCH  53  67
BRANCH  54  79
ATOM     79  C   UNL     1       1.201   9.229  -6.620  1.00  0.00     0.058 A 
ATOM     80  C   UNL     1       1.231  10.311  -7.521  1.00  0.00     0.135 A 
ATOM     81  C   UNL     1       0.968   7.961  -7.193  1.00  0.00     0.135 A 
ATOM     82  F   UNL     1       1.465  11.555  -7.073  1.00  0.00    -0.206 F 
ATOM     83  C   UNL     1       1.096  10.140  -8.906  1.00  0.00     0.059 A 
ATOM     84  C   UNL     1       0.821   7.767  -8.566  1.00  0.00     0.059 A 
ATOM     85  F   UNL     1       0.971   6.850  -6.442  1.00  0.00    -0.206 F 
ATOM     86  C   UNL     1       0.915   8.857  -9.421  1.00  0.00     0.060 A 
BRANCH  86  87
ATOM     87  S   UNL     1       0.924   8.603 -11.213  1.00  0.00     0.124 S 
ATOM     88  O   UNL     1      -0.303   9.278 -11.622  1.00  0.00    -0.237 OA
ATOM     89  O   UNL     1       2.171   9.249 -11.608  1.00  0.00    -0.237 OA
ATOM     90  O   UNL     1       0.910   7.149 -11.349  1.00  0.00    -0.744 OA
ENDBRANCH  86  87
ENDBRANCH  54  79
BRANCH  66  91
ATOM     91  C   UNL     1       2.816  12.037  -1.163  1.00  0.00     0.058 A 
ATOM     92  C   UNL     1       1.623  11.327  -0.940  1.00  0.00     0.135 A 
ATOM     93  C   UNL     1       2.960  13.268  -0.505  1.00  0.00     0.135 A 
ATOM     94  F   UNL     1       1.447  10.098  -1.445  1.00  0.00    -0.206 F 
ATOM     95  C   UNL     1       0.606  11.833  -0.128  1.00  0.00     0.059 A 
ATOM     96  C   UNL     1       1.974  13.777   0.335  1.00  0.00     0.059 A 
ATOM     97  F   UNL     1       4.103  13.964  -0.626  1.00  0.00    -0.206 F 
ATOM     98  C   UNL     1       0.794  13.058   0.511  1.00  0.00     0.060 A 
BRANCH  98  99
ATOM     99  S   UNL     1      -0.485  13.668   1.631  1.00  0.00     0.124 S 
ATOM    100  O   UNL     1      -1.566  14.002   0.710  1.00  0.00    -0.237 OA
ATOM    101  O   UNL     1      -0.724  12.516   2.496  1.00  0.00    -0.237 OA
ATOM    102  O   UNL     1       0.150  14.808   2.288  1.00  0.00    -0.744 OA
ENDBRANCH  98  99
ENDBRANCH  66  91
ENDBRANCH  40  41
ENDBRANCH  32  35
ENDBRANCH  30  31
ENDBRANCH   1  30
TORSDOF 16
