REMARK SMILES CC[C@H](C(=O)NCCCCNC(=O)c1ccc(-c2c3nc(c(-c4c(F)cc(S(=O)(=O)[O-])cc4F)c4ccc([nH]4)c(-c4c(F)cc(S(=O)(=O)[O-])cc4F)c4nc(c(-c5c(F)cc(S(=O)(=O)[O-])cc5F)c5ccc2[nH]5)C=C4)C=C3)cc1)N1C(=O)c2ccc([N+](=O)[O-])cc2C1=O
REMARK SMILES IDX 9 1 8 2 7 3 6 4 4 5 5 6 3 8 2 9 1 10 80 11 81 12 92 13 82 14
REMARK SMILES IDX 83 15 91 16 93 17 84 18 90 19 85 20 86 21 87 22 88 23 89 24
REMARK SMILES IDX 10 25 11 26 12 27 13 29 14 30 15 31 79 32 16 33 78 34 17 35
REMARK SMILES IDX 18 36 19 37 72 38 20 39 77 40 71 41 73 42 21 43 76 44 70 45
REMARK SMILES IDX 69 46 22 48 56 49 35 50 55 51 36 52 39 53 54 54 74 55 37 56
REMARK SMILES IDX 38 57 53 59 75 60 40 61 23 62 24 63 33 64 25 65 26 66 32 67
REMARK SMILES IDX 34 68 27 69 28 70 29 71 30 72 31 73 57 74 58 75 67 76 59 77
REMARK SMILES IDX 60 78 66 79 68 80 61 81 62 82 63 83 64 84 65 85 41 86 42 87
REMARK SMILES IDX 51 88 43 89 44 90 50 91 52 92 45 93 46 94 47 95 48 96 49 97
REMARK H PARENT 6 7 11 28 73 47 39 58
REMARK Flexibility Score: inf
ROOT
ATOM      1  C   UNL     1       3.277  -0.797   2.008  1.00  0.00     0.023 C 
ENDROOT
BRANCH   1   2
ATOM      2  C   UNL     1       3.523  -0.425   0.544  1.00  0.00     0.023 C 
BRANCH   2   3
ATOM      3  C   UNL     1       2.280  -0.430  -0.347  1.00  0.00     0.116 C 
BRANCH   3   4
ATOM      4  N   UNL     1       1.303   0.529   0.120  1.00  0.00    -0.354 N 
ATOM      5  C   UNL     1       0.726   1.574  -0.529  1.00  0.00     0.243 C 
ATOM      6  O   UNL     1       0.305   2.490   0.186  1.00  0.00    -0.273 OA
ATOM      7  H   UNL     1       1.011   0.406   1.052  1.00  0.00     0.163 HD
BRANCH   5   8
ATOM      8  C   UNL     1       0.689   1.652  -2.075  1.00  0.00     0.183 C 
BRANCH   8   9
ATOM      9  C   UNL     1       0.310   0.389  -2.867  1.00  0.00     0.032 C 
ATOM     10  C   UNL     1      -0.950  -0.341  -2.432  1.00  0.00     0.006 C 
ENDBRANCH   8   9
BRANCH   8  11
ATOM     11  N   UNL     1      -0.142   2.802  -2.446  1.00  0.00    -0.262 N 
ATOM     12  C   UNL     1      -1.437   2.988  -2.037  1.00  0.00     0.262 C 
ATOM     13  C   UNL     1       0.260   3.794  -3.296  1.00  0.00     0.262 C 
ATOM     14  O   UNL     1      -2.177   2.265  -1.401  1.00  0.00    -0.269 OA
ATOM     15  C   UNL     1      -1.861   4.275  -2.572  1.00  0.00     0.053 A 
ATOM     16  C   UNL     1      -0.845   4.749  -3.382  1.00  0.00     0.060 A 
ATOM     17  O   UNL     1       1.300   3.905  -3.919  1.00  0.00    -0.269 OA
ATOM     18  C   UNL     1      -3.047   4.958  -2.389  1.00  0.00     0.022 A 
ATOM     19  C   UNL     1      -0.977   5.916  -4.110  1.00  0.00     0.100 A 
ATOM     20  C   UNL     1      -3.210   6.154  -3.094  1.00  0.00     0.086 A 
ATOM     21  C   UNL     1      -2.189   6.614  -3.964  1.00  0.00     0.270 A 
BRANCH  21  22
ATOM     22  N   UNL     1      -2.420   7.830  -4.752  1.00  0.00     0.062 N 
ATOM     23  O   UNL     1      -3.387   8.540  -4.446  1.00  0.00    -0.258 OA
ATOM     24  O   UNL     1      -1.643   8.062  -5.689  1.00  0.00    -0.258 OA
ENDBRANCH  21  22
ENDBRANCH   8  11
ENDBRANCH   5   8
ENDBRANCH   3   4
ENDBRANCH   2   3
ENDBRANCH   1   2
BRANCH   1  25
ATOM     25  C   UNL     1       2.674  -2.178   2.229  1.00  0.00     0.116 C 
BRANCH  25  26
ATOM     26  N   UNL     1       3.574  -3.248   1.823  1.00  0.00    -0.352 N 
ATOM     27  C   UNL     1       4.045  -4.306   2.566  1.00  0.00     0.251 C 
ATOM     28  H   UNL     1       3.888  -3.209   0.891  1.00  0.00     0.163 HD
ATOM     29  O   UNL     1       4.935  -5.025   2.122  1.00  0.00    -0.269 OA
BRANCH  27  30
ATOM     30  C   UNL     1       3.487  -4.550   3.914  1.00  0.00     0.039 A 
ATOM     31  C   UNL     1       4.355  -4.738   4.993  1.00  0.00     0.014 A 
ATOM     32  C   UNL     1       2.105  -4.548   4.112  1.00  0.00     0.014 A 
ATOM     33  C   UNL     1       3.836  -4.843   6.287  1.00  0.00     0.010 A 
ATOM     34  C   UNL     1       1.597  -4.574   5.405  1.00  0.00     0.010 A 
ATOM     35  C   UNL     1       2.456  -4.718   6.508  1.00  0.00    -0.014 A 
BRANCH  35  36
ATOM     36  C   UNL     1       1.861  -4.746   7.870  1.00  0.00     0.031 A 
ATOM     37  C   UNL     1       0.871  -5.825   8.218  1.00  0.00     0.074 A 
ATOM     38  C   UNL     1       2.116  -3.752   8.744  1.00  0.00     0.049 A 
ATOM     39  N   UNL     1       0.087  -5.924   9.259  1.00  0.00    -0.248 NA
ATOM     40  C   UNL     1       0.721  -6.920   7.245  1.00  0.00     0.031 C 
ATOM     41  C   UNL     1       3.040  -2.639   8.519  1.00  0.00     0.029 A 
ATOM     42  N   UNL     1       1.595  -3.501   9.991  1.00  0.00    -0.354 N 
ATOM     43  C   UNL     1      -0.669  -7.072   9.053  1.00  0.00     0.074 A 
ATOM     44  C   UNL     1      -0.282  -7.610   7.768  1.00  0.00     0.031 C 
ATOM     45  C   UNL     1       3.023  -1.829   9.590  1.00  0.00     0.029 A 
ATOM     46  C   UNL     1       2.049  -2.331  10.555  1.00  0.00     0.049 A 
ATOM     47  H   UNL     1       0.957  -4.102  10.439  1.00  0.00     0.167 HD
ATOM     48  C   UNL     1      -1.590  -7.636   9.870  1.00  0.00     0.037 A 
ATOM     49  C   UNL     1       1.700  -1.717  11.704  1.00  0.00     0.037 A 
ATOM     50  C   UNL     1      -1.948  -7.108  11.160  1.00  0.00     0.049 A 
ATOM     51  C   UNL     1       0.654  -2.348  12.586  1.00  0.00     0.074 A 
ATOM     52  C   UNL     1      -2.834  -7.630  12.085  1.00  0.00     0.029 A 
ATOM     53  N   UNL     1      -1.439  -5.939  11.707  1.00  0.00    -0.354 N 
ATOM     54  N   UNL     1      -0.024  -3.455  12.396  1.00  0.00    -0.248 NA
ATOM     55  C   UNL     1       0.322  -1.650  13.837  1.00  0.00     0.031 C 
ATOM     56  C   UNL     1      -2.900  -6.752  13.170  1.00  0.00     0.029 A 
ATOM     57  C   UNL     1      -2.006  -5.715  12.950  1.00  0.00     0.049 A 
ATOM     58  H   UNL     1      -0.773  -5.356  11.276  1.00  0.00     0.167 HD
ATOM     59  C   UNL     1      -0.827  -3.609  13.522  1.00  0.00     0.074 A 
ATOM     60  C   UNL     1      -0.558  -2.479  14.385  1.00  0.00     0.031 C 
ATOM     61  C   UNL     1      -1.700  -4.602  13.815  1.00  0.00     0.037 A 
BRANCH  48  62
ATOM     62  C   UNL     1      -2.279  -8.885   9.394  1.00  0.00     0.058 A 
ATOM     63  C   UNL     1      -1.596 -10.106   9.271  1.00  0.00     0.135 A 
ATOM     64  C   UNL     1      -3.651  -8.871   9.092  1.00  0.00     0.135 A 
ATOM     65  F   UNL     1      -0.281 -10.175   9.532  1.00  0.00    -0.206 F 
ATOM     66  C   UNL     1      -2.240 -11.259   8.836  1.00  0.00     0.059 A 
ATOM     67  C   UNL     1      -4.323 -10.020   8.686  1.00  0.00     0.059 A 
ATOM     68  F   UNL     1      -4.354  -7.732   9.191  1.00  0.00    -0.206 F 
ATOM     69  C   UNL     1      -3.604 -11.206   8.546  1.00  0.00     0.060 A 
BRANCH  69  70
ATOM     70  S   UNL     1      -4.423 -12.714   7.986  1.00  0.00     0.124 S 
ATOM     71  O   UNL     1      -3.878 -12.857   6.640  1.00  0.00    -0.237 OA
ATOM     72  O   UNL     1      -3.966 -13.698   8.963  1.00  0.00    -0.237 OA
ATOM     73  O   UNL     1      -5.841 -12.378   8.056  1.00  0.00    -0.744 OA
ENDBRANCH  69  70
ENDBRANCH  48  62
BRANCH  49  74
ATOM     74  C   UNL     1       2.350  -0.434  12.092  1.00  0.00     0.058 A 
ATOM     75  C   UNL     1       3.227  -0.374  13.186  1.00  0.00     0.135 A 
ATOM     76  C   UNL     1       2.115   0.752  11.380  1.00  0.00     0.135 A 
ATOM     77  F   UNL     1       3.479  -1.479  13.905  1.00  0.00    -0.206 F 
ATOM     78  C   UNL     1       3.834   0.817  13.571  1.00  0.00     0.059 A 
ATOM     79  C   UNL     1       2.732   1.950  11.728  1.00  0.00     0.059 A 
ATOM     80  F   UNL     1       1.296   0.748  10.316  1.00  0.00    -0.206 F 
ATOM     81  C   UNL     1       3.582   1.975  12.833  1.00  0.00     0.060 A 
BRANCH  81  82
ATOM     82  S   UNL     1       4.408   3.506  13.318  1.00  0.00     0.124 S 
ATOM     83  O   UNL     1       3.713   3.836  14.556  1.00  0.00    -0.237 OA
ATOM     84  O   UNL     1       5.795   3.072  13.459  1.00  0.00    -0.237 OA
ATOM     85  O   UNL     1       4.150   4.398  12.191  1.00  0.00    -0.744 OA
ENDBRANCH  81  82
ENDBRANCH  49  74
BRANCH  61  86
ATOM     86  C   UNL     1      -2.389  -4.572  15.152  1.00  0.00     0.058 A 
ATOM     87  C   UNL     1      -3.443  -3.690  15.426  1.00  0.00     0.135 A 
ATOM     88  C   UNL     1      -2.064  -5.532  16.127  1.00  0.00     0.135 A 
ATOM     89  F   UNL     1      -3.787  -2.748  14.533  1.00  0.00    -0.206 F 
ATOM     90  C   UNL     1      -4.158  -3.763  16.618  1.00  0.00     0.059 A 
ATOM     91  C   UNL     1      -2.782  -5.641  17.312  1.00  0.00     0.059 A 
ATOM     92  F   UNL     1      -1.066  -6.404  15.910  1.00  0.00    -0.206 F 
ATOM     93  C   UNL     1      -3.829  -4.753  17.548  1.00  0.00     0.060 A 
BRANCH  93  94
ATOM     94  S   UNL     1      -4.828  -4.898  19.046  1.00  0.00     0.124 S 
ATOM     95  O   UNL     1      -4.414  -3.716  19.794  1.00  0.00    -0.237 OA
ATOM     96  O   UNL     1      -6.188  -4.870  18.516  1.00  0.00    -0.237 OA
ATOM     97  O   UNL     1      -4.410  -6.177  19.612  1.00  0.00    -0.744 OA
ENDBRANCH  93  94
ENDBRANCH  61  86
ENDBRANCH  35  36
ENDBRANCH  27  30
ENDBRANCH  25  26
ENDBRANCH   1  25
TORSDOF 17
