REMARK SMILES O=C(NCCCCNC(=O)c1ccc(N2C(=O)/C(=C\C3=Cc4ccccc4OC3)SC2=S)cc1)c1ccc(-c2c3nc(c(-c4c(F)cc(S(=O)(=O)[O-])cc4F)c4ccc([nH]4)c(-c4c(F)cc(S(=O)(=O)[O-])cc4F)c4nc(c(-c5c(F)cc(S(=O)(=O)[O-])cc5F)c5ccc2[nH]5)C=C4)C=C3)cc1
REMARK SMILES IDX 5 1 4 2 3 3 1 4 2 5 35 7 36 8 100 9 37 10 99 11 38 12 39 13
REMARK SMILES IDX 40 14 93 15 41 16 98 17 92 18 94 19 42 20 97 21 91 22 90 23
REMARK SMILES IDX 43 25 77 26 56 27 76 28 57 29 60 30 75 31 95 32 58 33 59 34
REMARK SMILES IDX 74 36 96 37 61 38 44 39 45 40 54 41 46 42 47 43 53 44 55 45
REMARK SMILES IDX 48 46 49 47 50 48 51 49 52 50 78 51 79 52 88 53 80 54 81 55
REMARK SMILES IDX 87 56 89 57 82 58 83 59 84 60 85 61 86 62 62 63 63 64 72 65
REMARK SMILES IDX 64 66 65 67 71 68 73 69 66 70 67 71 68 72 69 73 70 74 6 75
REMARK SMILES IDX 7 76 8 77 9 78 10 80 11 81 12 82 34 83 13 84 33 85 14 86
REMARK SMILES IDX 15 87 16 88 31 89 17 90 18 91 30 92 32 93 19 94 20 95 21 96
REMARK SMILES IDX 29 97 22 98 28 99 23 100 27 101 24 102 26 103 25 104
REMARK H PARENT 3 6 94 24 60 35 8 79
REMARK Flexibility Score: inf
ROOT
ATOM      1  C   UNL     1       5.002   1.777  -2.126  1.00  0.00     0.023 C 
ENDROOT
BRANCH   1   2
ATOM      2  C   UNL     1       4.681   1.231  -0.740  1.00  0.00     0.116 C 
BRANCH   2   3
ATOM      3  N   UNL     1       3.255   1.095  -0.493  1.00  0.00    -0.352 N 
ATOM      4  O   UNL     1       1.323   0.051   0.004  1.00  0.00    -0.269 OA
ATOM      5  C   UNL     1       2.550   0.011  -0.019  1.00  0.00     0.251 C 
ATOM      6  H   UNL     1       2.714   1.893  -0.695  1.00  0.00     0.163 HD
BRANCH   5   7
ATOM      7  C   UNL     1       3.263  -1.208   0.433  1.00  0.00     0.039 A 
ATOM      8  C   UNL     1       4.407  -1.121   1.228  1.00  0.00     0.014 A 
ATOM      9  C   UNL     1       2.766  -2.464   0.067  1.00  0.00     0.014 A 
ATOM     10  C   UNL     1       5.129  -2.272   1.535  1.00  0.00     0.010 A 
ATOM     11  C   UNL     1       3.450  -3.627   0.444  1.00  0.00     0.010 A 
ATOM     12  C   UNL     1       4.654  -3.539   1.156  1.00  0.00    -0.014 A 
BRANCH  12  13
ATOM     13  C   UNL     1       5.408  -4.749   1.579  1.00  0.00     0.031 A 
ATOM     14  C   UNL     1       6.087  -5.642   0.576  1.00  0.00     0.074 A 
ATOM     15  C   UNL     1       5.517  -5.010   2.897  1.00  0.00     0.049 A 
ATOM     16  N   UNL     1       6.829  -6.700   0.788  1.00  0.00    -0.248 NA
ATOM     17  C   UNL     1       5.908  -5.314  -0.847  1.00  0.00     0.031 C 
ATOM     18  C   UNL     1       4.881  -4.230   3.964  1.00  0.00     0.029 A 
ATOM     19  N   UNL     1       6.214  -5.981   3.569  1.00  0.00    -0.354 N 
ATOM     20  C   UNL     1       7.197  -7.171  -0.467  1.00  0.00     0.074 A 
ATOM     21  C   UNL     1       6.576  -6.296  -1.440  1.00  0.00     0.031 C 
ATOM     22  C   UNL     1       5.257  -4.722   5.153  1.00  0.00     0.029 A 
ATOM     23  C   UNL     1       6.118  -5.879   4.936  1.00  0.00     0.049 A 
ATOM     24  H   UNL     1       6.733  -6.683   3.115  1.00  0.00     0.167 HD
ATOM     25  C   UNL     1       7.988  -8.227  -0.777  1.00  0.00     0.037 A 
ATOM     26  C   UNL     1       6.655  -6.636   5.911  1.00  0.00     0.037 A 
ATOM     27  C   UNL     1       8.618  -9.085   0.196  1.00  0.00     0.049 A 
ATOM     28  C   UNL     1       7.532  -7.796   5.538  1.00  0.00     0.074 A 
ATOM     29  C   UNL     1       9.458 -10.164  -0.022  1.00  0.00     0.029 A 
ATOM     30  N   UNL     1       8.481  -8.961   1.571  1.00  0.00    -0.354 N 
ATOM     31  N   UNL     1       7.886  -8.207   4.344  1.00  0.00    -0.248 NA
ATOM     32  C   UNL     1       8.078  -8.596   6.642  1.00  0.00     0.031 C 
ATOM     33  C   UNL     1       9.804 -10.712   1.218  1.00  0.00     0.029 A 
ATOM     34  C   UNL     1       9.208  -9.952   2.212  1.00  0.00     0.049 A 
ATOM     35  H   UNL     1       7.945  -8.271   2.025  1.00  0.00     0.167 HD
ATOM     36  C   UNL     1       8.700  -9.314   4.553  1.00  0.00     0.074 A 
ATOM     37  C   UNL     1       8.807  -9.489   5.988  1.00  0.00     0.031 C 
ATOM     38  C   UNL     1       9.296 -10.118   3.640  1.00  0.00     0.037 A 
BRANCH  25  39
ATOM     39  C   UNL     1       8.224  -8.526  -2.232  1.00  0.00     0.058 A 
ATOM     40  C   UNL     1       9.092  -7.744  -3.010  1.00  0.00     0.135 A 
ATOM     41  C   UNL     1       7.634  -9.648  -2.836  1.00  0.00     0.135 A 
ATOM     42  F   UNL     1       9.671  -6.653  -2.486  1.00  0.00    -0.206 F 
ATOM     43  C   UNL     1       9.357  -8.057  -4.340  1.00  0.00     0.059 A 
ATOM     44  C   UNL     1       7.900  -9.991  -4.159  1.00  0.00     0.059 A 
ATOM     45  F   UNL     1       6.797 -10.430  -2.136  1.00  0.00    -0.206 F 
ATOM     46  C   UNL     1       8.758  -9.184  -4.906  1.00  0.00     0.060 A 
BRANCH  46  47
ATOM     47  S   UNL     1       9.130  -9.591  -6.625  1.00  0.00     0.124 S 
ATOM     48  O   UNL     1       8.352  -8.582  -7.338  1.00  0.00    -0.237 OA
ATOM     49  O   UNL     1      10.579  -9.427  -6.680  1.00  0.00    -0.237 OA
ATOM     50  O   UNL     1       8.653 -10.964  -6.761  1.00  0.00    -0.744 OA
ENDBRANCH  46  47
ENDBRANCH  25  39
BRANCH  26  51
ATOM     51  C   UNL     1       6.370  -6.319   7.334  1.00  0.00     0.058 A 
ATOM     52  C   UNL     1       7.361  -5.790   8.173  1.00  0.00     0.135 A 
ATOM     53  C   UNL     1       5.092  -6.526   7.876  1.00  0.00     0.135 A 
ATOM     54  F   UNL     1       8.598  -5.579   7.698  1.00  0.00    -0.206 F 
ATOM     55  C   UNL     1       7.101  -5.491   9.506  1.00  0.00     0.059 A 
ATOM     56  C   UNL     1       4.801  -6.212   9.199  1.00  0.00     0.059 A 
ATOM     57  F   UNL     1       4.105  -7.013   7.107  1.00  0.00    -0.206 F 
ATOM     58  C   UNL     1       5.816  -5.707  10.010  1.00  0.00     0.060 A 
BRANCH  58  59
ATOM     59  S   UNL     1       5.468  -5.274  11.728  1.00  0.00     0.124 S 
ATOM     60  O   UNL     1       6.020  -6.423  12.435  1.00  0.00    -0.237 OA
ATOM     61  O   UNL     1       6.192  -4.017  11.886  1.00  0.00    -0.237 OA
ATOM     62  O   UNL     1       4.013  -5.155  11.750  1.00  0.00    -0.744 OA
ENDBRANCH  58  59
ENDBRANCH  26  51
BRANCH  38  63
ATOM     63  C   UNL     1      10.119 -11.255   4.173  1.00  0.00     0.058 A 
ATOM     64  C   UNL     1       9.517 -12.398   4.720  1.00  0.00     0.135 A 
ATOM     65  C   UNL     1      11.521 -11.206   4.128  1.00  0.00     0.135 A 
ATOM     66  F   UNL     1       8.180 -12.488   4.793  1.00  0.00    -0.206 F 
ATOM     67  C   UNL     1      10.278 -13.443   5.233  1.00  0.00     0.059 A 
ATOM     68  C   UNL     1      12.302 -12.249   4.615  1.00  0.00     0.059 A 
ATOM     69  F   UNL     1      12.144 -10.137   3.607  1.00  0.00    -0.206 F 
ATOM     70  C   UNL     1      11.670 -13.357   5.182  1.00  0.00     0.060 A 
BRANCH  70  71
ATOM     71  S   UNL     1      12.651 -14.720   5.844  1.00  0.00     0.124 S 
ATOM     72  O   UNL     1      12.577 -14.464   7.279  1.00  0.00    -0.237 OA
ATOM     73  O   UNL     1      11.922 -15.893   5.372  1.00  0.00    -0.237 OA
ATOM     74  O   UNL     1      13.963 -14.519   5.235  1.00  0.00    -0.744 OA
ENDBRANCH  70  71
ENDBRANCH  38  63
ENDBRANCH  12  13
ENDBRANCH   5   7
ENDBRANCH   2   3
ENDBRANCH   1   2
BRANCH   1  75
ATOM     75  C   UNL     1       4.529   3.204  -2.407  1.00  0.00     0.023 C 
BRANCH  75  76
ATOM     76  C   UNL     1       4.965   4.264  -1.396  1.00  0.00     0.116 C 
BRANCH  76  77
ATOM     77  N   UNL     1       6.407   4.342  -1.237  1.00  0.00    -0.352 N 
ATOM     78  C   UNL     1       7.272   5.392  -1.411  1.00  0.00     0.251 C 
ATOM     79  H   UNL     1       6.835   3.500  -0.958  1.00  0.00     0.163 HD
ATOM     80  O   UNL     1       8.483   5.200  -1.335  1.00  0.00    -0.269 OA
BRANCH  78  81
ATOM     81  C   UNL     1       6.780   6.751  -1.725  1.00  0.00     0.039 A 
ATOM     82  C   UNL     1       7.412   7.462  -2.744  1.00  0.00     0.016 A 
ATOM     83  C   UNL     1       5.749   7.357  -1.010  1.00  0.00     0.016 A 
ATOM     84  C   UNL     1       6.966   8.743  -3.092  1.00  0.00     0.027 A 
ATOM     85  C   UNL     1       5.295   8.633  -1.377  1.00  0.00     0.027 A 
ATOM     86  C   UNL     1       5.890   9.354  -2.428  1.00  0.00     0.051 A 
BRANCH  86  87
ATOM     87  N   UNL     1       5.346  10.611  -2.869  1.00  0.00    -0.261 N 
ATOM     88  C   UNL     1       5.354  10.942  -4.227  1.00  0.00     0.270 C 
ATOM     89  C   UNL     1       4.814  11.598  -2.048  1.00  0.00     0.152 C 
ATOM     90  O   UNL     1       6.138  10.593  -5.090  1.00  0.00    -0.268 OA
ATOM     91  C   UNL     1       4.304  11.970  -4.481  1.00  0.00     0.081 C 
ATOM     92  S   UNL     1       4.110  12.893  -3.038  1.00  0.00    -0.054 SA
ATOM     93  S   UNL     1       4.838  11.767  -0.382  1.00  0.00    -0.051 S 
ATOM     94  C   UNL     1       3.449  12.084  -5.510  1.00  0.00     0.028 C 
BRANCH  94  95
ATOM     95  C   UNL     1       3.165  11.146  -6.606  1.00  0.00    -0.009 C 
ATOM     96  C   UNL     1       3.987  10.145  -6.981  1.00  0.00     0.019 C 
ATOM     97  C   UNL     1       1.705  10.703  -6.579  1.00  0.00     0.265 C 
ATOM     98  C   UNL     1       3.723   8.916  -6.174  1.00  0.00     0.017 A 
ATOM     99  O   UNL     1       1.502   9.724  -5.536  1.00  0.00    -0.488 OA
ATOM    100  C   UNL     1       4.707   7.933  -6.051  1.00  0.00     0.012 A 
ATOM    101  C   UNL     1       2.518   8.794  -5.454  1.00  0.00     0.127 A 
ATOM    102  C   UNL     1       4.513   6.865  -5.174  1.00  0.00     0.001 A 
ATOM    103  C   UNL     1       2.337   7.737  -4.566  1.00  0.00     0.047 A 
ATOM    104  C   UNL     1       3.339   6.776  -4.423  1.00  0.00     0.004 A 
ENDBRANCH  94  95
ENDBRANCH  86  87
ENDBRANCH  78  81
ENDBRANCH  76  77
ENDBRANCH  75  76
ENDBRANCH   1  75
TORSDOF 16
