REMARK SMILES C[C@H]([C@@H]1CCCO1)n1c(SCC(=O)NCCCCNC(=O)c2ccc(-c3c4nc(c(-c5c(F)cc(S(=O)(=O)[O-])cc5F)c5ccc([nH]5)c(-c5c(F)cc(S(=O)(=O)[O-])cc5F)c5nc(c(-c6c(F)cc(S(=O)(=O)[O-])cc6F)c6ccc3[nH]6)C=C5)C=C4)cc2)nc2cnccc21
REMARK SMILES IDX 16 1 15 2 14 3 12 4 13 5 11 7 10 8 9 9 8 10 94 11 88 12
REMARK SMILES IDX 89 13 93 14 90 15 92 16 91 17 2 18 1 19 3 20 4 21 7 22 5 23
REMARK SMILES IDX 6 24 17 25 18 26 19 27 20 28 21 30 22 31 23 32 87 33 24 34
REMARK SMILES IDX 86 35 25 36 26 37 27 38 80 39 28 40 85 41 79 42 81 43 29 44
REMARK SMILES IDX 84 45 78 46 77 47 30 49 64 50 43 51 63 52 44 53 47 54 62 55
REMARK SMILES IDX 82 56 45 57 46 58 61 60 83 61 48 62 31 63 32 64 41 65 33 66
REMARK SMILES IDX 34 67 40 68 42 69 35 70 36 71 37 72 38 73 39 74 65 75 66 76
REMARK SMILES IDX 75 77 67 78 68 79 74 80 76 81 69 82 70 83 71 84 72 85 73 86
REMARK SMILES IDX 49 87 50 88 59 89 51 90 52 91 58 92 60 93 53 94 54 95 55 96
REMARK SMILES IDX 56 97 57 98
REMARK H PARENT 14 6 19 29 81 48 47 59
REMARK Flexibility Score: inf
ROOT
ATOM      1  C   UNL     1      -1.649   0.635   5.733  1.00  0.00     0.023 C 
ENDROOT
BRANCH   1   2
ATOM      2  C   UNL     1      -0.660   1.597   5.112  1.00  0.00     0.116 C 
BRANCH   2   3
ATOM      3  N   UNL     1       0.399   0.923   4.394  1.00  0.00    -0.355 N 
ATOM      4  C   UNL     1       0.813   1.206   3.131  1.00  0.00     0.230 C 
ATOM      5  O   UNL     1       1.893   0.755   2.745  1.00  0.00    -0.274 OA
ATOM      6  H   UNL     1       0.862   0.193   4.864  1.00  0.00     0.163 HD
BRANCH   4   7
ATOM      7  C   UNL     1      -0.005   2.138   2.285  1.00  0.00     0.178 C 
BRANCH   7   8
ATOM      8  S   UNL     1      -1.513   1.521   1.552  1.00  0.00    -0.078 SA
BRANCH   8   9
ATOM      9  C   UNL     1      -1.733  -0.129   1.048  1.00  0.00     0.169 A 
ATOM     10  N   UNL     1      -0.974  -1.130   0.441  1.00  0.00    -0.313 N 
ATOM     11  C   UNL     1      -1.859  -2.204   0.195  1.00  0.00     0.072 A 
ATOM     12  N   UNL     1      -3.010  -0.480   1.060  1.00  0.00    -0.221 NA
ATOM     13  C   UNL     1      -3.114  -1.732   0.538  1.00  0.00     0.108 A 
ATOM     14  C   UNL     1      -1.694  -3.511  -0.289  1.00  0.00     0.049 A 
ATOM     15  C   UNL     1      -4.238  -2.541   0.333  1.00  0.00     0.141 A 
ATOM     16  C   UNL     1      -2.861  -4.249  -0.443  1.00  0.00     0.113 A 
ATOM     17  N   UNL     1      -4.101  -3.795  -0.172  1.00  0.00    -0.262 NA
BRANCH  10  18
ATOM     18  C   UNL     1       0.450  -1.327   0.142  1.00  0.00     0.116 C 
ATOM     19  C   UNL     1       1.208  -1.772   1.392  1.00  0.00     0.034 C 
BRANCH  18  20
ATOM     20  C   UNL     1       1.191  -0.375  -0.833  1.00  0.00     0.141 C 
ATOM     21  C   UNL     1       1.481   0.992  -0.317  1.00  0.00     0.036 C 
ATOM     22  O   UNL     1       0.449  -0.202  -2.051  1.00  0.00    -0.376 OA
ATOM     23  C   UNL     1       1.361   1.933  -1.474  1.00  0.00     0.031 C 
ATOM     24  C   UNL     1       0.505   1.171  -2.459  1.00  0.00     0.160 C 
ENDBRANCH  18  20
ENDBRANCH  10  18
ENDBRANCH   8   9
ENDBRANCH   7   8
ENDBRANCH   4   7
ENDBRANCH   2   3
ENDBRANCH   1   2
BRANCH   1  25
ATOM     25  C   UNL     1      -1.079  -0.307   6.791  1.00  0.00     0.023 C 
BRANCH  25  26
ATOM     26  C   UNL     1      -0.013   0.279   7.725  1.00  0.00     0.116 C 
BRANCH  26  27
ATOM     27  N   UNL     1      -0.278   1.613   8.231  1.00  0.00    -0.352 N 
ATOM     28  C   UNL     1      -1.098   2.158   9.172  1.00  0.00     0.251 C 
ATOM     29  H   UNL     1       0.274   2.294   7.782  1.00  0.00     0.163 HD
ATOM     30  O   UNL     1      -1.029   3.383   9.303  1.00  0.00    -0.269 OA
BRANCH  28  31
ATOM     31  C   UNL     1      -2.059   1.393   9.996  1.00  0.00     0.039 A 
ATOM     32  C   UNL     1      -2.167   0.004  10.002  1.00  0.00     0.014 A 
ATOM     33  C   UNL     1      -2.918   2.150  10.813  1.00  0.00     0.014 A 
ATOM     34  C   UNL     1      -3.182  -0.612  10.708  1.00  0.00     0.010 A 
ATOM     35  C   UNL     1      -3.904   1.534  11.566  1.00  0.00     0.010 A 
ATOM     36  C   UNL     1      -4.062   0.157  11.469  1.00  0.00    -0.014 A 
BRANCH  36  37
ATOM     37  C   UNL     1      -5.059  -0.564  12.243  1.00  0.00     0.031 A 
ATOM     38  C   UNL     1      -4.474  -1.516  13.226  1.00  0.00     0.074 A 
ATOM     39  C   UNL     1      -6.380  -0.334  12.127  1.00  0.00     0.049 A 
ATOM     40  N   UNL     1      -4.532  -2.806  13.214  1.00  0.00    -0.248 NA
ATOM     41  C   UNL     1      -3.568  -0.972  14.253  1.00  0.00     0.031 C 
ATOM     42  C   UNL     1      -7.027   0.765  11.403  1.00  0.00     0.029 A 
ATOM     43  N   UNL     1      -7.428  -0.970  12.722  1.00  0.00    -0.354 N 
ATOM     44  C   UNL     1      -3.882  -3.222  14.374  1.00  0.00     0.074 A 
ATOM     45  C   UNL     1      -3.153  -2.083  14.864  1.00  0.00     0.031 C 
ATOM     46  C   UNL     1      -8.311   0.867  11.809  1.00  0.00     0.029 A 
ATOM     47  C   UNL     1      -8.613  -0.246  12.691  1.00  0.00     0.049 A 
ATOM     48  H   UNL     1      -7.351  -1.859  13.136  1.00  0.00     0.167 HD
ATOM     49  C   UNL     1      -4.229  -4.384  14.993  1.00  0.00     0.037 A 
ATOM     50  C   UNL     1      -9.736  -0.514  13.401  1.00  0.00     0.037 A 
ATOM     51  C   UNL     1      -5.029  -5.213  14.133  1.00  0.00     0.049 A 
ATOM     52  C   UNL     1      -9.709  -1.960  13.739  1.00  0.00     0.074 A 
ATOM     53  C   UNL     1      -4.816  -6.072  13.079  1.00  0.00     0.029 A 
ATOM     54  N   UNL     1      -6.358  -4.886  14.133  1.00  0.00    -0.354 N 
ATOM     55  N   UNL     1      -9.763  -2.910  12.845  1.00  0.00    -0.248 NA
ATOM     56  C   UNL     1      -9.288  -2.384  15.070  1.00  0.00     0.031 C 
ATOM     57  C   UNL     1      -6.040  -6.115  12.344  1.00  0.00     0.029 A 
ATOM     58  C   UNL     1      -6.977  -5.310  12.988  1.00  0.00     0.049 A 
ATOM     59  H   UNL     1      -6.811  -4.406  14.864  1.00  0.00     0.167 HD
ATOM     60  C   UNL     1      -8.992  -3.926  13.375  1.00  0.00     0.074 A 
ATOM     61  C   UNL     1      -8.886  -3.628  14.796  1.00  0.00     0.031 C 
ATOM     62  C   UNL     1      -8.236  -4.729  12.573  1.00  0.00     0.037 A 
BRANCH  49  63
ATOM     63  C   UNL     1      -4.269  -4.559  16.496  1.00  0.00     0.058 A 
ATOM     64  C   UNL     1      -4.450  -5.844  17.048  1.00  0.00     0.135 A 
ATOM     65  C   UNL     1      -4.435  -3.483  17.398  1.00  0.00     0.135 A 
ATOM     66  F   UNL     1      -4.349  -6.938  16.276  1.00  0.00    -0.206 F 
ATOM     67  C   UNL     1      -4.801  -6.041  18.387  1.00  0.00     0.059 A 
ATOM     68  C   UNL     1      -4.731  -3.658  18.745  1.00  0.00     0.059 A 
ATOM     69  F   UNL     1      -4.416  -2.207  16.993  1.00  0.00    -0.206 F 
ATOM     70  C   UNL     1      -4.943  -4.939  19.226  1.00  0.00     0.060 A 
BRANCH  70  71
ATOM     71  S   UNL     1      -5.452  -5.183  20.938  1.00  0.00     0.124 S 
ATOM     72  O   UNL     1      -6.822  -5.652  20.775  1.00  0.00    -0.237 OA
ATOM     73  O   UNL     1      -4.486  -6.175  21.400  1.00  0.00    -0.237 OA
ATOM     74  O   UNL     1      -5.302  -3.854  21.525  1.00  0.00    -0.744 OA
ENDBRANCH  70  71
ENDBRANCH  49  63
BRANCH  50  75
ATOM     75  C   UNL     1     -10.595   0.459  14.129  1.00  0.00     0.058 A 
ATOM     76  C   UNL     1     -11.791   0.032  14.735  1.00  0.00     0.135 A 
ATOM     77  C   UNL     1     -10.116   1.725  14.522  1.00  0.00     0.135 A 
ATOM     78  F   UNL     1     -12.323  -1.157  14.414  1.00  0.00    -0.206 F 
ATOM     79  C   UNL     1     -12.415   0.765  15.748  1.00  0.00     0.059 A 
ATOM     80  C   UNL     1     -10.729   2.480  15.519  1.00  0.00     0.059 A 
ATOM     81  F   UNL     1      -8.976   2.226  14.024  1.00  0.00    -0.206 F 
ATOM     82  C   UNL     1     -11.854   1.973  16.158  1.00  0.00     0.060 A 
BRANCH  82  83
ATOM     83  S   UNL     1     -12.513   2.800  17.624  1.00  0.00     0.124 S 
ATOM     84  O   UNL     1     -13.822   3.242  17.157  1.00  0.00    -0.237 OA
ATOM     85  O   UNL     1     -12.516   1.721  18.606  1.00  0.00    -0.237 OA
ATOM     86  O   UNL     1     -11.546   3.865  17.875  1.00  0.00    -0.744 OA
ENDBRANCH  82  83
ENDBRANCH  50  75
BRANCH  62  87
ATOM     87  C   UNL     1      -8.675  -4.898  11.149  1.00  0.00     0.058 A 
ATOM     88  C   UNL     1      -8.680  -3.884  10.176  1.00  0.00     0.135 A 
ATOM     89  C   UNL     1      -9.068  -6.182  10.742  1.00  0.00     0.135 A 
ATOM     90  F   UNL     1      -8.237  -2.651  10.463  1.00  0.00    -0.206 F 
ATOM     91  C   UNL     1      -9.108  -4.128   8.870  1.00  0.00     0.059 A 
ATOM     92  C   UNL     1      -9.466  -6.456   9.439  1.00  0.00     0.059 A 
ATOM     93  F   UNL     1      -9.039  -7.203  11.614  1.00  0.00    -0.206 F 
ATOM     94  C   UNL     1      -9.502  -5.418   8.511  1.00  0.00     0.060 A 
BRANCH  94  95
ATOM     95  S   UNL     1     -10.028  -5.748   6.816  1.00  0.00     0.124 S 
ATOM     96  O   UNL     1     -11.277  -4.991   6.731  1.00  0.00    -0.237 OA
ATOM     97  O   UNL     1      -8.912  -5.211   6.036  1.00  0.00    -0.237 OA
ATOM     98  O   UNL     1     -10.170  -7.193   6.774  1.00  0.00    -0.744 OA
ENDBRANCH  94  95
ENDBRANCH  62  87
ENDBRANCH  36  37
ENDBRANCH  28  31
ENDBRANCH  26  27
ENDBRANCH  25  26
ENDBRANCH   1  25
TORSDOF 18
