REMARK SMILES C=C(C)CN(CC)c1ccc(F)cc1C(=O)NCCCCNC(=O)c1ccc(-c2c3nc(c(-c4c(F)cc(S(=O)(=O)[O-])cc4F)c4ccc([nH]4)c(-c4c(F)cc(S(=O)(=O)[O-])cc4F)c4nc(c(-c5c(F)cc(S(=O)(=O)[O-])cc5F)c5ccc2[nH]5)C=C4)C=C3)cc1
REMARK SMILES IDX 19 1 18 2 17 3 15 4 16 5 14 7 8 8 9 9 10 10 13 11 11 12
REMARK SMILES IDX 12 13 5 14 4 15 2 16 1 17 3 18 6 19 7 20 20 21 21 22 22 23
REMARK SMILES IDX 23 24 24 26 25 27 26 28 90 29 27 30 89 31 28 32 29 33 30 34
REMARK SMILES IDX 83 35 31 36 88 37 82 38 84 39 32 40 87 41 81 42 80 43 33 45
REMARK SMILES IDX 67 46 46 47 66 48 47 49 50 50 65 51 85 52 48 53 49 54 64 56
REMARK SMILES IDX 86 57 51 58 34 59 35 60 44 61 36 62 37 63 43 64 45 65 38 66
REMARK SMILES IDX 39 67 40 68 41 69 42 70 68 71 69 72 78 73 70 74 71 75 77 76
REMARK SMILES IDX 79 77 72 78 73 79 74 80 75 81 76 82 52 83 53 84 62 85 54 86
REMARK SMILES IDX 55 87 61 88 63 89 56 90 57 91 58 92 59 93 60 94
REMARK H PARENT 17 6 22 25 84 44 50 55
REMARK Flexibility Score: inf
ROOT
ATOM      1  C   UNL     1       2.288  -2.012   5.477  1.00  0.00     0.023 C 
ENDROOT
BRANCH   1   2
ATOM      2  C   UNL     1       2.076  -2.617   4.096  1.00  0.00     0.116 C 
BRANCH   2   3
ATOM      3  N   UNL     1       2.568  -3.949   3.892  1.00  0.00    -0.352 N 
ATOM      4  C   UNL     1       2.403  -4.761   2.793  1.00  0.00     0.253 C 
ATOM      5  O   UNL     1       2.991  -5.847   2.808  1.00  0.00    -0.269 OA
ATOM      6  H   UNL     1       3.091  -4.332   4.633  1.00  0.00     0.163 HD
BRANCH   4   7
ATOM      7  C   UNL     1       1.501  -4.468   1.629  1.00  0.00     0.066 A 
ATOM      8  C   UNL     1       1.398  -3.276   0.861  1.00  0.00     0.050 A 
ATOM      9  C   UNL     1       0.577  -3.314  -0.293  1.00  0.00     0.030 A 
ATOM     10  C   UNL     1      -0.143  -4.445  -0.670  1.00  0.00     0.041 A 
ATOM     11  C   UNL     1       0.776  -5.613   1.218  1.00  0.00     0.055 A 
ATOM     12  C   UNL     1      -0.036  -5.589   0.094  1.00  0.00     0.124 A 
ATOM     13  F   UNL     1      -0.704  -6.691  -0.272  1.00  0.00    -0.207 F 
BRANCH   8  14
ATOM     14  N   UNL     1       2.091  -2.094   1.113  1.00  0.00    -0.367 N 
BRANCH  14  15
ATOM     15  C   UNL     1       1.343  -0.895   1.542  1.00  0.00     0.146 C 
BRANCH  15  16
ATOM     16  C   UNL     1       0.543  -0.202   0.469  1.00  0.00    -0.061 C 
ATOM     17  C   UNL     1       1.101   0.469  -0.553  1.00  0.00     0.009 C 
ATOM     18  C   UNL     1      -0.949  -0.215   0.680  1.00  0.00     0.041 C 
ENDBRANCH  15  16
ENDBRANCH  14  15
BRANCH  14  19
ATOM     19  C   UNL     1       3.415  -1.906   0.502  1.00  0.00     0.113 C 
ATOM     20  C   UNL     1       4.431  -2.966   0.901  1.00  0.00     0.027 C 
ENDBRANCH  14  19
ENDBRANCH   8  14
ENDBRANCH   4   7
ENDBRANCH   2   3
ENDBRANCH   1   2
BRANCH   1  21
ATOM     21  C   UNL     1       3.740  -1.903   5.951  1.00  0.00     0.023 C 
BRANCH  21  22
ATOM     22  C   UNL     1       4.775  -1.407   4.942  1.00  0.00     0.116 C 
BRANCH  22  23
ATOM     23  N   UNL     1       4.610  -0.018   4.537  1.00  0.00    -0.352 N 
ATOM     24  C   UNL     1       5.359   1.103   4.827  1.00  0.00     0.251 C 
ATOM     25  H   UNL     1       3.831   0.149   3.958  1.00  0.00     0.163 HD
ATOM     26  O   UNL     1       4.992   2.194   4.405  1.00  0.00    -0.269 OA
BRANCH  24  27
ATOM     27  C   UNL     1       6.568   1.014   5.682  1.00  0.00     0.039 A 
ATOM     28  C   UNL     1       6.721   1.940   6.719  1.00  0.00     0.014 A 
ATOM     29  C   UNL     1       7.545   0.037   5.483  1.00  0.00     0.014 A 
ATOM     30  C   UNL     1       7.782   1.810   7.621  1.00  0.00     0.010 A 
ATOM     31  C   UNL     1       8.555  -0.143   6.430  1.00  0.00     0.010 A 
ATOM     32  C   UNL     1       8.673   0.728   7.523  1.00  0.00    -0.014 A 
BRANCH  32  33
ATOM     33  C   UNL     1       9.689   0.465   8.581  1.00  0.00     0.031 A 
ATOM     34  C   UNL     1      11.160   0.481   8.261  1.00  0.00     0.074 A 
ATOM     35  C   UNL     1       9.281   0.143   9.826  1.00  0.00     0.049 A 
ATOM     36  N   UNL     1      12.175   0.206   9.040  1.00  0.00    -0.248 NA
ATOM     37  C   UNL     1      11.539   0.831   6.883  1.00  0.00     0.031 C 
ATOM     38  C   UNL     1       7.885   0.044  10.260  1.00  0.00     0.029 A 
ATOM     39  N   UNL     1       9.998  -0.167  10.957  1.00  0.00    -0.354 N 
ATOM     40  C   UNL     1      13.310   0.341   8.249  1.00  0.00     0.074 A 
ATOM     41  C   UNL     1      12.856   0.673   6.915  1.00  0.00     0.031 C 
ATOM     42  C   UNL     1       7.848  -0.269  11.565  1.00  0.00     0.029 A 
ATOM     43  C   UNL     1       9.213  -0.438  12.055  1.00  0.00     0.049 A 
ATOM     44  H   UNL     1      10.982  -0.194  10.980  1.00  0.00     0.167 HD
ATOM     45  C   UNL     1      14.612   0.222   8.605  1.00  0.00     0.037 A 
ATOM     46  C   UNL     1       9.547  -0.788  13.313  1.00  0.00     0.037 A 
ATOM     47  C   UNL     1      15.065  -0.084   9.938  1.00  0.00     0.049 A 
ATOM     48  C   UNL     1      10.998  -0.924  13.682  1.00  0.00     0.074 A 
ATOM     49  C   UNL     1      16.367  -0.174  10.402  1.00  0.00     0.029 A 
ATOM     50  N   UNL     1      14.238  -0.347  11.019  1.00  0.00    -0.354 N 
ATOM     51  N   UNL     1      12.058  -0.747  12.929  1.00  0.00    -0.248 NA
ATOM     52  C   UNL     1      11.302  -1.306  15.068  1.00  0.00     0.031 C 
ATOM     53  C   UNL     1      16.328  -0.530  11.753  1.00  0.00     0.029 A 
ATOM     54  C   UNL     1      15.002  -0.617  12.144  1.00  0.00     0.049 A 
ATOM     55  H   UNL     1      13.254  -0.343  10.992  1.00  0.00     0.167 HD
ATOM     56  C   UNL     1      13.153  -0.975  13.755  1.00  0.00     0.074 A 
ATOM     57  C   UNL     1      12.629  -1.291  15.068  1.00  0.00     0.031 C 
ATOM     58  C   UNL     1      14.472  -0.927  13.449  1.00  0.00     0.037 A 
BRANCH  45  59
ATOM     59  C   UNL     1      15.654   0.445   7.543  1.00  0.00     0.058 A 
ATOM     60  C   UNL     1      16.441  -0.620   7.075  1.00  0.00     0.135 A 
ATOM     61  C   UNL     1      15.922   1.728   7.039  1.00  0.00     0.135 A 
ATOM     62  F   UNL     1      16.225  -1.867   7.520  1.00  0.00    -0.206 F 
ATOM     63  C   UNL     1      17.465  -0.418   6.156  1.00  0.00     0.059 A 
ATOM     64  C   UNL     1      16.924   1.949   6.100  1.00  0.00     0.059 A 
ATOM     65  F   UNL     1      15.186   2.777   7.439  1.00  0.00    -0.206 F 
ATOM     66  C   UNL     1      17.701   0.871   5.675  1.00  0.00     0.060 A 
BRANCH  66  67
ATOM     67  S   UNL     1      19.014   1.113   4.460  1.00  0.00     0.124 S 
ATOM     68  O   UNL     1      20.212   0.914   5.267  1.00  0.00    -0.237 OA
ATOM     69  O   UNL     1      18.722   0.069   3.482  1.00  0.00    -0.237 OA
ATOM     70  O   UNL     1      18.791   2.478   3.990  1.00  0.00    -0.744 OA
ENDBRANCH  66  67
ENDBRANCH  45  59
BRANCH  46  71
ATOM     71  C   UNL     1       8.479  -1.003  14.326  1.00  0.00     0.058 A 
ATOM     72  C   UNL     1       7.622  -2.112  14.262  1.00  0.00     0.135 A 
ATOM     73  C   UNL     1       8.275  -0.078  15.361  1.00  0.00     0.135 A 
ATOM     74  F   UNL     1       7.769  -3.022  13.286  1.00  0.00    -0.206 F 
ATOM     75  C   UNL     1       6.583  -2.282  15.171  1.00  0.00     0.059 A 
ATOM     76  C   UNL     1       7.258  -0.239  16.297  1.00  0.00     0.059 A 
ATOM     77  F   UNL     1       9.079   0.991  15.471  1.00  0.00    -0.206 F 
ATOM     78  C   UNL     1       6.405  -1.336  16.181  1.00  0.00     0.060 A 
BRANCH  78  79
ATOM     79  S   UNL     1       5.038  -1.564  17.338  1.00  0.00     0.124 S 
ATOM     80  O   UNL     1       3.886  -1.298  16.483  1.00  0.00    -0.237 OA
ATOM     81  O   UNL     1       5.214  -2.952  17.753  1.00  0.00    -0.237 OA
ATOM     82  O   UNL     1       5.298  -0.565  18.370  1.00  0.00    -0.744 OA
ENDBRANCH  78  79
ENDBRANCH  46  71
BRANCH  58  83
ATOM     83  C   UNL     1      15.457  -1.203  14.551  1.00  0.00     0.058 A 
ATOM     84  C   UNL     1      16.248  -0.168  15.075  1.00  0.00     0.135 A 
ATOM     85  C   UNL     1      15.675  -2.503  15.034  1.00  0.00     0.135 A 
ATOM     86  F   UNL     1      16.083   1.094  14.645  1.00  0.00    -0.206 F 
ATOM     87  C   UNL     1      17.235  -0.414  16.023  1.00  0.00     0.059 A 
ATOM     88  C   UNL     1      16.641  -2.769  16.001  1.00  0.00     0.059 A 
ATOM     89  F   UNL     1      14.937  -3.526  14.575  1.00  0.00    -0.206 F 
ATOM     90  C   UNL     1      17.428  -1.720  16.477  1.00  0.00     0.060 A 
BRANCH  90  91
ATOM     91  S   UNL     1      18.710  -2.022  17.712  1.00  0.00     0.124 S 
ATOM     92  O   UNL     1      19.927  -1.847  16.928  1.00  0.00    -0.237 OA
ATOM     93  O   UNL     1      18.437  -0.984  18.701  1.00  0.00    -0.237 OA
ATOM     94  O   UNL     1      18.439  -3.386  18.155  1.00  0.00    -0.744 OA
ENDBRANCH  90  91
ENDBRANCH  58  83
ENDBRANCH  32  33
ENDBRANCH  24  27
ENDBRANCH  22  23
ENDBRANCH  21  22
ENDBRANCH   1  21
TORSDOF 18
