REMARK SMILES CC(C)N(CCCC(=O)NCCCCNC(=O)c1ccc(-c2c3nc(c(-c4c(F)cc(S(=O)(=O)[O-])cc4F)c4ccc([nH]4)c(-c4c(F)cc(S(=O)(=O)[O-])cc4F)c4nc(c(-c5c(F)cc(S(=O)(=O)[O-])cc5F)c5ccc2[nH]5)C=C4)C=C3)cc1)C(=O)Cc1c(F)cccc1F
REMARK SMILES IDX 11 1 10 2 8 3 9 4 7 6 6 7 5 8 4 9 2 10 1 11 3 12 84 13 85 14
REMARK SMILES IDX 86 15 87 16 88 17 93 18 89 19 90 20 92 21 94 22 91 23 12 24
REMARK SMILES IDX 13 25 14 26 15 27 16 28 17 30 18 31 19 32 83 33 20 34 82 35
REMARK SMILES IDX 21 36 22 37 23 38 76 39 24 40 81 41 75 42 77 43 25 44 80 45
REMARK SMILES IDX 74 46 73 47 26 49 60 50 39 51 59 52 40 53 43 54 58 55 78 56
REMARK SMILES IDX 41 57 42 58 57 60 79 61 44 62 27 63 28 64 37 65 29 66 30 67
REMARK SMILES IDX 36 68 38 69 31 70 32 71 33 72 34 73 35 74 61 75 62 76 71 77
REMARK SMILES IDX 63 78 64 79 70 80 72 81 65 82 66 83 67 84 68 85 69 86 45 87
REMARK SMILES IDX 46 88 55 89 47 90 48 91 54 92 56 93 49 94 50 95 51 96 52 97
REMARK SMILES IDX 53 98
REMARK H PARENT 10 5 15 29 77 48 43 59
REMARK Flexibility Score: inf
ROOT
ATOM      1  C   UNL     1      -3.413   1.564   0.570  1.00  0.00     0.116 C 
ENDROOT
BRANCH   1   2
ATOM      2  N   UNL     1      -4.863   0.792  -0.720  1.00  0.00    -0.356 N 
ATOM      3  C   UNL     1      -5.191   0.142  -1.943  1.00  0.00     0.220 C 
ATOM      4  O   UNL     1      -6.424  -0.012  -2.068  1.00  0.00    -0.275 OA
ATOM      5  H   UNL     1      -5.724   0.956  -0.272  1.00  0.00     0.163 HD
BRANCH   3   6
ATOM      6  C   UNL     1      -4.304  -0.408  -3.167  1.00  0.00     0.102 C 
BRANCH   6   7
ATOM      7  C   UNL     1      -2.828  -0.616  -3.741  1.00  0.00     0.031 C 
BRANCH   7   8
ATOM      8  C   UNL     1      -1.335  -0.318  -3.321  1.00  0.00     0.120 C 
BRANCH   8   9
ATOM      9  N   UNL     1      -0.632  -0.816  -2.126  1.00  0.00    -0.340 N 
BRANCH   9  10
ATOM     10  C   UNL     1       0.821  -0.524  -2.024  1.00  0.00     0.078 C 
ATOM     11  C   UNL     1       1.246  -0.085  -0.610  1.00  0.00     0.031 C 
ATOM     12  C   UNL     1       1.692  -1.683  -2.510  1.00  0.00     0.031 C 
ENDBRANCH   9  10
BRANCH   9  13
ATOM     13  C   UNL     1      -1.159  -1.664  -1.183  1.00  0.00     0.227 C 
ATOM     14  O   UNL     1      -0.484  -2.446  -0.513  1.00  0.00    -0.275 OA
BRANCH  13  15
ATOM     15  C   UNL     1      -2.614  -1.582  -0.955  1.00  0.00     0.142 C 
BRANCH  15  16
ATOM     16  C   UNL     1      -3.143  -0.228  -0.554  1.00  0.00     0.033 A 
ATOM     17  C   UNL     1      -3.161   1.372  -1.476  1.00  0.00     0.129 A 
ATOM     18  C   UNL     1      -4.307  -0.411   0.829  1.00  0.00     0.129 A 
ATOM     19  F   UNL     1      -2.482   1.661  -2.579  1.00  0.00    -0.207 F 
ATOM     20  C   UNL     1      -4.316   2.710  -0.983  1.00  0.00     0.040 A 
ATOM     21  C   UNL     1      -5.382   0.917   1.333  1.00  0.00     0.040 A 
ATOM     22  F   UNL     1      -4.371  -1.579   1.483  1.00  0.00    -0.207 F 
ATOM     23  C   UNL     1      -5.400   2.475   0.424  1.00  0.00     0.006 A 
ENDBRANCH  15  16
ENDBRANCH  13  15
ENDBRANCH   9  13
ENDBRANCH   8   9
ENDBRANCH   7   8
ENDBRANCH   6   7
ENDBRANCH   3   6
ENDBRANCH   1   2
BRANCH   1  24
ATOM     24  C   UNL     1      -2.044   2.612   0.213  1.00  0.00     0.023 C 
BRANCH  24  25
ATOM     25  C   UNL     1      -1.961   3.846   1.105  1.00  0.00     0.023 C 
BRANCH  25  26
ATOM     26  C   UNL     1      -1.673   3.529   2.550  1.00  0.00     0.116 C 
BRANCH  26  27
ATOM     27  N   UNL     1      -0.357   2.951   2.771  1.00  0.00    -0.352 N 
ATOM     28  C   UNL     1       0.329   2.973   3.966  1.00  0.00     0.251 C 
ATOM     29  H   UNL     1       0.079   2.509   2.006  1.00  0.00     0.163 HD
ATOM     30  O   UNL     1       1.470   2.544   4.069  1.00  0.00    -0.269 OA
BRANCH  28  31
ATOM     31  C   UNL     1      -0.368   3.599   5.105  1.00  0.00     0.039 A 
ATOM     32  C   UNL     1       0.117   4.806   5.606  1.00  0.00     0.014 A 
ATOM     33  C   UNL     1      -1.620   3.106   5.489  1.00  0.00     0.014 A 
ATOM     34  C   UNL     1      -0.686   5.549   6.468  1.00  0.00     0.010 A 
ATOM     35  C   UNL     1      -2.454   3.899   6.264  1.00  0.00     0.010 A 
ATOM     36  C   UNL     1      -1.989   5.118   6.778  1.00  0.00    -0.014 A 
BRANCH  36  37
ATOM     37  C   UNL     1      -2.850   5.925   7.676  1.00  0.00     0.031 A 
ATOM     38  C   UNL     1      -3.267   5.362   9.008  1.00  0.00     0.074 A 
ATOM     39  C   UNL     1      -3.259   7.152   7.295  1.00  0.00     0.049 A 
ATOM     40  N   UNL     1      -3.940   5.937   9.970  1.00  0.00    -0.248 NA
ATOM     41  C   UNL     1      -2.906   3.962   9.285  1.00  0.00     0.031 C 
ATOM     42  C   UNL     1      -2.993   7.770   5.993  1.00  0.00     0.029 A 
ATOM     43  N   UNL     1      -3.973   8.107   7.973  1.00  0.00    -0.354 N 
ATOM     44  C   UNL     1      -4.080   4.971  10.959  1.00  0.00     0.074 A 
ATOM     45  C   UNL     1      -3.497   3.751  10.450  1.00  0.00     0.031 C 
ATOM     46  C   UNL     1      -3.495   9.016   5.986  1.00  0.00     0.029 A 
ATOM     47  C   UNL     1      -4.127   9.282   7.275  1.00  0.00     0.049 A 
ATOM     48  H   UNL     1      -4.341   7.965   8.875  1.00  0.00     0.167 HD
ATOM     49  C   UNL     1      -4.609   5.097  12.198  1.00  0.00     0.037 A 
ATOM     50  C   UNL     1      -4.690  10.449   7.646  1.00  0.00     0.037 A 
ATOM     51  C   UNL     1      -5.160   6.322  12.710  1.00  0.00     0.049 A 
ATOM     52  C   UNL     1      -5.231  10.582   9.045  1.00  0.00     0.074 A 
ATOM     53  C   UNL     1      -5.664   6.580  13.972  1.00  0.00     0.029 A 
ATOM     54  N   UNL     1      -5.276   7.498  11.983  1.00  0.00    -0.354 N 
ATOM     55  N   UNL     1      -5.272   9.685  10.002  1.00  0.00    -0.248 NA
ATOM     56  C   UNL     1      -5.782  11.890   9.421  1.00  0.00     0.031 C 
ATOM     57  C   UNL     1      -6.121   7.903  13.996  1.00  0.00     0.029 A 
ATOM     58  C   UNL     1      -5.859   8.481  12.763  1.00  0.00     0.049 A 
ATOM     59  H   UNL     1      -4.986   7.615  11.050  1.00  0.00     0.167 HD
ATOM     60  C   UNL     1      -5.835  10.326  11.100  1.00  0.00     0.074 A 
ATOM     61  C   UNL     1      -6.094  11.693  10.694  1.00  0.00     0.031 C 
ATOM     62  C   UNL     1      -6.115   9.833  12.333  1.00  0.00     0.037 A 
BRANCH  49  63
ATOM     63  C   UNL     1      -4.594   3.881  13.082  1.00  0.00     0.058 A 
ATOM     64  C   UNL     1      -3.395   3.365  13.604  1.00  0.00     0.135 A 
ATOM     65  C   UNL     1      -5.789   3.226  13.419  1.00  0.00     0.135 A 
ATOM     66  F   UNL     1      -2.221   3.938  13.295  1.00  0.00    -0.206 F 
ATOM     67  C   UNL     1      -3.378   2.226  14.401  1.00  0.00     0.059 A 
ATOM     68  C   UNL     1      -5.798   2.102  14.240  1.00  0.00     0.059 A 
ATOM     69  F   UNL     1      -6.962   3.672  12.943  1.00  0.00    -0.206 F 
ATOM     70  C   UNL     1      -4.586   1.601  14.713  1.00  0.00     0.060 A 
BRANCH  70  71
ATOM     71  S   UNL     1      -4.549   0.127  15.754  1.00  0.00     0.124 S 
ATOM     72  O   UNL     1      -4.029  -0.872  14.825  1.00  0.00    -0.237 OA
ATOM     73  O   UNL     1      -3.643   0.526  16.827  1.00  0.00    -0.237 OA
ATOM     74  O   UNL     1      -5.944  -0.046  16.147  1.00  0.00    -0.744 OA
ENDBRANCH  70  71
ENDBRANCH  49  63
BRANCH  50  75
ATOM     75  C   UNL     1      -4.719  11.599   6.702  1.00  0.00     0.058 A 
ATOM     76  C   UNL     1      -3.913  12.729   6.911  1.00  0.00     0.135 A 
ATOM     77  C   UNL     1      -5.548  11.591   5.570  1.00  0.00     0.135 A 
ATOM     78  F   UNL     1      -3.106  12.788   7.982  1.00  0.00    -0.206 F 
ATOM     79  C   UNL     1      -3.942  13.818   6.045  1.00  0.00     0.059 A 
ATOM     80  C   UNL     1      -5.576  12.657   4.676  1.00  0.00     0.059 A 
ATOM     81  F   UNL     1      -6.325  10.527   5.313  1.00  0.00    -0.206 F 
ATOM     82  C   UNL     1      -4.777  13.771   4.928  1.00  0.00     0.060 A 
BRANCH  82  83
ATOM     83  S   UNL     1      -4.769  15.166   3.780  1.00  0.00     0.124 S 
ATOM     84  O   UNL     1      -5.517  16.168   4.529  1.00  0.00    -0.237 OA
ATOM     85  O   UNL     1      -3.342  15.423   3.617  1.00  0.00    -0.237 OA
ATOM     86  O   UNL     1      -5.439  14.629   2.598  1.00  0.00    -0.744 OA
ENDBRANCH  82  83
ENDBRANCH  50  75
BRANCH  62  87
ATOM     87  C   UNL     1      -6.718  10.785  13.328  1.00  0.00     0.058 A 
ATOM     88  C   UNL     1      -8.040  11.240  13.202  1.00  0.00     0.135 A 
ATOM     89  C   UNL     1      -5.968  11.237  14.425  1.00  0.00     0.135 A 
ATOM     90  F   UNL     1      -8.798  10.838  12.170  1.00  0.00    -0.206 F 
ATOM     91  C   UNL     1      -8.583  12.147  14.105  1.00  0.00     0.059 A 
ATOM     92  C   UNL     1      -6.501  12.121  15.357  1.00  0.00     0.059 A 
ATOM     93  F   UNL     1      -4.705  10.818  14.601  1.00  0.00    -0.206 F 
ATOM     94  C   UNL     1      -7.802  12.588  15.175  1.00  0.00     0.060 A 
BRANCH  94  95
ATOM     95  S   UNL     1      -8.511  13.777  16.333  1.00  0.00     0.124 S 
ATOM     96  O   UNL     1      -8.429  15.015  15.567  1.00  0.00    -0.237 OA
ATOM     97  O   UNL     1      -9.855  13.248  16.544  1.00  0.00    -0.237 OA
ATOM     98  O   UNL     1      -7.623  13.693  17.489  1.00  0.00    -0.744 OA
ENDBRANCH  94  95
ENDBRANCH  62  87
ENDBRANCH  36  37
ENDBRANCH  28  31
ENDBRANCH  26  27
ENDBRANCH  25  26
ENDBRANCH  24  25
ENDBRANCH   1  24
TORSDOF 21
