REMARK SMILES COc1ccc2c(c1)c(CC(=O)NCCCCNC(=O)c1ccc(-c3c4nc(c(-c5c(F)cc(S(=O)(=O)[O-])cc5F)c5ccc([nH]5)c(-c5c(F)cc(S(=O)(=O)[O-])cc5F)c5nc(c(-c6c(F)cc(S(=O)(=O)[O-])cc6F)c6ccc3[nH]6)C=C5)C=C4)cc1)c(C(F)(F)F)n2C(=O)c1ccc(Cl)cc1
REMARK SMILES IDX 15 1 14 2 13 3 11 4 12 5 10 7 9 8 3 9 4 10 8 11 5 12 7 13
REMARK SMILES IDX 6 14 92 15 87 16 2 17 1 18 93 19 94 20 95 21 96 22 101 23
REMARK SMILES IDX 97 24 100 25 98 26 99 27 88 28 89 29 90 30 91 31 16 32 17 33
REMARK SMILES IDX 18 34 19 35 20 37 21 38 22 39 86 40 23 41 85 42 24 43 25 44
REMARK SMILES IDX 26 45 79 46 27 47 84 48 78 49 80 50 28 51 83 52 77 53 76 54
REMARK SMILES IDX 29 56 63 57 42 58 62 59 43 60 46 61 61 62 81 63 44 64 45 65
REMARK SMILES IDX 60 67 82 68 47 69 30 70 31 71 40 72 32 73 33 74 39 75 41 76
REMARK SMILES IDX 34 77 35 78 36 79 37 80 38 81 64 82 65 83 74 84 66 85 67 86
REMARK SMILES IDX 73 87 75 88 68 89 69 90 70 91 71 92 72 93 48 94 49 95 58 96
REMARK SMILES IDX 50 97 51 98 57 99 59 100 52 101 53 102 54 103 55 104 56 105
REMARK H PARENT 13 6 18 36 80 55 46 66
REMARK Flexibility Score: inf
ROOT
ATOM      1  C   UNL     1       0.537  -3.750   6.745  1.00  0.00     0.023 C 
ENDROOT
BRANCH   1   2
ATOM      2  C   UNL     1      -0.855  -4.326   6.494  1.00  0.00     0.116 C 
BRANCH   2   3
ATOM      3  N   UNL     1      -1.728  -3.378   5.830  1.00  0.00    -0.356 N 
ATOM      4  C   UNL     1      -2.296  -3.469   4.591  1.00  0.00     0.224 C 
ATOM      5  O   UNL     1      -3.065  -2.577   4.227  1.00  0.00    -0.275 OA
ATOM      6  H   UNL     1      -1.938  -2.562   6.339  1.00  0.00     0.163 HD
BRANCH   4   7
ATOM      7  C   UNL     1      -2.020  -4.684   3.717  1.00  0.00     0.138 C 
BRANCH   7   8
ATOM      8  C   UNL     1      -0.589  -4.781   3.263  1.00  0.00     0.000 A 
ATOM      9  C   UNL     1       0.725  -1.717   1.396  1.00  0.00     0.119 A 
ATOM     10  C   UNL     1       1.974  -2.247   1.106  1.00  0.00     0.048 A 
ATOM     11  C   UNL     1      -0.187  -2.472   2.136  1.00  0.00     0.057 A 
ATOM     12  C   UNL     1       2.333  -3.526   1.547  1.00  0.00     0.031 A 
ATOM     13  C   UNL     1       0.145  -3.770   2.582  1.00  0.00     0.008 A 
ATOM     14  C   UNL     1       1.423  -4.275   2.319  1.00  0.00     0.057 A 
ATOM     15  N   UNL     1       1.534  -5.498   2.992  1.00  0.00    -0.271 N 
ATOM     16  C   UNL     1       0.243  -5.894   3.345  1.00  0.00     0.135 A 
BRANCH   9  17
ATOM     17  O   UNL     1       0.279  -0.479   1.024  1.00  0.00    -0.497 OA
ATOM     18  C   UNL     1       0.954   0.126  -0.072  1.00  0.00     0.278 C 
ENDBRANCH   9  17
BRANCH  15  19
ATOM     19  C   UNL     1       2.727  -6.211   3.296  1.00  0.00     0.262 C 
ATOM     20  O   UNL     1       2.641  -7.203   4.003  1.00  0.00    -0.268 OA
BRANCH  19  21
ATOM     21  C   UNL     1       4.074  -5.841   2.829  1.00  0.00     0.040 A 
ATOM     22  C   UNL     1       4.756  -4.755   3.387  1.00  0.00     0.015 A 
ATOM     23  C   UNL     1       4.636  -6.587   1.787  1.00  0.00     0.015 A 
ATOM     24  C   UNL     1       5.984  -4.368   2.842  1.00  0.00     0.021 A 
ATOM     25  C   UNL     1       5.864  -6.199   1.253  1.00  0.00     0.021 A 
ATOM     26  C   UNL     1       6.525  -5.083   1.770  1.00  0.00     0.041 A 
ATOM     27  Cl  UNL     1       8.007  -4.577   1.060  1.00  0.00    -0.084 Cl
ENDBRANCH  19  21
ENDBRANCH  15  19
BRANCH  16  28
ATOM     28  C   UNL     1      -0.079  -7.285   3.771  1.00  0.00     0.432 C 
ATOM     29  F   UNL     1       0.133  -7.484   5.093  1.00  0.00    -0.165 F 
ATOM     30  F   UNL     1      -1.401  -7.550   3.563  1.00  0.00    -0.165 F 
ATOM     31  F   UNL     1       0.581  -8.236   3.068  1.00  0.00    -0.165 F 
ENDBRANCH  16  28
ENDBRANCH   7   8
ENDBRANCH   4   7
ENDBRANCH   2   3
ENDBRANCH   1   2
BRANCH   1  32
ATOM     32  C   UNL     1       0.601  -2.678   7.841  1.00  0.00     0.023 C 
BRANCH  32  33
ATOM     33  C   UNL     1      -0.050  -3.071   9.171  1.00  0.00     0.116 C 
BRANCH  33  34
ATOM     34  N   UNL     1       0.388  -4.360   9.671  1.00  0.00    -0.352 N 
ATOM     35  C   UNL     1       1.404  -4.791  10.477  1.00  0.00     0.251 C 
ATOM     36  H   UNL     1      -0.181  -5.098   9.354  1.00  0.00     0.163 HD
ATOM     37  O   UNL     1       1.387  -5.994  10.756  1.00  0.00    -0.269 OA
BRANCH  35  38
ATOM     38  C   UNL     1       2.505  -3.943  11.011  1.00  0.00     0.039 A 
ATOM     39  C   UNL     1       2.689  -2.588  10.738  1.00  0.00     0.014 A 
ATOM     40  C   UNL     1       3.454  -4.593  11.825  1.00  0.00     0.014 A 
ATOM     41  C   UNL     1       3.804  -1.911  11.225  1.00  0.00     0.010 A 
ATOM     42  C   UNL     1       4.567  -3.918  12.323  1.00  0.00     0.010 A 
ATOM     43  C   UNL     1       4.756  -2.579  11.997  1.00  0.00    -0.014 A 
BRANCH  43  44
ATOM     44  C   UNL     1       5.903  -1.801  12.463  1.00  0.00     0.031 A 
ATOM     45  C   UNL     1       5.601  -0.679  13.395  1.00  0.00     0.074 A 
ATOM     46  C   UNL     1       7.183  -2.094  12.162  1.00  0.00     0.049 A 
ATOM     47  N   UNL     1       5.792   0.588  13.213  1.00  0.00    -0.248 NA
ATOM     48  C   UNL     1       4.945  -1.011  14.668  1.00  0.00     0.031 C 
ATOM     49  C   UNL     1       7.685  -3.317  11.531  1.00  0.00     0.029 A 
ATOM     50  N   UNL     1       8.323  -1.397  12.454  1.00  0.00    -0.354 N 
ATOM     51  C   UNL     1       5.465   1.199  14.421  1.00  0.00     0.074 A 
ATOM     52  C   UNL     1       4.834   0.192  15.235  1.00  0.00     0.031 C 
ATOM     53  C   UNL     1       9.025  -3.375  11.690  1.00  0.00     0.029 A 
ATOM     54  C   UNL     1       9.485  -2.137  12.297  1.00  0.00     0.049 A 
ATOM     55  H   UNL     1       8.319  -0.457  12.748  1.00  0.00     0.167 HD
ATOM     56  C   UNL     1       5.930   2.434  14.757  1.00  0.00     0.037 A 
ATOM     57  C   UNL     1      10.731  -1.791  12.697  1.00  0.00     0.037 A 
ATOM     58  C   UNL     1       6.503   3.127  13.638  1.00  0.00     0.049 A 
ATOM     59  C   UNL     1      10.808  -0.310  12.766  1.00  0.00     0.074 A 
ATOM     60  C   UNL     1       6.042   3.818  12.540  1.00  0.00     0.029 A 
ATOM     61  N   UNL     1       7.835   2.891  13.440  1.00  0.00    -0.354 N 
ATOM     62  N   UNL     1      10.695   0.477  11.731  1.00  0.00    -0.248 NA
ATOM     63  C   UNL     1      10.777   0.363  14.062  1.00  0.00     0.031 C 
ATOM     64  C   UNL     1       7.098   3.795  11.582  1.00  0.00     0.029 A 
ATOM     65  C   UNL     1       8.169   3.088  12.125  1.00  0.00     0.049 A 
ATOM     66  H   UNL     1       8.467   2.618  14.145  1.00  0.00     0.167 HD
ATOM     67  C   UNL     1      10.174   1.649  12.242  1.00  0.00     0.074 A 
ATOM     68  C   UNL     1      10.425   1.590  13.673  1.00  0.00     0.031 C 
ATOM     69  C   UNL     1       9.293   2.400  11.524  1.00  0.00     0.037 A 
BRANCH  56  70
ATOM     70  C   UNL     1       6.239   2.869  16.170  1.00  0.00     0.058 A 
ATOM     71  C   UNL     1       6.416   4.237  16.465  1.00  0.00     0.135 A 
ATOM     72  C   UNL     1       6.661   1.966  17.171  1.00  0.00     0.135 A 
ATOM     73  F   UNL     1       6.074   5.177  15.569  1.00  0.00    -0.206 F 
ATOM     74  C   UNL     1       7.004   4.673  17.654  1.00  0.00     0.059 A 
ATOM     75  C   UNL     1       7.203   2.381  18.383  1.00  0.00     0.059 A 
ATOM     76  F   UNL     1       6.655   0.642  16.968  1.00  0.00    -0.206 F 
ATOM     77  C   UNL     1       7.405   3.735  18.602  1.00  0.00     0.060 A 
BRANCH  77  78
ATOM     78  S   UNL     1       8.246   4.290  20.098  1.00  0.00     0.124 S 
ATOM     79  O   UNL     1       9.544   4.695  19.571  1.00  0.00    -0.237 OA
ATOM     80  O   UNL     1       7.376   5.369  20.555  1.00  0.00    -0.237 OA
ATOM     81  O   UNL     1       8.249   3.099  20.942  1.00  0.00    -0.744 OA
ENDBRANCH  77  78
ENDBRANCH  56  70
BRANCH  57  82
ATOM     82  C   UNL     1      11.755  -2.673  13.316  1.00  0.00     0.058 A 
ATOM     83  C   UNL     1      13.063  -2.203  13.535  1.00  0.00     0.135 A 
ATOM     84  C   UNL     1      11.403  -3.868  13.976  1.00  0.00     0.135 A 
ATOM     85  F   UNL     1      13.483  -1.072  12.948  1.00  0.00    -0.206 F 
ATOM     86  C   UNL     1      13.935  -2.826  14.430  1.00  0.00     0.059 A 
ATOM     87  C   UNL     1      12.264  -4.519  14.855  1.00  0.00     0.059 A 
ATOM     88  F   UNL     1      10.173  -4.390  13.868  1.00  0.00    -0.206 F 
ATOM     89  C   UNL     1      13.513  -3.967  15.110  1.00  0.00     0.060 A 
BRANCH  89  90
ATOM     90  S   UNL     1      14.541  -4.635  16.436  1.00  0.00     0.124 S 
ATOM     91  O   UNL     1      15.680  -5.165  15.695  1.00  0.00    -0.237 OA
ATOM     92  O   UNL     1      14.801  -3.450  17.245  1.00  0.00    -0.237 OA
ATOM     93  O   UNL     1      13.680  -5.637  17.060  1.00  0.00    -0.744 OA
ENDBRANCH  89  90
ENDBRANCH  57  82
BRANCH  69  94
ATOM     94  C   UNL     1       9.377   2.331  10.028  1.00  0.00     0.058 A 
ATOM     95  C   UNL     1       9.082   1.192   9.262  1.00  0.00     0.135 A 
ATOM     96  C   UNL     1       9.714   3.504   9.334  1.00  0.00     0.135 A 
ATOM     97  F   UNL     1       8.667   0.058   9.844  1.00  0.00    -0.206 F 
ATOM     98  C   UNL     1       9.164   1.208   7.869  1.00  0.00     0.059 A 
ATOM     99  C   UNL     1       9.770   3.552   7.944  1.00  0.00     0.059 A 
ATOM    100  F   UNL     1       9.959   4.639  10.010  1.00  0.00    -0.206 F 
ATOM    101  C   UNL     1       9.508   2.393   7.218  1.00  0.00     0.060 A 
BRANCH 101 102
ATOM    102  S   UNL     1       9.546   2.425   5.413  1.00  0.00     0.124 S 
ATOM    103  O   UNL     1      10.745   1.649   5.116  1.00  0.00    -0.237 OA
ATOM    104  O   UNL     1       8.278   1.791   5.058  1.00  0.00    -0.237 OA
ATOM    105  O   UNL     1       9.629   3.849   5.097  1.00  0.00    -0.744 OA
ENDBRANCH 101 102
ENDBRANCH  69  94
ENDBRANCH  43  44
ENDBRANCH  35  38
ENDBRANCH  33  34
ENDBRANCH  32  33
ENDBRANCH   1  32
TORSDOF 19
