REMARK SMILES CCOc1c(CNC(=O)[C@H]2CCCC[C@@H]2C(=O)NCCCCNC(=O)c2ccc(-c3c4nc(c(-c5c(F)cc(S(=O)(=O)[O-])cc5F)c5ccc([nH]5)c(-c5c(F)cc(S(=O)(=O)[O-])cc5F)c5nc(c(-c6c(F)cc(S(=O)(=O)[O-])cc6F)c6ccc3[nH]6)C=C5)C=C4)cc2)cccc1OC
REMARK SMILES IDX 19 1 18 2 16 3 17 4 15 6 10 7 11 8 12 9 14 10 13 11 8 12
REMARK SMILES IDX 7 13 9 15 6 16 5 17 4 18 95 19 92 20 94 21 93 22 3 23 2 24
REMARK SMILES IDX 1 25 96 26 97 27 20 28 21 29 22 30 23 31 24 32 25 34 26 35
REMARK SMILES IDX 27 36 91 37 28 38 90 39 29 40 30 41 31 42 84 43 32 44 89 45
REMARK SMILES IDX 83 46 85 47 33 48 88 49 82 50 81 51 34 53 68 54 47 55 67 56
REMARK SMILES IDX 48 57 51 58 66 59 86 60 49 61 50 62 65 64 87 65 52 66 35 67
REMARK SMILES IDX 36 68 45 69 37 70 38 71 44 72 46 73 39 74 40 75 41 76 42 77
REMARK SMILES IDX 43 78 69 79 70 80 79 81 71 82 72 83 78 84 80 85 73 86 74 87
REMARK SMILES IDX 75 88 76 89 77 90 53 91 54 92 63 93 55 94 56 95 62 96 64 97
REMARK SMILES IDX 57 98 58 99 59 100 60 101 61 102
REMARK H PARENT 18 5 7 14 23 33 85 52 51 63
REMARK Flexibility Score: inf
ROOT
ATOM      1  C   UNL     1      -1.048   6.957   5.206  1.00  0.00     0.116 C 
ENDROOT
BRANCH   1   2
ATOM      2  N   UNL     1       0.183   7.188   5.941  1.00  0.00    -0.356 N 
ATOM      3  C   UNL     1       1.471   7.203   5.494  1.00  0.00     0.223 C 
ATOM      4  O   UNL     1       2.373   7.211   6.330  1.00  0.00    -0.275 OA
ATOM      5  H   UNL     1       0.070   7.360   6.904  1.00  0.00     0.163 HD
BRANCH   3   6
ATOM      6  C   UNL     1       1.737   7.272   3.991  1.00  0.00     0.091 C 
ATOM      7  C   UNL     1       3.156   6.791   3.624  1.00  0.00     0.091 C 
ATOM      8  C   UNL     1       4.238   7.843   3.962  1.00  0.00     0.014 C 
ATOM      9  C   UNL     1       3.902   9.269   3.522  1.00  0.00     0.001 C 
ATOM     10  C   UNL     1       1.449   8.693   3.482  1.00  0.00     0.014 C 
ATOM     11  C   UNL     1       2.502   9.698   3.936  1.00  0.00     0.001 C 
BRANCH   7  12
ATOM     12  C   UNL     1       3.237   6.393   2.143  1.00  0.00     0.224 C 
ATOM     13  N   UNL     1       2.739   5.209   1.692  1.00  0.00    -0.352 N 
ATOM     14  H   UNL     1       2.865   5.065   0.726  1.00  0.00     0.163 HD
ATOM     15  O   UNL     1       3.732   7.135   1.292  1.00  0.00    -0.275 OA
BRANCH  13  16
ATOM     16  C   UNL     1       2.057   4.117   2.369  1.00  0.00     0.155 C 
BRANCH  16  17
ATOM     17  C   UNL     1       0.685   3.855   1.769  1.00  0.00     0.017 A 
ATOM     18  C   UNL     1       0.137   2.559   1.580  1.00  0.00     0.166 A 
ATOM     19  C   UNL     1      -1.247   2.422   1.336  1.00  0.00     0.161 A 
ATOM     20  C   UNL     1      -0.144   4.974   1.538  1.00  0.00     0.010 A 
ATOM     21  C   UNL     1      -2.040   3.566   1.169  1.00  0.00     0.050 A 
ATOM     22  C   UNL     1      -1.490   4.835   1.235  1.00  0.00     0.004 A 
BRANCH  18  23
ATOM     23  O   UNL     1       0.904   1.431   1.739  1.00  0.00    -0.490 OA
BRANCH  23  24
ATOM     24  C   UNL     1       1.942   1.285   0.755  1.00  0.00     0.226 C 
ATOM     25  C   UNL     1       1.828  -0.059   0.050  1.00  0.00     0.049 C 
ENDBRANCH  23  24
ENDBRANCH  18  23
BRANCH  19  26
ATOM     26  O   UNL     1      -2.016   1.289   1.308  1.00  0.00    -0.493 OA
ATOM     27  C   UNL     1      -1.419   0.054   0.969  1.00  0.00     0.278 C 
ENDBRANCH  19  26
ENDBRANCH  16  17
ENDBRANCH  13  16
ENDBRANCH   7  12
ENDBRANCH   3   6
ENDBRANCH   1   2
BRANCH   1  28
ATOM     28  C   UNL     1      -1.569   5.540   5.444  1.00  0.00     0.023 C 
BRANCH  28  29
ATOM     29  C   UNL     1      -1.984   5.253   6.892  1.00  0.00     0.023 C 
BRANCH  29  30
ATOM     30  C   UNL     1      -3.050   6.184   7.462  1.00  0.00     0.116 C 
BRANCH  30  31
ATOM     31  N   UNL     1      -4.305   6.122   6.731  1.00  0.00    -0.352 N 
ATOM     32  C   UNL     1      -5.589   6.084   7.227  1.00  0.00     0.251 C 
ATOM     33  H   UNL     1      -4.227   6.104   5.750  1.00  0.00     0.163 HD
ATOM     34  O   UNL     1      -6.534   5.899   6.471  1.00  0.00    -0.269 OA
BRANCH  32  35
ATOM     35  C   UNL     1      -5.812   6.236   8.682  1.00  0.00     0.039 A 
ATOM     36  C   UNL     1      -6.638   5.320   9.339  1.00  0.00     0.014 A 
ATOM     37  C   UNL     1      -5.190   7.262   9.398  1.00  0.00     0.014 A 
ATOM     38  C   UNL     1      -6.786   5.393  10.727  1.00  0.00     0.010 A 
ATOM     39  C   UNL     1      -5.287   7.293  10.786  1.00  0.00     0.010 A 
ATOM     40  C   UNL     1      -6.084   6.358  11.466  1.00  0.00    -0.014 A 
BRANCH  40  41
ATOM     41  C   UNL     1      -6.169   6.419  12.949  1.00  0.00     0.031 A 
ATOM     42  C   UNL     1      -6.759   7.632  13.616  1.00  0.00     0.074 A 
ATOM     43  C   UNL     1      -5.652   5.422  13.694  1.00  0.00     0.049 A 
ATOM     44  N   UNL     1      -6.813   7.932  14.888  1.00  0.00    -0.248 NA
ATOM     45  C   UNL     1      -7.342   8.655  12.732  1.00  0.00     0.031 C 
ATOM     46  C   UNL     1      -5.026   4.206  13.168  1.00  0.00     0.029 A 
ATOM     47  N   UNL     1      -5.556   5.278  15.057  1.00  0.00    -0.354 N 
ATOM     48  C   UNL     1      -7.422   9.180  14.957  1.00  0.00     0.074 A 
ATOM     49  C   UNL     1      -7.670   9.604  13.596  1.00  0.00     0.031 C 
ATOM     50  C   UNL     1      -4.628   3.436  14.195  1.00  0.00     0.029 A 
ATOM     51  C   UNL     1      -4.929   4.118  15.449  1.00  0.00     0.049 A 
ATOM     52  H   UNL     1      -5.904   5.944  15.693  1.00  0.00     0.167 HD
ATOM     53  C   UNL     1      -7.766   9.897  16.054  1.00  0.00     0.037 A 
ATOM     54  C   UNL     1      -4.621   3.663  16.680  1.00  0.00     0.037 A 
ATOM     55  C   UNL     1      -7.538   9.460  17.406  1.00  0.00     0.049 A 
ATOM     56  C   UNL     1      -4.994   4.488  17.883  1.00  0.00     0.074 A 
ATOM     57  C   UNL     1      -7.875  10.101  18.586  1.00  0.00     0.029 A 
ATOM     58  N   UNL     1      -6.921   8.269  17.761  1.00  0.00    -0.354 N 
ATOM     59  N   UNL     1      -5.600   5.651  17.930  1.00  0.00    -0.248 NA
ATOM     60  C   UNL     1      -4.645   3.939  19.201  1.00  0.00     0.031 C 
ATOM     61  C   UNL     1      -7.433   9.313  19.654  1.00  0.00     0.029 A 
ATOM     62  C   UNL     1      -6.861   8.160  19.140  1.00  0.00     0.049 A 
ATOM     63  H   UNL     1      -6.577   7.601  17.126  1.00  0.00     0.167 HD
ATOM     64  C   UNL     1      -5.739   5.952  19.281  1.00  0.00     0.074 A 
ATOM     65  C   UNL     1      -5.156   4.850  20.017  1.00  0.00     0.031 C 
ATOM     66  C   UNL     1      -6.301   7.043  19.858  1.00  0.00     0.037 A 
BRANCH  53  67
ATOM     67  C   UNL     1      -8.437  11.225  15.834  1.00  0.00     0.058 A 
ATOM     68  C   UNL     1      -9.751  11.309  15.346  1.00  0.00     0.135 A 
ATOM     69  C   UNL     1      -7.775  12.424  16.143  1.00  0.00     0.135 A 
ATOM     70  F   UNL     1     -10.424  10.195  15.019  1.00  0.00    -0.206 F 
ATOM     71  C   UNL     1     -10.374  12.536  15.143  1.00  0.00     0.059 A 
ATOM     72  C   UNL     1      -8.390  13.662  15.975  1.00  0.00     0.059 A 
ATOM     73  F   UNL     1      -6.518  12.401  16.613  1.00  0.00    -0.206 F 
ATOM     74  C   UNL     1      -9.684  13.707  15.459  1.00  0.00     0.060 A 
BRANCH  74  75
ATOM     75  S   UNL     1     -10.509  15.291  15.191  1.00  0.00     0.124 S 
ATOM     76  O   UNL     1     -10.467  15.397  13.736  1.00  0.00    -0.237 OA
ATOM     77  O   UNL     1     -11.828  15.059  15.771  1.00  0.00    -0.237 OA
ATOM     78  O   UNL     1      -9.668  16.239  15.914  1.00  0.00    -0.744 OA
ENDBRANCH  74  75
ENDBRANCH  53  67
BRANCH  54  79
ATOM     79  C   UNL     1      -3.939   2.351  16.844  1.00  0.00     0.058 A 
ATOM     80  C   UNL     1      -4.616   1.254  17.397  1.00  0.00     0.135 A 
ATOM     81  C   UNL     1      -2.600   2.168  16.465  1.00  0.00     0.135 A 
ATOM     82  F   UNL     1      -5.896   1.380  17.781  1.00  0.00    -0.206 F 
ATOM     83  C   UNL     1      -3.986   0.029  17.592  1.00  0.00     0.059 A 
ATOM     84  C   UNL     1      -1.955   0.946  16.626  1.00  0.00     0.059 A 
ATOM     85  F   UNL     1      -1.912   3.181  15.916  1.00  0.00    -0.206 F 
ATOM     86  C   UNL     1      -2.653  -0.114  17.204  1.00  0.00     0.060 A 
BRANCH  86  87
ATOM     87  S   UNL     1      -1.851  -1.716  17.436  1.00  0.00     0.124 S 
ATOM     88  O   UNL     1      -1.642  -1.732  18.879  1.00  0.00    -0.237 OA
ATOM     89  O   UNL     1      -2.858  -2.641  16.926  1.00  0.00    -0.237 OA
ATOM     90  O   UNL     1      -0.643  -1.606  16.623  1.00  0.00    -0.744 OA
ENDBRANCH  86  87
ENDBRANCH  54  79
BRANCH  66  91
ATOM     91  C   UNL     1      -6.370   7.078  21.360  1.00  0.00     0.058 A 
ATOM     92  C   UNL     1      -5.235   7.319  22.148  1.00  0.00     0.135 A 
ATOM     93  C   UNL     1      -7.605   6.935  22.013  1.00  0.00     0.135 A 
ATOM     94  F   UNL     1      -4.029   7.456  21.574  1.00  0.00    -0.206 F 
ATOM     95  C   UNL     1      -5.319   7.402  23.535  1.00  0.00     0.059 A 
ATOM     96  C   UNL     1      -7.717   7.039  23.395  1.00  0.00     0.059 A 
ATOM     97  F   UNL     1      -8.723   6.712  21.303  1.00  0.00    -0.206 F 
ATOM     98  C   UNL     1      -6.566   7.264  24.149  1.00  0.00     0.060 A 
BRANCH  98  99
ATOM     99  S   UNL     1      -6.670   7.424  25.944  1.00  0.00     0.124 S 
ATOM    100  O   UNL     1      -6.100   6.156  26.386  1.00  0.00    -0.237 OA
ATOM    101  O   UNL     1      -5.855   8.608  26.201  1.00  0.00    -0.237 OA
ATOM    102  O   UNL     1      -8.099   7.590  26.189  1.00  0.00    -0.744 OA
ENDBRANCH  98  99
ENDBRANCH  66  91
ENDBRANCH  40  41
ENDBRANCH  32  35
ENDBRANCH  30  31
ENDBRANCH  29  30
ENDBRANCH  28  29
ENDBRANCH   1  28
TORSDOF 20
