REMARK SMILES Cc1ccc(S(=O)(=O)N2c3ccc(C(=O)NCCCCNC(=O)c4ccc(-c5c6nc(c(-c7c(F)cc(S(=O)(=O)[O-])cc7F)c7ccc([nH]7)c(-c7c(F)cc(S(=O)(=O)[O-])cc7F)c7nc(c(-c8c(F)cc(S(=O)(=O)[O-])cc8F)c8ccc5[nH]8)C=C7)C=C6)cc4)cc3C[C@H]2C)cc1
REMARK SMILES IDX 19 1 18 2 17 3 16 4 14 5 15 6 13 8 9 9 10 10 93 11 11 12
REMARK SMILES IDX 91 13 92 14 94 15 12 16 90 17 6 18 7 19 8 20 5 21 1 22 2 23
REMARK SMILES IDX 3 24 96 25 4 26 95 27 20 28 21 29 22 30 23 32 24 33 25 34
REMARK SMILES IDX 89 35 26 36 88 37 27 38 28 39 29 40 82 41 30 42 87 43 81 44
REMARK SMILES IDX 83 45 31 46 86 47 80 48 79 49 32 51 66 52 45 53 65 54 46 55
REMARK SMILES IDX 49 56 64 57 84 58 47 59 48 60 63 62 85 63 50 64 33 65 34 66
REMARK SMILES IDX 43 67 35 68 36 69 42 70 44 71 37 72 38 73 39 74 40 75 41 76
REMARK SMILES IDX 67 77 68 78 77 79 69 80 70 81 76 82 78 83 71 84 72 85 73 86
REMARK SMILES IDX 74 87 75 88 51 89 52 90 61 91 53 92 54 93 60 94 62 95 55 96
REMARK SMILES IDX 56 97 57 98 58 99 59 100
REMARK H PARENT 16 7 21 31 83 50 49 61
REMARK Flexibility Score: inf
ROOT
ATOM      1  C   UNL     1     -11.979   2.343   3.689  1.00  0.00     0.023 C 
ENDROOT
BRANCH   1   2
ATOM      2  C   UNL     1     -10.531   1.920   3.470  1.00  0.00     0.023 C 
BRANCH   2   3
ATOM      3  C   UNL     1     -10.225   1.163   2.177  1.00  0.00     0.116 C 
BRANCH   3   4
ATOM      4  N   UNL     1     -10.487   1.920   0.954  1.00  0.00    -0.352 N 
ATOM      5  C   UNL     1      -9.663   2.322  -0.073  1.00  0.00     0.251 C 
ATOM      6  O   UNL     1     -10.130   3.019  -0.974  1.00  0.00    -0.269 OA
ATOM      7  H   UNL     1     -11.427   2.193   0.845  1.00  0.00     0.163 HD
BRANCH   5   8
ATOM      8  C   UNL     1      -8.211   2.003  -0.093  1.00  0.00     0.040 A 
ATOM      9  N   UNL     1      -4.017   1.616   0.178  1.00  0.00    -0.263 N 
ATOM     10  C   UNL     1      -5.464   1.583   0.080  1.00  0.00     0.055 A 
ATOM     11  C   UNL     1      -3.637   2.995  -0.337  1.00  0.00     0.101 C 
ATOM     12  C   UNL     1      -6.321   0.593   0.521  1.00  0.00     0.028 A 
ATOM     13  C   UNL     1      -5.966   2.732  -0.527  1.00  0.00    -0.021 A 
ATOM     14  C   UNL     1      -4.859   3.546  -1.102  1.00  0.00     0.063 C 
ATOM     15  C   UNL     1      -3.321   3.896   0.864  1.00  0.00     0.032 C 
ATOM     16  C   UNL     1      -7.698   0.780   0.365  1.00  0.00     0.016 A 
ATOM     17  C   UNL     1      -7.332   2.967  -0.611  1.00  0.00     0.019 A 
BRANCH   9  18
ATOM     18  S   UNL     1      -3.283   0.263  -0.593  1.00  0.00     0.264 S 
ATOM     19  O   UNL     1      -3.337   0.488  -2.024  1.00  0.00    -0.201 OA
ATOM     20  O   UNL     1      -3.835  -0.944  -0.006  1.00  0.00    -0.201 OA
BRANCH  18  21
ATOM     21  C   UNL     1      -1.546   0.205  -0.176  1.00  0.00     0.088 A 
ATOM     22  C   UNL     1       2.733  -0.167   0.154  1.00  0.00     0.044 C 
ATOM     23  C   UNL     1       1.240  -0.042   0.102  1.00  0.00    -0.051 A 
ATOM     24  C   UNL     1       0.453  -1.175  -0.124  1.00  0.00     0.005 A 
ATOM     25  C   UNL     1       0.613   1.198   0.266  1.00  0.00     0.005 A 
ATOM     26  C   UNL     1      -0.930  -1.053  -0.263  1.00  0.00     0.022 A 
ATOM     27  C   UNL     1      -0.776   1.322   0.133  1.00  0.00     0.022 A 
ENDBRANCH  18  21
ENDBRANCH   9  18
ENDBRANCH   5   8
ENDBRANCH   3   4
ENDBRANCH   2   3
ENDBRANCH   1   2
BRANCH   1  28
ATOM     28  C   UNL     1     -12.991   1.212   3.681  1.00  0.00     0.116 C 
BRANCH  28  29
ATOM     29  N   UNL     1     -13.028   0.357   4.856  1.00  0.00    -0.352 N 
ATOM     30  C   UNL     1     -14.231  -0.280   5.195  1.00  0.00     0.251 C 
ATOM     31  H   UNL     1     -12.221   0.226   5.405  1.00  0.00     0.163 HD
ATOM     32  O   UNL     1     -14.939   0.026   6.120  1.00  0.00    -0.269 OA
BRANCH  30  33
ATOM     33  C   UNL     1     -14.638  -1.324   4.217  1.00  0.00     0.039 A 
ATOM     34  C   UNL     1     -14.493  -2.682   4.502  1.00  0.00     0.014 A 
ATOM     35  C   UNL     1     -14.978  -0.894   2.936  1.00  0.00     0.014 A 
ATOM     36  C   UNL     1     -14.548  -3.606   3.453  1.00  0.00     0.010 A 
ATOM     37  C   UNL     1     -14.917  -1.786   1.893  1.00  0.00     0.010 A 
ATOM     38  C   UNL     1     -14.685  -3.141   2.143  1.00  0.00    -0.014 A 
BRANCH  38  39
ATOM     39  C   UNL     1     -14.551  -3.951   0.940  1.00  0.00     0.031 A 
ATOM     40  C   UNL     1     -15.736  -4.245   0.100  1.00  0.00     0.074 A 
ATOM     41  C   UNL     1     -13.312  -4.230   0.479  1.00  0.00     0.049 A 
ATOM     42  N   UNL     1     -15.778  -5.172  -0.795  1.00  0.00    -0.248 NA
ATOM     43  C   UNL     1     -16.992  -3.506   0.215  1.00  0.00     0.031 C 
ATOM     44  C   UNL     1     -12.942  -4.635  -0.874  1.00  0.00     0.029 A 
ATOM     45  N   UNL     1     -12.133  -4.361   1.212  1.00  0.00    -0.354 N 
ATOM     46  C   UNL     1     -16.914  -4.976  -1.548  1.00  0.00     0.074 A 
ATOM     47  C   UNL     1     -17.663  -3.959  -0.849  1.00  0.00     0.031 C 
ATOM     48  C   UNL     1     -11.727  -5.204  -0.842  1.00  0.00     0.029 A 
ATOM     49  C   UNL     1     -11.344  -5.324   0.553  1.00  0.00     0.049 A 
ATOM     50  H   UNL     1     -11.896  -3.874   2.034  1.00  0.00     0.167 HD
ATOM     51  C   UNL     1     -17.041  -5.592  -2.758  1.00  0.00     0.037 A 
ATOM     52  C   UNL     1     -11.032  -6.504   1.170  1.00  0.00     0.037 A 
ATOM     53  C   UNL     1     -15.885  -6.434  -3.046  1.00  0.00     0.049 A 
ATOM     54  C   UNL     1     -11.609  -7.723   0.483  1.00  0.00     0.074 A 
ATOM     55  C   UNL     1     -14.727  -6.210  -3.774  1.00  0.00     0.029 A 
ATOM     56  N   UNL     1     -15.653  -7.571  -2.281  1.00  0.00    -0.354 N 
ATOM     57  N   UNL     1     -12.566  -7.675  -0.403  1.00  0.00    -0.248 NA
ATOM     58  C   UNL     1     -11.157  -9.089   0.730  1.00  0.00     0.031 C 
ATOM     59  C   UNL     1     -13.770  -7.178  -3.389  1.00  0.00     0.029 A 
ATOM     60  C   UNL     1     -14.351  -8.006  -2.446  1.00  0.00     0.049 A 
ATOM     61  H   UNL     1     -16.322  -8.006  -1.704  1.00  0.00     0.167 HD
ATOM     62  C   UNL     1     -12.874  -8.943  -0.828  1.00  0.00     0.074 A 
ATOM     63  C   UNL     1     -11.948  -9.792  -0.102  1.00  0.00     0.031 C 
ATOM     64  C   UNL     1     -13.861  -9.182  -1.742  1.00  0.00     0.037 A 
BRANCH  51  65
ATOM     65  C   UNL     1     -18.075  -5.179  -3.780  1.00  0.00     0.058 A 
ATOM     66  C   UNL     1     -17.760  -5.125  -5.155  1.00  0.00     0.135 A 
ATOM     67  C   UNL     1     -19.387  -4.782  -3.454  1.00  0.00     0.135 A 
ATOM     68  F   UNL     1     -16.574  -5.537  -5.621  1.00  0.00    -0.206 F 
ATOM     69  C   UNL     1     -18.638  -4.621  -6.115  1.00  0.00     0.059 A 
ATOM     70  C   UNL     1     -20.267  -4.227  -4.390  1.00  0.00     0.059 A 
ATOM     71  F   UNL     1     -19.864  -4.939  -2.210  1.00  0.00    -0.206 F 
ATOM     72  C   UNL     1     -19.879  -4.143  -5.721  1.00  0.00     0.060 A 
BRANCH  72  73
ATOM     73  S   UNL     1     -20.953  -3.401  -6.966  1.00  0.00     0.124 S 
ATOM     74  O   UNL     1     -20.063  -2.441  -7.612  1.00  0.00    -0.237 OA
ATOM     75  O   UNL     1     -21.328  -4.559  -7.771  1.00  0.00    -0.237 OA
ATOM     76  O   UNL     1     -22.029  -2.809  -6.176  1.00  0.00    -0.744 OA
ENDBRANCH  72  73
ENDBRANCH  51  65
BRANCH  52  77
ATOM     77  C   UNL     1     -10.798  -6.332   2.634  1.00  0.00     0.058 A 
ATOM     78  C   UNL     1      -9.670  -5.575   3.011  1.00  0.00     0.135 A 
ATOM     79  C   UNL     1     -11.856  -6.412   3.551  1.00  0.00     0.135 A 
ATOM     80  F   UNL     1      -8.615  -5.491   2.184  1.00  0.00    -0.206 F 
ATOM     81  C   UNL     1      -9.678  -4.761   4.139  1.00  0.00     0.059 A 
ATOM     82  C   UNL     1     -11.877  -5.614   4.699  1.00  0.00     0.059 A 
ATOM     83  F   UNL     1     -12.950  -7.132   3.260  1.00  0.00    -0.206 F 
ATOM     84  C   UNL     1     -10.827  -4.722   4.925  1.00  0.00     0.060 A 
BRANCH  84  85
ATOM     85  S   UNL     1     -10.992  -3.374   6.125  1.00  0.00     0.124 S 
ATOM     86  O   UNL     1      -9.734  -3.459   6.859  1.00  0.00    -0.237 OA
ATOM     87  O   UNL     1     -11.137  -2.203   5.255  1.00  0.00    -0.237 OA
ATOM     88  O   UNL     1     -12.185  -3.740   6.878  1.00  0.00    -0.744 OA
ENDBRANCH  84  85
ENDBRANCH  52  77
BRANCH  64  89
ATOM     89  C   UNL     1     -14.406 -10.533  -2.147  1.00  0.00     0.058 A 
ATOM     90  C   UNL     1     -14.460 -11.648  -1.296  1.00  0.00     0.135 A 
ATOM     91  C   UNL     1     -15.047 -10.694  -3.402  1.00  0.00     0.135 A 
ATOM     92  F   UNL     1     -13.979 -11.593  -0.045  1.00  0.00    -0.206 F 
ATOM     93  C   UNL     1     -15.055 -12.853  -1.678  1.00  0.00     0.059 A 
ATOM     94  C   UNL     1     -15.696 -11.866  -3.780  1.00  0.00     0.059 A 
ATOM     95  F   UNL     1     -15.079  -9.703  -4.306  1.00  0.00    -0.206 F 
ATOM     96  C   UNL     1     -15.675 -12.952  -2.920  1.00  0.00     0.060 A 
BRANCH  96  97
ATOM     97  S   UNL     1     -16.513 -14.475  -3.396  1.00  0.00     0.124 S 
ATOM     98  O   UNL     1     -15.454 -15.177  -4.114  1.00  0.00    -0.237 OA
ATOM     99  O   UNL     1     -16.892 -15.053  -2.110  1.00  0.00    -0.237 OA
ATOM    100  O   UNL     1     -17.625 -13.999  -4.212  1.00  0.00    -0.744 OA
ENDBRANCH  96  97
ENDBRANCH  64  89
ENDBRANCH  38  39
ENDBRANCH  30  33
ENDBRANCH  28  29
ENDBRANCH   1  28
TORSDOF 16
