REMARK SMILES Cc1ccc(S(=O)(=O)n2cc(C(=O)C(=O)N[C@@H](Cc3c[nH]c4ccccc34)C(=O)NCCCCNC(=O)c3ccc(-c4c5nc(c(-c6c(F)cc(S(=O)(=O)[O-])cc6F)c6ccc([nH]6)c(-c6c(F)cc(S(=O)(=O)[O-])cc6F)c6nc(c(-c7c(F)cc(S(=O)(=O)[O-])cc7F)c7ccc4[nH]7)C=C6)C=C5)cc3)c3ccccc32)cc1
REMARK SMILES IDX 31 1 30 2 28 3 29 4 17 6 16 7 14 8 15 9 12 11 13 12 11 13
REMARK SMILES IDX 9 14 10 15 109 16 104 17 108 18 105 19 107 20 106 21 6 22
REMARK SMILES IDX 7 23 8 24 5 25 1 26 2 27 3 28 111 29 4 30 110 31 18 32 19 33
REMARK SMILES IDX 20 34 27 35 21 36 22 37 26 38 23 40 25 41 24 42 32 43 33 44
REMARK SMILES IDX 34 45 35 46 36 47 37 49 38 50 39 51 103 52 40 53 102 54
REMARK SMILES IDX 41 55 42 56 43 57 96 58 44 59 101 60 95 61 97 62 45 63
REMARK SMILES IDX 100 64 94 65 93 66 46 68 80 69 59 70 79 71 60 72 63 73 78 74
REMARK SMILES IDX 98 75 61 76 62 77 77 79 99 80 64 81 47 82 48 83 57 84 49 85
REMARK SMILES IDX 50 86 56 87 58 88 51 89 52 90 53 91 54 92 55 93 81 94 82 95
REMARK SMILES IDX 91 96 83 97 84 98 90 99 92 100 85 101 86 102 87 103 88 104
REMARK SMILES IDX 89 105 65 106 66 107 75 108 67 109 68 110 74 111 76 112
REMARK SMILES IDX 69 113 70 114 71 115 72 116 73 117
REMARK H PARENT 30 5 16 10 21 39 35 48 97 67 63 78
REMARK Flexibility Score: inf
ROOT
ATOM      1  C   UNL     1     -12.074   4.356  -1.486  1.00  0.00     0.116 C 
ENDROOT
BRANCH   1   2
ATOM      2  N   UNL     1     -11.947   3.033  -2.064  1.00  0.00    -0.354 N 
ATOM      3  C   UNL     1     -11.550   1.872  -1.453  1.00  0.00     0.242 C 
ATOM      4  O   UNL     1     -12.019   0.820  -1.905  1.00  0.00    -0.273 OA
ATOM      5  H   UNL     1     -12.175   2.958  -3.019  1.00  0.00     0.163 HD
BRANCH   3   6
ATOM      6  C   UNL     1     -10.650   1.826  -0.180  1.00  0.00     0.176 C 
BRANCH   6   7
ATOM      7  N   UNL     1      -9.491   2.748  -0.198  1.00  0.00    -0.337 N 
ATOM      8  C   UNL     1      -8.151   2.523  -0.479  1.00  0.00     0.293 C 
ATOM      9  O   UNL     1      -7.318   3.411  -0.320  1.00  0.00    -0.265 OA
ATOM     10  H   UNL     1      -9.708   3.681   0.030  1.00  0.00     0.164 HD
BRANCH   8  11
ATOM     11  C   UNL     1      -7.682   1.169  -1.019  1.00  0.00     0.252 C 
ATOM     12  O   UNL     1      -8.351   0.694  -1.937  1.00  0.00    -0.283 OA
BRANCH  11  13
ATOM     13  C   UNL     1      -6.559   0.413  -0.423  1.00  0.00     0.054 A 
ATOM     14  N   UNL     1      -4.611  -0.307   0.495  1.00  0.00    -0.240 N 
ATOM     15  C   UNL     1      -5.265   0.804  -0.043  1.00  0.00     0.117 A 
ATOM     16  C   UNL     1      -5.565  -1.330   0.633  1.00  0.00     0.065 A 
ATOM     17  C   UNL     1      -6.601  -1.004  -0.236  1.00  0.00     0.012 A 
ATOM     18  C   UNL     1      -5.465  -2.613   1.210  1.00  0.00     0.028 A 
ATOM     19  C   UNL     1      -7.443  -2.039  -0.696  1.00  0.00     0.011 A 
ATOM     20  C   UNL     1      -6.263  -3.630   0.689  1.00  0.00     0.002 A 
ATOM     21  C   UNL     1      -7.212  -3.355  -0.285  1.00  0.00     0.001 A 
BRANCH  14  22
ATOM     22  S   UNL     1      -3.062  -0.955   0.005  1.00  0.00     0.268 S 
ATOM     23  O   UNL     1      -3.308  -1.401  -1.357  1.00  0.00    -0.201 OA
ATOM     24  O   UNL     1      -2.779  -1.913   1.067  1.00  0.00    -0.201 OA
BRANCH  22  25
ATOM     25  C   UNL     1      -1.528  -0.104  -0.074  1.00  0.00     0.088 A 
ATOM     26  C   UNL     1       2.658   0.985  -0.037  1.00  0.00     0.044 C 
ATOM     27  C   UNL     1       1.194   0.653  -0.096  1.00  0.00    -0.051 A 
ATOM     28  C   UNL     1       0.851  -0.665  -0.360  1.00  0.00     0.005 A 
ATOM     29  C   UNL     1       0.165   1.589   0.158  1.00  0.00     0.005 A 
ATOM     30  C   UNL     1      -0.485  -1.025  -0.360  1.00  0.00     0.022 A 
ATOM     31  C   UNL     1      -1.207   1.218   0.176  1.00  0.00     0.022 A 
ENDBRANCH  22  25
ENDBRANCH  14  22
ENDBRANCH  11  13
ENDBRANCH   8  11
ENDBRANCH   6   7
BRANCH   6  32
ATOM     32  C   UNL     1     -11.469   1.837   1.156  1.00  0.00     0.072 C 
BRANCH  32  33
ATOM     33  C   UNL     1     -12.157   3.119   1.550  1.00  0.00    -0.020 A 
ATOM     34  C   UNL     1     -13.525   3.344   1.574  1.00  0.00     0.087 A 
ATOM     35  C   UNL     1     -11.540   4.373   1.894  1.00  0.00     0.003 A 
ATOM     36  N   UNL     1     -13.739   4.684   1.779  1.00  0.00    -0.361 N 
ATOM     37  C   UNL     1     -12.536   5.346   1.806  1.00  0.00     0.046 A 
ATOM     38  C   UNL     1     -10.210   4.798   2.086  1.00  0.00     0.010 A 
ATOM     39  H   UNL     1     -14.621   5.107   1.890  1.00  0.00     0.166 HD
ATOM     40  C   UNL     1     -12.250   6.711   1.720  1.00  0.00     0.026 A 
ATOM     41  C   UNL     1      -9.906   6.161   2.003  1.00  0.00     0.001 A 
ATOM     42  C   UNL     1     -10.911   7.099   1.786  1.00  0.00     0.002 A 
ENDBRANCH  32  33
ENDBRANCH   6  32
ENDBRANCH   3   6
ENDBRANCH   1   2
BRANCH   1  43
ATOM     43  C   UNL     1     -11.485   5.515  -2.282  1.00  0.00     0.023 C 
BRANCH  43  44
ATOM     44  C   UNL     1     -12.194   5.869  -3.582  1.00  0.00     0.023 C 
BRANCH  44  45
ATOM     45  C   UNL     1     -13.646   6.309  -3.433  1.00  0.00     0.116 C 
BRANCH  45  46
ATOM     46  N   UNL     1     -13.854   7.739  -3.299  1.00  0.00    -0.352 N 
ATOM     47  C   UNL     1     -15.035   8.439  -3.525  1.00  0.00     0.251 C 
ATOM     48  H   UNL     1     -13.075   8.271  -3.017  1.00  0.00     0.163 HD
ATOM     49  O   UNL     1     -15.039   9.601  -3.878  1.00  0.00    -0.269 OA
BRANCH  47  50
ATOM     50  C   UNL     1     -16.302   7.764  -3.144  1.00  0.00     0.039 A 
ATOM     51  C   UNL     1     -17.082   8.368  -2.147  1.00  0.00     0.014 A 
ATOM     52  C   UNL     1     -16.586   6.473  -3.575  1.00  0.00     0.014 A 
ATOM     53  C   UNL     1     -18.023   7.609  -1.454  1.00  0.00     0.010 A 
ATOM     54  C   UNL     1     -17.433   5.694  -2.821  1.00  0.00     0.010 A 
ATOM     55  C   UNL     1     -18.120   6.252  -1.736  1.00  0.00    -0.014 A 
BRANCH  55  56
ATOM     56  C   UNL     1     -18.871   5.287  -0.950  1.00  0.00     0.031 A 
ATOM     57  C   UNL     1     -20.125   4.731  -1.494  1.00  0.00     0.074 A 
ATOM     58  C   UNL     1     -18.274   4.751   0.136  1.00  0.00     0.049 A 
ATOM     59  N   UNL     1     -20.912   3.946  -0.844  1.00  0.00    -0.248 NA
ATOM     60  C   UNL     1     -20.631   5.077  -2.821  1.00  0.00     0.031 C 
ATOM     61  C   UNL     1     -18.565   3.478   0.788  1.00  0.00     0.029 A 
ATOM     62  N   UNL     1     -17.351   5.370   0.984  1.00  0.00    -0.354 N 
ATOM     63  C   UNL     1     -21.837   3.454  -1.736  1.00  0.00     0.074 A 
ATOM     64  C   UNL     1     -21.709   4.290  -2.901  1.00  0.00     0.031 C 
ATOM     65  C   UNL     1     -18.041   3.492   2.025  1.00  0.00     0.029 A 
ATOM     66  C   UNL     1     -17.576   4.848   2.273  1.00  0.00     0.049 A 
ATOM     67  H   UNL     1     -16.675   6.040   0.730  1.00  0.00     0.167 HD
ATOM     68  C   UNL     1     -22.495   2.304  -1.420  1.00  0.00     0.037 A 
ATOM     69  C   UNL     1     -18.088   5.649   3.259  1.00  0.00     0.037 A 
ATOM     70  C   UNL     1     -22.321   2.001   0.003  1.00  0.00     0.049 A 
ATOM     71  C   UNL     1     -19.460   5.234   3.748  1.00  0.00     0.074 A 
ATOM     72  C   UNL     1     -21.547   1.087   0.694  1.00  0.00     0.029 A 
ATOM     73  N   UNL     1     -22.792   2.913   0.946  1.00  0.00    -0.354 N 
ATOM     74  N   UNL     1     -20.261   4.437   3.095  1.00  0.00    -0.248 NA
ATOM     75  C   UNL     1     -20.035   5.687   5.012  1.00  0.00     0.031 C 
ATOM     76  C   UNL     1     -21.439   1.544   2.038  1.00  0.00     0.029 A 
ATOM     77  C   UNL     1     -22.196   2.697   2.173  1.00  0.00     0.049 A 
ATOM     78  H   UNL     1     -23.459   3.614   0.762  1.00  0.00     0.167 HD
ATOM     79  C   UNL     1     -21.437   4.300   3.784  1.00  0.00     0.074 A 
ATOM     80  C   UNL     1     -21.233   5.077   4.994  1.00  0.00     0.031 C 
ATOM     81  C   UNL     1     -22.489   3.575   3.300  1.00  0.00     0.037 A 
BRANCH  68  82
ATOM     82  C   UNL     1     -23.123   1.339  -2.414  1.00  0.00     0.058 A 
ATOM     83  C   UNL     1     -23.755   0.160  -1.954  1.00  0.00     0.135 A 
ATOM     84  C   UNL     1     -23.023   1.428  -3.822  1.00  0.00     0.135 A 
ATOM     85  F   UNL     1     -23.913  -0.074  -0.643  1.00  0.00    -0.206 F 
ATOM     86  C   UNL     1     -24.219  -0.847  -2.812  1.00  0.00     0.059 A 
ATOM     87  C   UNL     1     -23.520   0.459  -4.697  1.00  0.00     0.059 A 
ATOM     88  F   UNL     1     -22.379   2.424  -4.437  1.00  0.00    -0.206 F 
ATOM     89  C   UNL     1     -24.093  -0.690  -4.185  1.00  0.00     0.060 A 
BRANCH  89  90
ATOM     90  S   UNL     1     -24.649  -1.999  -5.293  1.00  0.00     0.124 S 
ATOM     91  O   UNL     1     -23.672  -3.050  -5.030  1.00  0.00    -0.237 OA
ATOM     92  O   UNL     1     -26.005  -2.255  -4.821  1.00  0.00    -0.237 OA
ATOM     93  O   UNL     1     -24.560  -1.385  -6.616  1.00  0.00    -0.744 OA
ENDBRANCH  89  90
ENDBRANCH  68  82
BRANCH  69  94
ATOM     94  C   UNL     1     -17.591   7.053   3.187  1.00  0.00     0.058 A 
ATOM     95  C   UNL     1     -16.240   7.280   3.506  1.00  0.00     0.135 A 
ATOM     96  C   UNL     1     -18.241   8.013   2.397  1.00  0.00     0.135 A 
ATOM     97  F   UNL     1     -15.573   6.396   4.265  1.00  0.00    -0.206 F 
ATOM     98  C   UNL     1     -15.515   8.310   2.918  1.00  0.00     0.059 A 
ATOM     99  C   UNL     1     -17.528   9.049   1.788  1.00  0.00     0.059 A 
ATOM    100  F   UNL     1     -19.532   7.858   2.070  1.00  0.00    -0.206 F 
ATOM    101  C   UNL     1     -16.150   9.126   1.985  1.00  0.00     0.060 A 
BRANCH 101 102
ATOM    102  S   UNL     1     -15.111  10.114   0.880  1.00  0.00     0.124 S 
ATOM    103  O   UNL     1     -14.229  10.801   1.817  1.00  0.00    -0.237 OA
ATOM    104  O   UNL     1     -14.479   9.069   0.077  1.00  0.00    -0.237 OA
ATOM    105  O   UNL     1     -16.074  10.956   0.181  1.00  0.00    -0.744 OA
ENDBRANCH 101 102
ENDBRANCH  69  94
BRANCH  81 106
ATOM    106  C   UNL     1     -23.885   3.578   3.880  1.00  0.00     0.058 A 
ATOM    107  C   UNL     1     -24.466   4.685   4.522  1.00  0.00     0.135 A 
ATOM    108  C   UNL     1     -24.747   2.477   3.662  1.00  0.00     0.135 A 
ATOM    109  F   UNL     1     -23.790   5.832   4.685  1.00  0.00    -0.206 F 
ATOM    110  C   UNL     1     -25.784   4.677   4.982  1.00  0.00     0.059 A 
ATOM    111  C   UNL     1     -26.082   2.470   4.059  1.00  0.00     0.059 A 
ATOM    112  F   UNL     1     -24.320   1.369   3.038  1.00  0.00    -0.206 F 
ATOM    113  C   UNL     1     -26.585   3.564   4.747  1.00  0.00     0.060 A 
BRANCH 113 114
ATOM    114  S   UNL     1     -28.303   3.567   5.288  1.00  0.00     0.124 S 
ATOM    115  O   UNL     1     -28.187   2.992   6.625  1.00  0.00    -0.237 OA
ATOM    116  O   UNL     1     -28.658   4.982   5.241  1.00  0.00    -0.237 OA
ATOM    117  O   UNL     1     -28.966   2.730   4.294  1.00  0.00    -0.744 OA
ENDBRANCH 113 114
ENDBRANCH  81 106
ENDBRANCH  55  56
ENDBRANCH  47  50
ENDBRANCH  45  46
ENDBRANCH  44  45
ENDBRANCH  43  44
ENDBRANCH   1  43
TORSDOF 21
