REMARK SMILES Cc1ccc(C(=O)C[C@@H](C(=O)NCCCCNC(=O)c2ccc(-c3c4nc(c(-c5c(F)cc(S(=O)(=O)[O-])cc5F)c5ccc([nH]5)c(-c5c(F)cc(S(=O)(=O)[O-])cc5F)c5nc(c(-c6c(F)cc(S(=O)(=O)[O-])cc6F)c6ccc3[nH]6)C=C5)C=C4)cc2)[NH+]2CC[NH+](Cc3ccccc3)CC2)cc1
REMARK SMILES IDX 14 1 13 2 12 3 10 4 11 5 9 7 8 8 6 9 7 10 5 11 1 12 2 13
REMARK SMILES IDX 3 14 100 15 4 16 99 17 86 18 87 19 98 20 88 22 97 23 89 24
REMARK SMILES IDX 90 26 91 27 92 28 96 29 93 30 95 31 94 32 15 33 16 34 17 35
REMARK SMILES IDX 18 36 19 38 20 39 21 40 85 41 22 42 84 43 23 44 24 45 25 46
REMARK SMILES IDX 78 47 26 48 83 49 77 50 79 51 27 52 82 53 76 54 75 55 28 57
REMARK SMILES IDX 62 58 41 59 61 60 42 61 45 62 60 63 80 64 43 65 44 66 59 68
REMARK SMILES IDX 81 69 46 70 29 71 30 72 39 73 31 74 32 75 38 76 40 77 33 78
REMARK SMILES IDX 34 79 35 80 36 81 37 82 63 83 64 84 73 85 65 86 66 87 72 88
REMARK SMILES IDX 74 89 67 90 68 91 69 92 70 93 71 94 47 95 48 96 57 97 49 98
REMARK SMILES IDX 50 99 56 100 58 101 51 102 52 103 53 104 54 105 55 106
REMARK H PARENT 12 6 86 21 89 25 17 37 79 56 45 67
REMARK Flexibility Score: inf
ROOT
ATOM      1  C   UNL     1      -1.884  -1.196   1.882  1.00  0.00     0.023 C 
ENDROOT
BRANCH   1   2
ATOM      2  C   UNL     1      -1.839  -0.022   2.855  1.00  0.00     0.116 C 
BRANCH   2   3
ATOM      3  N   UNL     1      -1.375   1.219   2.261  1.00  0.00    -0.351 N 
ATOM      4  C   UNL     1      -1.933   2.052   1.343  1.00  0.00     0.278 C 
ATOM      5  O   UNL     1      -1.218   2.973   0.927  1.00  0.00    -0.268 OA
ATOM      6  H   UNL     1      -0.492   1.511   2.583  1.00  0.00     0.163 HD
BRANCH   4   7
ATOM      7  C   UNL     1      -3.409   1.909   0.884  1.00  0.00     0.282 C 
BRANCH   7   8
ATOM      8  C   UNL     1      -3.532   2.068  -0.647  1.00  0.00     0.156 C 
BRANCH   8   9
ATOM      9  C   UNL     1      -3.064   0.839  -1.418  1.00  0.00     0.169 C 
ATOM     10  O   UNL     1      -3.855  -0.069  -1.678  1.00  0.00    -0.294 OA
BRANCH   9  11
ATOM     11  C   UNL     1      -1.627   0.689  -1.814  1.00  0.00     0.018 A 
ATOM     12  C   UNL     1       2.585  -0.133  -1.750  1.00  0.00     0.044 C 
ATOM     13  C   UNL     1       1.135   0.189  -1.967  1.00  0.00    -0.051 A 
ATOM     14  C   UNL     1       0.220  -0.833  -2.236  1.00  0.00     0.004 A 
ATOM     15  C   UNL     1       0.660   1.486  -1.764  1.00  0.00     0.004 A 
ATOM     16  C   UNL     1      -1.157  -0.583  -2.169  1.00  0.00     0.012 A 
ATOM     17  C   UNL     1      -0.713   1.738  -1.716  1.00  0.00     0.012 A 
ENDBRANCH   9  11
ENDBRANCH   8   9
ENDBRANCH   7   8
BRANCH   7  18
ATOM     18  N   UNL     1      -4.264   2.954   1.542  1.00  0.00    -0.315 N 
ATOM     19  C   UNL     1      -4.820   2.511   2.829  1.00  0.00     0.325 C 
ATOM     20  C   UNL     1      -3.686   4.308   1.608  1.00  0.00     0.325 C 
ATOM     21  H   UNL     1      -5.046   3.059   0.896  1.00  0.00     0.349 HD
ATOM     22  C   UNL     1      -5.070   3.619   3.875  1.00  0.00     0.324 C 
ATOM     23  C   UNL     1      -4.574   5.390   2.281  1.00  0.00     0.324 C 
ATOM     24  N   UNL     1      -5.456   4.923   3.348  1.00  0.00    -0.322 N 
ATOM     25  H   UNL     1      -5.283   5.568   4.119  1.00  0.00     0.348 HD
BRANCH  24  26
ATOM     26  C   UNL     1      -6.885   5.158   3.166  1.00  0.00     0.299 C 
BRANCH  26  27
ATOM     27  C   UNL     1      -7.680   4.350   2.156  1.00  0.00     0.006 A 
ATOM     28  C   UNL     1      -8.971   3.914   2.503  1.00  0.00     0.009 A 
ATOM     29  C   UNL     1      -7.250   4.113   0.844  1.00  0.00     0.009 A 
ATOM     30  C   UNL     1      -9.779   3.238   1.584  1.00  0.00     0.001 A 
ATOM     31  C   UNL     1      -8.045   3.417  -0.070  1.00  0.00     0.001 A 
ATOM     32  C   UNL     1      -9.312   2.981   0.299  1.00  0.00     0.000 A 
ENDBRANCH  26  27
ENDBRANCH  24  26
ENDBRANCH   7  18
ENDBRANCH   4   7
ENDBRANCH   2   3
ENDBRANCH   1   2
BRANCH   1  33
ATOM     33  C   UNL     1      -0.637  -1.417   1.028  1.00  0.00     0.023 C 
BRANCH  33  34
ATOM     34  C   UNL     1       0.380  -2.421   1.552  1.00  0.00     0.116 C 
BRANCH  34  35
ATOM     35  N   UNL     1       1.066  -3.074   0.424  1.00  0.00    -0.352 N 
ATOM     36  C   UNL     1       2.331  -3.613   0.360  1.00  0.00     0.251 C 
ATOM     37  H   UNL     1       0.542  -3.134  -0.408  1.00  0.00     0.163 HD
ATOM     38  O   UNL     1       2.819  -4.071  -0.667  1.00  0.00    -0.269 OA
BRANCH  36  39
ATOM     39  C   UNL     1       3.079  -3.617   1.621  1.00  0.00     0.039 A 
ATOM     40  C   UNL     1       2.802  -4.672   2.498  1.00  0.00     0.014 A 
ATOM     41  C   UNL     1       3.565  -2.388   2.057  1.00  0.00     0.014 A 
ATOM     42  C   UNL     1       2.783  -4.418   3.861  1.00  0.00     0.010 A 
ATOM     43  C   UNL     1       3.504  -2.130   3.411  1.00  0.00     0.010 A 
ATOM     44  C   UNL     1       3.021  -3.117   4.295  1.00  0.00    -0.014 A 
BRANCH  44  45
ATOM     45  C   UNL     1       2.610  -2.638   5.609  1.00  0.00     0.031 A 
ATOM     46  C   UNL     1       3.630  -2.209   6.588  1.00  0.00     0.074 A 
ATOM     47  C   UNL     1       1.296  -2.446   5.876  1.00  0.00     0.049 A 
ATOM     48  N   UNL     1       3.372  -1.940   7.822  1.00  0.00    -0.248 NA
ATOM     49  C   UNL     1       5.056  -2.114   6.270  1.00  0.00     0.031 C 
ATOM     50  C   UNL     1       0.726  -1.577   6.904  1.00  0.00     0.029 A 
ATOM     51  N   UNL     1       0.202  -3.178   5.406  1.00  0.00    -0.354 N 
ATOM     52  C   UNL     1       4.474  -1.303   8.330  1.00  0.00     0.074 A 
ATOM     53  C   UNL     1       5.534  -1.576   7.396  1.00  0.00     0.031 C 
ATOM     54  C   UNL     1      -0.531  -1.966   7.162  1.00  0.00     0.029 A 
ATOM     55  C   UNL     1      -0.766  -3.196   6.430  1.00  0.00     0.049 A 
ATOM     56  H   UNL     1       0.122  -3.603   4.522  1.00  0.00     0.167 HD
ATOM     57  C   UNL     1       4.311  -0.462   9.386  1.00  0.00     0.037 A 
ATOM     58  C   UNL     1      -1.172  -4.367   7.005  1.00  0.00     0.037 A 
ATOM     59  C   UNL     1       3.052  -0.725  10.082  1.00  0.00     0.049 A 
ATOM     60  C   UNL     1      -0.850  -4.489   8.479  1.00  0.00     0.074 A 
ATOM     61  C   UNL     1       1.866  -0.030  10.235  1.00  0.00     0.029 A 
ATOM     62  N   UNL     1       2.816  -2.013  10.563  1.00  0.00    -0.354 N 
ATOM     63  N   UNL     1      -0.097  -3.649   9.135  1.00  0.00    -0.248 NA
ATOM     64  C   UNL     1      -1.320  -5.584   9.325  1.00  0.00     0.031 C 
ATOM     65  C   UNL     1       0.877  -0.959  10.675  1.00  0.00     0.029 A 
ATOM     66  C   UNL     1       1.477  -2.196  10.846  1.00  0.00     0.049 A 
ATOM     67  H   UNL     1       3.510  -2.700  10.684  1.00  0.00     0.167 HD
ATOM     68  C   UNL     1       0.112  -4.112  10.407  1.00  0.00     0.074 A 
ATOM     69  C   UNL     1      -0.725  -5.295  10.496  1.00  0.00     0.031 C 
ATOM     70  C   UNL     1       0.988  -3.507  11.265  1.00  0.00     0.037 A 
BRANCH  57  71
ATOM     71  C   UNL     1       5.207   0.731   9.646  1.00  0.00     0.058 A 
ATOM     72  C   UNL     1       5.098   1.465  10.845  1.00  0.00     0.135 A 
ATOM     73  C   UNL     1       6.088   1.292   8.689  1.00  0.00     0.135 A 
ATOM     74  F   UNL     1       4.265   1.069  11.819  1.00  0.00    -0.206 F 
ATOM     75  C   UNL     1       5.809   2.651  11.076  1.00  0.00     0.059 A 
ATOM     76  C   UNL     1       6.848   2.438   8.919  1.00  0.00     0.059 A 
ATOM     77  F   UNL     1       6.201   0.804   7.447  1.00  0.00    -0.206 F 
ATOM     78  C   UNL     1       6.685   3.129  10.107  1.00  0.00     0.060 A 
BRANCH  78  79
ATOM     79  S   UNL     1       7.587   4.666  10.378  1.00  0.00     0.124 S 
ATOM     80  O   UNL     1       6.542   5.664  10.174  1.00  0.00    -0.237 OA
ATOM     81  O   UNL     1       8.067   4.514  11.748  1.00  0.00    -0.237 OA
ATOM     82  O   UNL     1       8.627   4.633   9.352  1.00  0.00    -0.744 OA
ENDBRANCH  78  79
ENDBRANCH  57  71
BRANCH  58  83
ATOM     83  C   UNL     1      -1.267  -5.489   6.034  1.00  0.00     0.058 A 
ATOM     84  C   UNL     1      -2.308  -5.428   5.089  1.00  0.00     0.135 A 
ATOM     85  C   UNL     1      -0.152  -6.282   5.727  1.00  0.00     0.135 A 
ATOM     86  F   UNL     1      -3.405  -4.696   5.345  1.00  0.00    -0.206 F 
ATOM     87  C   UNL     1      -2.172  -5.976   3.820  1.00  0.00     0.059 A 
ATOM     88  C   UNL     1       0.003  -6.845   4.458  1.00  0.00     0.059 A 
ATOM     89  F   UNL     1       0.867  -6.380   6.593  1.00  0.00    -0.206 F 
ATOM     90  C   UNL     1      -0.980  -6.620   3.493  1.00  0.00     0.060 A 
BRANCH  90  91
ATOM     91  S   UNL     1      -0.655  -6.938   1.741  1.00  0.00     0.124 S 
ATOM     92  O   UNL     1      -1.680  -7.922   1.418  1.00  0.00    -0.237 OA
ATOM     93  O   UNL     1      -0.845  -5.608   1.165  1.00  0.00    -0.237 OA
ATOM     94  O   UNL     1       0.719  -7.427   1.739  1.00  0.00    -0.744 OA
ENDBRANCH  90  91
ENDBRANCH  58  83
BRANCH  70  95
ATOM     95  C   UNL     1       1.430  -4.073  12.597  1.00  0.00     0.058 A 
ATOM     96  C   UNL     1       1.534  -5.448  12.879  1.00  0.00     0.135 A 
ATOM     97  C   UNL     1       1.891  -3.208  13.618  1.00  0.00     0.135 A 
ATOM     98  F   UNL     1       1.254  -6.373  11.950  1.00  0.00    -0.206 F 
ATOM     99  C   UNL     1       1.973  -5.930  14.115  1.00  0.00     0.059 A 
ATOM    100  C   UNL     1       2.385  -3.669  14.837  1.00  0.00     0.059 A 
ATOM    101  F   UNL     1       1.882  -1.876  13.457  1.00  0.00    -0.206 F 
ATOM    102  C   UNL     1       2.389  -5.032  15.092  1.00  0.00     0.060 A 
BRANCH 102 103
ATOM    103  S   UNL     1       2.985  -5.642  16.681  1.00  0.00     0.124 S 
ATOM    104  O   UNL     1       1.758  -5.640  17.471  1.00  0.00    -0.237 OA
ATOM    105  O   UNL     1       3.517  -6.961  16.348  1.00  0.00    -0.237 OA
ATOM    106  O   UNL     1       3.986  -4.651  17.063  1.00  0.00    -0.744 OA
ENDBRANCH 102 103
ENDBRANCH  70  95
ENDBRANCH  44  45
ENDBRANCH  36  39
ENDBRANCH  34  35
ENDBRANCH  33  34
ENDBRANCH   1  33
TORSDOF 20
