REMARK SMILES O=C(NCCCCNC(=O)c1ccc(-c2c3nc(c(-c4c(F)cc(S(=O)(=O)[O-])cc4F)c4ccc([nH]4)c(-c4c(F)cc(S(=O)(=O)[O-])cc4F)c4nc(c(-c5c(F)cc(S(=O)(=O)[O-])cc5F)c5ccc2[nH]5)C=C4)C=C3)cc1)c1ccc(NC(=O)[C@@H]2CC=CC[C@@H]2C(=O)Nc2ccc(Br)cc2)cc1
REMARK SMILES IDX 5 1 4 2 3 3 1 4 2 5 77 7 78 8 101 9 79 10 100 11 80 12 81 13
REMARK SMILES IDX 82 14 83 16 84 17 85 18 89 19 86 20 88 21 87 22 90 23 91 24
REMARK SMILES IDX 92 25 93 27 94 28 99 29 95 30 98 31 96 32 97 33 6 34 7 35
REMARK SMILES IDX 8 36 9 37 10 39 11 40 12 41 76 42 13 43 75 44 14 45 15 46
REMARK SMILES IDX 16 47 69 48 17 49 74 50 68 51 70 52 18 53 73 54 67 55 66 56
REMARK SMILES IDX 19 58 53 59 32 60 52 61 33 62 36 63 51 64 71 65 34 66 35 67
REMARK SMILES IDX 50 69 72 70 37 71 20 72 21 73 30 74 22 75 23 76 29 77 31 78
REMARK SMILES IDX 24 79 25 80 26 81 27 82 28 83 54 84 55 85 64 86 56 87 57 88
REMARK SMILES IDX 63 89 65 90 58 91 59 92 60 93 61 94 62 95 38 96 39 97 48 98
REMARK SMILES IDX 40 99 41 100 47 101 49 102 42 103 43 104 44 105 45 106
REMARK SMILES IDX 46 107
REMARK H PARENT 3 6 81 15 92 26 8 38 70 57 36 68
REMARK Flexibility Score: inf
ROOT
ATOM      1  C   UNL     1       7.049  -1.611  -9.166  1.00  0.00     0.023 C 
ENDROOT
BRANCH   1   2
ATOM      2  C   UNL     1       7.784  -1.479  -7.844  1.00  0.00     0.116 C 
BRANCH   2   3
ATOM      3  N   UNL     1       8.323  -0.149  -7.587  1.00  0.00    -0.352 N 
ATOM      4  O   UNL     1       8.699   1.740  -6.385  1.00  0.00    -0.269 OA
ATOM      5  C   UNL     1       8.275   0.589  -6.423  1.00  0.00     0.251 C 
ATOM      6  H   UNL     1       8.783   0.279  -8.346  1.00  0.00     0.163 HD
BRANCH   5   7
ATOM      7  C   UNL     1       7.691  -0.013  -5.204  1.00  0.00     0.039 A 
ATOM      8  C   UNL     1       7.979  -1.330  -4.880  1.00  0.00     0.016 A 
ATOM      9  C   UNL     1       6.810   0.710  -4.399  1.00  0.00     0.016 A 
ATOM     10  C   UNL     1       7.262  -1.973  -3.880  1.00  0.00     0.027 A 
ATOM     11  C   UNL     1       6.199   0.085  -3.299  1.00  0.00     0.027 A 
ATOM     12  C   UNL     1       6.428  -1.272  -3.018  1.00  0.00     0.041 A 
BRANCH  12  13
ATOM     13  N   UNL     1       5.820  -1.811  -1.866  1.00  0.00    -0.326 N 
ATOM     14  C   UNL     1       5.874  -3.010  -1.202  1.00  0.00     0.228 C 
ATOM     15  H   UNL     1       5.209  -1.172  -1.434  1.00  0.00     0.169 HD
ATOM     16  O   UNL     1       5.141  -3.119  -0.213  1.00  0.00    -0.274 OA
BRANCH  14  17
ATOM     17  C   UNL     1       6.732  -4.176  -1.674  1.00  0.00     0.095 C 
ATOM     18  C   UNL     1       6.347  -5.520  -1.035  1.00  0.00     0.041 C 
ATOM     19  C   UNL     1       8.257  -3.935  -1.598  1.00  0.00     0.095 C 
ATOM     20  C   UNL     1       7.223  -6.633  -1.545  1.00  0.00    -0.030 C 
ATOM     21  C   UNL     1       8.981  -5.055  -2.380  1.00  0.00     0.041 C 
ATOM     22  C   UNL     1       8.389  -6.420  -2.175  1.00  0.00    -0.030 C 
BRANCH  19  23
ATOM     23  C   UNL     1       8.867  -3.762  -0.205  1.00  0.00     0.228 C 
ATOM     24  O   UNL     1       8.265  -4.052   0.827  1.00  0.00    -0.274 OA
ATOM     25  N   UNL     1      10.181  -3.354  -0.106  1.00  0.00    -0.326 N 
ATOM     26  H   UNL     1      10.590  -3.480   0.781  1.00  0.00     0.169 HD
BRANCH  25  27
ATOM     27  C   UNL     1      11.028  -2.786  -1.075  1.00  0.00     0.041 A 
ATOM     28  C   UNL     1      12.352  -3.231  -1.130  1.00  0.00     0.027 A 
ATOM     29  C   UNL     1      10.609  -1.789  -1.961  1.00  0.00     0.027 A 
ATOM     30  C   UNL     1      13.210  -2.770  -2.134  1.00  0.00     0.018 A 
ATOM     31  C   UNL     1      11.467  -1.314  -2.957  1.00  0.00     0.018 A 
ATOM     32  C   UNL     1      12.758  -1.825  -3.053  1.00  0.00     0.018 A 
ATOM     33  Br  UNL     1      13.903  -1.226  -4.431  1.00  0.00    -0.051 Br
ENDBRANCH  25  27
ENDBRANCH  19  23
ENDBRANCH  14  17
ENDBRANCH  12  13
ENDBRANCH   5   7
ENDBRANCH   2   3
ENDBRANCH   1   2
BRANCH   1  34
ATOM     34  C   UNL     1       7.919  -1.490 -10.410  1.00  0.00     0.023 C 
BRANCH  34  35
ATOM     35  C   UNL     1       9.128  -2.418 -10.469  1.00  0.00     0.116 C 
BRANCH  35  36
ATOM     36  N   UNL     1       8.788  -3.828 -10.355  1.00  0.00    -0.352 N 
ATOM     37  C   UNL     1       9.121  -4.883 -11.172  1.00  0.00     0.251 C 
ATOM     38  H   UNL     1       8.235  -4.063  -9.574  1.00  0.00     0.163 HD
ATOM     39  O   UNL     1       8.644  -5.993 -10.951  1.00  0.00    -0.269 OA
BRANCH  37  40
ATOM     40  C   UNL     1      10.015  -4.678 -12.334  1.00  0.00     0.039 A 
ATOM     41  C   UNL     1       9.663  -5.247 -13.561  1.00  0.00     0.014 A 
ATOM     42  C   UNL     1      11.184  -3.919 -12.227  1.00  0.00     0.014 A 
ATOM     43  C   UNL     1      10.438  -4.988 -14.693  1.00  0.00     0.010 A 
ATOM     44  C   UNL     1      11.910  -3.595 -13.372  1.00  0.00     0.010 A 
ATOM     45  C   UNL     1      11.545  -4.125 -14.617  1.00  0.00    -0.014 A 
BRANCH  45  46
ATOM     46  C   UNL     1      12.307  -3.756 -15.838  1.00  0.00     0.031 A 
ATOM     47  C   UNL     1      13.752  -4.149 -15.990  1.00  0.00     0.074 A 
ATOM     48  C   UNL     1      11.708  -3.019 -16.794  1.00  0.00     0.049 A 
ATOM     49  N   UNL     1      14.566  -3.928 -16.990  1.00  0.00    -0.248 NA
ATOM     50  C   UNL     1      14.370  -4.859 -14.859  1.00  0.00     0.031 C 
ATOM     51  C   UNL     1      10.335  -2.511 -16.736  1.00  0.00     0.029 A 
ATOM     52  N   UNL     1      12.174  -2.570 -18.004  1.00  0.00    -0.354 N 
ATOM     53  C   UNL     1      15.794  -4.452 -16.604  1.00  0.00     0.074 A 
ATOM     54  C   UNL     1      15.630  -4.958 -15.258  1.00  0.00     0.031 C 
ATOM     55  C   UNL     1      10.056  -1.860 -17.877  1.00  0.00     0.029 A 
ATOM     56  C   UNL     1      11.236  -1.882 -18.737  1.00  0.00     0.049 A 
ATOM     57  H   UNL     1      13.094  -2.725 -18.319  1.00  0.00     0.167 HD
ATOM     58  C   UNL     1      16.947  -4.525 -17.312  1.00  0.00     0.037 A 
ATOM     59  C   UNL     1      11.310  -1.344 -19.969  1.00  0.00     0.037 A 
ATOM     60  C   UNL     1      17.098  -4.052 -18.664  1.00  0.00     0.049 A 
ATOM     61  C   UNL     1      12.585  -1.479 -20.754  1.00  0.00     0.074 A 
ATOM     62  C   UNL     1      18.198  -4.158 -19.497  1.00  0.00     0.029 A 
ATOM     63  N   UNL     1      16.118  -3.381 -19.381  1.00  0.00    -0.354 N 
ATOM     64  N   UNL     1      13.711  -2.054 -20.405  1.00  0.00    -0.248 NA
ATOM     65  C   UNL     1      12.593  -0.902 -22.105  1.00  0.00     0.031 C 
ATOM     66  C   UNL     1      17.895  -3.521 -20.707  1.00  0.00     0.029 A 
ATOM     67  C   UNL     1      16.593  -3.051 -20.640  1.00  0.00     0.049 A 
ATOM     68  H   UNL     1      15.217  -3.170 -19.044  1.00  0.00     0.167 HD
ATOM     69  C   UNL     1      14.555  -1.931 -21.504  1.00  0.00     0.074 A 
ATOM     70  C   UNL     1      13.803  -1.238 -22.531  1.00  0.00     0.031 C 
ATOM     71  C   UNL     1      15.835  -2.356 -21.650  1.00  0.00     0.037 A 
BRANCH  58  72
ATOM     72  C   UNL     1      18.136  -5.146 -16.631  1.00  0.00     0.058 A 
ATOM     73  C   UNL     1      18.198  -6.524 -16.366  1.00  0.00     0.135 A 
ATOM     74  C   UNL     1      19.230  -4.355 -16.245  1.00  0.00     0.135 A 
ATOM     75  F   UNL     1      17.174  -7.324 -16.701  1.00  0.00    -0.206 F 
ATOM     76  C   UNL     1      19.284  -7.089 -15.705  1.00  0.00     0.059 A 
ATOM     77  C   UNL     1      20.338  -4.904 -15.605  1.00  0.00     0.059 A 
ATOM     78  F   UNL     1      19.224  -3.033 -16.476  1.00  0.00    -0.206 F 
ATOM     79  C   UNL     1      20.346  -6.270 -15.322  1.00  0.00     0.060 A 
BRANCH  79  80
ATOM     80  S   UNL     1      21.740  -7.011 -14.446  1.00  0.00     0.124 S 
ATOM     81  O   UNL     1      21.185  -7.176 -13.106  1.00  0.00    -0.237 OA
ATOM     82  O   UNL     1      21.963  -8.244 -15.194  1.00  0.00    -0.237 OA
ATOM     83  O   UNL     1      22.792  -6.007 -14.571  1.00  0.00    -0.744 OA
ENDBRANCH  79  80
ENDBRANCH  58  72
BRANCH  59  84
ATOM     84  C   UNL     1      10.117  -0.686 -20.563  1.00  0.00     0.058 A 
ATOM     85  C   UNL     1       9.388  -1.318 -21.581  1.00  0.00     0.135 A 
ATOM     86  C   UNL     1       9.669   0.564 -20.114  1.00  0.00     0.135 A 
ATOM     87  F   UNL     1       9.783  -2.513 -22.046  1.00  0.00    -0.206 F 
ATOM     88  C   UNL     1       8.261  -0.728 -22.143  1.00  0.00     0.059 A 
ATOM     89  C   UNL     1       8.533   1.166 -20.646  1.00  0.00     0.059 A 
ATOM     90  F   UNL     1      10.324   1.199 -19.129  1.00  0.00    -0.206 F 
ATOM     91  C   UNL     1       7.840   0.514 -21.666  1.00  0.00     0.060 A 
BRANCH  91  92
ATOM     92  S   UNL     1       6.338   1.243 -22.357  1.00  0.00     0.124 S 
ATOM     93  O   UNL     1       6.814   1.725 -23.649  1.00  0.00    -0.237 OA
ATOM     94  O   UNL     1       5.431   0.101 -22.396  1.00  0.00    -0.237 OA
ATOM     95  O   UNL     1       5.991   2.275 -21.385  1.00  0.00    -0.744 OA
ENDBRANCH  91  92
ENDBRANCH  59  84
BRANCH  71  96
ATOM     96  C   UNL     1      16.486  -2.103 -22.980  1.00  0.00     0.058 A 
ATOM     97  C   UNL     1      16.892  -0.816 -23.368  1.00  0.00     0.135 A 
ATOM     98  C   UNL     1      16.707  -3.160 -23.877  1.00  0.00     0.135 A 
ATOM     99  F   UNL     1      16.698   0.230 -22.549  1.00  0.00    -0.206 F 
ATOM    100  C   UNL     1      17.455  -0.579 -24.618  1.00  0.00     0.059 A 
ATOM    101  C   UNL     1      17.292  -2.950 -25.121  1.00  0.00     0.059 A 
ATOM    102  F   UNL     1      16.350  -4.412 -23.548  1.00  0.00    -0.206 F 
ATOM    103  C   UNL     1      17.643  -1.652 -25.491  1.00  0.00     0.060 A 
BRANCH 103 104
ATOM    104  S   UNL     1      18.364  -1.337 -27.116  1.00  0.00     0.124 S 
ATOM    105  O   UNL     1      17.216  -0.815 -27.849  1.00  0.00    -0.237 OA
ATOM    106  O   UNL     1      19.416  -0.370 -26.815  1.00  0.00    -0.237 OA
ATOM    107  O   UNL     1      18.835  -2.653 -27.537  1.00  0.00    -0.744 OA
ENDBRANCH 103 104
ENDBRANCH  71  96
ENDBRANCH  45  46
ENDBRANCH  37  40
ENDBRANCH  35  36
ENDBRANCH  34  35
ENDBRANCH   1  34
TORSDOF 18
