REMARK SMILES NC(=O)CC[C@@H](NC(=O)Nc1ccc(Cl)c(Cl)c1)C(=O)NCCCCNC(=O)c1ccc(-c2c3nc(c(-c4c(F)cc(S(=O)(=O)[O-])cc4F)c4ccc([nH]4)c(-c4c(F)cc(S(=O)(=O)[O-])cc4F)c4nc(c(-c5c(F)cc(S(=O)(=O)[O-])cc5F)c5ccc2[nH]5)C=C4)C=C3)cc1
REMARK SMILES IDX 23 1 22 2 21 3 19 4 20 5 6 7 5 8 4 9 2 10 1 11 3 14 7 15
REMARK SMILES IDX 8 16 9 18 10 19 11 21 12 22 18 23 13 24 16 25 14 26 17 27
REMARK SMILES IDX 15 28 24 29 25 30 26 31 27 32 28 34 29 35 30 36 94 37 31 38
REMARK SMILES IDX 93 39 32 40 33 41 34 42 87 43 35 44 92 45 86 46 88 47 36 48
REMARK SMILES IDX 91 49 85 50 84 51 37 53 71 54 50 55 70 56 51 57 54 58 69 59
REMARK SMILES IDX 89 60 52 61 53 62 68 64 90 65 55 66 38 67 39 68 48 69 40 70
REMARK SMILES IDX 41 71 47 72 49 73 42 74 43 75 44 76 45 77 46 78 72 79 73 80
REMARK SMILES IDX 82 81 74 82 75 83 81 84 83 85 76 86 77 87 78 88 79 89 80 90
REMARK SMILES IDX 56 91 57 92 66 93 58 94 59 95 65 96 67 97 60 98 61 99 62 100
REMARK SMILES IDX 63 101 64 102
REMARK H PARENT 21 6 1 12 1 13 7 17 10 20 26 33 88 52 54 63
REMARK Flexibility Score: inf
ROOT
ATOM      1  C   UNL     1       4.095  -5.927   2.521  1.00  0.00     0.023 C 
ENDROOT
BRANCH   1   2
ATOM      2  C   UNL     1       4.397  -4.530   1.972  1.00  0.00     0.116 C 
BRANCH   2   3
ATOM      3  N   UNL     1       4.058  -4.503   0.566  1.00  0.00    -0.354 N 
ATOM      4  C   UNL     1       3.077  -3.796  -0.050  1.00  0.00     0.242 C 
ATOM      5  O   UNL     1       2.457  -4.353  -0.960  1.00  0.00    -0.273 OA
ATOM      6  H   UNL     1       4.610  -5.072  -0.019  1.00  0.00     0.163 HD
BRANCH   4   7
ATOM      7  C   UNL     1       2.691  -2.383   0.418  1.00  0.00     0.173 C 
BRANCH   7   8
ATOM      8  C   UNL     1       1.517  -2.531   1.408  1.00  0.00     0.045 C 
BRANCH   8   9
ATOM      9  C   UNL     1       0.924  -1.225   1.931  1.00  0.00     0.102 C 
BRANCH   9  10
ATOM     10  C   UNL     1       0.194  -0.460   0.857  1.00  0.00     0.217 C 
ATOM     11  N   UNL     1       0.956   0.413   0.143  1.00  0.00    -0.370 N 
ATOM     12  H   UNL     1       0.549   0.949  -0.576  1.00  0.00     0.159 HD
ATOM     13  H   UNL     1       1.915   0.508   0.345  1.00  0.00     0.159 HD
ATOM     14  O   UNL     1      -0.997  -0.610   0.616  1.00  0.00    -0.275 OA
ENDBRANCH   9  10
ENDBRANCH   8   9
ENDBRANCH   7   8
BRANCH   7  15
ATOM     15  N   UNL     1       3.805  -1.598   0.969  1.00  0.00    -0.326 N 
ATOM     16  C   UNL     1       5.019  -1.235   0.507  1.00  0.00     0.319 C 
ATOM     17  H   UNL     1       3.625  -1.262   1.876  1.00  0.00     0.166 HD
ATOM     18  O   UNL     1       5.696  -0.515   1.247  1.00  0.00    -0.248 OA
ATOM     19  N   UNL     1       5.595  -1.751  -0.599  1.00  0.00    -0.308 N 
ATOM     20  H   UNL     1       6.578  -1.706  -0.591  1.00  0.00     0.171 HD
BRANCH  19  21
ATOM     21  C   UNL     1       5.069  -2.337  -1.752  1.00  0.00     0.044 A 
ATOM     22  C   UNL     1       3.983  -1.788  -2.431  1.00  0.00     0.028 A 
ATOM     23  C   UNL     1       5.653  -3.521  -2.211  1.00  0.00     0.048 A 
ATOM     24  C   UNL     1       3.402  -2.487  -3.492  1.00  0.00     0.024 A 
ATOM     25  C   UNL     1       5.043  -4.246  -3.241  1.00  0.00     0.061 A 
ATOM     26  C   UNL     1       3.906  -3.734  -3.875  1.00  0.00     0.059 A 
ATOM     27  Cl  UNL     1       5.704  -5.795  -3.625  1.00  0.00    -0.083 Cl
ATOM     28  Cl  UNL     1       3.069  -4.592  -5.118  1.00  0.00    -0.083 Cl
ENDBRANCH  19  21
ENDBRANCH   7  15
ENDBRANCH   4   7
ENDBRANCH   2   3
ENDBRANCH   1   2
BRANCH   1  29
ATOM     29  C   UNL     1       4.900  -7.049   1.847  1.00  0.00     0.023 C 
BRANCH  29  30
ATOM     30  C   UNL     1       6.407  -6.817   1.834  1.00  0.00     0.116 C 
BRANCH  30  31
ATOM     31  N   UNL     1       6.933  -6.713   3.186  1.00  0.00    -0.352 N 
ATOM     32  C   UNL     1       7.859  -7.519   3.800  1.00  0.00     0.251 C 
ATOM     33  H   UNL     1       6.581  -5.971   3.729  1.00  0.00     0.163 HD
ATOM     34  O   UNL     1       8.013  -7.477   5.014  1.00  0.00    -0.269 OA
BRANCH  32  35
ATOM     35  C   UNL     1       8.656  -8.439   2.968  1.00  0.00     0.039 A 
ATOM     36  C   UNL     1       8.690  -9.796   3.291  1.00  0.00     0.014 A 
ATOM     37  C   UNL     1       9.334  -7.951   1.846  1.00  0.00     0.014 A 
ATOM     38  C   UNL     1       9.361 -10.682   2.448  1.00  0.00     0.010 A 
ATOM     39  C   UNL     1       9.959  -8.843   0.981  1.00  0.00     0.010 A 
ATOM     40  C   UNL     1       9.972 -10.216   1.272  1.00  0.00    -0.014 A 
BRANCH  40  41
ATOM     41  C   UNL     1      10.604 -11.152   0.311  1.00  0.00     0.031 A 
ATOM     42  C   UNL     1      12.088 -11.113   0.085  1.00  0.00     0.074 A 
ATOM     43  C   UNL     1       9.824 -11.979  -0.412  1.00  0.00     0.049 A 
ATOM     44  N   UNL     1      12.808 -11.789  -0.771  1.00  0.00    -0.248 NA
ATOM     45  C   UNL     1      12.861 -10.172   0.913  1.00  0.00     0.031 C 
ATOM     46  C   UNL     1       8.365 -12.069  -0.309  1.00  0.00     0.029 A 
ATOM     47  N   UNL     1      10.144 -12.887  -1.388  1.00  0.00    -0.354 N 
ATOM     48  C   UNL     1      14.115 -11.352  -0.595  1.00  0.00     0.074 A 
ATOM     49  C   UNL     1      14.082 -10.321   0.421  1.00  0.00     0.031 C 
ATOM     50  C   UNL     1       7.919 -12.987  -1.181  1.00  0.00     0.029 A 
ATOM     51  C   UNL     1       9.052 -13.523  -1.929  1.00  0.00     0.049 A 
ATOM     52  H   UNL     1      11.069 -13.066  -1.675  1.00  0.00     0.167 HD
ATOM     53  C   UNL     1      15.239 -11.785  -1.211  1.00  0.00     0.037 A 
ATOM     54  C   UNL     1       8.971 -14.424  -2.927  1.00  0.00     0.037 A 
ATOM     55  C   UNL     1      15.262 -12.827  -2.204  1.00  0.00     0.049 A 
ATOM     56  C   UNL     1      10.232 -14.875  -3.611  1.00  0.00     0.074 A 
ATOM     57  C   UNL     1      16.359 -13.396  -2.829  1.00  0.00     0.029 A 
ATOM     58  N   UNL     1      14.137 -13.450  -2.725  1.00  0.00    -0.354 N 
ATOM     59  N   UNL     1      11.470 -14.510  -3.376  1.00  0.00    -0.248 NA
ATOM     60  C   UNL     1      10.088 -15.855  -4.696  1.00  0.00     0.031 C 
ATOM     61  C   UNL     1      15.894 -14.331  -3.760  1.00  0.00     0.029 A 
ATOM     62  C   UNL     1      14.510 -14.373  -3.688  1.00  0.00     0.049 A 
ATOM     63  H   UNL     1      13.211 -13.263  -2.451  1.00  0.00     0.167 HD
ATOM     64  C   UNL     1      12.253 -15.221  -4.277  1.00  0.00     0.074 A 
ATOM     65  C   UNL     1      11.352 -16.053  -5.049  1.00  0.00     0.031 C 
ATOM     66  C   UNL     1      13.597 -15.186  -4.452  1.00  0.00     0.037 A 
BRANCH  53  67
ATOM     67  C   UNL     1      16.539 -11.136  -0.827  1.00  0.00     0.058 A 
ATOM     68  C   UNL     1      17.142 -11.378   0.417  1.00  0.00     0.135 A 
ATOM     69  C   UNL     1      17.210 -10.292  -1.727  1.00  0.00     0.135 A 
ATOM     70  F   UNL     1      16.537 -12.166   1.320  1.00  0.00    -0.206 F 
ATOM     71  C   UNL     1      18.350 -10.785   0.768  1.00  0.00     0.059 A 
ATOM     72  C   UNL     1      18.432  -9.707  -1.407  1.00  0.00     0.059 A 
ATOM     73  F   UNL     1      16.677 -10.026  -2.930  1.00  0.00    -0.206 F 
ATOM     74  C   UNL     1      18.987  -9.949  -0.151  1.00  0.00     0.060 A 
BRANCH  74  75
ATOM     75  S   UNL     1      20.555  -9.188   0.318  1.00  0.00     0.124 S 
ATOM     76  O   UNL     1      20.110  -8.161   1.255  1.00  0.00    -0.237 OA
ATOM     77  O   UNL     1      21.284 -10.308   0.905  1.00  0.00    -0.237 OA
ATOM     78  O   UNL     1      21.086  -8.694  -0.949  1.00  0.00    -0.744 OA
ENDBRANCH  74  75
ENDBRANCH  53  67
BRANCH  54  79
ATOM     79  C   UNL     1       7.646 -14.959  -3.334  1.00  0.00     0.058 A 
ATOM     80  C   UNL     1       7.278 -16.277  -3.032  1.00  0.00     0.135 A 
ATOM     81  C   UNL     1       6.712 -14.156  -4.008  1.00  0.00     0.135 A 
ATOM     82  F   UNL     1       8.140 -17.084  -2.395  1.00  0.00    -0.206 F 
ATOM     83  C   UNL     1       6.034 -16.786  -3.389  1.00  0.00     0.059 A 
ATOM     84  C   UNL     1       5.453 -14.636  -4.356  1.00  0.00     0.059 A 
ATOM     85  F   UNL     1       7.012 -12.883  -4.306  1.00  0.00    -0.206 F 
ATOM     86  C   UNL     1       5.126 -15.956  -4.048  1.00  0.00     0.060 A 
BRANCH  86  87
ATOM     87  S   UNL     1       3.492 -16.608  -4.454  1.00  0.00     0.124 S 
ATOM     88  O   UNL     1       3.796 -17.479  -5.584  1.00  0.00    -0.237 OA
ATOM     89  O   UNL     1       3.113 -17.280  -3.215  1.00  0.00    -0.237 OA
ATOM     90  O   UNL     1       2.721 -15.409  -4.768  1.00  0.00    -0.744 OA
ENDBRANCH  86  87
ENDBRANCH  54  79
BRANCH  66  91
ATOM     91  C   UNL     1      14.178 -16.069  -5.519  1.00  0.00     0.058 A 
ATOM     92  C   UNL     1      14.062 -15.742  -6.878  1.00  0.00     0.135 A 
ATOM     93  C   UNL     1      14.918 -17.212  -5.178  1.00  0.00     0.135 A 
ATOM     94  F   UNL     1      13.355 -14.665  -7.256  1.00  0.00    -0.206 F 
ATOM     95  C   UNL     1      14.653 -16.523  -7.865  1.00  0.00     0.059 A 
ATOM     96  C   UNL     1      15.538 -17.995  -6.147  1.00  0.00     0.059 A 
ATOM     97  F   UNL     1      15.065 -17.563  -3.890  1.00  0.00    -0.206 F 
ATOM     98  C   UNL     1      15.395 -17.645  -7.489  1.00  0.00     0.060 A 
BRANCH  98  99
ATOM     99  S   UNL     1      16.207 -18.616  -8.776  1.00  0.00     0.124 S 
ATOM    100  O   UNL     1      15.076 -19.327  -9.366  1.00  0.00    -0.237 OA
ATOM    101  O   UNL     1      16.813 -17.584  -9.612  1.00  0.00    -0.237 OA
ATOM    102  O   UNL     1      17.150 -19.445  -8.032  1.00  0.00    -0.744 OA
ENDBRANCH  98  99
ENDBRANCH  66  91
ENDBRANCH  40  41
ENDBRANCH  32  35
ENDBRANCH  30  31
ENDBRANCH  29  30
ENDBRANCH   1  29
TORSDOF 19
