REMARK SMILES COCCC[C@@]1(C(=O)NCCCCNC(=O)c2ccc(-c3c4nc(c(-c5c(F)cc(S(=O)(=O)[O-])cc5F)c5ccc([nH]5)c(-c5c(F)cc(S(=O)(=O)[O-])cc5F)c5nc(c(-c6c(F)cc(S(=O)(=O)[O-])cc6F)c6ccc3[nH]6)C=C5)C=C4)cc2)CCCN(C(=O)C2CCC2)C1
REMARK SMILES IDX 11 1 10 2 9 3 7 4 8 5 6 7 83 8 93 9 84 10 86 11 85 12 5 13
REMARK SMILES IDX 4 14 3 15 2 16 1 17 87 18 88 19 89 20 90 21 92 22 91 23
REMARK SMILES IDX 12 24 13 25 14 26 15 27 16 29 17 30 18 31 82 32 19 33 81 34
REMARK SMILES IDX 20 35 21 36 22 37 75 38 23 39 80 40 74 41 76 42 24 43 79 44
REMARK SMILES IDX 73 45 72 46 25 48 59 49 38 50 58 51 39 52 42 53 57 54 77 55
REMARK SMILES IDX 40 56 41 57 56 59 78 60 43 61 26 62 27 63 36 64 28 65 29 66
REMARK SMILES IDX 35 67 37 68 30 69 31 70 32 71 33 72 34 73 60 74 61 75 70 76
REMARK SMILES IDX 62 77 63 78 69 79 71 80 64 81 65 82 66 83 67 84 68 85 44 86
REMARK SMILES IDX 45 87 54 88 46 89 47 90 53 91 55 92 48 93 49 94 50 95 51 96
REMARK SMILES IDX 52 97
REMARK H PARENT 9 6 14 28 76 47 42 58
REMARK Flexibility Score: inf
ROOT
ATOM      1  C   UNL     1       0.196   5.480   2.645  1.00  0.00     0.023 C 
ENDROOT
BRANCH   1   2
ATOM      2  C   UNL     1       0.996   4.193   2.810  1.00  0.00     0.116 C 
BRANCH   2   3
ATOM      3  N   UNL     1       0.529   3.054   2.051  1.00  0.00    -0.356 N 
ATOM      4  C   UNL     1       1.177   1.930   1.637  1.00  0.00     0.228 C 
ATOM      5  O   UNL     1       0.429   1.004   1.292  1.00  0.00    -0.274 OA
ATOM      6  H   UNL     1      -0.419   3.098   1.789  1.00  0.00     0.163 HD
BRANCH   4   7
ATOM      7  C   UNL     1       2.710   1.800   1.415  1.00  0.00     0.067 C 
ATOM      8  C   UNL     1       3.076   0.275   1.361  1.00  0.00     0.020 C 
ATOM      9  C   UNL     1       3.632   2.379   2.514  1.00  0.00     0.136 C 
ATOM     10  C   UNL     1       2.936  -0.416   2.730  1.00  0.00     0.023 C 
ATOM     11  N   UNL     1       3.372   1.756   3.806  1.00  0.00    -0.341 N 
ATOM     12  C   UNL     1       3.666   0.330   3.845  1.00  0.00     0.119 C 
BRANCH   7  13
ATOM     13  C   UNL     1       3.080   2.481   0.061  1.00  0.00     0.021 C 
BRANCH  13  14
ATOM     14  C   UNL     1       2.334   2.001  -1.201  1.00  0.00     0.030 C 
BRANCH  14  15
ATOM     15  C   UNL     1       1.063   2.770  -1.574  1.00  0.00     0.159 C 
BRANCH  15  16
ATOM     16  O   UNL     1       1.405   4.073  -2.046  1.00  0.00    -0.385 OA
ATOM     17  C   UNL     1       1.203   5.102  -1.090  1.00  0.00     0.194 C 
ENDBRANCH  15  16
ENDBRANCH  14  15
ENDBRANCH  13  14
ENDBRANCH   7  13
BRANCH  11  18
ATOM     18  C   UNL     1       3.010   2.561   4.887  1.00  0.00     0.225 C 
ATOM     19  O   UNL     1       3.259   3.779   4.842  1.00  0.00    -0.275 OA
BRANCH  18  20
ATOM     20  C   UNL     1       2.204   2.007   6.071  1.00  0.00     0.078 C 
ATOM     21  C   UNL     1       1.243   0.806   5.974  1.00  0.00     0.013 C 
ATOM     22  C   UNL     1       2.943   1.302   7.218  1.00  0.00     0.013 C 
ATOM     23  C   UNL     1       1.793   0.289   7.312  1.00  0.00     0.002 C 
ENDBRANCH  18  20
ENDBRANCH  11  18
ENDBRANCH   4   7
ENDBRANCH   2   3
ENDBRANCH   1   2
BRANCH   1  24
ATOM     24  C   UNL     1      -1.263   5.438   3.075  1.00  0.00     0.023 C 
BRANCH  24  25
ATOM     25  C   UNL     1      -1.535   4.875   4.464  1.00  0.00     0.116 C 
BRANCH  25  26
ATOM     26  N   UNL     1      -0.813   5.553   5.535  1.00  0.00    -0.352 N 
ATOM     27  C   UNL     1      -1.310   6.150   6.673  1.00  0.00     0.251 C 
ATOM     28  H   UNL     1       0.165   5.588   5.431  1.00  0.00     0.163 HD
ATOM     29  O   UNL     1      -0.565   6.736   7.454  1.00  0.00    -0.269 OA
BRANCH  27  30
ATOM     30  C   UNL     1      -2.765   6.118   6.919  1.00  0.00     0.039 A 
ATOM     31  C   UNL     1      -3.452   7.322   7.093  1.00  0.00     0.014 A 
ATOM     32  C   UNL     1      -3.455   4.906   6.862  1.00  0.00     0.014 A 
ATOM     33  C   UNL     1      -4.849   7.321   7.088  1.00  0.00     0.010 A 
ATOM     34  C   UNL     1      -4.841   4.919   6.770  1.00  0.00     0.010 A 
ATOM     35  C   UNL     1      -5.552   6.128   6.861  1.00  0.00    -0.014 A 
BRANCH  35  36
ATOM     36  C   UNL     1      -7.026   6.101   6.678  1.00  0.00     0.031 A 
ATOM     37  C   UNL     1      -7.874   5.280   7.607  1.00  0.00     0.074 A 
ATOM     38  C   UNL     1      -7.581   6.692   5.600  1.00  0.00     0.049 A 
ATOM     39  N   UNL     1      -9.137   4.959   7.508  1.00  0.00    -0.248 NA
ATOM     40  C   UNL     1      -7.195   4.704   8.778  1.00  0.00     0.031 C 
ATOM     41  C   UNL     1      -6.856   7.463   4.587  1.00  0.00     0.029 A 
ATOM     42  N   UNL     1      -8.881   6.707   5.157  1.00  0.00    -0.354 N 
ATOM     43  C   UNL     1      -9.392   4.106   8.575  1.00  0.00     0.074 A 
ATOM     44  C   UNL     1      -8.143   3.932   9.285  1.00  0.00     0.031 C 
ATOM     45  C   UNL     1      -7.720   7.874   3.644  1.00  0.00     0.029 A 
ATOM     46  C   UNL     1      -9.050   7.363   3.960  1.00  0.00     0.049 A 
ATOM     47  H   UNL     1      -9.622   6.287   5.651  1.00  0.00     0.167 HD
ATOM     48  C   UNL     1     -10.563   3.531   8.937  1.00  0.00     0.037 A 
ATOM     49  C   UNL     1     -10.146   7.517   3.191  1.00  0.00     0.037 A 
ATOM     50  C   UNL     1     -11.811   3.752   8.256  1.00  0.00     0.049 A 
ATOM     51  C   UNL     1     -11.451   6.923   3.642  1.00  0.00     0.074 A 
ATOM     52  C   UNL     1     -13.070   3.296   8.600  1.00  0.00     0.029 A 
ATOM     53  N   UNL     1     -11.955   4.495   7.093  1.00  0.00    -0.354 N 
ATOM     54  N   UNL     1     -11.693   6.180   4.696  1.00  0.00    -0.248 NA
ATOM     55  C   UNL     1     -12.632   7.189   2.809  1.00  0.00     0.031 C 
ATOM     56  C   UNL     1     -13.973   3.738   7.627  1.00  0.00     0.029 A 
ATOM     57  C   UNL     1     -13.282   4.500   6.697  1.00  0.00     0.049 A 
ATOM     58  H   UNL     1     -11.223   4.952   6.620  1.00  0.00     0.167 HD
ATOM     59  C   UNL     1     -13.055   5.907   4.664  1.00  0.00     0.074 A 
ATOM     60  C   UNL     1     -13.587   6.568   3.490  1.00  0.00     0.031 C 
ATOM     61  C   UNL     1     -13.797   5.176   5.532  1.00  0.00     0.037 A 
BRANCH  48  62
ATOM     62  C   UNL     1     -10.537   2.608  10.122  1.00  0.00     0.058 A 
ATOM     63  C   UNL     1     -10.339   3.086  11.427  1.00  0.00     0.135 A 
ATOM     64  C   UNL     1     -10.695   1.224   9.948  1.00  0.00     0.135 A 
ATOM     65  F   UNL     1     -10.168   4.399  11.648  1.00  0.00    -0.206 F 
ATOM     66  C   UNL     1     -10.244   2.220  12.511  1.00  0.00     0.059 A 
ATOM     67  C   UNL     1     -10.633   0.341  11.022  1.00  0.00     0.059 A 
ATOM     68  F   UNL     1     -10.891   0.714   8.722  1.00  0.00    -0.206 F 
ATOM     69  C   UNL     1     -10.381   0.848  12.296  1.00  0.00     0.060 A 
BRANCH  69  70
ATOM     70  S   UNL     1     -10.214  -0.270  13.704  1.00  0.00     0.124 S 
ATOM     71  O   UNL     1      -8.764  -0.309  13.870  1.00  0.00    -0.237 OA
ATOM     72  O   UNL     1     -10.952   0.427  14.752  1.00  0.00    -0.237 OA
ATOM     73  O   UNL     1     -10.825  -1.507  13.228  1.00  0.00    -0.744 OA
ENDBRANCH  69  70
ENDBRANCH  48  62
BRANCH  49  74
ATOM     74  C   UNL     1     -10.046   8.285   1.922  1.00  0.00     0.058 A 
ATOM     75  C   UNL     1     -10.551   9.590   1.829  1.00  0.00     0.135 A 
ATOM     76  C   UNL     1      -9.389   7.756   0.800  1.00  0.00     0.135 A 
ATOM     77  F   UNL     1     -11.192  10.136   2.874  1.00  0.00    -0.206 F 
ATOM     78  C   UNL     1     -10.408  10.346   0.670  1.00  0.00     0.059 A 
ATOM     79  C   UNL     1      -9.217   8.499  -0.364  1.00  0.00     0.059 A 
ATOM     80  F   UNL     1      -8.873   6.518   0.846  1.00  0.00    -0.206 F 
ATOM     81  C   UNL     1      -9.732   9.794  -0.419  1.00  0.00     0.060 A 
BRANCH  81  82
ATOM     82  S   UNL     1      -9.471  10.816  -1.886  1.00  0.00     0.124 S 
ATOM     83  O   UNL     1     -10.798  10.806  -2.491  1.00  0.00    -0.237 OA
ATOM     84  O   UNL     1      -9.044  12.085  -1.304  1.00  0.00    -0.237 OA
ATOM     85  O   UNL     1      -8.436  10.093  -2.618  1.00  0.00    -0.744 OA
ENDBRANCH  81  82
ENDBRANCH  49  74
BRANCH  61  86
ATOM     86  C   UNL     1     -15.272   5.071   5.276  1.00  0.00     0.058 A 
ATOM     87  C   UNL     1     -15.787   4.209   4.296  1.00  0.00     0.135 A 
ATOM     88  C   UNL     1     -16.183   5.762   6.091  1.00  0.00     0.135 A 
ATOM     89  F   UNL     1     -14.956   3.533   3.487  1.00  0.00    -0.206 F 
ATOM     90  C   UNL     1     -17.157   4.032   4.135  1.00  0.00     0.059 A 
ATOM     91  C   UNL     1     -17.556   5.585   5.960  1.00  0.00     0.059 A 
ATOM     92  F   UNL     1     -15.739   6.593   7.047  1.00  0.00    -0.206 F 
ATOM     93  C   UNL     1     -18.034   4.719   4.978  1.00  0.00     0.060 A 
BRANCH  93  94
ATOM     94  S   UNL     1     -19.807   4.420   4.814  1.00  0.00     0.124 S 
ATOM     95  O   UNL     1     -20.123   5.179   3.609  1.00  0.00    -0.237 OA
ATOM     96  O   UNL     1     -19.870   2.967   4.683  1.00  0.00    -0.237 OA
ATOM     97  O   UNL     1     -20.358   4.954   6.056  1.00  0.00    -0.744 OA
ENDBRANCH  93  94
ENDBRANCH  61  86
ENDBRANCH  35  36
ENDBRANCH  27  30
ENDBRANCH  25  26
ENDBRANCH  24  25
ENDBRANCH   1  24
TORSDOF 20
