REMARK SMILES CC[NH+]1CCC2(CC1)OC[C@H](C(=O)NCCCCNC(=O)c1ccc(-c3c4nc(c(-c5c(F)cc(S(=O)(=O)[O-])cc5F)c5ccc([nH]5)c(-c5c(F)cc(S(=O)(=O)[O-])cc5F)c5nc(c(-c6c(F)cc(S(=O)(=O)[O-])cc6F)c6ccc3[nH]6)C=C5)C=C4)cc1)N2C(=O)c1ccccc1
REMARK SMILES IDX 17 1 16 2 15 3 14 4 12 5 13 6 11 8 3 9 4 10 8 11 5 13 7 14
REMARK SMILES IDX 6 15 9 16 88 17 10 18 2 19 1 20 89 21 90 22 91 23 92 24
REMARK SMILES IDX 96 25 93 26 95 27 94 28 18 29 19 30 20 31 21 33 22 34 23 35
REMARK SMILES IDX 87 36 24 37 86 38 25 39 26 40 27 41 80 42 28 43 85 44 79 45
REMARK SMILES IDX 81 46 29 47 84 48 78 49 77 50 30 52 64 53 43 54 63 55 44 56
REMARK SMILES IDX 47 57 62 58 82 59 45 60 46 61 61 63 83 64 48 65 31 66 32 67
REMARK SMILES IDX 41 68 33 69 34 70 40 71 42 72 35 73 36 74 37 75 38 76 39 77
REMARK SMILES IDX 65 78 66 79 75 80 67 81 68 82 74 83 76 84 69 85 70 86 71 87
REMARK SMILES IDX 72 88 73 89 49 90 50 91 59 92 51 93 52 94 58 95 60 96 53 97
REMARK SMILES IDX 54 98 55 99 56 100 57 101
REMARK H PARENT 14 7 3 12 19 32 81 51 47 62
REMARK Flexibility Score: inf
ROOT
ATOM      1  C   UNL     1       4.639  -6.879  -2.985  1.00  0.00     0.023 C 
ENDROOT
BRANCH   1   2
ATOM      2  C   UNL     1       3.371  -6.476  -3.742  1.00  0.00     0.023 C 
BRANCH   2   3
ATOM      3  C   UNL     1       2.085  -7.132  -3.243  1.00  0.00     0.116 C 
BRANCH   3   4
ATOM      4  N   UNL     1       1.742  -6.700  -1.903  1.00  0.00    -0.354 N 
ATOM      5  C   UNL     1       0.715  -5.918  -1.464  1.00  0.00     0.245 C 
ATOM      6  O   UNL     1       0.647  -5.744  -0.243  1.00  0.00    -0.273 OA
ATOM      7  H   UNL     1       2.347  -7.023  -1.197  1.00  0.00     0.163 HD
BRANCH   5   8
ATOM      8  C   UNL     1      -0.267  -5.244  -2.453  1.00  0.00     0.203 C 
ATOM      9  N   UNL     1       0.697  -0.183  -1.489  1.00  0.00    -0.335 N 
ATOM     10  C   UNL     1       1.380  -1.393  -1.052  1.00  0.00     0.267 C 
ATOM     11  C   UNL     1      -0.299  -0.409  -2.538  1.00  0.00     0.267 C 
ATOM     12  H   UNL     1       1.472   0.335  -1.904  1.00  0.00     0.348 HD
ATOM     13  C   UNL     1       0.456  -2.539  -0.719  1.00  0.00     0.120 C 
ATOM     14  C   UNL     1      -1.163  -1.669  -2.429  1.00  0.00     0.120 C 
ATOM     15  C   UNL     1      -0.462  -2.922  -1.886  1.00  0.00     0.155 C 
ATOM     16  O   UNL     1      -1.549  -3.673  -1.248  1.00  0.00    -0.352 OA
ATOM     17  N   UNL     1       0.109  -3.889  -2.853  1.00  0.00    -0.295 N 
ATOM     18  C   UNL     1      -1.593  -5.004  -1.775  1.00  0.00     0.198 C 
BRANCH   9  19
ATOM     19  C   UNL     1       0.207   0.725  -0.452  1.00  0.00     0.258 C 
ATOM     20  C   UNL     1       1.117   0.897   0.760  1.00  0.00     0.071 C 
ENDBRANCH   9  19
BRANCH  17  21
ATOM     21  C   UNL     1       0.781  -3.767  -4.060  1.00  0.00     0.256 C 
ATOM     22  O   UNL     1       1.028  -4.734  -4.783  1.00  0.00    -0.269 OA
BRANCH  21  23
ATOM     23  C   UNL     1       1.178  -2.482  -4.636  1.00  0.00     0.040 A 
ATOM     24  C   UNL     1       0.383  -1.926  -5.646  1.00  0.00     0.014 A 
ATOM     25  C   UNL     1       2.414  -1.915  -4.322  1.00  0.00     0.014 A 
ATOM     26  C   UNL     1       0.770  -0.728  -6.249  1.00  0.00     0.001 A 
ATOM     27  C   UNL     1       2.784  -0.700  -4.905  1.00  0.00     0.001 A 
ATOM     28  C   UNL     1       1.955  -0.102  -5.857  1.00  0.00     0.000 A 
ENDBRANCH  21  23
ENDBRANCH  17  21
ENDBRANCH   5   8
ENDBRANCH   3   4
ENDBRANCH   2   3
ENDBRANCH   1   2
BRANCH   1  29
ATOM     29  C   UNL     1       4.887  -8.379  -2.865  1.00  0.00     0.116 C 
BRANCH  29  30
ATOM     30  N   UNL     1       4.920  -9.059  -4.150  1.00  0.00    -0.352 N 
ATOM     31  C   UNL     1       5.784 -10.034  -4.592  1.00  0.00     0.251 C 
ATOM     32  H   UNL     1       4.227  -8.783  -4.793  1.00  0.00     0.163 HD
ATOM     33  O   UNL     1       5.733 -10.421  -5.752  1.00  0.00    -0.269 OA
BRANCH  31  34
ATOM     34  C   UNL     1       6.798 -10.583  -3.666  1.00  0.00     0.039 A 
ATOM     35  C   UNL     1       8.124 -10.671  -4.097  1.00  0.00     0.014 A 
ATOM     36  C   UNL     1       6.449 -10.983  -2.373  1.00  0.00     0.014 A 
ATOM     37  C   UNL     1       9.114 -11.095  -3.207  1.00  0.00     0.010 A 
ATOM     38  C   UNL     1       7.446 -11.338  -1.468  1.00  0.00     0.010 A 
ATOM     39  C   UNL     1       8.788 -11.395  -1.874  1.00  0.00    -0.014 A 
BRANCH  39  40
ATOM     40  C   UNL     1       9.836 -11.761  -0.887  1.00  0.00     0.031 A 
ATOM     41  C   UNL     1       9.831 -13.125  -0.252  1.00  0.00     0.074 A 
ATOM     42  C   UNL     1      10.744 -10.840  -0.506  1.00  0.00     0.049 A 
ATOM     43  N   UNL     1      10.604 -13.600   0.690  1.00  0.00    -0.248 NA
ATOM     44  C   UNL     1       8.802 -14.069  -0.717  1.00  0.00     0.031 C 
ATOM     45  C   UNL     1      10.820  -9.467  -1.011  1.00  0.00     0.029 A 
ATOM     46  N   UNL     1      11.767 -10.914   0.406  1.00  0.00    -0.354 N 
ATOM     47  C   UNL     1      10.146 -14.887   0.944  1.00  0.00     0.074 A 
ATOM     48  C   UNL     1       8.997 -15.101   0.090  1.00  0.00     0.031 C 
ATOM     49  C   UNL     1      11.843  -8.835  -0.414  1.00  0.00     0.029 A 
ATOM     50  C   UNL     1      12.473  -9.742   0.541  1.00  0.00     0.049 A 
ATOM     51  H   UNL     1      11.977 -11.730   0.915  1.00  0.00     0.167 HD
ATOM     52  C   UNL     1      10.649 -15.813   1.794  1.00  0.00     0.037 A 
ATOM     53  C   UNL     1      13.504  -9.428   1.349  1.00  0.00     0.037 A 
ATOM     54  C   UNL     1      11.811 -15.603   2.619  1.00  0.00     0.049 A 
ATOM     55  C   UNL     1      14.055 -10.476   2.277  1.00  0.00     0.074 A 
ATOM     56  C   UNL     1      12.438 -16.500   3.465  1.00  0.00     0.029 A 
ATOM     57  N   UNL     1      12.519 -14.413   2.702  1.00  0.00    -0.354 N 
ATOM     58  N   UNL     1      13.649 -11.711   2.457  1.00  0.00    -0.248 NA
ATOM     59  C   UNL     1      15.206 -10.094   3.106  1.00  0.00     0.031 C 
ATOM     60  C   UNL     1      13.501 -15.840   4.092  1.00  0.00     0.029 A 
ATOM     61  C   UNL     1      13.566 -14.546   3.600  1.00  0.00     0.049 A 
ATOM     62  H   UNL     1      12.309 -13.594   2.198  1.00  0.00     0.167 HD
ATOM     63  C   UNL     1      14.512 -12.261   3.398  1.00  0.00     0.074 A 
ATOM     64  C   UNL     1      15.466 -11.228   3.743  1.00  0.00     0.031 C 
ATOM     65  C   UNL     1      14.514 -13.510   3.927  1.00  0.00     0.037 A 
BRANCH  52  66
ATOM     66  C   UNL     1       9.946 -17.141   1.873  1.00  0.00     0.058 A 
ATOM     67  C   UNL     1       9.989 -18.063   0.815  1.00  0.00     0.135 A 
ATOM     68  C   UNL     1       9.242 -17.508   3.032  1.00  0.00     0.135 A 
ATOM     69  F   UNL     1      10.636 -17.758  -0.321  1.00  0.00    -0.206 F 
ATOM     70  C   UNL     1       9.332 -19.287   0.889  1.00  0.00     0.059 A 
ATOM     71  C   UNL     1       8.601 -18.739   3.139  1.00  0.00     0.059 A 
ATOM     72  F   UNL     1       9.169 -16.665   4.074  1.00  0.00    -0.206 F 
ATOM     73  C   UNL     1       8.638 -19.615   2.054  1.00  0.00     0.060 A 
BRANCH  73  74
ATOM     74  S   UNL     1       7.788 -21.205   2.133  1.00  0.00     0.124 S 
ATOM     75  O   UNL     1       6.640 -20.964   1.265  1.00  0.00    -0.237 OA
ATOM     76  O   UNL     1       8.794 -22.124   1.611  1.00  0.00    -0.237 OA
ATOM     77  O   UNL     1       7.482 -21.357   3.552  1.00  0.00    -0.744 OA
ENDBRANCH  73  74
ENDBRANCH  52  66
BRANCH  53  78
ATOM     78  C   UNL     1      14.096  -8.065   1.298  1.00  0.00     0.058 A 
ATOM     79  C   UNL     1      15.365  -7.850   0.739  1.00  0.00     0.135 A 
ATOM     80  C   UNL     1      13.399  -6.948   1.783  1.00  0.00     0.135 A 
ATOM     81  F   UNL     1      16.073  -8.888   0.268  1.00  0.00    -0.206 F 
ATOM     82  C   UNL     1      15.928  -6.580   0.673  1.00  0.00     0.059 A 
ATOM     83  C   UNL     1      13.930  -5.664   1.707  1.00  0.00     0.059 A 
ATOM     84  F   UNL     1      12.174  -7.097   2.312  1.00  0.00    -0.206 F 
ATOM     85  C   UNL     1      15.200  -5.491   1.157  1.00  0.00     0.060 A 
BRANCH  85  86
ATOM     86  S   UNL     1      15.915  -3.839   1.014  1.00  0.00     0.124 S 
ATOM     87  O   UNL     1      16.940  -3.872   2.050  1.00  0.00    -0.237 OA
ATOM     88  O   UNL     1      16.398  -3.832  -0.363  1.00  0.00    -0.237 OA
ATOM     89  O   UNL     1      14.780  -2.959   1.276  1.00  0.00    -0.744 OA
ENDBRANCH  85  86
ENDBRANCH  53  78
BRANCH  65  90
ATOM     90  C   UNL     1      15.602 -13.846   4.908  1.00  0.00     0.058 A 
ATOM     91  C   UNL     1      15.599 -13.340   6.217  1.00  0.00     0.135 A 
ATOM     92  C   UNL     1      16.631 -14.733   4.550  1.00  0.00     0.135 A 
ATOM     93  F   UNL     1      14.642 -12.484   6.608  1.00  0.00    -0.206 F 
ATOM     94  C   UNL     1      16.588 -13.687   7.131  1.00  0.00     0.059 A 
ATOM     95  C   UNL     1      17.616 -15.113   5.455  1.00  0.00     0.059 A 
ATOM     96  F   UNL     1      16.675 -15.253   3.313  1.00  0.00    -0.206 F 
ATOM     97  C   UNL     1      17.592 -14.576   6.742  1.00  0.00     0.060 A 
BRANCH  97  98
ATOM     98  S   UNL     1      18.848 -15.048   7.949  1.00  0.00     0.124 S 
ATOM     99  O   UNL     1      19.674 -13.846   8.000  1.00  0.00    -0.237 OA
ATOM    100  O   UNL     1      18.051 -15.321   9.141  1.00  0.00    -0.237 OA
ATOM    101  O   UNL     1      19.479 -16.218   7.344  1.00  0.00    -0.744 OA
ENDBRANCH  97  98
ENDBRANCH  65  90
ENDBRANCH  39  40
ENDBRANCH  31  34
ENDBRANCH  29  30
ENDBRANCH   1  29
TORSDOF 17
