REMARK SMILES C[C@H](C(=O)NCCCCNC(=O)c1ccc(-c2c3nc(c(-c4c(F)cc(S(=O)(=O)[O-])cc4F)c4ccc([nH]4)c(-c4c(F)cc(S(=O)(=O)[O-])cc4F)c4nc(c(-c5c(F)cc(S(=O)(=O)[O-])cc5F)c5ccc2[nH]5)C=C4)C=C3)cc1)[C@H](C)[NH+]1CCN(S(C)(=O)=O)CC1
REMARK SMILES IDX 7 1 6 2 5 3 3 4 4 5 2 7 1 8 79 9 80 10 81 11 82 12 90 13
REMARK SMILES IDX 83 15 89 16 84 17 85 18 86 19 87 20 88 21 8 22 9 23 10 24
REMARK SMILES IDX 11 25 12 27 13 28 14 29 78 30 15 31 77 32 16 33 17 34 18 35
REMARK SMILES IDX 71 36 19 37 76 38 70 39 72 40 20 41 75 42 69 43 68 44 21 46
REMARK SMILES IDX 55 47 34 48 54 49 35 50 38 51 53 52 73 53 36 54 37 55 52 57
REMARK SMILES IDX 74 58 39 59 22 60 23 61 32 62 24 63 25 64 31 65 33 66 26 67
REMARK SMILES IDX 27 68 28 69 29 70 30 71 56 72 57 73 66 74 58 75 59 76 65 77
REMARK SMILES IDX 67 78 60 79 61 80 62 81 63 82 64 83 40 84 41 85 50 86 42 87
REMARK SMILES IDX 43 88 49 89 51 90 44 91 45 92 46 93 47 94 48 95
REMARK H PARENT 5 6 81 14 10 26 72 45 38 56
REMARK Flexibility Score: inf
ROOT
ATOM      1  C   UNL     1      -1.250   0.487   3.838  1.00  0.00     0.023 C 
ENDROOT
BRANCH   1   2
ATOM      2  C   UNL     1      -1.361   1.641   2.857  1.00  0.00     0.116 C 
BRANCH   2   3
ATOM      3  N   UNL     1      -0.119   1.809   2.121  1.00  0.00    -0.356 N 
ATOM      4  C   UNL     1       0.117   1.646   0.785  1.00  0.00     0.228 C 
ATOM      5  O   UNL     1       1.254   1.850   0.372  1.00  0.00    -0.275 OA
ATOM      6  H   UNL     1       0.660   2.077   2.660  1.00  0.00     0.163 HD
BRANCH   4   7
ATOM      7  C   UNL     1      -1.092   1.393  -0.109  1.00  0.00     0.133 C 
ATOM      8  C   UNL     1      -1.802   2.747  -0.148  1.00  0.00     0.024 C 
BRANCH   7   9
ATOM      9  C   UNL     1      -0.844   0.656  -1.466  1.00  0.00     0.193 C 
ATOM     10  C   UNL     1       0.607   0.514  -1.944  1.00  0.00     0.076 C 
BRANCH   9  11
ATOM     11  N   UNL     1      -1.684   0.986  -2.626  1.00  0.00    -0.330 N 
ATOM     12  C   UNL     1      -2.938   0.269  -2.806  1.00  0.00     0.279 C 
ATOM     13  C   UNL     1      -1.655   2.323  -3.212  1.00  0.00     0.279 C 
ATOM     14  H   UNL     1      -1.039   0.511  -3.257  1.00  0.00     0.348 HD
ATOM     15  C   UNL     1      -4.180   1.092  -2.462  1.00  0.00     0.163 C 
ATOM     16  C   UNL     1      -2.933   3.190  -3.066  1.00  0.00     0.163 C 
ATOM     17  N   UNL     1      -4.189   2.403  -3.155  1.00  0.00    -0.191 NA
BRANCH  17  18
ATOM     18  S   UNL     1      -5.194   2.663  -4.468  1.00  0.00     0.211 S 
ATOM     19  C   UNL     1      -4.175   2.140  -5.830  1.00  0.00     0.176 C 
ATOM     20  O   UNL     1      -6.324   1.768  -4.379  1.00  0.00    -0.212 OA
ATOM     21  O   UNL     1      -5.382   4.095  -4.598  1.00  0.00    -0.212 OA
ENDBRANCH  17  18
ENDBRANCH   9  11
ENDBRANCH   7   9
ENDBRANCH   4   7
ENDBRANCH   2   3
ENDBRANCH   1   2
BRANCH   1  22
ATOM     22  C   UNL     1      -0.167   0.704   4.892  1.00  0.00     0.023 C 
BRANCH  22  23
ATOM     23  C   UNL     1      -0.256   2.046   5.609  1.00  0.00     0.116 C 
BRANCH  23  24
ATOM     24  N   UNL     1      -1.526   2.217   6.301  1.00  0.00    -0.352 N 
ATOM     25  C   UNL     1      -1.730   2.534   7.622  1.00  0.00     0.251 C 
ATOM     26  H   UNL     1      -2.336   2.091   5.756  1.00  0.00     0.163 HD
ATOM     27  O   UNL     1      -2.848   2.470   8.121  1.00  0.00    -0.269 OA
BRANCH  25  28
ATOM     28  C   UNL     1      -0.558   2.919   8.429  1.00  0.00     0.039 A 
ATOM     29  C   UNL     1      -0.252   2.179   9.571  1.00  0.00     0.014 A 
ATOM     30  C   UNL     1       0.297   3.928   7.973  1.00  0.00     0.014 A 
ATOM     31  C   UNL     1       0.968   2.394  10.213  1.00  0.00     0.010 A 
ATOM     32  C   UNL     1       1.541   4.088   8.572  1.00  0.00     0.010 A 
ATOM     33  C   UNL     1       1.895   3.310   9.685  1.00  0.00    -0.014 A 
BRANCH  33  34
ATOM     34  C   UNL     1       3.265   3.425  10.246  1.00  0.00     0.031 A 
ATOM     35  C   UNL     1       3.724   4.721  10.854  1.00  0.00     0.074 A 
ATOM     36  C   UNL     1       4.118   2.388  10.121  1.00  0.00     0.049 A 
ATOM     37  N   UNL     1       4.909   5.043  11.301  1.00  0.00    -0.248 NA
ATOM     38  C   UNL     1       2.731   5.803  10.952  1.00  0.00     0.031 C 
ATOM     39  C   UNL     1       3.799   1.098   9.501  1.00  0.00     0.029 A 
ATOM     40  N   UNL     1       5.436   2.257  10.487  1.00  0.00    -0.354 N 
ATOM     41  C   UNL     1       4.811   6.365  11.716  1.00  0.00     0.074 A 
ATOM     42  C   UNL     1       3.460   6.798  11.439  1.00  0.00     0.031 C 
ATOM     43  C   UNL     1       4.886   0.310   9.534  1.00  0.00     0.029 A 
ATOM     44  C   UNL     1       5.993   1.050  10.130  1.00  0.00     0.049 A 
ATOM     45  H   UNL     1       5.935   2.962  10.960  1.00  0.00     0.167 HD
ATOM     46  C   UNL     1       5.763   7.138  12.289  1.00  0.00     0.037 A 
ATOM     47  C   UNL     1       7.259   0.601  10.241  1.00  0.00     0.037 A 
ATOM     48  C   UNL     1       7.096   6.686  12.589  1.00  0.00     0.049 A 
ATOM     49  C   UNL     1       8.298   1.494  10.867  1.00  0.00     0.074 A 
ATOM     50  C   UNL     1       8.100   7.367  13.255  1.00  0.00     0.029 A 
ATOM     51  N   UNL     1       7.618   5.452  12.232  1.00  0.00    -0.354 N 
ATOM     52  N   UNL     1       8.158   2.705  11.353  1.00  0.00    -0.248 NA
ATOM     53  C   UNL     1       9.666   0.965  10.960  1.00  0.00     0.031 C 
ATOM     54  C   UNL     1       9.249   6.572  13.240  1.00  0.00     0.029 A 
ATOM     55  C   UNL     1       8.944   5.371  12.621  1.00  0.00     0.049 A 
ATOM     56  H   UNL     1       7.119   4.739  11.770  1.00  0.00     0.167 HD
ATOM     57  C   UNL     1       9.414   3.073  11.822  1.00  0.00     0.074 A 
ATOM     58  C   UNL     1      10.295   1.948  11.589  1.00  0.00     0.031 C 
ATOM     59  C   UNL     1       9.807   4.240  12.388  1.00  0.00     0.037 A 
BRANCH  46  60
ATOM     60  C   UNL     1       5.417   8.559  12.637  1.00  0.00     0.058 A 
ATOM     61  C   UNL     1       4.578   8.872  13.717  1.00  0.00     0.135 A 
ATOM     62  C   UNL     1       6.025   9.622  11.948  1.00  0.00     0.135 A 
ATOM     63  F   UNL     1       3.958   7.895  14.398  1.00  0.00    -0.206 F 
ATOM     64  C   UNL     1       4.359  10.189  14.107  1.00  0.00     0.059 A 
ATOM     65  C   UNL     1       5.840  10.945  12.336  1.00  0.00     0.059 A 
ATOM     66  F   UNL     1       6.830   9.376  10.902  1.00  0.00    -0.206 F 
ATOM     67  C   UNL     1       5.005  11.218  13.418  1.00  0.00     0.060 A 
BRANCH  67  68
ATOM     68  S   UNL     1       4.762  12.915  13.982  1.00  0.00     0.124 S 
ATOM     69  O   UNL     1       3.370  13.151  13.609  1.00  0.00    -0.237 OA
ATOM     70  O   UNL     1       5.023  12.806  15.414  1.00  0.00    -0.237 OA
ATOM     71  O   UNL     1       5.751  13.673  13.223  1.00  0.00    -0.744 OA
ENDBRANCH  67  68
ENDBRANCH  46  60
BRANCH  47  72
ATOM     72  C   UNL     1       7.633  -0.743   9.718  1.00  0.00     0.058 A 
ATOM     73  C   UNL     1       8.053  -1.769  10.578  1.00  0.00     0.135 A 
ATOM     74  C   UNL     1       7.615  -1.016   8.340  1.00  0.00     0.135 A 
ATOM     75  F   UNL     1       8.093  -1.558  11.903  1.00  0.00    -0.206 F 
ATOM     76  C   UNL     1       8.479  -3.001  10.092  1.00  0.00     0.059 A 
ATOM     77  C   UNL     1       8.004  -2.251   7.832  1.00  0.00     0.059 A 
ATOM     78  F   UNL     1       7.205  -0.078   7.473  1.00  0.00    -0.206 F 
ATOM     79  C   UNL     1       8.455  -3.231   8.715  1.00  0.00     0.060 A 
BRANCH  79  80
ATOM     80  S   UNL     1       9.008  -4.833   8.092  1.00  0.00     0.124 S 
ATOM     81  O   UNL     1      10.450  -4.740   8.287  1.00  0.00    -0.237 OA
ATOM     82  O   UNL     1       8.303  -5.762   8.970  1.00  0.00    -0.237 OA
ATOM     83  O   UNL     1       8.555  -4.827   6.704  1.00  0.00    -0.744 OA
ENDBRANCH  79  80
ENDBRANCH  47  72
BRANCH  59  84
ATOM     84  C   UNL     1      11.245   4.362  12.811  1.00  0.00     0.058 A 
ATOM     85  C   UNL     1      12.278   4.489  11.870  1.00  0.00     0.135 A 
ATOM     86  C   UNL     1      11.586   4.424  14.172  1.00  0.00     0.135 A 
ATOM     87  F   UNL     1      12.008   4.426  10.557  1.00  0.00    -0.206 F 
ATOM     88  C   UNL     1      13.601   4.659  12.263  1.00  0.00     0.059 A 
ATOM     89  C   UNL     1      12.898   4.625  14.588  1.00  0.00     0.059 A 
ATOM     90  F   UNL     1      10.634   4.316  15.114  1.00  0.00    -0.206 F 
ATOM     91  C   UNL     1      13.900   4.734  13.625  1.00  0.00     0.060 A 
BRANCH  91  92
ATOM     92  S   UNL     1      15.615   5.011  14.117  1.00  0.00     0.124 S 
ATOM     93  O   UNL     1      16.227   3.728  13.788  1.00  0.00    -0.237 OA
ATOM     94  O   UNL     1      16.003   6.135  13.271  1.00  0.00    -0.237 OA
ATOM     95  O   UNL     1      15.516   5.311  15.542  1.00  0.00    -0.744 OA
ENDBRANCH  91  92
ENDBRANCH  59  84
ENDBRANCH  33  34
ENDBRANCH  25  28
ENDBRANCH  23  24
ENDBRANCH  22  23
ENDBRANCH   1  22
TORSDOF 17
