REMARK SMILES CS(=O)(=O)c1ccc(C2=NN(c3ccc(C(=O)NCCCCNC(=O)c4ccc(-c5c6nc(c(-c7c(F)cc(S(=O)(=O)[O-])cc7F)c7ccc([nH]7)c(-c7c(F)cc(S(=O)(=O)[O-])cc7F)c7nc(c(-c8c(F)cc(S(=O)(=O)[O-])cc8F)c8ccc5[nH]8)C=C7)C=C6)cc4)cc3)[C@H](c3ccccc3)C2)cc1
REMARK SMILES IDX 20 1 19 2 18 3 16 4 17 5 15 7 12 8 13 9 93 10 14 11 92 12
REMARK SMILES IDX 11 13 9 14 10 15 101 16 94 17 8 18 5 19 6 20 103 21 7 22
REMARK SMILES IDX 102 23 2 24 1 25 3 26 4 27 95 28 96 29 100 30 97 31 99 32
REMARK SMILES IDX 98 33 21 34 22 35 23 36 24 37 25 39 26 40 27 41 91 42 28 43
REMARK SMILES IDX 90 44 29 45 30 46 31 47 84 48 32 49 89 50 83 51 85 52 33 53
REMARK SMILES IDX 88 54 82 55 81 56 34 58 68 59 47 60 67 61 48 62 51 63 66 64
REMARK SMILES IDX 86 65 49 66 50 67 65 69 87 70 52 71 35 72 36 73 45 74 37 75
REMARK SMILES IDX 38 76 44 77 46 78 39 79 40 80 41 81 42 82 43 83 69 84 70 85
REMARK SMILES IDX 79 86 71 87 72 88 78 89 80 90 73 91 74 92 75 93 76 94 77 95
REMARK SMILES IDX 53 96 54 97 63 98 55 99 56 100 62 101 64 102 57 103 58 104
REMARK SMILES IDX 59 105 60 106 61 107
REMARK H PARENT 18 6 23 38 85 57 51 68
REMARK Flexibility Score: inf
ROOT
ATOM      1  C   UNL     1       3.594 -14.355   0.464  1.00  0.00     0.023 C 
ENDROOT
BRANCH   1   2
ATOM      2  C   UNL     1       4.580 -13.938   1.557  1.00  0.00     0.116 C 
BRANCH   2   3
ATOM      3  N   UNL     1       5.734 -13.258   0.996  1.00  0.00    -0.352 N 
ATOM      4  C   UNL     1       6.059 -11.924   0.954  1.00  0.00     0.251 C 
ATOM      5  O   UNL     1       7.167 -11.600   0.528  1.00  0.00    -0.269 OA
ATOM      6  H   UNL     1       6.394 -13.854   0.574  1.00  0.00     0.163 HD
BRANCH   4   7
ATOM      7  C   UNL     1       5.143 -10.867   1.459  1.00  0.00     0.039 A 
ATOM      8  C   UNL     1       3.514  -8.821   2.511  1.00  0.00     0.060 A 
ATOM      9  C   UNL     1       4.906  -8.738   2.606  1.00  0.00     0.029 A 
ATOM     10  C   UNL     1       2.953  -9.903   1.831  1.00  0.00     0.029 A 
ATOM     11  C   UNL     1       5.717  -9.752   2.084  1.00  0.00     0.016 A 
ATOM     12  C   UNL     1       3.758 -10.907   1.294  1.00  0.00     0.016 A 
BRANCH   8  13
ATOM     13  N   UNL     1       2.678  -7.877   3.090  1.00  0.00    -0.257 N 
ATOM     14  C   UNL     1       2.101  -5.850   3.335  1.00  0.00     0.071 C 
ATOM     15  N   UNL     1       2.445  -6.716   2.435  1.00  0.00    -0.176 NA
ATOM     16  C   UNL     1       2.152  -6.329   4.760  1.00  0.00     0.091 C 
ATOM     17  C   UNL     1       2.471  -7.816   4.538  1.00  0.00     0.144 C 
BRANCH  14  18
ATOM     18  C   UNL     1       1.694  -4.481   2.980  1.00  0.00    -0.002 A 
ATOM     19  C   UNL     1       0.910  -1.930   2.205  1.00  0.00     0.067 A 
ATOM     20  C   UNL     1       0.493  -3.033   1.456  1.00  0.00     0.021 A 
ATOM     21  C   UNL     1       1.710  -2.093   3.343  1.00  0.00     0.021 A 
ATOM     22  C   UNL     1       0.903  -4.309   1.837  1.00  0.00     0.011 A 
ATOM     23  C   UNL     1       2.098  -3.378   3.736  1.00  0.00     0.011 A 
BRANCH  19  24
ATOM     24  S   UNL     1       0.382  -0.307   1.710  1.00  0.00     0.175 S 
ATOM     25  C   UNL     1       1.138  -0.070   0.123  1.00  0.00     0.163 C 
ATOM     26  O   UNL     1       0.972   0.648   2.626  1.00  0.00    -0.224 OA
ATOM     27  O   UNL     1      -1.058  -0.373   1.527  1.00  0.00    -0.224 OA
ENDBRANCH  19  24
ENDBRANCH  14  18
BRANCH  17  28
ATOM     28  C   UNL     1       1.423  -8.842   4.952  1.00  0.00    -0.023 A 
ATOM     29  C   UNL     1       0.052  -8.562   5.054  1.00  0.00     0.006 A 
ATOM     30  C   UNL     1       1.838 -10.172   5.167  1.00  0.00     0.006 A 
ATOM     31  C   UNL     1      -0.863  -9.569   5.384  1.00  0.00     0.000 A 
ATOM     32  C   UNL     1       0.922 -11.181   5.474  1.00  0.00     0.000 A 
ATOM     33  C   UNL     1      -0.429 -10.876   5.590  1.00  0.00     0.000 A 
ENDBRANCH  17  28
ENDBRANCH   8  13
ENDBRANCH   4   7
ENDBRANCH   2   3
ENDBRANCH   1   2
BRANCH   1  34
ATOM     34  C   UNL     1       4.007 -15.594  -0.331  1.00  0.00     0.023 C 
BRANCH  34  35
ATOM     35  C   UNL     1       4.095 -16.885   0.475  1.00  0.00     0.116 C 
BRANCH  35  36
ATOM     36  N   UNL     1       2.850 -17.232   1.145  1.00  0.00    -0.352 N 
ATOM     37  C   UNL     1       2.314 -18.479   1.365  1.00  0.00     0.251 C 
ATOM     38  H   UNL     1       2.322 -16.474   1.485  1.00  0.00     0.163 HD
ATOM     39  O   UNL     1       1.199 -18.592   1.864  1.00  0.00    -0.269 OA
BRANCH  37  40
ATOM     40  C   UNL     1       3.075 -19.677   0.955  1.00  0.00     0.039 A 
ATOM     41  C   UNL     1       2.438 -20.642   0.171  1.00  0.00     0.014 A 
ATOM     42  C   UNL     1       4.422 -19.820   1.298  1.00  0.00     0.014 A 
ATOM     43  C   UNL     1       3.177 -21.711  -0.340  1.00  0.00     0.010 A 
ATOM     44  C   UNL     1       5.170 -20.851   0.737  1.00  0.00     0.010 A 
ATOM     45  C   UNL     1       4.558 -21.797  -0.098  1.00  0.00    -0.014 A 
BRANCH  45  46
ATOM     46  C   UNL     1       5.388 -22.841  -0.749  1.00  0.00     0.031 A 
ATOM     47  C   UNL     1       6.071 -23.893   0.075  1.00  0.00     0.074 A 
ATOM     48  C   UNL     1       5.590 -22.785  -2.080  1.00  0.00     0.049 A 
ATOM     49  N   UNL     1       6.881 -24.845  -0.311  1.00  0.00    -0.248 NA
ATOM     50  C   UNL     1       5.833 -23.856   1.526  1.00  0.00     0.031 C 
ATOM     51  C   UNL     1       5.022 -21.777  -2.980  1.00  0.00     0.029 A 
ATOM     52  N   UNL     1       6.336 -23.584  -2.908  1.00  0.00    -0.354 N 
ATOM     53  C   UNL     1       7.264 -25.510   0.847  1.00  0.00     0.074 A 
ATOM     54  C   UNL     1       6.631 -24.824   1.954  1.00  0.00     0.031 C 
ATOM     55  C   UNL     1       5.419 -22.036  -4.236  1.00  0.00     0.029 A 
ATOM     56  C   UNL     1       6.297 -23.202  -4.227  1.00  0.00     0.049 A 
ATOM     57  H   UNL     1       6.851 -24.360  -2.587  1.00  0.00     0.167 HD
ATOM     58  C   UNL     1       8.054 -26.602   0.974  1.00  0.00     0.037 A 
ATOM     59  C   UNL     1       6.904 -23.727  -5.309  1.00  0.00     0.037 A 
ATOM     60  C   UNL     1       8.663 -27.291  -0.134  1.00  0.00     0.049 A 
ATOM     61  C   UNL     1       7.785 -24.932  -5.144  1.00  0.00     0.074 A 
ATOM     62  C   UNL     1       9.408 -28.457  -0.120  1.00  0.00     0.029 A 
ATOM     63  N   UNL     1       8.607 -26.870  -1.456  1.00  0.00    -0.354 N 
ATOM     64  N   UNL     1       8.071 -25.598  -4.051  1.00  0.00    -0.248 NA
ATOM     65  C   UNL     1       8.428 -25.455  -6.356  1.00  0.00     0.031 C 
ATOM     66  C   UNL     1       9.840 -28.716  -1.426  1.00  0.00     0.029 A 
ATOM     67  C   UNL     1       9.331 -27.734  -2.261  1.00  0.00     0.049 A 
ATOM     68  H   UNL     1       8.123 -26.074  -1.774  1.00  0.00     0.167 HD
ATOM     69  C   UNL     1       8.918 -26.628  -4.444  1.00  0.00     0.074 A 
ATOM     70  C   UNL     1       9.086 -26.504  -5.879  1.00  0.00     0.031 C 
ATOM     71  C   UNL     1       9.501 -27.589  -3.686  1.00  0.00     0.037 A 
BRANCH  58  72
ATOM     72  C   UNL     1       8.307 -27.111   2.366  1.00  0.00     0.058 A 
ATOM     73  C   UNL     1       7.298 -27.733   3.119  1.00  0.00     0.135 A 
ATOM     74  C   UNL     1       9.573 -26.971   2.958  1.00  0.00     0.135 A 
ATOM     75  F   UNL     1       6.066 -27.880   2.606  1.00  0.00    -0.206 F 
ATOM     76  C   UNL     1       7.520 -28.156   4.425  1.00  0.00     0.059 A 
ATOM     77  C   UNL     1       9.825 -27.412   4.254  1.00  0.00     0.059 A 
ATOM     78  F   UNL     1      10.575 -26.387   2.282  1.00  0.00    -0.206 F 
ATOM     79  C   UNL     1       8.786 -27.982   4.987  1.00  0.00     0.060 A 
BRANCH  79  80
ATOM     80  S   UNL     1       9.052 -28.504   6.695  1.00  0.00     0.124 S 
ATOM     81  O   UNL     1       8.394 -27.428   7.431  1.00  0.00    -0.237 OA
ATOM     82  O   UNL     1       8.383 -29.800   6.737  1.00  0.00    -0.237 OA
ATOM     83  O   UNL     1      10.506 -28.548   6.813  1.00  0.00    -0.744 OA
ENDBRANCH  79  80
ENDBRANCH  58  72
BRANCH  59  84
ATOM     84  C   UNL     1       6.663 -23.128  -6.647  1.00  0.00     0.058 A 
ATOM     85  C   UNL     1       5.842 -23.775  -7.581  1.00  0.00     0.135 A 
ATOM     86  C   UNL     1       7.202 -21.881  -6.999  1.00  0.00     0.135 A 
ATOM     87  F   UNL     1       5.312 -24.973  -7.290  1.00  0.00    -0.206 F 
ATOM     88  C   UNL     1       5.558 -23.207  -8.818  1.00  0.00     0.059 A 
ATOM     89  C   UNL     1       6.916 -21.282  -8.223  1.00  0.00     0.059 A 
ATOM     90  F   UNL     1       7.982 -21.216  -6.133  1.00  0.00    -0.206 F 
ATOM     91  C   UNL     1       6.094 -21.955  -9.126  1.00  0.00     0.060 A 
BRANCH  91  92
ATOM     92  S   UNL     1       5.648 -21.188 -10.700  1.00  0.00     0.124 S 
ATOM     93  O   UNL     1       6.435 -21.973 -11.643  1.00  0.00    -0.237 OA
ATOM     94  O   UNL     1       4.204 -21.397 -10.744  1.00  0.00    -0.237 OA
ATOM     95  O   UNL     1       6.067 -19.801 -10.527  1.00  0.00    -0.744 OA
ENDBRANCH  91  92
ENDBRANCH  59  84
BRANCH  71  96
ATOM     96  C   UNL     1      10.377 -28.585  -4.393  1.00  0.00     0.058 A 
ATOM     97  C   UNL     1      11.660 -28.239  -4.845  1.00  0.00     0.135 A 
ATOM     98  C   UNL     1       9.950 -29.910  -4.576  1.00  0.00     0.135 A 
ATOM     99  F   UNL     1      12.111 -26.983  -4.703  1.00  0.00    -0.206 F 
ATOM    100  C   UNL     1      12.484 -29.170  -5.469  1.00  0.00     0.059 A 
ATOM    101  C   UNL     1      10.766 -30.862  -5.177  1.00  0.00     0.059 A 
ATOM    102  F   UNL     1       8.734 -30.292  -4.154  1.00  0.00    -0.206 F 
ATOM    103  C   UNL     1      12.029 -30.480  -5.629  1.00  0.00     0.060 A 
BRANCH 103 104
ATOM    104  S   UNL     1      13.123 -31.689  -6.404  1.00  0.00     0.124 S 
ATOM    105  O   UNL     1      13.031 -31.309  -7.810  1.00  0.00    -0.237 OA
ATOM    106  O   UNL     1      14.402 -31.417  -5.756  1.00  0.00    -0.237 OA
ATOM    107  O   UNL     1      12.513 -32.970  -6.058  1.00  0.00    -0.744 OA
ENDBRANCH 103 104
ENDBRANCH  71  96
ENDBRANCH  45  46
ENDBRANCH  37  40
ENDBRANCH  35  36
ENDBRANCH  34  35
ENDBRANCH   1  34
TORSDOF 18
