REMARK SMILES Cc1ccnc(C(=O)c2[nH]c3ccc(OC(F)(F)F)cc3c2CC(=O)NCCCCNC(=O)c2ccc(-c3c4nc(c(-c5c(F)cc(S(=O)(=O)[O-])cc5F)c5ccc([nH]5)c(-c5c(F)cc(S(=O)(=O)[O-])cc5F)c5nc(c(-c6c(F)cc(S(=O)(=O)[O-])cc6F)c6ccc3[nH]6)C=C5)C=C4)cc2)c1
REMARK SMILES IDX 28 1 27 2 26 3 24 4 25 5 23 7 22 8 9 9 10 10 11 11 21 13
REMARK SMILES IDX 12 14 20 15 13 16 14 17 7 18 8 19 6 20 1 21 2 22 3 23 100 24
REMARK SMILES IDX 4 25 5 26 15 27 16 28 17 29 18 30 19 31 29 32 30 33 31 34
REMARK SMILES IDX 32 35 33 37 34 38 35 39 99 40 36 41 98 42 37 43 38 44 39 45
REMARK SMILES IDX 92 46 40 47 97 48 91 49 93 50 41 51 96 52 90 53 89 54 42 56
REMARK SMILES IDX 76 57 55 58 75 59 56 60 59 61 74 62 94 63 57 64 58 65 73 67
REMARK SMILES IDX 95 68 60 69 43 70 44 71 53 72 45 73 46 74 52 75 54 76 47 77
REMARK SMILES IDX 48 78 49 79 50 80 51 81 77 82 78 83 87 84 79 85 80 86 86 87
REMARK SMILES IDX 88 88 81 89 82 90 83 91 84 92 85 93 61 94 62 95 71 96 63 97
REMARK SMILES IDX 64 98 70 99 72 100 65 101 66 102 67 103 68 104 69 105
REMARK H PARENT 26 6 10 12 31 36 93 55 59 66
REMARK Flexibility Score: inf
ROOT
ATOM      1  C   UNL     1       3.050  -6.858  -0.733  1.00  0.00     0.023 C 
ENDROOT
BRANCH   1   2
ATOM      2  C   UNL     1       3.423  -6.869   0.749  1.00  0.00     0.116 C 
BRANCH   2   3
ATOM      3  N   UNL     1       3.979  -5.612   1.206  1.00  0.00    -0.356 N 
ATOM      4  C   UNL     1       3.373  -4.597   1.891  1.00  0.00     0.224 C 
ATOM      5  O   UNL     1       4.081  -3.693   2.344  1.00  0.00    -0.275 OA
ATOM      6  H   UNL     1       4.929  -5.469   0.993  1.00  0.00     0.163 HD
BRANCH   4   7
ATOM      7  C   UNL     1       1.884  -4.640   2.203  1.00  0.00     0.138 C 
BRANCH   7   8
ATOM      8  C   UNL     1       0.976  -4.655   1.006  1.00  0.00    -0.002 A 
ATOM      9  C   UNL     1       0.887  -3.700  -0.003  1.00  0.00     0.093 A 
ATOM     10  N   UNL     1       0.005  -4.179  -0.946  1.00  0.00    -0.352 N 
ATOM     11  C   UNL     1      -0.568  -5.353  -0.524  1.00  0.00     0.046 A 
ATOM     12  H   UNL     1      -0.188  -3.740  -1.805  1.00  0.00     0.167 HD
ATOM     13  C   UNL     1       0.003  -5.668   0.705  1.00  0.00     0.008 A 
ATOM     14  C   UNL     1      -1.518  -6.166  -1.148  1.00  0.00     0.030 A 
ATOM     15  C   UNL     1      -0.417  -6.851   1.349  1.00  0.00     0.057 A 
ATOM     16  C   UNL     1      -1.909  -7.341  -0.490  1.00  0.00     0.049 A 
ATOM     17  C   UNL     1      -1.371  -7.687   0.748  1.00  0.00     0.130 A 
BRANCH   9  18
ATOM     18  C   UNL     1       1.633  -2.465  -0.175  1.00  0.00     0.227 C 
ATOM     19  O   UNL     1       2.843  -2.481  -0.371  1.00  0.00    -0.285 OA
BRANCH  18  20
ATOM     20  C   UNL     1       0.877  -1.156  -0.147  1.00  0.00     0.113 A 
ATOM     21  C   UNL     1      -2.607   0.263   0.354  1.00  0.00     0.044 C 
ATOM     22  C   UNL     1      -1.135   0.147   0.096  1.00  0.00    -0.047 A 
ATOM     23  C   UNL     1      -0.377   1.288  -0.172  1.00  0.00     0.023 A 
ATOM     24  C   UNL     1      -0.490  -1.093   0.130  1.00  0.00     0.036 A 
ATOM     25  C   UNL     1       0.977   1.141  -0.416  1.00  0.00     0.112 A 
ATOM     26  N   UNL     1       1.611  -0.048  -0.422  1.00  0.00    -0.253 NA
ENDBRANCH  18  20
ENDBRANCH   9  18
BRANCH  17  27
ATOM     27  O   UNL     1      -1.669  -8.802   1.480  1.00  0.00    -0.406 OA
BRANCH  27  28
ATOM     28  C   UNL     1      -2.597  -9.723   0.936  1.00  0.00     0.573 C 
ATOM     29  F   UNL     1      -3.807  -9.148   0.758  1.00  0.00    -0.132 F 
ATOM     30  F   UNL     1      -2.160 -10.226  -0.237  1.00  0.00    -0.132 F 
ATOM     31  F   UNL     1      -2.749 -10.749   1.804  1.00  0.00    -0.132 F 
ENDBRANCH  27  28
ENDBRANCH  17  27
ENDBRANCH   7   8
ENDBRANCH   4   7
ENDBRANCH   2   3
ENDBRANCH   1   2
BRANCH   1  32
ATOM     32  C   UNL     1       4.225  -6.814  -1.713  1.00  0.00     0.023 C 
BRANCH  32  33
ATOM     33  C   UNL     1       5.237  -7.949  -1.590  1.00  0.00     0.116 C 
BRANCH  33  34
ATOM     34  N   UNL     1       4.638  -9.270  -1.697  1.00  0.00    -0.352 N 
ATOM     35  C   UNL     1       5.187 -10.435  -2.173  1.00  0.00     0.251 C 
ATOM     36  H   UNL     1       3.707  -9.338  -1.384  1.00  0.00     0.163 HD
ATOM     37  O   UNL     1       4.486 -11.439  -2.268  1.00  0.00    -0.269 OA
BRANCH  35  38
ATOM     38  C   UNL     1       6.600 -10.476  -2.613  1.00  0.00     0.039 A 
ATOM     39  C   UNL     1       6.901 -11.113  -3.822  1.00  0.00     0.014 A 
ATOM     40  C   UNL     1       7.624  -9.909  -1.849  1.00  0.00     0.014 A 
ATOM     41  C   UNL     1       8.213 -11.122  -4.298  1.00  0.00     0.010 A 
ATOM     42  C   UNL     1       8.928  -9.884  -2.342  1.00  0.00     0.010 A 
ATOM     43  C   UNL     1       9.230 -10.480  -3.575  1.00  0.00    -0.014 A 
BRANCH  43  44
ATOM     44  C   UNL     1      10.611 -10.402  -4.104  1.00  0.00     0.031 A 
ATOM     45  C   UNL     1      11.713 -11.198  -3.470  1.00  0.00     0.074 A 
ATOM     46  C   UNL     1      10.884  -9.560  -5.118  1.00  0.00     0.049 A 
ATOM     47  N   UNL     1      12.995 -11.185  -3.732  1.00  0.00    -0.248 NA
ATOM     48  C   UNL     1      11.325 -12.116  -2.389  1.00  0.00     0.031 C 
ATOM     49  C   UNL     1       9.905  -8.713  -5.801  1.00  0.00     0.029 A 
ATOM     50  N   UNL     1      12.069  -9.273  -5.744  1.00  0.00    -0.354 N 
ATOM     51  C   UNL     1      13.573 -12.064  -2.828  1.00  0.00     0.074 A 
ATOM     52  C   UNL     1      12.502 -12.594  -2.009  1.00  0.00     0.031 C 
ATOM     53  C   UNL     1      10.527  -8.014  -6.764  1.00  0.00     0.029 A 
ATOM     54  C   UNL     1      11.949  -8.345  -6.748  1.00  0.00     0.049 A 
ATOM     55  H   UNL     1      12.925  -9.692  -5.497  1.00  0.00     0.167 HD
ATOM     56  C   UNL     1      14.878 -12.400  -2.691  1.00  0.00     0.037 A 
ATOM     57  C   UNL     1      12.881  -7.815  -7.562  1.00  0.00     0.037 A 
ATOM     58  C   UNL     1      15.941 -11.909  -3.525  1.00  0.00     0.049 A 
ATOM     59  C   UNL     1      14.315  -8.232  -7.420  1.00  0.00     0.074 A 
ATOM     60  C   UNL     1      17.287 -12.231  -3.493  1.00  0.00     0.029 A 
ATOM     61  N   UNL     1      15.775 -10.990  -4.550  1.00  0.00    -0.354 N 
ATOM     62  N   UNL     1      14.843  -9.078  -6.569  1.00  0.00    -0.248 NA
ATOM     63  C   UNL     1      15.278  -7.620  -8.345  1.00  0.00     0.031 C 
ATOM     64  C   UNL     1      17.936 -11.502  -4.498  1.00  0.00     0.029 A 
ATOM     65  C   UNL     1      16.992 -10.731  -5.158  1.00  0.00     0.049 A 
ATOM     66  H   UNL     1      14.917 -10.581  -4.808  1.00  0.00     0.167 HD
ATOM     67  C   UNL     1      16.201  -9.107  -6.859  1.00  0.00     0.074 A 
ATOM     68  C   UNL     1      16.413  -8.195  -7.966  1.00  0.00     0.031 C 
ATOM     69  C   UNL     1      17.182  -9.825  -6.261  1.00  0.00     0.037 A 
BRANCH  56  70
ATOM     70  C   UNL     1      15.210 -13.344  -1.575  1.00  0.00     0.058 A 
ATOM     71  C   UNL     1      15.032 -14.729  -1.713  1.00  0.00     0.135 A 
ATOM     72  C   UNL     1      15.663 -12.854  -0.341  1.00  0.00     0.135 A 
ATOM     73  F   UNL     1      14.581 -15.239  -2.870  1.00  0.00    -0.206 F 
ATOM     74  C   UNL     1      15.258 -15.597  -0.650  1.00  0.00     0.059 A 
ATOM     75  C   UNL     1      15.905 -13.705   0.732  1.00  0.00     0.059 A 
ATOM     76  F   UNL     1      15.839 -11.536  -0.160  1.00  0.00    -0.206 F 
ATOM     77  C   UNL     1      15.677 -15.073   0.574  1.00  0.00     0.060 A 
BRANCH  77  78
ATOM     78  S   UNL     1      15.920 -16.180   1.980  1.00  0.00     0.124 S 
ATOM     79  O   UNL     1      14.601 -16.145   2.604  1.00  0.00    -0.237 OA
ATOM     80  O   UNL     1      16.283 -17.443   1.344  1.00  0.00    -0.237 OA
ATOM     81  O   UNL     1      16.991 -15.530   2.728  1.00  0.00    -0.744 OA
ENDBRANCH  77  78
ENDBRANCH  56  70
BRANCH  57  82
ATOM     82  C   UNL     1      12.467  -6.849  -8.605  1.00  0.00     0.058 A 
ATOM     83  C   UNL     1      12.229  -7.279  -9.917  1.00  0.00     0.135 A 
ATOM     84  C   UNL     1      12.240  -5.500  -8.299  1.00  0.00     0.135 A 
ATOM     85  F   UNL     1      12.435  -8.563 -10.249  1.00  0.00    -0.206 F 
ATOM     86  C   UNL     1      11.771  -6.405 -10.895  1.00  0.00     0.059 A 
ATOM     87  C   UNL     1      11.774  -4.607  -9.258  1.00  0.00     0.059 A 
ATOM     88  F   UNL     1      12.444  -5.051  -7.051  1.00  0.00    -0.206 F 
ATOM     89  C   UNL     1      11.543  -5.070 -10.555  1.00  0.00     0.060 A 
BRANCH  89  90
ATOM     90  S   UNL     1      10.858  -3.953 -11.799  1.00  0.00     0.124 S 
ATOM     91  O   UNL     1      12.062  -3.517 -12.496  1.00  0.00    -0.237 OA
ATOM     92  O   UNL     1       9.966  -4.827 -12.554  1.00  0.00    -0.237 OA
ATOM     93  O   UNL     1      10.187  -2.937 -10.993  1.00  0.00    -0.744 OA
ENDBRANCH  89  90
ENDBRANCH  57  82
BRANCH  69  94
ATOM     94  C   UNL     1      18.568  -9.660  -6.805  1.00  0.00     0.058 A 
ATOM     95  C   UNL     1      19.396  -8.613  -6.375  1.00  0.00     0.135 A 
ATOM     96  C   UNL     1      19.080 -10.569  -7.742  1.00  0.00     0.135 A 
ATOM     97  F   UNL     1      18.943  -7.716  -5.485  1.00  0.00    -0.206 F 
ATOM     98  C   UNL     1      20.689  -8.464  -6.866  1.00  0.00     0.059 A 
ATOM     99  C   UNL     1      20.372 -10.443  -8.242  1.00  0.00     0.059 A 
ATOM    100  F   UNL     1      18.323 -11.585  -8.182  1.00  0.00    -0.206 F 
ATOM    101  C   UNL     1      21.166  -9.381  -7.805  1.00  0.00     0.060 A 
BRANCH 101 102
ATOM    102  S   UNL     1      22.853  -9.212  -8.428  1.00  0.00     0.124 S 
ATOM    103  O   UNL     1      22.657  -8.312  -9.560  1.00  0.00    -0.237 OA
ATOM    104  O   UNL     1      23.566  -8.647  -7.287  1.00  0.00    -0.237 OA
ATOM    105  O   UNL     1      23.218 -10.584  -8.768  1.00  0.00    -0.744 OA
ENDBRANCH 101 102
ENDBRANCH  69  94
ENDBRANCH  43  44
ENDBRANCH  35  38
ENDBRANCH  33  34
ENDBRANCH  32  33
ENDBRANCH   1  32
TORSDOF 19
