REMARK SMILES Cc1c[nH]c(C[N@H+]2C[C@@H]3CN(S(C)(=O)=O)C[C@]3(C(=O)NCCCCNC(=O)c3ccc(-c4c5nc(c(-c6c(F)cc(S(=O)(=O)[O-])cc6F)c6ccc([nH]6)c(-c6c(F)cc(S(=O)(=O)[O-])cc6F)c6nc(c(-c7c(F)cc(S(=O)(=O)[O-])cc7F)c7ccc4[nH]7)C=C6)C=C5)cc3)C2)n1
REMARK SMILES IDX 23 1 22 2 21 3 20 4 18 5 19 6 17 8 7 9 8 10 94 11 9 13 10 14
REMARK SMILES IDX 16 15 11 16 6 17 5 18 1 19 2 20 3 21 95 22 4 23 12 25 13 26
REMARK SMILES IDX 14 27 15 28 24 29 25 30 26 31 27 33 28 34 29 35 93 36 30 37
REMARK SMILES IDX 92 38 31 39 32 40 33 41 86 42 34 43 91 44 85 45 87 46 35 47
REMARK SMILES IDX 90 48 84 49 83 50 36 52 70 53 49 54 69 55 50 56 53 57 68 58
REMARK SMILES IDX 88 59 51 60 52 61 67 63 89 64 54 65 37 66 38 67 47 68 39 69
REMARK SMILES IDX 40 70 46 71 48 72 41 73 42 74 43 75 44 76 45 77 71 78 72 79
REMARK SMILES IDX 81 80 73 81 74 82 80 83 82 84 75 85 76 86 77 87 78 88 79 89
REMARK SMILES IDX 55 90 56 91 65 92 57 93 58 94 64 95 66 96 59 97 60 98 61 99
REMARK SMILES IDX 62 100 63 101
REMARK H PARENT 20 7 7 12 4 24 25 32 87 51 53 62
REMARK Flexibility Score: inf
ROOT
ATOM      1  C   UNL     1       0.218   8.482   4.885  1.00  0.00     0.023 C 
ENDROOT
BRANCH   1   2
ATOM      2  C   UNL     1      -0.060   6.991   4.940  1.00  0.00     0.023 C 
BRANCH   2   3
ATOM      3  C   UNL     1      -1.082   6.496   3.908  1.00  0.00     0.116 C 
BRANCH   3   4
ATOM      4  N   UNL     1      -0.395   6.045   2.712  1.00  0.00    -0.355 N 
ATOM      5  C   UNL     1       0.005   4.753   2.434  1.00  0.00     0.233 C 
ATOM      6  O   UNL     1       1.027   4.600   1.766  1.00  0.00    -0.274 OA
ATOM      7  H   UNL     1      -0.195   6.728   2.031  1.00  0.00     0.163 HD
BRANCH   5   8
ATOM      8  C   UNL     1      -0.910   3.581   2.977  1.00  0.00     0.121 C 
ATOM      9  N   UNL     1      -2.372   2.363   1.292  1.00  0.00    -0.327 N 
ATOM     10  C   UNL     1      -2.228   1.515   2.446  1.00  0.00     0.268 C 
ATOM     11  C   UNL     1      -1.310   3.388   1.432  1.00  0.00     0.281 C 
ATOM     12  H   UNL     1      -3.301   2.783   1.264  1.00  0.00     0.348 HD
ATOM     13  C   UNL     1      -0.915   1.971   3.048  1.00  0.00     0.082 C 
ATOM     14  C   UNL     1      -0.856   1.460   4.486  1.00  0.00     0.113 C 
ATOM     15  C   UNL     1       0.118   3.525   4.169  1.00  0.00     0.125 C 
ATOM     16  N   UNL     1      -0.475   2.651   5.210  1.00  0.00    -0.200 NA
BRANCH   9  17
ATOM     17  C   UNL     1      -2.306   1.638   0.003  1.00  0.00     0.338 C 
BRANCH  17  18
ATOM     18  C   UNL     1      -1.155   0.676  -0.138  1.00  0.00     0.161 A 
ATOM     19  C   UNL     1       2.285  -0.220  -0.103  1.00  0.00     0.068 C 
ATOM     20  C   UNL     1       0.807  -0.215  -0.145  1.00  0.00     0.056 A 
ATOM     21  C   UNL     1      -0.082  -1.265  -0.111  1.00  0.00     0.107 A 
ATOM     22  N   UNL     1       0.127   0.974  -0.191  1.00  0.00    -0.233 NA
ATOM     23  N   UNL     1      -1.323  -0.689  -0.141  1.00  0.00    -0.344 N 
ATOM     24  H   UNL     1      -2.183  -1.167  -0.161  1.00  0.00     0.167 HD
ENDBRANCH  17  18
ENDBRANCH   9  17
BRANCH  16  25
ATOM     25  S   UNL     1      -1.526   3.254   6.380  1.00  0.00     0.211 S 
ATOM     26  C   UNL     1      -3.072   3.529   5.519  1.00  0.00     0.176 C 
ATOM     27  O   UNL     1      -1.764   2.192   7.332  1.00  0.00    -0.213 OA
ATOM     28  O   UNL     1      -1.026   4.542   6.812  1.00  0.00    -0.213 OA
ENDBRANCH  16  25
ENDBRANCH   5   8
ENDBRANCH   3   4
ENDBRANCH   2   3
ENDBRANCH   1   2
BRANCH   1  29
ATOM     29  C   UNL     1      -1.006   9.338   5.142  1.00  0.00     0.116 C 
BRANCH  29  30
ATOM     30  N   UNL     1      -1.704   9.037   6.390  1.00  0.00    -0.352 N 
ATOM     31  C   UNL     1      -2.373   9.935   7.193  1.00  0.00     0.251 C 
ATOM     32  H   UNL     1      -1.694   8.099   6.688  1.00  0.00     0.163 HD
ATOM     33  O   UNL     1      -2.887   9.605   8.253  1.00  0.00    -0.269 OA
BRANCH  31  34
ATOM     34  C   UNL     1      -2.400  11.334   6.732  1.00  0.00     0.039 A 
ATOM     35  C   UNL     1      -1.726  12.303   7.475  1.00  0.00     0.014 A 
ATOM     36  C   UNL     1      -2.875  11.601   5.446  1.00  0.00     0.014 A 
ATOM     37  C   UNL     1      -1.454  13.537   6.885  1.00  0.00     0.010 A 
ATOM     38  C   UNL     1      -2.500  12.781   4.828  1.00  0.00     0.010 A 
ATOM     39  C   UNL     1      -1.794  13.765   5.542  1.00  0.00    -0.014 A 
BRANCH  39  40
ATOM     40  C   UNL     1      -1.468  15.036   4.848  1.00  0.00     0.031 A 
ATOM     41  C   UNL     1      -2.597  15.850   4.277  1.00  0.00     0.074 A 
ATOM     42  C   UNL     1      -0.187  15.403   4.645  1.00  0.00     0.049 A 
ATOM     43  N   UNL     1      -2.551  16.887   3.483  1.00  0.00    -0.248 NA
ATOM     44  C   UNL     1      -3.963  15.405   4.605  1.00  0.00     0.031 C 
ATOM     45  C   UNL     1       0.994  14.677   5.119  1.00  0.00     0.029 A 
ATOM     46  N   UNL     1       0.338  16.474   3.964  1.00  0.00    -0.354 N 
ATOM     47  C   UNL     1      -3.875  17.194   3.195  1.00  0.00     0.074 A 
ATOM     48  C   UNL     1      -4.697  16.195   3.838  1.00  0.00     0.031 C 
ATOM     49  C   UNL     1       2.100  15.334   4.732  1.00  0.00     0.029 A 
ATOM     50  C   UNL     1       1.714  16.496   3.938  1.00  0.00     0.049 A 
ATOM     51  H   UNL     1      -0.219  17.162   3.533  1.00  0.00     0.167 HD
ATOM     52  C   UNL     1      -4.364  18.234   2.482  1.00  0.00     0.037 A 
ATOM     53  C   UNL     1       2.563  17.346   3.327  1.00  0.00     0.037 A 
ATOM     54  C   UNL     1      -3.537  19.244   1.882  1.00  0.00     0.049 A 
ATOM     55  C   UNL     1       1.997  18.494   2.530  1.00  0.00     0.074 A 
ATOM     56  C   UNL     1      -3.930  20.372   1.186  1.00  0.00     0.029 A 
ATOM     57  N   UNL     1      -2.150  19.251   1.912  1.00  0.00    -0.354 N 
ATOM     58  N   UNL     1       0.740  18.799   2.304  1.00  0.00    -0.248 NA
ATOM     59  C   UNL     1       2.958  19.415   1.907  1.00  0.00     0.031 C 
ATOM     60  C   UNL     1      -2.780  21.033   0.747  1.00  0.00     0.029 A 
ATOM     61  C   UNL     1      -1.671  20.355   1.230  1.00  0.00     0.049 A 
ATOM     62  H   UNL     1      -1.590  18.571   2.352  1.00  0.00     0.167 HD
ATOM     63  C   UNL     1       0.761  19.970   1.553  1.00  0.00     0.074 A 
ATOM     64  C   UNL     1       2.154  20.316   1.358  1.00  0.00     0.031 C 
ATOM     65  C   UNL     1      -0.278  20.698   1.076  1.00  0.00     0.037 A 
BRANCH  52  66
ATOM     66  C   UNL     1      -5.856  18.329   2.319  1.00  0.00     0.058 A 
ATOM     67  C   UNL     1      -6.704  18.603   3.405  1.00  0.00     0.135 A 
ATOM     68  C   UNL     1      -6.444  18.166   1.055  1.00  0.00     0.135 A 
ATOM     69  F   UNL     1      -6.198  18.746   4.641  1.00  0.00    -0.206 F 
ATOM     70  C   UNL     1      -8.083  18.679   3.249  1.00  0.00     0.059 A 
ATOM     71  C   UNL     1      -7.819  18.274   0.869  1.00  0.00     0.059 A 
ATOM     72  F   UNL     1      -5.682  17.897  -0.017  1.00  0.00    -0.206 F 
ATOM     73  C   UNL     1      -8.631  18.516   1.976  1.00  0.00     0.060 A 
BRANCH  73  74
ATOM     74  S   UNL     1     -10.422  18.629   1.791  1.00  0.00     0.124 S 
ATOM     75  O   UNL     1     -10.859  17.391   2.429  1.00  0.00    -0.237 OA
ATOM     76  O   UNL     1     -10.732  19.858   2.514  1.00  0.00    -0.237 OA
ATOM     77  O   UNL     1     -10.612  18.690   0.345  1.00  0.00    -0.744 OA
ENDBRANCH  73  74
ENDBRANCH  52  66
BRANCH  53  78
ATOM     78  C   UNL     1       4.035  17.160   3.458  1.00  0.00     0.058 A 
ATOM     79  C   UNL     1       4.817  18.072   4.184  1.00  0.00     0.135 A 
ATOM     80  C   UNL     1       4.691  16.069   2.866  1.00  0.00     0.135 A 
ATOM     81  F   UNL     1       4.240  19.137   4.763  1.00  0.00    -0.206 F 
ATOM     82  C   UNL     1       6.195  17.922   4.302  1.00  0.00     0.059 A 
ATOM     83  C   UNL     1       6.064  15.881   2.994  1.00  0.00     0.059 A 
ATOM     84  F   UNL     1       3.990  15.157   2.174  1.00  0.00    -0.206 F 
ATOM     85  C   UNL     1       6.810  16.820   3.705  1.00  0.00     0.060 A 
BRANCH  85  86
ATOM     86  S   UNL     1       8.594  16.616   3.899  1.00  0.00     0.124 S 
ATOM     87  O   UNL     1       9.107  17.695   3.063  1.00  0.00    -0.237 OA
ATOM     88  O   UNL     1       8.766  16.787   5.339  1.00  0.00    -0.237 OA
ATOM     89  O   UNL     1       8.834  15.264   3.403  1.00  0.00    -0.744 OA
ENDBRANCH  85  86
ENDBRANCH  53  78
BRANCH  65  90
ATOM     90  C   UNL     1       0.029  21.983   0.358  1.00  0.00     0.058 A 
ATOM     91  C   UNL     1       0.552  22.003  -0.943  1.00  0.00     0.135 A 
ATOM     92  C   UNL     1      -0.315  23.211   0.948  1.00  0.00     0.135 A 
ATOM     93  F   UNL     1       0.903  20.858  -1.549  1.00  0.00    -0.206 F 
ATOM     94  C   UNL     1       0.728  23.198  -1.634  1.00  0.00     0.059 A 
ATOM     95  C   UNL     1      -0.177  24.414   0.265  1.00  0.00     0.059 A 
ATOM     96  F   UNL     1      -0.830  23.245   2.188  1.00  0.00    -0.206 F 
ATOM     97  C   UNL     1       0.348  24.397  -1.026  1.00  0.00     0.060 A 
BRANCH  97  98
ATOM     98  S   UNL     1       0.508  25.931  -1.964  1.00  0.00     0.124 S 
ATOM     99  O   UNL     1       1.955  26.111  -1.991  1.00  0.00    -0.237 OA
ATOM    100  O   UNL     1      -0.112  25.580  -3.239  1.00  0.00    -0.237 OA
ATOM    101  O   UNL     1      -0.231  26.901  -1.161  1.00  0.00    -0.744 OA
ENDBRANCH  97  98
ENDBRANCH  65  90
ENDBRANCH  39  40
ENDBRANCH  31  34
ENDBRANCH  29  30
ENDBRANCH   1  29
TORSDOF 17
