REMARK SMILES C=CCc1c(C)nn(CC(=O)NCCCCNC(=O)c2ccc(-c3c4nc(c(-c5c(F)cc(S(=O)(=O)[O-])cc5F)c5ccc([nH]5)c(-c5c(F)cc(S(=O)(=O)[O-])cc5F)c5nc(c(-c6c(F)cc(S(=O)(=O)[O-])cc6F)c6ccc3[nH]6)C=C5)C=C4)cc2)c1-c1ccccc1
REMARK SMILES IDX 14 1 13 2 12 3 10 4 11 5 9 7 8 8 4 9 5 10 86 11 6 12 7 13
REMARK SMILES IDX 3 14 2 15 1 16 87 17 88 18 92 19 89 20 91 21 90 22 15 23
REMARK SMILES IDX 16 24 17 25 18 26 19 28 20 29 21 30 85 31 22 32 84 33 23 34
REMARK SMILES IDX 24 35 25 36 78 37 26 38 83 39 77 40 79 41 27 42 82 43 76 44
REMARK SMILES IDX 75 45 28 47 62 48 41 49 61 50 42 51 45 52 60 53 80 54 43 55
REMARK SMILES IDX 44 56 59 58 81 59 46 60 29 61 30 62 39 63 31 64 32 65 38 66
REMARK SMILES IDX 40 67 33 68 34 69 35 70 36 71 37 72 63 73 64 74 73 75 65 76
REMARK SMILES IDX 66 77 72 78 74 79 67 80 68 81 69 82 70 83 71 84 47 85 48 86
REMARK SMILES IDX 57 87 49 88 50 89 56 90 58 91 51 92 52 93 53 94 54 95 55 96
REMARK H PARENT 12 6 17 27 79 46 45 57
REMARK Flexibility Score: inf
ROOT
ATOM      1  C   UNL     1       0.939  -0.202  -4.450  1.00  0.00     0.023 C 
ENDROOT
BRANCH   1   2
ATOM      2  C   UNL     1       0.228   1.019  -5.042  1.00  0.00     0.116 C 
BRANCH   2   3
ATOM      3  N   UNL     1      -0.616   0.679  -6.166  1.00  0.00    -0.354 N 
ATOM      4  C   UNL     1      -1.967   0.463  -6.200  1.00  0.00     0.241 C 
ATOM      5  O   UNL     1      -2.464   0.172  -7.293  1.00  0.00    -0.273 OA
ATOM      6  H   UNL     1      -0.153   0.592  -7.030  1.00  0.00     0.163 HD
BRANCH   4   7
ATOM      7  C   UNL     1      -2.843   0.712  -4.989  1.00  0.00     0.244 C 
BRANCH   7   8
ATOM      8  N   UNL     1      -2.552  -0.138  -3.845  1.00  0.00    -0.255 N 
ATOM      9  C   UNL     1      -1.883  -0.947  -1.906  1.00  0.00     0.005 A 
ATOM     10  C   UNL     1      -2.201  -1.973  -2.841  1.00  0.00     0.064 A 
ATOM     11  C   UNL     1      -2.191   0.243  -2.563  1.00  0.00     0.073 A 
ATOM     12  C   UNL     1      -2.071  -3.446  -2.708  1.00  0.00     0.069 C 
ATOM     13  N   UNL     1      -2.654  -1.473  -3.992  1.00  0.00    -0.177 NA
BRANCH   9  14
ATOM     14  C   UNL     1      -1.347  -1.126  -0.521  1.00  0.00     0.066 C 
BRANCH  14  15
ATOM     15  C   UNL     1       0.159  -1.160  -0.495  1.00  0.00    -0.030 C 
ATOM     16  C   UNL     1       0.920  -0.318   0.218  1.00  0.00     0.004 C 
ENDBRANCH  14  15
ENDBRANCH   9  14
BRANCH  11  17
ATOM     17  C   UNL     1      -2.042   1.639  -2.135  1.00  0.00     0.000 A 
ATOM     18  C   UNL     1      -3.119   2.531  -2.187  1.00  0.00     0.010 A 
ATOM     19  C   UNL     1      -0.783   2.129  -1.761  1.00  0.00     0.010 A 
ATOM     20  C   UNL     1      -2.924   3.892  -1.933  1.00  0.00     0.001 A 
ATOM     21  C   UNL     1      -0.588   3.485  -1.500  1.00  0.00     0.001 A 
ATOM     22  C   UNL     1      -1.657   4.369  -1.600  1.00  0.00     0.000 A 
ENDBRANCH  11  17
ENDBRANCH   7   8
ENDBRANCH   4   7
ENDBRANCH   2   3
ENDBRANCH   1   2
BRANCH   1  23
ATOM     23  C   UNL     1       2.070  -0.783  -5.309  1.00  0.00     0.023 C 
BRANCH  23  24
ATOM     24  C   UNL     1       3.259   0.148  -5.512  1.00  0.00     0.116 C 
BRANCH  24  25
ATOM     25  N   UNL     1       3.957   0.467  -4.266  1.00  0.00    -0.352 N 
ATOM     26  C   UNL     1       4.941   1.423  -4.065  1.00  0.00     0.251 C 
ATOM     27  H   UNL     1       3.697  -0.060  -3.476  1.00  0.00     0.163 HD
ATOM     28  O   UNL     1       5.725   1.333  -3.136  1.00  0.00    -0.269 OA
BRANCH  26  29
ATOM     29  C   UNL     1       5.003   2.561  -5.002  1.00  0.00     0.039 A 
ATOM     30  C   UNL     1       6.213   3.032  -5.515  1.00  0.00     0.014 A 
ATOM     31  C   UNL     1       3.793   3.119  -5.404  1.00  0.00     0.014 A 
ATOM     32  C   UNL     1       6.180   4.010  -6.508  1.00  0.00     0.010 A 
ATOM     33  C   UNL     1       3.756   3.951  -6.492  1.00  0.00     0.010 A 
ATOM     34  C   UNL     1       4.943   4.448  -7.014  1.00  0.00    -0.014 A 
BRANCH  34  35
ATOM     35  C   UNL     1       4.876   5.360  -8.151  1.00  0.00     0.031 A 
ATOM     36  C   UNL     1       5.665   4.938  -9.340  1.00  0.00     0.074 A 
ATOM     37  C   UNL     1       4.027   6.410  -8.222  1.00  0.00     0.049 A 
ATOM     38  N   UNL     1       6.778   5.440  -9.758  1.00  0.00    -0.248 NA
ATOM     39  C   UNL     1       5.255   3.725 -10.065  1.00  0.00     0.031 C 
ATOM     40  C   UNL     1       2.955   6.794  -7.295  1.00  0.00     0.029 A 
ATOM     41  N   UNL     1       3.894   7.325  -9.218  1.00  0.00    -0.354 N 
ATOM     42  C   UNL     1       7.088   4.768 -10.937  1.00  0.00     0.074 A 
ATOM     43  C   UNL     1       6.236   3.607 -10.964  1.00  0.00     0.031 C 
ATOM     44  C   UNL     1       2.146   7.702  -7.885  1.00  0.00     0.029 A 
ATOM     45  C   UNL     1       2.745   8.105  -9.144  1.00  0.00     0.049 A 
ATOM     46  H   UNL     1       4.559   7.428  -9.937  1.00  0.00     0.167 HD
ATOM     47  C   UNL     1       7.853   5.354 -11.902  1.00  0.00     0.037 A 
ATOM     48  C   UNL     1       2.316   9.013 -10.056  1.00  0.00     0.037 A 
ATOM     49  C   UNL     1       8.508   6.536 -11.393  1.00  0.00     0.049 A 
ATOM     50  C   UNL     1       3.500   9.404 -10.864  1.00  0.00     0.074 A 
ATOM     51  C   UNL     1       9.383   6.789 -10.352  1.00  0.00     0.029 A 
ATOM     52  N   UNL     1       7.971   7.756 -11.729  1.00  0.00    -0.354 N 
ATOM     53  N   UNL     1       4.517  10.068 -10.384  1.00  0.00    -0.248 NA
ATOM     54  C   UNL     1       3.768   8.651 -12.079  1.00  0.00     0.031 C 
ATOM     55  C   UNL     1       8.942   8.027  -9.796  1.00  0.00     0.029 A 
ATOM     56  C   UNL     1       7.885   8.497 -10.577  1.00  0.00     0.049 A 
ATOM     57  H   UNL     1       7.699   8.045 -12.630  1.00  0.00     0.167 HD
ATOM     58  C   UNL     1       5.631   9.472 -10.957  1.00  0.00     0.074 A 
ATOM     59  C   UNL     1       5.104   8.669 -12.060  1.00  0.00     0.031 C 
ATOM     60  C   UNL     1       6.837   9.460 -10.315  1.00  0.00     0.037 A 
BRANCH  47  61
ATOM     61  C   UNL     1       7.733   5.091 -13.386  1.00  0.00     0.058 A 
ATOM     62  C   UNL     1       8.689   5.649 -14.263  1.00  0.00     0.135 A 
ATOM     63  C   UNL     1       6.581   4.561 -14.006  1.00  0.00     0.135 A 
ATOM     64  F   UNL     1       9.825   6.184 -13.787  1.00  0.00    -0.206 F 
ATOM     65  C   UNL     1       8.477   5.746 -15.639  1.00  0.00     0.059 A 
ATOM     66  C   UNL     1       6.375   4.598 -15.381  1.00  0.00     0.059 A 
ATOM     67  F   UNL     1       5.553   4.070 -13.304  1.00  0.00    -0.206 F 
ATOM     68  C   UNL     1       7.307   5.231 -16.186  1.00  0.00     0.060 A 
BRANCH  68  69
ATOM     69  S   UNL     1       6.982   5.448 -17.943  1.00  0.00     0.124 S 
ATOM     70  O   UNL     1       6.758   6.887 -18.021  1.00  0.00    -0.237 OA
ATOM     71  O   UNL     1       8.220   4.960 -18.542  1.00  0.00    -0.237 OA
ATOM     72  O   UNL     1       5.809   4.611 -18.173  1.00  0.00    -0.744 OA
ENDBRANCH  68  69
ENDBRANCH  47  61
BRANCH  48  73
ATOM     73  C   UNL     1       0.924   9.309 -10.483  1.00  0.00     0.058 A 
ATOM     74  C   UNL     1       0.630  10.439 -11.267  1.00  0.00     0.135 A 
ATOM     75  C   UNL     1      -0.090   8.334 -10.392  1.00  0.00     0.135 A 
ATOM     76  F   UNL     1       1.544  11.410 -11.418  1.00  0.00    -0.206 F 
ATOM     77  C   UNL     1      -0.570  10.565 -11.975  1.00  0.00     0.059 A 
ATOM     78  C   UNL     1      -1.297   8.441 -11.082  1.00  0.00     0.059 A 
ATOM     79  F   UNL     1       0.103   7.199  -9.703  1.00  0.00    -0.206 F 
ATOM     80  C   UNL     1      -1.518   9.546 -11.897  1.00  0.00     0.060 A 
BRANCH  80  81
ATOM     81  S   UNL     1      -2.979   9.609 -12.963  1.00  0.00     0.124 S 
ATOM     82  O   UNL     1      -3.741  10.701 -12.366  1.00  0.00    -0.237 OA
ATOM     83  O   UNL     1      -2.395   9.881 -14.272  1.00  0.00    -0.237 OA
ATOM     84  O   UNL     1      -3.567   8.281 -12.810  1.00  0.00    -0.744 OA
ENDBRANCH  80  81
ENDBRANCH  48  73
BRANCH  60  85
ATOM     85  C   UNL     1       7.026  10.374  -9.129  1.00  0.00     0.058 A 
ATOM     86  C   UNL     1       6.273  10.327  -7.941  1.00  0.00     0.135 A 
ATOM     87  C   UNL     1       8.106  11.270  -9.161  1.00  0.00     0.135 A 
ATOM     88  F   UNL     1       5.297   9.424  -7.775  1.00  0.00    -0.206 F 
ATOM     89  C   UNL     1       6.540  11.178  -6.865  1.00  0.00     0.059 A 
ATOM     90  C   UNL     1       8.412  12.102  -8.088  1.00  0.00     0.059 A 
ATOM     91  F   UNL     1       8.907  11.321 -10.238  1.00  0.00    -0.206 F 
ATOM     92  C   UNL     1       7.609  12.069  -6.952  1.00  0.00     0.060 A 
BRANCH  92  93
ATOM     93  S   UNL     1       7.970  13.156  -5.556  1.00  0.00     0.124 S 
ATOM     94  O   UNL     1       6.848  14.087  -5.595  1.00  0.00    -0.237 OA
ATOM     95  O   UNL     1       7.986  12.230  -4.427  1.00  0.00    -0.237 OA
ATOM     96  O   UNL     1       9.269  13.730  -5.896  1.00  0.00    -0.744 OA
ENDBRANCH  92  93
ENDBRANCH  60  85
ENDBRANCH  34  35
ENDBRANCH  26  29
ENDBRANCH  24  25
ENDBRANCH  23  24
ENDBRANCH   1  23
TORSDOF 18
