REMARK SMILES O=C(NCCCCNC(=O)c1ccc2nc(-c3c[nH]nc3-c3ccc(F)cc3F)[nH]c2c1)c1ccc(-c2c3nc(c(-c4c(F)cc(S(=O)(=O)[O-])cc4F)c4ccc([nH]4)c(-c4c(F)cc(S(=O)(=O)[O-])cc4F)c4nc(c(-c5c(F)cc(S(=O)(=O)[O-])cc5F)c5ccc2[nH]5)C=C4)C=C3)cc1
REMARK SMILES IDX 5 1 4 2 3 3 1 4 2 5 33 7 34 8 98 9 35 10 97 11 36 12 37 13
REMARK SMILES IDX 38 14 91 15 39 16 96 17 90 18 92 19 40 20 95 21 89 22 88 23
REMARK SMILES IDX 41 25 75 26 54 27 74 28 55 29 58 30 73 31 93 32 56 33 57 34
REMARK SMILES IDX 72 36 94 37 59 38 42 39 43 40 52 41 44 42 45 43 51 44 53 45
REMARK SMILES IDX 46 46 47 47 48 48 49 49 50 50 76 51 77 52 86 53 78 54 79 55
REMARK SMILES IDX 85 56 87 57 80 58 81 59 82 60 83 61 84 62 60 63 61 64 70 65
REMARK SMILES IDX 62 66 63 67 69 68 71 69 64 70 65 71 66 72 67 73 68 74 6 75
REMARK SMILES IDX 7 76 8 77 9 78 10 80 11 81 12 82 32 83 13 84 31 85 14 86
REMARK SMILES IDX 30 87 15 88 16 89 17 91 18 92 21 93 19 94 20 95 22 97 23 98
REMARK SMILES IDX 28 99 24 100 27 101 29 102 25 103 26 104
REMARK H PARENT 3 6 92 24 58 35 8 79 30 90 19 96
REMARK Flexibility Score: inf
ROOT
ATOM      1  C   UNL     1       4.867  -1.916  -1.677  1.00  0.00     0.023 C 
ENDROOT
BRANCH   1   2
ATOM      2  C   UNL     1       4.553  -0.547  -1.089  1.00  0.00     0.116 C 
BRANCH   2   3
ATOM      3  N   UNL     1       3.126  -0.279  -1.004  1.00  0.00    -0.352 N 
ATOM      4  O   UNL     1       1.152   0.143   0.002  1.00  0.00    -0.269 OA
ATOM      5  C   UNL     1       2.376   0.093   0.088  1.00  0.00     0.251 C 
ATOM      6  H   UNL     1       2.626  -0.377  -1.847  1.00  0.00     0.163 HD
BRANCH   5   7
ATOM      7  C   UNL     1       3.049   0.399   1.369  1.00  0.00     0.039 A 
ATOM      8  C   UNL     1       4.189   1.204   1.397  1.00  0.00     0.014 A 
ATOM      9  C   UNL     1       2.542  -0.143   2.554  1.00  0.00     0.014 A 
ATOM     10  C   UNL     1       4.910   1.334   2.578  1.00  0.00     0.010 A 
ATOM     11  C   UNL     1       3.220   0.066   3.759  1.00  0.00     0.010 A 
ATOM     12  C   UNL     1       4.429   0.778   3.775  1.00  0.00    -0.014 A 
BRANCH  12  13
ATOM     13  C   UNL     1       5.185   1.005   5.033  1.00  0.00     0.031 A 
ATOM     14  C   UNL     1       5.825  -0.136   5.778  1.00  0.00     0.074 A 
ATOM     15  C   UNL     1       5.332   2.270   5.474  1.00  0.00     0.049 A 
ATOM     16  N   UNL     1       6.544  -0.102   6.871  1.00  0.00    -0.248 NA
ATOM     17  C   UNL     1       5.631  -1.488   5.232  1.00  0.00     0.031 C 
ATOM     18  C   UNL     1       4.753   3.454   4.833  1.00  0.00     0.029 A 
ATOM     19  N   UNL     1       6.029   2.778   6.539  1.00  0.00    -0.354 N 
ATOM     20  C   UNL     1       6.878  -1.421   7.152  1.00  0.00     0.074 A 
ATOM     21  C   UNL     1       6.259  -2.237   6.129  1.00  0.00     0.031 C 
ATOM     22  C   UNL     1       5.170   4.552   5.479  1.00  0.00     0.029 A 
ATOM     23  C   UNL     1       5.989   4.150   6.616  1.00  0.00     0.049 A 
ATOM     24  H   UNL     1       6.513   2.215   7.186  1.00  0.00     0.167 HD
ATOM     25  C   UNL     1       7.638  -1.904   8.165  1.00  0.00     0.037 A 
ATOM     26  C   UNL     1       6.540   4.994   7.508  1.00  0.00     0.037 A 
ATOM     27  C   UNL     1       8.259  -1.081   9.173  1.00  0.00     0.049 A 
ATOM     28  C   UNL     1       7.355   4.432   8.635  1.00  0.00     0.074 A 
ATOM     29  C   UNL     1       9.056  -1.474  10.235  1.00  0.00     0.029 A 
ATOM     30  N   UNL     1       8.155   0.301   9.245  1.00  0.00    -0.354 N 
ATOM     31  N   UNL     1       7.657   3.180   8.885  1.00  0.00    -0.248 NA
ATOM     32  C   UNL     1       7.893   5.391   9.607  1.00  0.00     0.031 C 
ATOM     33  C   UNL     1       9.402  -0.335  10.970  1.00  0.00     0.029 A 
ATOM     34  C   UNL     1       8.859   0.774  10.341  1.00  0.00     0.049 A 
ATOM     35  H   UNL     1       7.655   0.863   8.610  1.00  0.00     0.167 HD
ATOM     36  C   UNL     1       8.430   3.201  10.038  1.00  0.00     0.074 A 
ATOM     37  C   UNL     1       8.564   4.591  10.426  1.00  0.00     0.031 C 
ATOM     38  C   UNL     1       8.976   2.162  10.716  1.00  0.00     0.037 A 
BRANCH  25  39
ATOM     39  C   UNL     1       7.835  -3.394   8.247  1.00  0.00     0.058 A 
ATOM     40  C   UNL     1       7.226  -4.141   9.270  1.00  0.00     0.135 A 
ATOM     41  C   UNL     1       8.663  -4.079   7.344  1.00  0.00     0.135 A 
ATOM     42  F   UNL     1       6.425  -3.537  10.161  1.00  0.00    -0.206 F 
ATOM     43  C   UNL     1       7.430  -5.512   9.397  1.00  0.00     0.059 A 
ATOM     44  C   UNL     1       8.863  -5.454   7.438  1.00  0.00     0.059 A 
ATOM     45  F   UNL     1       9.259  -3.419   6.339  1.00  0.00    -0.206 F 
ATOM     46  C   UNL     1       8.242  -6.162   8.468  1.00  0.00     0.060 A 
BRANCH  46  47
ATOM     47  S   UNL     1       8.511  -7.945   8.572  1.00  0.00     0.124 S 
ATOM     48  O   UNL     1       7.761  -8.420   7.413  1.00  0.00    -0.237 OA
ATOM     49  O   UNL     1       9.963  -8.047   8.471  1.00  0.00    -0.237 OA
ATOM     50  O   UNL     1       7.949  -8.300   9.871  1.00  0.00    -0.744 OA
ENDBRANCH  46  47
ENDBRANCH  25  39
BRANCH  26  51
ATOM     51  C   UNL     1       6.337   6.457   7.352  1.00  0.00     0.058 A 
ATOM     52  C   UNL     1       5.074   7.040   7.548  1.00  0.00     0.135 A 
ATOM     53  C   UNL     1       7.388   7.292   6.949  1.00  0.00     0.135 A 
ATOM     54  F   UNL     1       4.032   6.278   7.917  1.00  0.00    -0.206 F 
ATOM     55  C   UNL     1       4.852   8.394   7.324  1.00  0.00     0.059 A 
ATOM     56  C   UNL     1       7.196   8.654   6.743  1.00  0.00     0.059 A 
ATOM     57  F   UNL     1       8.613   6.781   6.754  1.00  0.00    -0.206 F 
ATOM     58  C   UNL     1       5.921   9.194   6.925  1.00  0.00     0.060 A 
BRANCH  58  59
ATOM     59  S   UNL     1       5.669  10.949   6.584  1.00  0.00     0.124 S 
ATOM     60  O   UNL     1       6.358  11.569   7.710  1.00  0.00    -0.237 OA
ATOM     61  O   UNL     1       6.308  11.101   5.281  1.00  0.00    -0.237 OA
ATOM     62  O   UNL     1       4.216  11.085   6.580  1.00  0.00    -0.744 OA
ENDBRANCH  58  59
ENDBRANCH  26  51
BRANCH  38  63
ATOM     63  C   UNL     1       9.782   2.491  11.941  1.00  0.00     0.058 A 
ATOM     64  C   UNL     1      11.180   2.368  11.928  1.00  0.00     0.135 A 
ATOM     65  C   UNL     1       9.166   2.883  13.139  1.00  0.00     0.135 A 
ATOM     66  F   UNL     1      11.815   1.990  10.808  1.00  0.00    -0.206 F 
ATOM     67  C   UNL     1      11.944   2.618  13.064  1.00  0.00     0.059 A 
ATOM     68  C   UNL     1       9.912   3.160  14.280  1.00  0.00     0.059 A 
ATOM     69  F   UNL     1       7.832   3.023  13.200  1.00  0.00    -0.206 F 
ATOM     70  C   UNL     1      11.301   3.023  14.233  1.00  0.00     0.060 A 
BRANCH  70  71
ATOM     71  S   UNL     1      12.252   3.357  15.730  1.00  0.00     0.124 S 
ATOM     72  O   UNL     1      12.160   4.810  15.819  1.00  0.00    -0.237 OA
ATOM     73  O   UNL     1      11.511   2.611  16.742  1.00  0.00    -0.237 OA
ATOM     74  O   UNL     1      13.577   2.830  15.416  1.00  0.00    -0.744 OA
ENDBRANCH  70  71
ENDBRANCH  38  63
ENDBRANCH  12  13
ENDBRANCH   5   7
ENDBRANCH   2   3
ENDBRANCH   1   2
BRANCH   1  75
ATOM     75  C   UNL     1       4.378  -2.137  -3.108  1.00  0.00     0.023 C 
BRANCH  75  76
ATOM     76  C   UNL     1       4.785  -1.054  -4.104  1.00  0.00     0.116 C 
BRANCH  76  77
ATOM     77  N   UNL     1       6.229  -0.915  -4.200  1.00  0.00    -0.352 N 
ATOM     78  C   UNL     1       7.033  -1.109  -5.291  1.00  0.00     0.251 C 
ATOM     79  H   UNL     1       6.689  -0.647  -3.372  1.00  0.00     0.163 HD
ATOM     80  O   UNL     1       8.255  -1.107  -5.190  1.00  0.00    -0.269 OA
BRANCH  78  81
ATOM     81  C   UNL     1       6.414  -1.337  -6.606  1.00  0.00     0.042 A 
ATOM     82  C   UNL     1       5.619  -0.338  -7.184  1.00  0.00     0.016 A 
ATOM     83  C   UNL     1       6.668  -2.557  -7.249  1.00  0.00     0.042 A 
ATOM     84  C   UNL     1       5.051  -0.532  -8.447  1.00  0.00     0.031 A 
ATOM     85  C   UNL     1       6.066  -2.725  -8.495  1.00  0.00     0.067 A 
ATOM     86  C   UNL     1       5.307  -1.738  -9.115  1.00  0.00     0.089 A 
ATOM     87  N   UNL     1       6.043  -3.773  -9.379  1.00  0.00    -0.338 N 
ATOM     88  N   UNL     1       4.941  -2.129 -10.373  1.00  0.00    -0.228 NA
ATOM     89  C   UNL     1       5.402  -3.353 -10.515  1.00  0.00     0.142 A 
ATOM     90  H   UNL     1       6.420  -4.670  -9.225  1.00  0.00     0.168 HD
BRANCH  89  91
ATOM     91  C   UNL     1       5.285  -4.136 -11.765  1.00  0.00     0.063 A 
ATOM     92  C   UNL     1       5.224  -5.504 -11.866  1.00  0.00     0.117 A 
ATOM     93  C   UNL     1       5.237  -3.642 -13.099  1.00  0.00     0.106 A 
ATOM     94  N   UNL     1       5.053  -5.756 -13.195  1.00  0.00    -0.284 N 
ATOM     95  N   UNL     1       5.106  -4.660 -13.968  1.00  0.00    -0.175 NA
ATOM     96  H   UNL     1       4.903  -6.660 -13.555  1.00  0.00     0.189 HD
BRANCH  93  97
ATOM     97  C   UNL     1       5.468  -2.275 -13.558  1.00  0.00     0.039 A 
ATOM     98  C   UNL     1       6.607  -1.578 -13.114  1.00  0.00     0.016 A 
ATOM     99  C   UNL     1       4.598  -1.640 -14.448  1.00  0.00     0.135 A 
ATOM    100  C   UNL     1       6.857  -0.275 -13.546  1.00  0.00     0.040 A 
ATOM    101  C   UNL     1       4.846  -0.341 -14.888  1.00  0.00     0.079 A 
ATOM    102  F   UNL     1       3.492  -2.256 -14.893  1.00  0.00    -0.206 F 
ATOM    103  C   UNL     1       5.974   0.329 -14.432  1.00  0.00     0.126 A 
ATOM    104  F   UNL     1       6.217   1.577 -14.853  1.00  0.00    -0.207 F 
ENDBRANCH  93  97
ENDBRANCH  89  91
ENDBRANCH  78  81
ENDBRANCH  76  77
ENDBRANCH  75  76
ENDBRANCH   1  75
TORSDOF 16
