REMARK SMILES COc1ccc2c(c1)c(Cc1nc(-c3ccc(C(=O)NCCCCNC(=O)c4ccc(-c5c6nc(c(-c7c(F)cc(S(=O)(=O)[O-])cc7F)c7ccc([nH]7)c(-c7c(F)cc(S(=O)(=O)[O-])cc7F)c7nc(c(-c8c(F)cc(S(=O)(=O)[O-])cc8F)c8ccc5[nH]8)C=C7)C=C6)cc4)cc3)cs1)c(C)n2C(=O)c1ccc(Cl)cc1
REMARK SMILES IDX 21 1 20 2 18 3 19 4 17 6 14 7 15 8 95 9 16 10 94 11 13 12
REMARK SMILES IDX 11 13 12 14 97 15 96 16 10 17 9 18 3 19 4 20 8 21 5 22 7 23
REMARK SMILES IDX 6 24 100 25 98 26 99 27 2 28 1 29 101 30 102 31 103 32
REMARK SMILES IDX 104 33 109 34 105 35 108 36 106 37 107 38 22 39 23 40 24 41
REMARK SMILES IDX 25 42 26 43 27 45 28 46 29 47 93 48 30 49 92 50 31 51 32 52
REMARK SMILES IDX 33 53 86 54 34 55 91 56 85 57 87 58 35 59 90 60 84 61 83 62
REMARK SMILES IDX 36 64 70 65 49 66 69 67 50 68 53 69 68 70 88 71 51 72 52 73
REMARK SMILES IDX 67 75 89 76 54 77 37 78 38 79 47 80 39 81 40 82 46 83 48 84
REMARK SMILES IDX 41 85 42 86 43 87 44 88 45 89 71 90 72 91 81 92 73 93 74 94
REMARK SMILES IDX 80 95 82 96 75 97 76 98 77 99 78 100 79 101 55 102 56 103
REMARK SMILES IDX 65 104 57 105 58 106 64 107 66 108 59 109 60 110 61 111
REMARK SMILES IDX 62 112 63 113
REMARK H PARENT 20 5 25 44 87 63 53 74
REMARK Flexibility Score: inf
ROOT
ATOM      1  C   UNL     1      -3.854  -4.540  -4.199  1.00  0.00     0.116 C 
ENDROOT
BRANCH   1   2
ATOM      2  N   UNL     1      -2.812  -4.996  -5.103  1.00  0.00    -0.352 N 
ATOM      3  C   UNL     1      -1.838  -4.289  -5.770  1.00  0.00     0.251 C 
ATOM      4  O   UNL     1      -1.028  -4.902  -6.465  1.00  0.00    -0.269 OA
ATOM      5  H   UNL     1      -2.801  -5.967  -5.263  1.00  0.00     0.163 HD
BRANCH   3   6
ATOM      6  C   UNL     1      -1.784  -2.803  -5.737  1.00  0.00     0.039 A 
ATOM      7  C   UNL     1      -1.956   0.000  -5.912  1.00  0.00     0.001 A 
ATOM      8  C   UNL     1      -1.492  -0.745  -7.001  1.00  0.00     0.011 A 
ATOM      9  C   UNL     1      -2.216  -0.660  -4.704  1.00  0.00     0.011 A 
ATOM     10  C   UNL     1      -1.413  -2.139  -6.915  1.00  0.00     0.014 A 
ATOM     11  C   UNL     1      -2.095  -2.048  -4.606  1.00  0.00     0.014 A 
BRANCH   7  12
ATOM     12  C   UNL     1      -2.131   1.442  -5.978  1.00  0.00     0.081 A 
ATOM     13  C   UNL     1      -2.069   3.479  -5.114  1.00  0.00     0.098 A 
ATOM     14  N   UNL     1      -2.030   2.196  -4.831  1.00  0.00    -0.241 NA
ATOM     15  S   UNL     1      -2.440   3.849  -6.749  1.00  0.00    -0.126 S 
ATOM     16  C   UNL     1      -2.425   2.168  -7.116  1.00  0.00     0.095 A 
BRANCH  13  17
ATOM     17  C   UNL     1      -1.766   4.546  -4.106  1.00  0.00     0.105 C 
BRANCH  17  18
ATOM     18  C   UNL     1      -0.294   4.566  -3.758  1.00  0.00    -0.012 A 
ATOM     19  C   UNL     1       0.891   1.519  -1.769  1.00  0.00     0.119 A 
ATOM     20  C   UNL     1       2.199   1.937  -1.617  1.00  0.00     0.048 A 
ATOM     21  C   UNL     1      -0.010   2.326  -2.461  1.00  0.00     0.057 A 
ATOM     22  C   UNL     1       2.619   3.166  -2.139  1.00  0.00     0.031 A 
ATOM     23  C   UNL     1       0.398   3.557  -3.030  1.00  0.00     0.008 A 
ATOM     24  C   UNL     1       1.730   3.959  -2.898  1.00  0.00     0.057 A 
ATOM     25  N   UNL     1       1.897   5.162  -3.618  1.00  0.00    -0.280 N 
ATOM     26  C   UNL     1       0.630   5.550  -4.090  1.00  0.00     0.028 A 
ATOM     27  C   UNL     1       0.322   6.796  -4.859  1.00  0.00     0.065 C 
BRANCH  19  28
ATOM     28  O   UNL     1       0.406   0.323  -1.317  1.00  0.00    -0.497 OA
ATOM     29  C   UNL     1       0.875  -0.047  -0.025  1.00  0.00     0.278 C 
ENDBRANCH  19  28
BRANCH  25  30
ATOM     30  C   UNL     1       3.130   5.851  -3.813  1.00  0.00     0.262 C 
ATOM     31  O   UNL     1       3.124   6.970  -4.339  1.00  0.00    -0.268 OA
BRANCH  30  32
ATOM     32  C   UNL     1       4.456   5.370  -3.398  1.00  0.00     0.040 A 
ATOM     33  C   UNL     1       5.022   4.224  -3.970  1.00  0.00     0.015 A 
ATOM     34  C   UNL     1       5.120   6.065  -2.380  1.00  0.00     0.015 A 
ATOM     35  C   UNL     1       6.218   3.722  -3.449  1.00  0.00     0.021 A 
ATOM     36  C   UNL     1       6.319   5.564  -1.873  1.00  0.00     0.021 A 
ATOM     37  C   UNL     1       6.851   4.384  -2.394  1.00  0.00     0.041 A 
ATOM     38  Cl  UNL     1       8.287   3.727  -1.711  1.00  0.00    -0.084 Cl
ENDBRANCH  30  32
ENDBRANCH  25  30
ENDBRANCH  17  18
ENDBRANCH  13  17
ENDBRANCH   7  12
ENDBRANCH   3   6
ENDBRANCH   1   2
BRANCH   1  39
ATOM     39  C   UNL     1      -5.186  -5.263  -4.339  1.00  0.00     0.023 C 
BRANCH  39  40
ATOM     40  C   UNL     1      -5.185  -6.773  -4.102  1.00  0.00     0.023 C 
BRANCH  40  41
ATOM     41  C   UNL     1      -4.417  -7.266  -2.875  1.00  0.00     0.116 C 
BRANCH  41  42
ATOM     42  N   UNL     1      -4.760  -6.607  -1.631  1.00  0.00    -0.352 N 
ATOM     43  C   UNL     1      -5.618  -6.884  -0.604  1.00  0.00     0.251 C 
ATOM     44  H   UNL     1      -4.262  -5.768  -1.495  1.00  0.00     0.163 HD
ATOM     45  O   UNL     1      -5.456  -6.221   0.425  1.00  0.00    -0.269 OA
BRANCH  43  46
ATOM     46  C   UNL     1      -6.754  -7.841  -0.671  1.00  0.00     0.039 A 
ATOM     47  C   UNL     1      -7.098  -8.598  -1.789  1.00  0.00     0.014 A 
ATOM     48  C   UNL     1      -7.611  -7.859   0.446  1.00  0.00     0.014 A 
ATOM     49  C   UNL     1      -8.342  -9.209  -1.862  1.00  0.00     0.010 A 
ATOM     50  C   UNL     1      -8.842  -8.499   0.392  1.00  0.00     0.010 A 
ATOM     51  C   UNL     1      -9.241  -9.093  -0.800  1.00  0.00    -0.014 A 
BRANCH  51  52
ATOM     52  C   UNL     1     -10.596  -9.591  -1.010  1.00  0.00     0.031 A 
ATOM     53  C   UNL     1     -10.703 -11.034  -1.377  1.00  0.00     0.074 A 
ATOM     54  C   UNL     1     -11.685  -8.812  -0.854  1.00  0.00     0.049 A 
ATOM     55  N   UNL     1     -11.124 -11.556  -2.484  1.00  0.00    -0.248 NA
ATOM     56  C   UNL     1     -10.152 -12.012  -0.426  1.00  0.00     0.031 C 
ATOM     57  C   UNL     1     -11.784  -7.467  -0.277  1.00  0.00     0.029 A 
ATOM     58  N   UNL     1     -12.983  -9.117  -1.121  1.00  0.00    -0.354 N 
ATOM     59  C   UNL     1     -11.065 -12.938  -2.307  1.00  0.00     0.074 A 
ATOM     60  C   UNL     1     -10.342 -13.159  -1.079  1.00  0.00     0.031 C 
ATOM     61  C   UNL     1     -13.082  -7.186  -0.016  1.00  0.00     0.029 A 
ATOM     62  C   UNL     1     -13.907  -8.256  -0.547  1.00  0.00     0.049 A 
ATOM     63  H   UNL     1     -13.246  -9.886  -1.677  1.00  0.00     0.167 HD
ATOM     64  C   UNL     1     -11.762 -13.811  -3.087  1.00  0.00     0.037 A 
ATOM     65  C   UNL     1     -15.245  -8.463  -0.455  1.00  0.00     0.037 A 
ATOM     66  C   UNL     1     -12.216 -13.204  -4.307  1.00  0.00     0.049 A 
ATOM     67  C   UNL     1     -15.601  -9.454  -1.505  1.00  0.00     0.074 A 
ATOM     68  C   UNL     1     -11.594 -12.672  -5.419  1.00  0.00     0.029 A 
ATOM     69  N   UNL     1     -13.516 -12.763  -4.369  1.00  0.00    -0.354 N 
ATOM     70  N   UNL     1     -15.516  -9.219  -2.787  1.00  0.00    -0.248 NA
ATOM     71  C   UNL     1     -15.614 -10.860  -1.129  1.00  0.00     0.031 C 
ATOM     72  C   UNL     1     -12.398 -11.556  -5.794  1.00  0.00     0.029 A 
ATOM     73  C   UNL     1     -13.482 -11.505  -4.917  1.00  0.00     0.049 A 
ATOM     74  H   UNL     1     -14.317 -13.255  -4.077  1.00  0.00     0.167 HD
ATOM     75  C   UNL     1     -15.057 -10.406  -3.341  1.00  0.00     0.074 A 
ATOM     76  C   UNL     1     -15.203 -11.400  -2.279  1.00  0.00     0.031 C 
ATOM     77  C   UNL     1     -14.353 -10.425  -4.511  1.00  0.00     0.037 A 
BRANCH  64  78
ATOM     78  C   UNL     1     -12.293 -15.135  -2.600  1.00  0.00     0.058 A 
ATOM     79  C   UNL     1     -12.749 -16.099  -3.522  1.00  0.00     0.135 A 
ATOM     80  C   UNL     1     -12.625 -15.373  -1.248  1.00  0.00     0.135 A 
ATOM     81  F   UNL     1     -12.499 -15.962  -4.834  1.00  0.00    -0.206 F 
ATOM     82  C   UNL     1     -13.529 -17.191  -3.132  1.00  0.00     0.059 A 
ATOM     83  C   UNL     1     -13.357 -16.480  -0.833  1.00  0.00     0.059 A 
ATOM     84  F   UNL     1     -12.336 -14.489  -0.284  1.00  0.00    -0.206 F 
ATOM     85  C   UNL     1     -13.841 -17.361  -1.786  1.00  0.00     0.060 A 
BRANCH  85  86
ATOM     86  S   UNL     1     -14.951 -18.694  -1.298  1.00  0.00     0.124 S 
ATOM     87  O   UNL     1     -16.204 -18.270  -1.913  1.00  0.00    -0.237 OA
ATOM     88  O   UNL     1     -14.307 -19.859  -1.895  1.00  0.00    -0.237 OA
ATOM     89  O   UNL     1     -14.916 -18.645   0.161  1.00  0.00    -0.744 OA
ENDBRANCH  85  86
ENDBRANCH  64  78
BRANCH  65  90
ATOM     90  C   UNL     1     -16.091  -8.241   0.751  1.00  0.00     0.058 A 
ATOM     91  C   UNL     1     -17.493  -8.316   0.674  1.00  0.00     0.135 A 
ATOM     92  C   UNL     1     -15.538  -8.250   2.049  1.00  0.00     0.135 A 
ATOM     93  F   UNL     1     -18.102  -8.332  -0.521  1.00  0.00    -0.206 F 
ATOM     94  C   UNL     1     -18.296  -8.452   1.813  1.00  0.00     0.059 A 
ATOM     95  C   UNL     1     -16.318  -8.376   3.197  1.00  0.00     0.059 A 
ATOM     96  F   UNL     1     -14.211  -8.236   2.238  1.00  0.00    -0.206 F 
ATOM     97  C   UNL     1     -17.695  -8.507   3.071  1.00  0.00     0.060 A 
BRANCH  97  98
ATOM     98  S   UNL     1     -18.707  -8.869   4.525  1.00  0.00     0.124 S 
ATOM     99  O   UNL     1     -19.532  -7.670   4.625  1.00  0.00    -0.237 OA
ATOM    100  O   UNL     1     -19.399 -10.087   4.120  1.00  0.00    -0.237 OA
ATOM    101  O   UNL     1     -17.722  -9.039   5.590  1.00  0.00    -0.744 OA
ENDBRANCH  97  98
ENDBRANCH  65  90
BRANCH  77 102
ATOM    102  C   UNL     1     -14.280  -9.152  -5.317  1.00  0.00     0.058 A 
ATOM    103  C   UNL     1     -13.629  -7.983  -4.883  1.00  0.00     0.135 A 
ATOM    104  C   UNL     1     -14.750  -9.167  -6.638  1.00  0.00     0.135 A 
ATOM    105  F   UNL     1     -13.056  -7.923  -3.673  1.00  0.00    -0.206 F 
ATOM    106  C   UNL     1     -13.489  -6.866  -5.709  1.00  0.00     0.059 A 
ATOM    107  C   UNL     1     -14.597  -8.075  -7.490  1.00  0.00     0.059 A 
ATOM    108  F   UNL     1     -15.322 -10.276  -7.135  1.00  0.00    -0.206 F 
ATOM    109  C   UNL     1     -13.975  -6.922  -7.015  1.00  0.00     0.060 A 
BRANCH 109 110
ATOM    110  S   UNL     1     -13.729  -5.503  -8.105  1.00  0.00     0.124 S 
ATOM    111  O   UNL     1     -14.605  -4.500  -7.510  1.00  0.00    -0.237 OA
ATOM    112  O   UNL     1     -12.296  -5.249  -7.975  1.00  0.00    -0.237 OA
ATOM    113  O   UNL     1     -14.148  -5.999  -9.414  1.00  0.00    -0.744 OA
ENDBRANCH 109 110
ENDBRANCH  77 102
ENDBRANCH  51  52
ENDBRANCH  43  46
ENDBRANCH  41  42
ENDBRANCH  40  41
ENDBRANCH  39  40
ENDBRANCH   1  39
TORSDOF 20
