REMARK SMILES Cc1ccc(S(=O)(=O)n2cc(C(=O)C(=O)NCC(=O)NCCCCNC(=O)c3ccc(-c4c5nc(c(-c6c(F)cc(S(=O)(=O)[O-])cc6F)c6ccc([nH]6)c(-c6c(F)cc(S(=O)(=O)[O-])cc6F)c6nc(c(-c7c(F)cc(S(=O)(=O)[O-])cc7F)c7ccc4[nH]7)C=C6)C=C5)cc3)c3ccccc32)cc1
REMARK SMILES IDX 21 1 20 2 18 3 19 4 17 6 16 7 14 8 15 9 12 11 13 12 11 13
REMARK SMILES IDX 9 14 10 15 99 16 94 17 98 18 95 19 97 20 96 21 6 22 7 23
REMARK SMILES IDX 8 24 5 25 1 26 2 27 3 28 101 29 4 30 100 31 22 32 23 33
REMARK SMILES IDX 24 34 25 35 26 36 27 38 28 39 29 40 93 41 30 42 92 43 31 44
REMARK SMILES IDX 32 45 33 46 86 47 34 48 91 49 85 50 87 51 35 52 90 53 84 54
REMARK SMILES IDX 83 55 36 57 70 58 49 59 69 60 50 61 53 62 68 63 88 64 51 65
REMARK SMILES IDX 52 66 67 68 89 69 54 70 37 71 38 72 47 73 39 74 40 75 46 76
REMARK SMILES IDX 48 77 41 78 42 79 43 80 44 81 45 82 71 83 72 84 81 85 73 86
REMARK SMILES IDX 74 87 80 88 82 89 75 90 76 91 77 92 78 93 79 94 55 95 56 96
REMARK SMILES IDX 65 97 57 98 58 99 64 100 66 101 59 102 60 103 61 104 62 105
REMARK SMILES IDX 63 106
REMARK H PARENT 20 5 16 10 25 37 87 56 53 67
REMARK Flexibility Score: inf
ROOT
ATOM      1  C   UNL     1      -9.367   4.720   0.913  1.00  0.00     0.116 C 
ENDROOT
BRANCH   1   2
ATOM      2  N   UNL     1      -9.910   5.718   1.821  1.00  0.00    -0.355 N 
ATOM      3  C   UNL     1      -9.285   6.434   2.799  1.00  0.00     0.239 C 
ATOM      4  O   UNL     1      -9.938   7.260   3.440  1.00  0.00    -0.273 OA
ATOM      5  H   UNL     1     -10.871   5.904   1.713  1.00  0.00     0.163 HD
BRANCH   3   6
ATOM      6  C   UNL     1      -7.779   6.278   3.017  1.00  0.00     0.216 C 
BRANCH   6   7
ATOM      7  N   UNL     1      -7.394   4.925   3.397  1.00  0.00    -0.340 N 
ATOM      8  C   UNL     1      -6.437   4.084   2.870  1.00  0.00     0.292 C 
ATOM      9  O   UNL     1      -6.242   3.003   3.417  1.00  0.00    -0.265 OA
ATOM     10  H   UNL     1      -7.901   4.550   4.153  1.00  0.00     0.164 HD
BRANCH   8  11
ATOM     11  C   UNL     1      -5.614   4.494   1.624  1.00  0.00     0.252 C 
ATOM     12  O   UNL     1      -5.428   5.693   1.431  1.00  0.00    -0.283 OA
BRANCH  11  13
ATOM     13  C   UNL     1      -5.028   3.494   0.717  1.00  0.00     0.054 A 
ATOM     14  N   UNL     1      -4.193   1.591  -0.109  1.00  0.00    -0.240 N 
ATOM     15  C   UNL     1      -4.864   2.141   0.955  1.00  0.00     0.117 A 
ATOM     16  C   UNL     1      -3.940   2.535  -1.079  1.00  0.00     0.065 A 
ATOM     17  C   UNL     1      -4.454   3.742  -0.584  1.00  0.00     0.012 A 
ATOM     18  C   UNL     1      -3.282   2.460  -2.322  1.00  0.00     0.028 A 
ATOM     19  C   UNL     1      -4.317   4.902  -1.379  1.00  0.00     0.011 A 
ATOM     20  C   UNL     1      -3.140   3.631  -3.068  1.00  0.00     0.002 A 
ATOM     21  C   UNL     1      -3.654   4.836  -2.608  1.00  0.00     0.001 A 
BRANCH  14  22
ATOM     22  S   UNL     1      -3.586  -0.002  -0.105  1.00  0.00     0.268 S 
ATOM     23  O   UNL     1      -3.884  -0.540  -1.425  1.00  0.00    -0.201 OA
ATOM     24  O   UNL     1      -4.061  -0.615   1.113  1.00  0.00    -0.201 OA
BRANCH  22  25
ATOM     25  C   UNL     1      -1.814   0.075   0.021  1.00  0.00     0.088 A 
ATOM     26  C   UNL     1       2.487  -0.023   0.028  1.00  0.00     0.044 C 
ATOM     27  C   UNL     1       0.988   0.017   0.051  1.00  0.00    -0.051 A 
ATOM     28  C   UNL     1       0.260  -1.175  -0.033  1.00  0.00     0.005 A 
ATOM     29  C   UNL     1       0.299   1.233   0.151  1.00  0.00     0.005 A 
ATOM     30  C   UNL     1      -1.135  -1.148  -0.053  1.00  0.00     0.022 A 
ATOM     31  C   UNL     1      -1.100   1.266   0.148  1.00  0.00     0.022 A 
ENDBRANCH  22  25
ENDBRANCH  14  22
ENDBRANCH  11  13
ENDBRANCH   8  11
ENDBRANCH   6   7
ENDBRANCH   3   6
ENDBRANCH   1   2
BRANCH   1  32
ATOM     32  C   UNL     1      -9.705   3.288   1.349  1.00  0.00     0.023 C 
BRANCH  32  33
ATOM     33  C   UNL     1     -11.201   2.978   1.403  1.00  0.00     0.023 C 
BRANCH  33  34
ATOM     34  C   UNL     1     -11.894   3.008   0.048  1.00  0.00     0.116 C 
BRANCH  34  35
ATOM     35  N   UNL     1     -12.131   1.696  -0.537  1.00  0.00    -0.352 N 
ATOM     36  C   UNL     1     -13.089   1.380  -1.492  1.00  0.00     0.251 C 
ATOM     37  H   UNL     1     -11.555   0.961  -0.225  1.00  0.00     0.163 HD
ATOM     38  O   UNL     1     -13.589   0.268  -1.603  1.00  0.00    -0.269 OA
BRANCH  36  39
ATOM     39  C   UNL     1     -13.349   2.414  -2.515  1.00  0.00     0.039 A 
ATOM     40  C   UNL     1     -12.837   2.183  -3.800  1.00  0.00     0.014 A 
ATOM     41  C   UNL     1     -13.720   3.687  -2.103  1.00  0.00     0.014 A 
ATOM     42  C   UNL     1     -12.460   3.262  -4.584  1.00  0.00     0.010 A 
ATOM     43  C   UNL     1     -13.221   4.749  -2.808  1.00  0.00     0.010 A 
ATOM     44  C   UNL     1     -12.552   4.525  -4.020  1.00  0.00    -0.014 A 
BRANCH  44  45
ATOM     45  C   UNL     1     -12.072   5.742  -4.634  1.00  0.00     0.031 A 
ATOM     46  C   UNL     1     -13.078   6.584  -5.294  1.00  0.00     0.074 A 
ATOM     47  C   UNL     1     -10.829   6.160  -4.321  1.00  0.00     0.049 A 
ATOM     48  N   UNL     1     -12.815   7.647  -5.957  1.00  0.00    -0.248 NA
ATOM     49  C   UNL     1     -14.502   6.260  -5.267  1.00  0.00     0.031 C 
ATOM     50  C   UNL     1     -10.268   7.501  -4.418  1.00  0.00     0.029 A 
ATOM     51  N   UNL     1      -9.728   5.348  -4.035  1.00  0.00    -0.354 N 
ATOM     52  C   UNL     1     -14.006   8.304  -6.180  1.00  0.00     0.074 A 
ATOM     53  C   UNL     1     -15.027   7.351  -5.827  1.00  0.00     0.031 C 
ATOM     54  C   UNL     1      -8.929   7.402  -4.491  1.00  0.00     0.029 A 
ATOM     55  C   UNL     1      -8.618   5.988  -4.628  1.00  0.00     0.049 A 
ATOM     56  H   UNL     1      -9.727   4.504  -3.527  1.00  0.00     0.167 HD
ATOM     57  C   UNL     1     -13.943   9.627  -6.505  1.00  0.00     0.037 A 
ATOM     58  C   UNL     1      -8.053   5.419  -5.740  1.00  0.00     0.037 A 
ATOM     59  C   UNL     1     -12.545   9.998  -6.763  1.00  0.00     0.049 A 
ATOM     60  C   UNL     1      -8.248   6.234  -7.013  1.00  0.00     0.074 A 
ATOM     61  C   UNL     1     -11.543  10.610  -6.029  1.00  0.00     0.029 A 
ATOM     62  N   UNL     1     -11.906   9.379  -7.821  1.00  0.00    -0.354 N 
ATOM     63  N   UNL     1      -8.985   7.310  -7.101  1.00  0.00    -0.248 NA
ATOM     64  C   UNL     1      -7.654   5.875  -8.299  1.00  0.00     0.031 C 
ATOM     65  C   UNL     1     -10.289  10.298  -6.647  1.00  0.00     0.029 A 
ATOM     66  C   UNL     1     -10.536   9.524  -7.768  1.00  0.00     0.049 A 
ATOM     67  H   UNL     1     -12.377   8.889  -8.534  1.00  0.00     0.167 HD
ATOM     68  C   UNL     1      -9.010   7.763  -8.395  1.00  0.00     0.074 A 
ATOM     69  C   UNL     1      -8.164   6.820  -9.109  1.00  0.00     0.031 C 
ATOM     70  C   UNL     1      -9.736   8.856  -8.789  1.00  0.00     0.037 A 
BRANCH  57  71
ATOM     71  C   UNL     1     -15.074  10.633  -6.402  1.00  0.00     0.058 A 
ATOM     72  C   UNL     1     -14.778  12.014  -6.417  1.00  0.00     0.135 A 
ATOM     73  C   UNL     1     -16.443  10.341  -6.219  1.00  0.00     0.135 A 
ATOM     74  F   UNL     1     -13.533  12.461  -6.635  1.00  0.00    -0.206 F 
ATOM     75  C   UNL     1     -15.736  13.007  -6.196  1.00  0.00     0.059 A 
ATOM     76  C   UNL     1     -17.417  11.314  -5.974  1.00  0.00     0.059 A 
ATOM     77  F   UNL     1     -16.931   9.102  -6.297  1.00  0.00    -0.206 F 
ATOM     78  C   UNL     1     -17.052  12.648  -5.953  1.00  0.00     0.060 A 
BRANCH  78  79
ATOM     79  S   UNL     1     -18.267  13.936  -5.634  1.00  0.00     0.124 S 
ATOM     80  O   UNL     1     -17.735  14.561  -4.427  1.00  0.00    -0.237 OA
ATOM     81  O   UNL     1     -18.192  14.735  -6.852  1.00  0.00    -0.237 OA
ATOM     82  O   UNL     1     -19.512  13.194  -5.451  1.00  0.00    -0.744 OA
ENDBRANCH  78  79
ENDBRANCH  57  71
BRANCH  58  83
ATOM     83  C   UNL     1      -8.025   3.922  -5.629  1.00  0.00     0.058 A 
ATOM     84  C   UNL     1      -7.311   3.370  -4.542  1.00  0.00     0.135 A 
ATOM     85  C   UNL     1      -9.011   3.119  -6.216  1.00  0.00     0.135 A 
ATOM     86  F   UNL     1      -6.352   4.092  -3.942  1.00  0.00    -0.206 F 
ATOM     87  C   UNL     1      -7.684   2.169  -3.944  1.00  0.00     0.059 A 
ATOM     88  C   UNL     1      -9.387   1.897  -5.645  1.00  0.00     0.059 A 
ATOM     89  F   UNL     1      -9.722   3.575  -7.259  1.00  0.00    -0.206 F 
ATOM     90  C   UNL     1      -8.770   1.474  -4.465  1.00  0.00     0.060 A 
BRANCH  90  91
ATOM     91  S   UNL     1      -9.471   0.132  -3.469  1.00  0.00     0.124 S 
ATOM     92  O   UNL     1      -8.391  -0.846  -3.478  1.00  0.00    -0.237 OA
ATOM     93  O   UNL     1      -9.715   0.797  -2.187  1.00  0.00    -0.237 OA
ATOM     94  O   UNL     1     -10.665  -0.246  -4.215  1.00  0.00    -0.744 OA
ENDBRANCH  90  91
ENDBRANCH  58  83
BRANCH  70  95
ATOM     95  C   UNL     1      -9.790   9.369 -10.213  1.00  0.00     0.058 A 
ATOM     96  C   UNL     1      -8.656   9.442 -11.037  1.00  0.00     0.135 A 
ATOM     97  C   UNL     1     -10.978   9.905 -10.770  1.00  0.00     0.135 A 
ATOM     98  F   UNL     1      -7.448   9.078 -10.579  1.00  0.00    -0.206 F 
ATOM     99  C   UNL     1      -8.719   9.912 -12.351  1.00  0.00     0.059 A 
ATOM    100  C   UNL     1     -11.049  10.438 -12.051  1.00  0.00     0.059 A 
ATOM    101  F   UNL     1     -12.143   9.904 -10.110  1.00  0.00    -0.206 F 
ATOM    102  C   UNL     1      -9.923  10.399 -12.852  1.00  0.00     0.060 A 
BRANCH 102 103
ATOM    103  S   UNL     1     -10.013  10.989 -14.549  1.00  0.00     0.124 S 
ATOM    104  O   UNL     1      -8.783  11.764 -14.677  1.00  0.00    -0.237 OA
ATOM    105  O   UNL     1     -10.051   9.732 -15.290  1.00  0.00    -0.237 OA
ATOM    106  O   UNL     1     -11.246  11.771 -14.575  1.00  0.00    -0.744 OA
ENDBRANCH 102 103
ENDBRANCH  70  95
ENDBRANCH  44  45
ENDBRANCH  36  39
ENDBRANCH  34  35
ENDBRANCH  33  34
ENDBRANCH  32  33
ENDBRANCH   1  32
TORSDOF 19
