REMARK SMILES CC(C)Cc1ccc([C@H](C)C(=O)NCCCCNC(=O)c2ccc(-c3c4nc(c(-c5c(F)cc(S(=O)(=O)[O-])cc5F)c5ccc([nH]5)c(-c5c(F)cc(S(=O)(=O)[O-])cc5F)c5nc(c(-c6c(F)cc(S(=O)(=O)[O-])cc6F)c6ccc3[nH]6)C=C5)C=C4)cc2)cc1
REMARK SMILES IDX 15 1 14 2 13 3 11 4 12 5 9 7 10 8 8 9 5 10 6 11 88 12 7 13
REMARK SMILES IDX 87 14 4 15 2 16 1 17 3 18 16 19 17 20 18 21 19 22 20 24
REMARK SMILES IDX 21 25 22 26 86 27 23 28 85 29 24 30 25 31 26 32 79 33 27 34
REMARK SMILES IDX 84 35 78 36 80 37 28 38 83 39 77 40 76 41 29 43 63 44 42 45
REMARK SMILES IDX 62 46 43 47 46 48 61 49 81 50 44 51 45 52 60 54 82 55 47 56
REMARK SMILES IDX 30 57 31 58 40 59 32 60 33 61 39 62 41 63 34 64 35 65 36 66
REMARK SMILES IDX 37 67 38 68 64 69 65 70 74 71 66 72 67 73 73 74 75 75 68 76
REMARK SMILES IDX 69 77 70 78 71 79 72 80 48 81 49 82 58 83 50 84 51 85 57 86
REMARK SMILES IDX 59 87 52 88 53 89 54 90 55 91 56 92
REMARK H PARENT 13 6 18 23 80 42 46 53
REMARK Flexibility Score: inf
ROOT
ATOM      1  C   UNL     1      -2.423   5.349  -0.333  1.00  0.00     0.023 C 
ENDROOT
BRANCH   1   2
ATOM      2  C   UNL     1      -2.043   5.716   1.098  1.00  0.00     0.116 C 
BRANCH   2   3
ATOM      3  N   UNL     1      -3.124   5.501   2.039  1.00  0.00    -0.356 N 
ATOM      4  C   UNL     1      -3.219   4.638   3.091  1.00  0.00     0.227 C 
ATOM      5  O   UNL     1      -4.215   4.733   3.816  1.00  0.00    -0.274 OA
ATOM      6  H   UNL     1      -3.916   6.068   1.896  1.00  0.00     0.163 HD
BRANCH   4   7
ATOM      7  C   UNL     1      -2.159   3.560   3.372  1.00  0.00     0.105 C 
ATOM      8  C   UNL     1      -2.163   2.509   2.261  1.00  0.00     0.023 C 
BRANCH   7   9
ATOM      9  C   UNL     1      -0.811   4.146   3.772  1.00  0.00    -0.036 A 
ATOM     10  C   UNL     1       1.568   5.515   4.450  1.00  0.00    -0.048 A 
ATOM     11  C   UNL     1       1.526   4.672   3.335  1.00  0.00     0.004 A 
ATOM     12  C   UNL     1       0.437   5.609   5.268  1.00  0.00     0.004 A 
ATOM     13  C   UNL     1       0.357   3.976   3.014  1.00  0.00     0.005 A 
ATOM     14  C   UNL     1      -0.740   4.941   4.928  1.00  0.00     0.005 A 
BRANCH  10  15
ATOM     15  C   UNL     1       2.786   6.364   4.723  1.00  0.00     0.038 C 
BRANCH  15  16
ATOM     16  C   UNL     1       2.776   7.697   3.944  1.00  0.00    -0.013 C 
ATOM     17  C   UNL     1       1.667   8.642   4.416  1.00  0.00     0.008 C 
ATOM     18  C   UNL     1       4.131   8.393   4.085  1.00  0.00     0.008 C 
ENDBRANCH  15  16
ENDBRANCH  10  15
ENDBRANCH   7   9
ENDBRANCH   4   7
ENDBRANCH   2   3
ENDBRANCH   1   2
BRANCH   1  19
ATOM     19  C   UNL     1      -3.417   6.297  -1.002  1.00  0.00     0.023 C 
BRANCH  19  20
ATOM     20  C   UNL     1      -3.015   7.769  -1.025  1.00  0.00     0.116 C 
BRANCH  20  21
ATOM     21  N   UNL     1      -1.716   8.010  -1.635  1.00  0.00    -0.352 N 
ATOM     22  C   UNL     1      -1.342   8.995  -2.519  1.00  0.00     0.251 C 
ATOM     23  H   UNL     1      -1.005   7.378  -1.380  1.00  0.00     0.163 HD
ATOM     24  O   UNL     1      -0.215   8.987  -3.006  1.00  0.00    -0.269 OA
BRANCH  22  25
ATOM     25  C   UNL     1      -2.314  10.039  -2.909  1.00  0.00     0.039 A 
ATOM     26  C   UNL     1      -2.486  10.328  -4.265  1.00  0.00     0.014 A 
ATOM     27  C   UNL     1      -3.079  10.703  -1.945  1.00  0.00     0.014 A 
ATOM     28  C   UNL     1      -3.485  11.221  -4.660  1.00  0.00     0.010 A 
ATOM     29  C   UNL     1      -4.119  11.538  -2.345  1.00  0.00     0.010 A 
ATOM     30  C   UNL     1      -4.338  11.798  -3.706  1.00  0.00    -0.014 A 
BRANCH  30  31
ATOM     31  C   UNL     1      -5.488  12.648  -4.112  1.00  0.00     0.031 A 
ATOM     32  C   UNL     1      -5.547  14.093  -3.704  1.00  0.00     0.074 A 
ATOM     33  C   UNL     1      -6.525  12.089  -4.767  1.00  0.00     0.049 A 
ATOM     34  N   UNL     1      -6.503  14.965  -3.894  1.00  0.00    -0.248 NA
ATOM     35  C   UNL     1      -4.396  14.616  -2.953  1.00  0.00     0.031 C 
ATOM     36  C   UNL     1      -6.622  10.679  -5.152  1.00  0.00     0.029 A 
ATOM     37  N   UNL     1      -7.708  12.632  -5.203  1.00  0.00    -0.354 N 
ATOM     38  C   UNL     1      -6.083  16.131  -3.266  1.00  0.00     0.074 A 
ATOM     39  C   UNL     1      -4.804  15.841  -2.653  1.00  0.00     0.031 C 
ATOM     40  C   UNL     1      -7.794  10.470  -5.771  1.00  0.00     0.029 A 
ATOM     41  C   UNL     1      -8.546  11.722  -5.801  1.00  0.00     0.049 A 
ATOM     42  H   UNL     1      -7.934  13.584  -5.098  1.00  0.00     0.167 HD
ATOM     43  C   UNL     1      -6.697  17.337  -3.219  1.00  0.00     0.037 A 
ATOM     44  C   UNL     1      -9.785  11.871  -6.309  1.00  0.00     0.037 A 
ATOM     45  C   UNL     1      -7.953  17.629  -3.861  1.00  0.00     0.049 A 
ATOM     46  C   UNL     1     -10.429  13.229  -6.290  1.00  0.00     0.074 A 
ATOM     47  C   UNL     1      -8.608  18.844  -3.958  1.00  0.00     0.029 A 
ATOM     48  N   UNL     1      -8.748  16.693  -4.507  1.00  0.00    -0.354 N 
ATOM     49  N   UNL     1      -9.973  14.347  -5.777  1.00  0.00    -0.248 NA
ATOM     50  C   UNL     1     -11.747  13.350  -6.925  1.00  0.00     0.031 C 
ATOM     51  C   UNL     1      -9.819  18.635  -4.628  1.00  0.00     0.029 A 
ATOM     52  C   UNL     1      -9.899  17.298  -4.985  1.00  0.00     0.049 A 
ATOM     53  H   UNL     1      -8.527  15.740  -4.611  1.00  0.00     0.167 HD
ATOM     54  C   UNL     1     -10.942  15.308  -6.039  1.00  0.00     0.074 A 
ATOM     55  C   UNL     1     -12.002  14.643  -6.770  1.00  0.00     0.031 C 
ATOM     56  C   UNL     1     -10.951  16.622  -5.704  1.00  0.00     0.037 A 
BRANCH  43  57
ATOM     57  C   UNL     1      -6.016  18.430  -2.443  1.00  0.00     0.058 A 
ATOM     58  C   UNL     1      -4.832  19.033  -2.899  1.00  0.00     0.135 A 
ATOM     59  C   UNL     1      -6.557  18.886  -1.230  1.00  0.00     0.135 A 
ATOM     60  F   UNL     1      -4.265  18.627  -4.046  1.00  0.00    -0.206 F 
ATOM     61  C   UNL     1      -4.184  20.016  -2.158  1.00  0.00     0.059 A 
ATOM     62  C   UNL     1      -5.940  19.888  -0.486  1.00  0.00     0.059 A 
ATOM     63  F   UNL     1      -7.688  18.348  -0.749  1.00  0.00    -0.206 F 
ATOM     64  C   UNL     1      -4.742  20.431  -0.948  1.00  0.00     0.060 A 
BRANCH  64  65
ATOM     65  S   UNL     1      -3.878  21.689   0.016  1.00  0.00     0.124 S 
ATOM     66  O   UNL     1      -2.787  20.911   0.595  1.00  0.00    -0.237 OA
ATOM     67  O   UNL     1      -3.492  22.658  -1.005  1.00  0.00    -0.237 OA
ATOM     68  O   UNL     1      -4.891  22.149   0.960  1.00  0.00    -0.744 OA
ENDBRANCH  64  65
ENDBRANCH  43  57
BRANCH  44  69
ATOM     69  C   UNL     1     -10.479  10.696  -6.896  1.00  0.00     0.058 A 
ATOM     70  C   UNL     1     -10.608  10.554  -8.285  1.00  0.00     0.135 A 
ATOM     71  C   UNL     1     -10.974   9.665  -6.082  1.00  0.00     0.135 A 
ATOM     72  F   UNL     1     -10.156  11.517  -9.102  1.00  0.00    -0.206 F 
ATOM     73  C   UNL     1     -11.201   9.429  -8.849  1.00  0.00     0.059 A 
ATOM     74  C   UNL     1     -11.553   8.521  -6.624  1.00  0.00     0.059 A 
ATOM     75  F   UNL     1     -10.858   9.748  -4.748  1.00  0.00    -0.206 F 
ATOM     76  C   UNL     1     -11.664   8.414  -8.010  1.00  0.00     0.060 A 
BRANCH  76  77
ATOM     77  S   UNL     1     -12.349   6.917  -8.755  1.00  0.00     0.124 S 
ATOM     78  O   UNL     1     -13.660   7.381  -9.194  1.00  0.00    -0.237 OA
ATOM     79  O   UNL     1     -11.385   6.632  -9.813  1.00  0.00    -0.237 OA
ATOM     80  O   UNL     1     -12.352   5.965  -7.648  1.00  0.00    -0.744 OA
ENDBRANCH  76  77
ENDBRANCH  44  69
BRANCH  56  81
ATOM     81  C   UNL     1     -12.141  17.435  -6.132  1.00  0.00     0.058 A 
ATOM     82  C   UNL     1     -13.381  17.316  -5.487  1.00  0.00     0.135 A 
ATOM     83  C   UNL     1     -12.024  18.381  -7.163  1.00  0.00     0.135 A 
ATOM     84  F   UNL     1     -13.546  16.421  -4.500  1.00  0.00    -0.206 F 
ATOM     85  C   UNL     1     -14.471  18.095  -5.861  1.00  0.00     0.059 A 
ATOM     86  C   UNL     1     -13.095  19.187  -7.538  1.00  0.00     0.059 A 
ATOM     87  F   UNL     1     -10.857  18.540  -7.806  1.00  0.00    -0.206 F 
ATOM     88  C   UNL     1     -14.318  19.029  -6.887  1.00  0.00     0.060 A 
BRANCH  88  89
ATOM     89  S   UNL     1     -15.729  20.060  -7.340  1.00  0.00     0.124 S 
ATOM     90  O   UNL     1     -16.546  19.122  -8.102  1.00  0.00    -0.237 OA
ATOM     91  O   UNL     1     -16.262  20.454  -6.040  1.00  0.00    -0.237 OA
ATOM     92  O   UNL     1     -15.125  21.140  -8.115  1.00  0.00    -0.744 OA
ENDBRANCH  88  89
ENDBRANCH  56  81
ENDBRANCH  30  31
ENDBRANCH  22  25
ENDBRANCH  20  21
ENDBRANCH  19  20
ENDBRANCH   1  19
TORSDOF 17
