REMARK SMILES C[C@H](C(=O)NCCCCNC(=O)c1ccc(-c2c3nc(c(-c4c(F)cc(S(=O)(=O)[O-])cc4F)c4ccc([nH]4)c(-c4c(F)cc(S(=O)(=O)[O-])cc4F)c4nc(c(-c5c(F)cc(S(=O)(=O)[O-])cc5F)c5ccc2[nH]5)C=C4)C=C3)cc1)c1cccc(C(=O)c2ccccc2)c1
REMARK SMILES IDX 7 1 6 2 5 3 3 4 4 5 2 7 1 8 79 9 80 10 92 11 81 12 83 13
REMARK SMILES IDX 82 14 84 15 85 16 86 17 87 18 91 19 88 20 90 21 89 22 8 23
REMARK SMILES IDX 9 24 10 25 11 26 12 28 13 29 14 30 78 31 15 32 77 33 16 34
REMARK SMILES IDX 17 35 18 36 71 37 19 38 76 39 70 40 72 41 20 42 75 43 69 44
REMARK SMILES IDX 68 45 21 47 55 48 34 49 54 50 35 51 38 52 53 53 73 54 36 55
REMARK SMILES IDX 37 56 52 58 74 59 39 60 22 61 23 62 32 63 24 64 25 65 31 66
REMARK SMILES IDX 33 67 26 68 27 69 28 70 29 71 30 72 56 73 57 74 66 75 58 76
REMARK SMILES IDX 59 77 65 78 67 79 60 80 61 81 62 82 63 83 64 84 40 85 41 86
REMARK SMILES IDX 50 87 42 88 43 89 49 90 51 91 44 92 45 93 46 94 47 95 48 96
REMARK H PARENT 5 6 10 27 72 46 38 57
REMARK Flexibility Score: inf
ROOT
ATOM      1  C   UNL     1      -1.141   1.985   2.425  1.00  0.00     0.023 C 
ENDROOT
BRANCH   1   2
ATOM      2  C   UNL     1      -0.933   1.154   1.164  1.00  0.00     0.116 C 
BRANCH   2   3
ATOM      3  N   UNL     1       0.439   1.024   0.712  1.00  0.00    -0.356 N 
ATOM      4  C   UNL     1       0.993   0.128  -0.158  1.00  0.00     0.227 C 
ATOM      5  O   UNL     1       2.093   0.445  -0.632  1.00  0.00    -0.274 OA
ATOM      6  H   UNL     1       1.066   1.682   1.089  1.00  0.00     0.163 HD
BRANCH   4   7
ATOM      7  C   UNL     1       0.443  -1.283  -0.436  1.00  0.00     0.105 C 
ATOM      8  C   UNL     1       1.055  -2.177   0.660  1.00  0.00     0.023 C 
BRANCH   7   9
ATOM      9  C   UNL     1      -1.060  -1.471  -0.635  1.00  0.00    -0.035 A 
ATOM     10  C   UNL     1      -1.859  -0.477  -1.211  1.00  0.00     0.004 A 
ATOM     11  C   UNL     1      -1.694  -2.677  -0.276  1.00  0.00     0.016 A 
ATOM     12  C   UNL     1      -3.253  -0.573  -1.178  1.00  0.00     0.001 A 
ATOM     13  C   UNL     1      -3.089  -2.812  -0.287  1.00  0.00     0.023 A 
ATOM     14  C   UNL     1      -3.867  -1.723  -0.684  1.00  0.00     0.012 A 
BRANCH  13  15
ATOM     15  C   UNL     1      -3.781  -4.086   0.075  1.00  0.00     0.193 C 
ATOM     16  O   UNL     1      -5.000  -4.122   0.217  1.00  0.00    -0.289 OA
BRANCH  15  17
ATOM     17  C   UNL     1      -3.037  -5.360   0.156  1.00  0.00     0.022 A 
ATOM     18  C   UNL     1      -3.287  -6.330  -0.820  1.00  0.00     0.012 A 
ATOM     19  C   UNL     1      -2.104  -5.598   1.170  1.00  0.00     0.012 A 
ATOM     20  C   UNL     1      -2.562  -7.521  -0.811  1.00  0.00     0.001 A 
ATOM     21  C   UNL     1      -1.373  -6.787   1.166  1.00  0.00     0.001 A 
ATOM     22  C   UNL     1      -1.597  -7.743   0.173  1.00  0.00     0.000 A 
ENDBRANCH  15  17
ENDBRANCH  13  15
ENDBRANCH   7   9
ENDBRANCH   4   7
ENDBRANCH   2   3
ENDBRANCH   1   2
BRANCH   1  23
ATOM     23  C   UNL     1      -0.586   3.409   2.417  1.00  0.00     0.023 C 
BRANCH  23  24
ATOM     24  C   UNL     1      -0.959   4.294   1.230  1.00  0.00     0.116 C 
BRANCH  24  25
ATOM     25  N   UNL     1      -2.386   4.538   1.103  1.00  0.00    -0.352 N 
ATOM     26  C   UNL     1      -3.110   5.710   1.139  1.00  0.00     0.251 C 
ATOM     27  H   UNL     1      -2.929   3.727   0.969  1.00  0.00     0.163 HD
ATOM     28  O   UNL     1      -4.335   5.650   1.105  1.00  0.00    -0.269 OA
BRANCH  26  29
ATOM     29  C   UNL     1      -2.443   7.032   1.256  1.00  0.00     0.039 A 
ATOM     30  C   UNL     1      -3.020   7.995   2.091  1.00  0.00     0.014 A 
ATOM     31  C   UNL     1      -1.282   7.349   0.547  1.00  0.00     0.014 A 
ATOM     32  C   UNL     1      -2.390   9.230   2.276  1.00  0.00     0.010 A 
ATOM     33  C   UNL     1      -0.606   8.545   0.804  1.00  0.00     0.010 A 
ATOM     34  C   UNL     1      -1.149   9.500   1.675  1.00  0.00    -0.014 A 
BRANCH  34  35
ATOM     35  C   UNL     1      -0.416  10.762   1.982  1.00  0.00     0.031 A 
ATOM     36  C   UNL     1      -0.098  11.762   0.900  1.00  0.00     0.074 A 
ATOM     37  C   UNL     1      -0.010  10.996   3.248  1.00  0.00     0.049 A 
ATOM     38  N   UNL     1       0.510  12.918   0.999  1.00  0.00    -0.248 NA
ATOM     39  C   UNL     1      -0.488  11.411  -0.474  1.00  0.00     0.031 C 
ATOM     40  C   UNL     1      -0.184  10.074   4.374  1.00  0.00     0.029 A 
ATOM     41  N   UNL     1       0.628  12.077   3.805  1.00  0.00    -0.354 N 
ATOM     42  C   UNL     1       0.565  13.434  -0.291  1.00  0.00     0.074 A 
ATOM     43  C   UNL     1      -0.004  12.433  -1.166  1.00  0.00     0.031 C 
ATOM     44  C   UNL     1       0.300  10.643   5.490  1.00  0.00     0.029 A 
ATOM     45  C   UNL     1       0.851  11.952   5.157  1.00  0.00     0.049 A 
ATOM     46  H   UNL     1       0.901  12.867   3.285  1.00  0.00     0.167 HD
ATOM     47  C   UNL     1       1.016  14.643  -0.706  1.00  0.00     0.037 A 
ATOM     48  C   UNL     1       1.432  12.794   6.035  1.00  0.00     0.037 A 
ATOM     49  C   UNL     1       1.577  15.643   0.168  1.00  0.00     0.049 A 
ATOM     50  C   UNL     1       1.916  14.134   5.551  1.00  0.00     0.074 A 
ATOM     51  C   UNL     1       2.028  16.912  -0.151  1.00  0.00     0.029 A 
ATOM     52  N   UNL     1       1.767  15.487   1.534  1.00  0.00    -0.354 N 
ATOM     53  N   UNL     1       1.891  14.631   4.336  1.00  0.00    -0.248 NA
ATOM     54  C   UNL     1       2.491  15.036   6.558  1.00  0.00     0.031 C 
ATOM     55  C   UNL     1       2.531  17.506   1.012  1.00  0.00     0.029 A 
ATOM     56  C   UNL     1       2.343  16.630   2.067  1.00  0.00     0.049 A 
ATOM     57  H   UNL     1       1.528  14.683   2.049  1.00  0.00     0.167 HD
ATOM     58  C   UNL     1       2.432  15.909   4.438  1.00  0.00     0.074 A 
ATOM     59  C   UNL     1       2.742  16.119   5.837  1.00  0.00     0.031 C 
ATOM     60  C   UNL     1       2.658  16.823   3.461  1.00  0.00     0.037 A 
BRANCH  47  61
ATOM     61  C   UNL     1       0.899  14.967  -2.174  1.00  0.00     0.058 A 
ATOM     62  C   UNL     1      -0.351  15.183  -2.778  1.00  0.00     0.135 A 
ATOM     63  C   UNL     1       2.043  15.118  -2.974  1.00  0.00     0.135 A 
ATOM     64  F   UNL     1      -1.481  15.038  -2.067  1.00  0.00    -0.206 F 
ATOM     65  C   UNL     1      -0.464  15.512  -4.125  1.00  0.00     0.059 A 
ATOM     66  C   UNL     1       1.956  15.477  -4.317  1.00  0.00     0.059 A 
ATOM     67  F   UNL     1       3.264  14.925  -2.450  1.00  0.00    -0.206 F 
ATOM     68  C   UNL     1       0.697  15.661  -4.886  1.00  0.00     0.060 A 
BRANCH  68  69
ATOM     69  S   UNL     1       0.530  16.111  -6.627  1.00  0.00     0.124 S 
ATOM     70  O   UNL     1      -0.014  14.881  -7.195  1.00  0.00    -0.237 OA
ATOM     71  O   UNL     1      -0.389  17.243  -6.569  1.00  0.00    -0.237 OA
ATOM     72  O   UNL     1       1.896  16.435  -7.027  1.00  0.00    -0.744 OA
ENDBRANCH  68  69
ENDBRANCH  47  61
BRANCH  48  73
ATOM     73  C   UNL     1       1.577  12.400   7.464  1.00  0.00     0.058 A 
ATOM     74  C   UNL     1       0.855  13.047   8.477  1.00  0.00     0.135 A 
ATOM     75  C   UNL     1       2.448  11.366   7.843  1.00  0.00     0.135 A 
ATOM     76  F   UNL     1       0.013  14.046   8.168  1.00  0.00    -0.206 F 
ATOM     77  C   UNL     1       1.009  12.704   9.817  1.00  0.00     0.059 A 
ATOM     78  C   UNL     1       2.595  10.983   9.173  1.00  0.00     0.059 A 
ATOM     79  F   UNL     1       3.149  10.700   6.912  1.00  0.00    -0.206 F 
ATOM     80  C   UNL     1       1.882  11.668  10.155  1.00  0.00     0.060 A 
BRANCH  80  81
ATOM     81  S   UNL     1       2.050  11.205  11.892  1.00  0.00     0.124 S 
ATOM     82  O   UNL     1       2.820  12.324  12.421  1.00  0.00    -0.237 OA
ATOM     83  O   UNL     1       0.658  11.125  12.324  1.00  0.00    -0.237 OA
ATOM     84  O   UNL     1       2.753   9.927  11.831  1.00  0.00    -0.744 OA
ENDBRANCH  80  81
ENDBRANCH  48  73
BRANCH  60  85
ATOM     85  C   UNL     1       3.252  18.141   3.883  1.00  0.00     0.058 A 
ATOM     86  C   UNL     1       4.577  18.242   4.340  1.00  0.00     0.135 A 
ATOM     87  C   UNL     1       2.489  19.319   3.828  1.00  0.00     0.135 A 
ATOM     88  F   UNL     1       5.351  17.148   4.415  1.00  0.00    -0.206 F 
ATOM     89  C   UNL     1       5.105  19.452   4.777  1.00  0.00     0.059 A 
ATOM     90  C   UNL     1       3.009  20.547   4.228  1.00  0.00     0.059 A 
ATOM     91  F   UNL     1       1.222  19.285   3.384  1.00  0.00    -0.206 F 
ATOM     92  C   UNL     1       4.310  20.599   4.723  1.00  0.00     0.060 A 
BRANCH  92  93
ATOM     93  S   UNL     1       5.002  22.160   5.309  1.00  0.00     0.124 S 
ATOM     94  O   UNL     1       4.991  21.961   6.755  1.00  0.00    -0.237 OA
ATOM     95  O   UNL     1       6.320  22.173   4.681  1.00  0.00    -0.237 OA
ATOM     96  O   UNL     1       4.064  23.158   4.805  1.00  0.00    -0.744 OA
ENDBRANCH  92  93
ENDBRANCH  60  85
ENDBRANCH  34  35
ENDBRANCH  26  29
ENDBRANCH  24  25
ENDBRANCH  23  24
ENDBRANCH   1  23
TORSDOF 17
