REMARK SMILES C[C@@](O)(c1cccc(O)c1)[C@@H](F)C(=O)NCCCCNC(=O)c1ccc(-c2c3nc(c(-c4c(F)cc(S(=O)(=O)[O-])cc4F)c4ccc([nH]4)c(-c4c(F)cc(S(=O)(=O)[O-])cc4F)c4nc(c(-c5c(F)cc(S(=O)(=O)[O-])cc5F)c5ccc2[nH]5)C=C4)C=C3)cc1
REMARK SMILES IDX 17 1 16 2 15 3 13 4 14 5 11 7 12 8 2 9 1 10 3 11 4 13 5 14
REMARK SMILES IDX 10 15 6 16 8 17 7 18 9 19 18 21 19 22 20 23 21 24 22 26
REMARK SMILES IDX 23 27 24 28 88 29 25 30 87 31 26 32 27 33 28 34 81 35 29 36
REMARK SMILES IDX 86 37 80 38 82 39 30 40 85 41 79 42 78 43 31 45 65 46 44 47
REMARK SMILES IDX 64 48 45 49 48 50 63 51 83 52 46 53 47 54 62 56 84 57 49 58
REMARK SMILES IDX 32 59 33 60 42 61 34 62 35 63 41 64 43 65 36 66 37 67 38 68
REMARK SMILES IDX 39 69 40 70 66 71 67 72 76 73 68 74 69 75 75 76 77 77 70 78
REMARK SMILES IDX 71 79 72 80 73 81 74 82 50 83 51 84 60 85 52 86 53 87 59 88
REMARK SMILES IDX 61 89 54 90 55 91 56 92 57 93 58 94
REMARK H PARENT 15 6 3 12 9 20 20 25 82 44 48 55
REMARK Flexibility Score: inf
ROOT
ATOM      1  C   UNL     1       2.985  -0.830   1.179  1.00  0.00     0.023 C 
ENDROOT
BRANCH   1   2
ATOM      2  C   UNL     1       2.667   0.643   1.434  1.00  0.00     0.116 C 
BRANCH   2   3
ATOM      3  N   UNL     1       3.038   1.472   0.299  1.00  0.00    -0.353 N 
ATOM      4  C   UNL     1       2.249   2.114  -0.611  1.00  0.00     0.257 C 
ATOM      5  O   UNL     1       2.804   2.609  -1.598  1.00  0.00    -0.272 OA
ATOM      6  H   UNL     1       4.006   1.588   0.167  1.00  0.00     0.163 HD
BRANCH   4   7
ATOM      7  C   UNL     1       0.725   2.167  -0.482  1.00  0.00     0.291 C 
ATOM      8  F   UNL     1       0.285   2.041   0.803  1.00  0.00    -0.233 F 
BRANCH   7   9
ATOM      9  C   UNL     1       0.013   1.136  -1.411  1.00  0.00     0.127 C 
ATOM     10  C   UNL     1       0.609  -0.268  -1.247  1.00  0.00     0.051 C 
BRANCH   9  11
ATOM     11  O   UNL     1       0.199   1.505  -2.792  1.00  0.00    -0.382 OA
ATOM     12  H   UNL     1      -0.247   0.860  -3.362  1.00  0.00     0.212 HD
ENDBRANCH   9  11
BRANCH   9  13
ATOM     13  C   UNL     1      -1.513   1.151  -1.207  1.00  0.00    -0.010 A 
ATOM     14  C   UNL     1      -2.213   2.373  -1.159  1.00  0.00     0.007 A 
ATOM     15  C   UNL     1      -2.276  -0.028  -1.105  1.00  0.00     0.053 A 
ATOM     16  C   UNL     1      -3.602   2.413  -0.989  1.00  0.00     0.004 A 
ATOM     17  C   UNL     1      -3.660   0.020  -0.952  1.00  0.00     0.115 A 
ATOM     18  C   UNL     1      -4.331   1.232  -0.887  1.00  0.00     0.046 A 
BRANCH  17  19
ATOM     19  O   UNL     1      -4.328  -1.168  -0.878  1.00  0.00    -0.508 OA
ATOM     20  H   UNL     1      -5.259  -1.176  -0.776  1.00  0.00     0.293 HD
ENDBRANCH  17  19
ENDBRANCH   9  13
ENDBRANCH   7   9
ENDBRANCH   4   7
ENDBRANCH   2   3
ENDBRANCH   1   2
BRANCH   1  21
ATOM     21  C   UNL     1       4.462  -1.190   1.276  1.00  0.00     0.023 C 
BRANCH  21  22
ATOM     22  C   UNL     1       5.052  -1.026   2.666  1.00  0.00     0.116 C 
BRANCH  22  23
ATOM     23  N   UNL     1       4.353  -1.810   3.677  1.00  0.00    -0.352 N 
ATOM     24  C   UNL     1       4.879  -2.651   4.628  1.00  0.00     0.251 C 
ATOM     25  H   UNL     1       3.372  -1.726   3.678  1.00  0.00     0.163 HD
ATOM     26  O   UNL     1       4.144  -3.351   5.317  1.00  0.00    -0.269 OA
BRANCH  24  27
ATOM     27  C   UNL     1       6.344  -2.717   4.781  1.00  0.00     0.039 A 
ATOM     28  C   UNL     1       6.973  -3.963   4.802  1.00  0.00     0.014 A 
ATOM     29  C   UNL     1       7.092  -1.538   4.825  1.00  0.00     0.014 A 
ATOM     30  C   UNL     1       8.367  -4.023   4.789  1.00  0.00     0.010 A 
ATOM     31  C   UNL     1       8.473  -1.602   4.710  1.00  0.00     0.010 A 
ATOM     32  C   UNL     1       9.125  -2.844   4.701  1.00  0.00    -0.014 A 
BRANCH  32  33
ATOM     33  C   UNL     1      10.605  -2.873   4.624  1.00  0.00     0.031 A 
ATOM     34  C   UNL     1      11.414  -2.213   5.708  1.00  0.00     0.074 A 
ATOM     35  C   UNL     1      11.211  -3.410   3.548  1.00  0.00     0.049 A 
ATOM     36  N   UNL     1      12.705  -2.025   5.777  1.00  0.00    -0.248 NA
ATOM     37  C   UNL     1      10.665  -1.651   6.845  1.00  0.00     0.031 C 
ATOM     38  C   UNL     1      10.528  -4.016   2.401  1.00  0.00     0.029 A 
ATOM     39  N   UNL     1      12.542  -3.521   3.234  1.00  0.00    -0.354 N 
ATOM     40  C   UNL     1      12.918  -1.303   6.944  1.00  0.00     0.074 A 
ATOM     41  C   UNL     1      11.620  -1.031   7.519  1.00  0.00     0.031 C 
ATOM     42  C   UNL     1      11.445  -4.455   1.524  1.00  0.00     0.029 A 
ATOM     43  C   UNL     1      12.777  -4.134   2.026  1.00  0.00     0.049 A 
ATOM     44  H   UNL     1      13.262  -3.191   3.819  1.00  0.00     0.167 HD
ATOM     45  C   UNL     1      14.091  -0.928   7.505  1.00  0.00     0.037 A 
ATOM     46  C   UNL     1      13.937  -4.404   1.397  1.00  0.00     0.037 A 
ATOM     47  C   UNL     1      15.379  -1.246   6.951  1.00  0.00     0.049 A 
ATOM     48  C   UNL     1      15.230  -4.021   2.062  1.00  0.00     0.074 A 
ATOM     49  C   UNL     1      16.632  -0.973   7.469  1.00  0.00     0.029 A 
ATOM     50  N   UNL     1      15.577  -1.922   5.756  1.00  0.00    -0.354 N 
ATOM     51  N   UNL     1      15.417  -3.389   3.197  1.00  0.00    -0.248 NA
ATOM     52  C   UNL     1      16.471  -4.395   1.369  1.00  0.00     0.031 C 
ATOM     53  C   UNL     1      17.589  -1.462   6.573  1.00  0.00     0.029 A 
ATOM     54  C   UNL     1      16.931  -2.071   5.515  1.00  0.00     0.049 A 
ATOM     55  H   UNL     1      14.860  -2.248   5.165  1.00  0.00     0.167 HD
ATOM     56  C   UNL     1      16.794  -3.309   3.365  1.00  0.00     0.074 A 
ATOM     57  C   UNL     1      17.393  -3.968   2.222  1.00  0.00     0.031 C 
ATOM     58  C   UNL     1      17.501  -2.741   4.373  1.00  0.00     0.037 A 
BRANCH  45  59
ATOM     59  C   UNL     1      14.025  -0.152   8.791  1.00  0.00     0.058 A 
ATOM     60  C   UNL     1      13.607  -0.752   9.990  1.00  0.00     0.135 A 
ATOM     61  C   UNL     1      14.385   1.205   8.829  1.00  0.00     0.135 A 
ATOM     62  F   UNL     1      13.232  -2.041  10.006  1.00  0.00    -0.206 F 
ATOM     63  C   UNL     1      13.509  -0.026  11.172  1.00  0.00     0.059 A 
ATOM     64  C   UNL     1      14.322   1.944  10.008  1.00  0.00     0.059 A 
ATOM     65  F   UNL     1      14.790   1.829   7.712  1.00  0.00    -0.206 F 
ATOM     66  C   UNL     1      13.865   1.323  11.170  1.00  0.00     0.060 A 
BRANCH  66  67
ATOM     67  S   UNL     1      13.724   2.255  12.709  1.00  0.00     0.124 S 
ATOM     68  O   UNL     1      12.281   2.455  12.795  1.00  0.00    -0.237 OA
ATOM     69  O   UNL     1      14.294   1.333  13.687  1.00  0.00    -0.237 OA
ATOM     70  O   UNL     1      14.511   3.456  12.451  1.00  0.00    -0.744 OA
ENDBRANCH  66  67
ENDBRANCH  45  59
BRANCH  46  71
ATOM     71  C   UNL     1      13.924  -5.105   0.086  1.00  0.00     0.058 A 
ATOM     72  C   UNL     1      14.323  -6.446  -0.016  1.00  0.00     0.135 A 
ATOM     73  C   UNL     1      13.489  -4.462  -1.082  1.00  0.00     0.135 A 
ATOM     74  F   UNL     1      14.749  -7.103   1.074  1.00  0.00    -0.206 F 
ATOM     75  C   UNL     1      14.306  -7.122  -1.232  1.00  0.00     0.059 A 
ATOM     76  C   UNL     1      13.443  -5.122  -2.306  1.00  0.00     0.059 A 
ATOM     77  F   UNL     1      13.079  -3.185  -1.033  1.00  0.00    -0.206 F 
ATOM     78  C   UNL     1      13.862  -6.451  -2.372  1.00  0.00     0.060 A 
BRANCH  78  79
ATOM     79  S   UNL     1      13.790  -7.353  -3.936  1.00  0.00     0.124 S 
ATOM     80  O   UNL     1      15.198  -7.409  -4.307  1.00  0.00    -0.237 OA
ATOM     81  O   UNL     1      13.183  -8.618  -3.533  1.00  0.00    -0.237 OA
ATOM     82  O   UNL     1      12.948  -6.503  -4.773  1.00  0.00    -0.744 OA
ENDBRANCH  78  79
ENDBRANCH  46  71
BRANCH  58  83
ATOM     83  C   UNL     1      18.998  -2.832   4.301  1.00  0.00     0.058 A 
ATOM     84  C   UNL     1      19.740  -2.035   3.417  1.00  0.00     0.135 A 
ATOM     85  C   UNL     1      19.699  -3.684   5.168  1.00  0.00     0.135 A 
ATOM     86  F   UNL     1      19.114  -1.208   2.564  1.00  0.00    -0.206 F 
ATOM     87  C   UNL     1      21.129  -2.092   3.383  1.00  0.00     0.059 A 
ATOM     88  C   UNL     1      21.089  -3.740   5.168  1.00  0.00     0.059 A 
ATOM     89  F   UNL     1      19.034  -4.459   6.040  1.00  0.00    -0.206 F 
ATOM     90  C   UNL     1      21.794  -2.947   4.263  1.00  0.00     0.060 A 
BRANCH  90  91
ATOM     91  S   UNL     1      23.599  -2.983   4.238  1.00  0.00     0.124 S 
ATOM     92  O   UNL     1      23.859  -3.767   3.035  1.00  0.00    -0.237 OA
ATOM     93  O   UNL     1      23.941  -1.566   4.159  1.00  0.00    -0.237 OA
ATOM     94  O   UNL     1      23.942  -3.634   5.499  1.00  0.00    -0.744 OA
ENDBRANCH  90  91
ENDBRANCH  58  83
ENDBRANCH  32  33
ENDBRANCH  24  27
ENDBRANCH  22  23
ENDBRANCH  21  22
ENDBRANCH   1  21
TORSDOF 18
