REMARK SMILES CCC(CC)(NC(=O)NCc1ccccc1F)C(=O)NCCCCNC(=O)c1ccc(-c2c3nc(c(-c4c(F)cc(S(=O)(=O)[O-])cc4F)c4ccc([nH]4)c(-c4c(F)cc(S(=O)(=O)[O-])cc4F)c4nc(c(-c5c(F)cc(S(=O)(=O)[O-])cc5F)c5ccc2[nH]5)C=C4)C=C3)cc1
REMARK SMILES IDX 22 1 21 2 20 3 18 4 19 5 3 7 2 8 1 9 4 10 5 11 6 12 7 13
REMARK SMILES IDX 8 15 9 16 10 18 11 19 12 20 16 21 13 22 15 23 17 24 14 25
REMARK SMILES IDX 23 26 24 27 25 28 26 29 27 31 28 32 29 33 93 34 30 35 92 36
REMARK SMILES IDX 31 37 32 38 33 39 86 40 34 41 91 42 85 43 87 44 35 45 90 46
REMARK SMILES IDX 84 47 83 48 36 50 70 51 49 52 69 53 50 54 53 55 68 56 88 57
REMARK SMILES IDX 51 58 52 59 67 61 89 62 54 63 37 64 38 65 47 66 39 67 40 68
REMARK SMILES IDX 46 69 48 70 41 71 42 72 43 73 44 74 45 75 71 76 72 77 81 78
REMARK SMILES IDX 73 79 74 80 80 81 82 82 75 83 76 84 77 85 78 86 79 87 55 88
REMARK SMILES IDX 56 89 65 90 57 91 58 92 64 93 66 94 59 95 60 96 61 97 62 98
REMARK SMILES IDX 63 99
REMARK H PARENT 20 6 6 14 9 17 25 30 87 49 53 60
REMARK Flexibility Score: inf
ROOT
ATOM      1  C   UNL     1       2.062  -5.841   2.860  1.00  0.00     0.023 C 
ENDROOT
BRANCH   1   2
ATOM      2  C   UNL     1       1.674  -4.437   3.326  1.00  0.00     0.116 C 
BRANCH   2   3
ATOM      3  N   UNL     1       2.421  -3.290   2.818  1.00  0.00    -0.354 N 
ATOM      4  C   UNL     1       2.021  -2.222   2.042  1.00  0.00     0.245 C 
ATOM      5  O   UNL     1       2.566  -1.135   2.264  1.00  0.00    -0.272 OA
ATOM      6  H   UNL     1       3.372  -3.276   3.074  1.00  0.00     0.163 HD
BRANCH   4   7
ATOM      7  C   UNL     1       0.817  -2.314   1.061  1.00  0.00     0.120 C 
BRANCH   7   8
ATOM      8  C   UNL     1       0.772  -1.305  -0.127  1.00  0.00     0.035 C 
ATOM      9  C   UNL     1       0.866   0.182   0.186  1.00  0.00     0.007 C 
ENDBRANCH   7   8
BRANCH   7  10
ATOM     10  C   UNL     1      -0.424  -2.059   1.989  1.00  0.00     0.035 C 
ATOM     11  C   UNL     1      -1.805  -2.210   1.371  1.00  0.00     0.007 C 
ENDBRANCH   7  10
BRANCH   7  12
ATOM     12  N   UNL     1       0.828  -3.665   0.477  1.00  0.00    -0.324 N 
ATOM     13  C   UNL     1       1.712  -4.374  -0.238  1.00  0.00     0.315 C 
ATOM     14  H   UNL     1      -0.004  -4.162   0.654  1.00  0.00     0.166 HD
ATOM     15  O   UNL     1       1.302  -5.454  -0.679  1.00  0.00    -0.249 OA
ATOM     16  N   UNL     1       2.989  -4.068  -0.472  1.00  0.00    -0.334 N 
ATOM     17  H   UNL     1       3.469  -4.856  -0.816  1.00  0.00     0.165 HD
BRANCH  16  18
ATOM     18  C   UNL     1       3.900  -2.928  -0.377  1.00  0.00     0.156 C 
BRANCH  18  19
ATOM     19  C   UNL     1       4.970  -3.028   0.682  1.00  0.00     0.007 A 
ATOM     20  C   UNL     1       5.289  -1.903   1.462  1.00  0.00     0.008 A 
ATOM     21  C   UNL     1       5.712  -4.188   0.898  1.00  0.00     0.128 A 
ATOM     22  C   UNL     1       6.205  -1.984   2.514  1.00  0.00     0.001 A 
ATOM     23  C   UNL     1       6.643  -4.276   1.936  1.00  0.00     0.039 A 
ATOM     24  F   UNL     1       5.509  -5.265   0.125  1.00  0.00    -0.207 F 
ATOM     25  C   UNL     1       6.869  -3.179   2.765  1.00  0.00     0.003 A 
ENDBRANCH  18  19
ENDBRANCH  16  18
ENDBRANCH   7  12
ENDBRANCH   4   7
ENDBRANCH   2   3
ENDBRANCH   1   2
BRANCH   1  26
ATOM     26  C   UNL     1       3.528  -6.248   2.901  1.00  0.00     0.023 C 
BRANCH  26  27
ATOM     27  C   UNL     1       4.298  -5.923   4.170  1.00  0.00     0.116 C 
BRANCH  27  28
ATOM     28  N   UNL     1       3.886  -6.730   5.303  1.00  0.00    -0.352 N 
ATOM     29  C   UNL     1       4.658  -7.474   6.166  1.00  0.00     0.251 C 
ATOM     30  H   UNL     1       2.918  -6.748   5.480  1.00  0.00     0.163 HD
ATOM     31  O   UNL     1       4.109  -8.213   6.979  1.00  0.00    -0.269 OA
BRANCH  29  32
ATOM     32  C   UNL     1       6.141  -7.413   6.109  1.00  0.00     0.039 A 
ATOM     33  C   UNL     1       6.864  -8.604   6.229  1.00  0.00     0.014 A 
ATOM     34  C   UNL     1       6.826  -6.200   5.979  1.00  0.00     0.014 A 
ATOM     35  C   UNL     1       8.262  -8.585   6.174  1.00  0.00     0.010 A 
ATOM     36  C   UNL     1       8.219  -6.190   5.861  1.00  0.00     0.010 A 
ATOM     37  C   UNL     1       8.954  -7.380   5.968  1.00  0.00    -0.014 A 
BRANCH  37  38
ATOM     38  C   UNL     1      10.441  -7.357   5.889  1.00  0.00     0.031 A 
ATOM     39  C   UNL     1      11.251  -6.659   6.949  1.00  0.00     0.074 A 
ATOM     40  C   UNL     1      11.070  -7.946   4.852  1.00  0.00     0.049 A 
ATOM     41  N   UNL     1      12.549  -6.519   7.037  1.00  0.00    -0.248 NA
ATOM     42  C   UNL     1      10.505  -6.019   8.044  1.00  0.00     0.031 C 
ATOM     43  C   UNL     1      10.408  -8.630   3.740  1.00  0.00     0.029 A 
ATOM     44  N   UNL     1      12.408  -8.067   4.566  1.00  0.00    -0.354 N 
ATOM     45  C   UNL     1      12.776  -5.772   8.187  1.00  0.00     0.074 A 
ATOM     46  C   UNL     1      11.478  -5.445   8.738  1.00  0.00     0.031 C 
ATOM     47  C   UNL     1      11.341  -9.129   2.913  1.00  0.00     0.029 A 
ATOM     48  C   UNL     1      12.667  -8.774   3.414  1.00  0.00     0.049 A 
ATOM     49  H   UNL     1      13.116  -7.683   5.132  1.00  0.00     0.167 HD
ATOM     50  C   UNL     1      13.954  -5.412   8.750  1.00  0.00     0.037 A 
ATOM     51  C   UNL     1      13.835  -9.105   2.829  1.00  0.00     0.037 A 
ATOM     52  C   UNL     1      15.248  -5.765   8.225  1.00  0.00     0.049 A 
ATOM     53  C   UNL     1      15.132  -8.688   3.467  1.00  0.00     0.074 A 
ATOM     54  C   UNL     1      16.495  -5.489   8.759  1.00  0.00     0.029 A 
ATOM     55  N   UNL     1      15.464  -6.471   7.052  1.00  0.00    -0.354 N 
ATOM     56  N   UNL     1      15.325  -8.018   4.577  1.00  0.00    -0.248 NA
ATOM     57  C   UNL     1      16.371  -9.073   2.774  1.00  0.00     0.031 C 
ATOM     58  C   UNL     1      17.466  -5.997   7.891  1.00  0.00     0.029 A 
ATOM     59  C   UNL     1      16.824  -6.625   6.836  1.00  0.00     0.049 A 
ATOM     60  H   UNL     1      14.756  -6.814   6.460  1.00  0.00     0.167 HD
ATOM     61  C   UNL     1      16.704  -7.917   4.726  1.00  0.00     0.074 A 
ATOM     62  C   UNL     1      17.299  -8.603   3.598  1.00  0.00     0.031 C 
ATOM     63  C   UNL     1      17.410  -7.310   5.711  1.00  0.00     0.037 A 
BRANCH  50  64
ATOM     64  C   UNL     1      13.905  -4.604  10.016  1.00  0.00     0.058 A 
ATOM     65  C   UNL     1      14.290  -3.254  10.018  1.00  0.00     0.135 A 
ATOM     66  C   UNL     1      13.529  -5.181  11.239  1.00  0.00     0.135 A 
ATOM     67  F   UNL     1      14.655  -2.652   8.875  1.00  0.00    -0.206 F 
ATOM     68  C   UNL     1      14.309  -2.505  11.191  1.00  0.00     0.059 A 
ATOM     69  C   UNL     1      13.517  -4.445  12.420  1.00  0.00     0.059 A 
ATOM     70  F   UNL     1      13.134  -6.463  11.288  1.00  0.00    -0.206 F 
ATOM     71  C   UNL     1      13.921  -3.110  12.388  1.00  0.00     0.060 A 
BRANCH  71  72
ATOM     72  S   UNL     1      13.903  -2.114  13.894  1.00  0.00     0.124 S 
ATOM     73  O   UNL     1      15.326  -1.979  14.181  1.00  0.00    -0.237 OA
ATOM     74  O   UNL     1      13.224  -0.900  13.451  1.00  0.00    -0.237 OA
ATOM     75  O   UNL     1      13.145  -2.937  14.832  1.00  0.00    -0.744 OA
ENDBRANCH  71  72
ENDBRANCH  50  64
BRANCH  51  76
ATOM     76  C   UNL     1      13.826  -9.912   1.581  1.00  0.00     0.058 A 
ATOM     77  C   UNL     1      13.410  -9.364   0.359  1.00  0.00     0.135 A 
ATOM     78  C   UNL     1      14.195 -11.265   1.601  1.00  0.00     0.135 A 
ATOM     79  F   UNL     1      13.041  -8.075   0.290  1.00  0.00    -0.206 F 
ATOM     80  C   UNL     1      13.333 -10.135  -0.795  1.00  0.00     0.059 A 
ATOM     81  C   UNL     1      14.147 -12.053   0.455  1.00  0.00     0.059 A 
ATOM     82  F   UNL     1      14.615 -11.828   2.744  1.00  0.00    -0.206 F 
ATOM     83  C   UNL     1      13.696 -11.482  -0.735  1.00  0.00     0.060 A 
BRANCH  83  84
ATOM     84  S   UNL     1      13.563 -12.476  -2.237  1.00  0.00     0.124 S 
ATOM     85  O   UNL     1      12.115 -12.589  -2.382  1.00  0.00    -0.237 OA
ATOM     86  O   UNL     1      14.236 -11.634  -3.222  1.00  0.00    -0.237 OA
ATOM     87  O   UNL     1      14.259 -13.709  -1.889  1.00  0.00    -0.744 OA
ENDBRANCH  83  84
ENDBRANCH  51  76
BRANCH  63  88
ATOM     88  C   UNL     1      18.910  -7.362   5.634  1.00  0.00     0.058 A 
ATOM     89  C   UNL     1      19.642  -8.162   6.525  1.00  0.00     0.135 A 
ATOM     90  C   UNL     1      19.625  -6.554   4.737  1.00  0.00     0.135 A 
ATOM     91  F   UNL     1      19.006  -8.951   7.406  1.00  0.00    -0.206 F 
ATOM     92  C   UNL     1      21.033  -8.144   6.544  1.00  0.00     0.059 A 
ATOM     93  C   UNL     1      21.017  -6.536   4.724  1.00  0.00     0.059 A 
ATOM     94  F   UNL     1      18.971  -5.779   3.857  1.00  0.00    -0.206 F 
ATOM     95  C   UNL     1      21.712  -7.321   5.644  1.00  0.00     0.060 A 
BRANCH  95  96
ATOM     96  S   UNL     1      23.517  -7.306   5.683  1.00  0.00     0.124 S 
ATOM     97  O   UNL     1      23.784  -6.567   6.912  1.00  0.00    -0.237 OA
ATOM     98  O   UNL     1      23.839  -8.730   5.715  1.00  0.00    -0.237 OA
ATOM     99  O   UNL     1      23.877  -6.619   4.446  1.00  0.00    -0.744 OA
ENDBRANCH  95  96
ENDBRANCH  63  88
ENDBRANCH  37  38
ENDBRANCH  29  32
ENDBRANCH  27  28
ENDBRANCH  26  27
ENDBRANCH   1  26
TORSDOF 19
