REMARK SMILES C=Cc1cc(Cl)cc2c1O[C@H](C(F)(F)F)C(C(=O)NCCCCNC(=O)c1ccc(-c3c4nc(c(-c5c(F)cc(S(=O)(=O)[O-])cc5F)c5ccc([nH]5)c(-c5c(F)cc(S(=O)(=O)[O-])cc5F)c5nc(c(-c6c(F)cc(S(=O)(=O)[O-])cc6F)c6ccc3[nH]6)C=C5)C=C4)cc1)=C2
REMARK SMILES IDX 22 1 21 2 20 3 19 4 17 5 18 6 16 8 3 9 4 10 9 11 5 12 8 13
REMARK SMILES IDX 10 14 6 15 7 16 93 17 11 18 2 19 1 20 12 21 13 22 14 23
REMARK SMILES IDX 15 24 23 25 24 26 25 27 26 29 27 30 28 31 92 32 29 33 91 34
REMARK SMILES IDX 30 35 31 36 32 37 85 38 33 39 90 40 84 41 86 42 34 43 89 44
REMARK SMILES IDX 83 45 82 46 35 48 69 49 48 50 68 51 49 52 52 53 67 54 87 55
REMARK SMILES IDX 50 56 51 57 66 59 88 60 53 61 36 62 37 63 46 64 38 65 39 66
REMARK SMILES IDX 45 67 47 68 40 69 41 70 42 71 43 72 44 73 70 74 71 75 80 76
REMARK SMILES IDX 72 77 73 78 79 79 81 80 74 81 75 82 76 83 77 84 78 85 54 86
REMARK SMILES IDX 55 87 64 88 56 89 57 90 63 91 65 92 58 93 59 94 60 95 61 96
REMARK SMILES IDX 62 97
REMARK H PARENT 19 7 24 28 86 47 52 58
REMARK Flexibility Score: inf
ROOT
ATOM      1  C   UNL     1      -1.934  -9.044   0.650  1.00  0.00     0.023 C 
ENDROOT
BRANCH   1   2
ATOM      2  C   UNL     1      -1.537  -7.626   0.227  1.00  0.00     0.023 C 
BRANCH   2   3
ATOM      3  C   UNL     1      -2.097  -7.190  -1.125  1.00  0.00     0.116 C 
BRANCH   3   4
ATOM      4  N   UNL     1      -3.439  -6.645  -1.014  1.00  0.00    -0.352 N 
ATOM      5  C   UNL     1      -4.003  -5.417  -0.950  1.00  0.00     0.251 C 
ATOM      6  O   UNL     1      -5.236  -5.405  -0.864  1.00  0.00    -0.270 OA
ATOM      7  H   UNL     1      -4.117  -7.358  -0.977  1.00  0.00     0.163 HD
BRANCH   5   8
ATOM      8  C   UNL     1      -3.261  -4.121  -0.976  1.00  0.00     0.067 C 
ATOM      9  C   UNL     1      -1.312  -0.385  -0.772  1.00  0.00     0.018 A 
ATOM     10  C   UNL     1      -2.087   0.782  -0.790  1.00  0.00     0.032 A 
ATOM     11  C   UNL     1      -1.964  -1.631  -0.796  1.00  0.00     0.135 A 
ATOM     12  C   UNL     1      -3.480   0.699  -0.799  1.00  0.00     0.042 A 
ATOM     13  C   UNL     1      -3.362  -1.711  -0.794  1.00  0.00     0.019 A 
ATOM     14  O   UNL     1      -1.190  -2.762  -0.758  1.00  0.00    -0.475 OA
ATOM     15  Cl  UNL     1      -4.416   2.144  -0.816  1.00  0.00    -0.084 Cl
ATOM     16  C   UNL     1      -4.121  -0.538  -0.794  1.00  0.00     0.032 A 
ATOM     17  C   UNL     1      -4.004  -3.020  -0.754  1.00  0.00     0.025 C 
ATOM     18  C   UNL     1      -1.795  -3.981  -1.269  1.00  0.00     0.314 C 
BRANCH   9  19
ATOM     19  C   UNL     1       0.156  -0.311  -0.793  1.00  0.00     0.004 C 
ATOM     20  C   UNL     1       0.873   0.480   0.016  1.00  0.00     0.009 C 
ENDBRANCH   9  19
BRANCH  18  21
ATOM     21  C   UNL     1      -1.472  -4.118  -2.768  1.00  0.00     0.429 C 
ATOM     22  F   UNL     1      -0.137  -4.272  -2.953  1.00  0.00    -0.167 F 
ATOM     23  F   UNL     1      -2.067  -5.193  -3.334  1.00  0.00    -0.167 F 
ATOM     24  F   UNL     1      -1.854  -3.034  -3.483  1.00  0.00    -0.167 F 
ENDBRANCH  18  21
ENDBRANCH   5   8
ENDBRANCH   3   4
ENDBRANCH   2   3
ENDBRANCH   1   2
BRANCH   1  25
ATOM     25  C   UNL     1      -1.581 -10.154  -0.339  1.00  0.00     0.116 C 
BRANCH  25  26
ATOM     26  N   UNL     1      -0.185 -10.163  -0.758  1.00  0.00    -0.352 N 
ATOM     27  C   UNL     1       0.542 -11.232  -1.236  1.00  0.00     0.251 C 
ATOM     28  H   UNL     1       0.295  -9.306  -0.691  1.00  0.00     0.163 HD
ATOM     29  O   UNL     1       1.735 -11.113  -1.495  1.00  0.00    -0.269 OA
BRANCH  27  30
ATOM     30  C   UNL     1      -0.133 -12.538  -1.371  1.00  0.00     0.039 A 
ATOM     31  C   UNL     1      -1.323 -12.639  -2.094  1.00  0.00     0.014 A 
ATOM     32  C   UNL     1       0.371 -13.635  -0.669  1.00  0.00     0.014 A 
ATOM     33  C   UNL     1      -2.097 -13.787  -1.972  1.00  0.00     0.010 A 
ATOM     34  C   UNL     1      -0.379 -14.811  -0.603  1.00  0.00     0.010 A 
ATOM     35  C   UNL     1      -1.647 -14.872  -1.202  1.00  0.00    -0.014 A 
BRANCH  35  36
ATOM     36  C   UNL     1      -2.548 -16.033  -0.987  1.00  0.00     0.031 A 
ATOM     37  C   UNL     1      -3.124 -16.308   0.378  1.00  0.00     0.074 A 
ATOM     38  C   UNL     1      -2.912 -16.791  -2.039  1.00  0.00     0.049 A 
ATOM     39  N   UNL     1      -3.941 -17.259   0.751  1.00  0.00    -0.248 NA
ATOM     40  C   UNL     1      -2.733 -15.397   1.467  1.00  0.00     0.031 C 
ATOM     41  C   UNL     1      -2.440 -16.606  -3.413  1.00  0.00     0.029 A 
ATOM     42  N   UNL     1      -3.785 -17.844  -2.125  1.00  0.00    -0.354 N 
ATOM     43  C   UNL     1      -4.146 -17.077   2.113  1.00  0.00     0.074 A 
ATOM     44  C   UNL     1      -3.353 -15.933   2.510  1.00  0.00     0.031 C 
ATOM     45  C   UNL     1      -3.072 -17.478  -4.214  1.00  0.00     0.029 A 
ATOM     46  C   UNL     1      -3.952 -18.315  -3.405  1.00  0.00     0.049 A 
ATOM     47  H   UNL     1      -4.248 -18.226  -1.344  1.00  0.00     0.167 HD
ATOM     48  C   UNL     1      -4.931 -17.791   2.955  1.00  0.00     0.037 A 
ATOM     49  C   UNL     1      -4.723 -19.314  -3.874  1.00  0.00     0.037 A 
ATOM     50  C   UNL     1      -5.745 -18.907   2.554  1.00  0.00     0.049 A 
ATOM     51  C   UNL     1      -5.567 -20.104  -2.917  1.00  0.00     0.074 A 
ATOM     52  C   UNL     1      -6.578 -19.691   3.334  1.00  0.00     0.029 A 
ATOM     53  N   UNL     1      -5.838 -19.392   1.258  1.00  0.00    -0.354 N 
ATOM     54  N   UNL     1      -5.719 -19.937  -1.625  1.00  0.00    -0.248 NA
ATOM     55  C   UNL     1      -6.328 -21.229  -3.476  1.00  0.00     0.031 C 
ATOM     56  C   UNL     1      -7.158 -20.665   2.513  1.00  0.00     0.029 A 
ATOM     57  C   UNL     1      -6.707 -20.470   1.218  1.00  0.00     0.049 A 
ATOM     58  H   UNL     1      -5.358 -19.025   0.481  1.00  0.00     0.167 HD
ATOM     59  C   UNL     1      -6.589 -20.939  -1.215  1.00  0.00     0.074 A 
ATOM     60  C   UNL     1      -6.949 -21.693  -2.399  1.00  0.00     0.031 C 
ATOM     61  C   UNL     1      -7.041 -21.215   0.032  1.00  0.00     0.037 A 
BRANCH  48  62
ATOM     62  C   UNL     1      -4.945 -17.392   4.404  1.00  0.00     0.058 A 
ATOM     63  C   UNL     1      -5.668 -16.276   4.850  1.00  0.00     0.135 A 
ATOM     64  C   UNL     1      -4.273 -18.167   5.363  1.00  0.00     0.135 A 
ATOM     65  F   UNL     1      -6.312 -15.492   3.970  1.00  0.00    -0.206 F 
ATOM     66  C   UNL     1      -5.715 -15.933   6.197  1.00  0.00     0.059 A 
ATOM     67  C   UNL     1      -4.320 -17.852   6.718  1.00  0.00     0.059 A 
ATOM     68  F   UNL     1      -3.564 -19.243   4.986  1.00  0.00    -0.206 F 
ATOM     69  C   UNL     1      -5.037 -16.727   7.124  1.00  0.00     0.060 A 
BRANCH  69  70
ATOM     70  S   UNL     1      -5.116 -16.277   8.871  1.00  0.00     0.124 S 
ATOM     71  O   UNL     1      -4.220 -15.126   8.914  1.00  0.00    -0.237 OA
ATOM     72  O   UNL     1      -6.534 -15.982   9.055  1.00  0.00    -0.237 OA
ATOM     73  O   UNL     1      -4.635 -17.474   9.553  1.00  0.00    -0.744 OA
ENDBRANCH  69  70
ENDBRANCH  48  62
BRANCH  49  74
ATOM     74  C   UNL     1      -4.724 -19.616  -5.327  1.00  0.00     0.058 A 
ATOM     75  C   UNL     1      -5.816 -19.265  -6.132  1.00  0.00     0.135 A 
ATOM     76  C   UNL     1      -3.617 -20.216  -5.943  1.00  0.00     0.135 A 
ATOM     77  F   UNL     1      -6.899 -18.693  -5.583  1.00  0.00    -0.206 F 
ATOM     78  C   UNL     1      -5.811 -19.497  -7.503  1.00  0.00     0.059 A 
ATOM     79  C   UNL     1      -3.579 -20.441  -7.314  1.00  0.00     0.059 A 
ATOM     80  F   UNL     1      -2.543 -20.556  -5.213  1.00  0.00    -0.206 F 
ATOM     81  C   UNL     1      -4.684 -20.081  -8.086  1.00  0.00     0.060 A 
BRANCH  81  82
ATOM     82  S   UNL     1      -4.649 -20.306  -9.877  1.00  0.00     0.124 S 
ATOM     83  O   UNL     1      -5.474 -21.498 -10.039  1.00  0.00    -0.237 OA
ATOM     84  O   UNL     1      -5.229 -19.057 -10.359  1.00  0.00    -0.237 OA
ATOM     85  O   UNL     1      -3.227 -20.477 -10.162  1.00  0.00    -0.744 OA
ENDBRANCH  81  82
ENDBRANCH  49  74
BRANCH  61  86
ATOM     86  C   UNL     1      -7.964 -22.388   0.181  1.00  0.00     0.058 A 
ATOM     87  C   UNL     1      -7.470 -23.701   0.192  1.00  0.00     0.135 A 
ATOM     88  C   UNL     1      -9.342 -22.197   0.368  1.00  0.00     0.135 A 
ATOM     89  F   UNL     1      -6.160 -23.931   0.011  1.00  0.00    -0.206 F 
ATOM     90  C   UNL     1      -8.315 -24.790   0.372  1.00  0.00     0.059 A 
ATOM     91  C   UNL     1     -10.203 -23.272   0.565  1.00  0.00     0.059 A 
ATOM     92  F   UNL     1      -9.858 -20.958   0.371  1.00  0.00    -0.206 F 
ATOM     93  C   UNL     1      -9.681 -24.565   0.557  1.00  0.00     0.060 A 
BRANCH  93  94
ATOM     94  S   UNL     1     -10.763 -25.985   0.827  1.00  0.00     0.124 S 
ATOM     95  O   UNL     1     -10.893 -26.515  -0.526  1.00  0.00    -0.237 OA
ATOM     96  O   UNL     1      -9.988 -26.801   1.756  1.00  0.00    -0.237 OA
ATOM     97  O   UNL     1     -11.972 -25.387   1.387  1.00  0.00    -0.744 OA
ENDBRANCH  93  94
ENDBRANCH  61  86
ENDBRANCH  35  36
ENDBRANCH  27  30
ENDBRANCH  25  26
ENDBRANCH   1  25
TORSDOF 16
