REMARK SMILES CCC[C@@]1(C(=O)NCCCCNC(=O)c2ccc(-c3c4nc(c(-c5c(F)cc(S(=O)(=O)[O-])cc5F)c5ccc([nH]5)c(-c5c(F)cc(S(=O)(=O)[O-])cc5F)c5nc(c(-c6c(F)cc(S(=O)(=O)[O-])cc6F)c6ccc3[nH]6)C=C5)C=C4)cc2)CCCN(C(=O)CCn2cncn2)C1
REMARK SMILES IDX 9 1 8 2 7 3 5 4 6 5 4 7 81 8 94 9 82 10 84 11 83 12 3 13
REMARK SMILES IDX 2 14 1 15 85 16 86 17 87 18 88 19 89 20 90 21 93 22 91 23
REMARK SMILES IDX 92 24 10 25 11 26 12 27 13 28 14 30 15 31 16 32 80 33 17 34
REMARK SMILES IDX 79 35 18 36 19 37 20 38 73 39 21 40 78 41 72 42 74 43 22 44
REMARK SMILES IDX 77 45 71 46 70 47 23 49 57 50 36 51 56 52 37 53 40 54 55 55
REMARK SMILES IDX 75 56 38 57 39 58 54 60 76 61 41 62 24 63 25 64 34 65 26 66
REMARK SMILES IDX 27 67 33 68 35 69 28 70 29 71 30 72 31 73 32 74 58 75 59 76
REMARK SMILES IDX 68 77 60 78 61 79 67 80 69 81 62 82 63 83 64 84 65 85 66 86
REMARK SMILES IDX 42 87 43 88 52 89 44 90 45 91 51 92 53 93 46 94 47 95 48 96
REMARK SMILES IDX 49 97 50 98
REMARK H PARENT 7 6 12 29 74 48 40 59
REMARK Flexibility Score: inf
ROOT
ATOM      1  C   UNL     1      -1.376   0.190   5.934  1.00  0.00     0.023 C 
ENDROOT
BRANCH   1   2
ATOM      2  C   UNL     1      -0.361   1.306   5.315  1.00  0.00     0.116 C 
BRANCH   2   3
ATOM      3  N   UNL     1       0.732   1.225   4.282  1.00  0.00    -0.356 N 
ATOM      4  C   UNL     1       1.102   1.649   3.026  1.00  0.00     0.228 C 
ATOM      5  O   UNL     1       2.313   1.594   2.772  1.00  0.00    -0.274 OA
ATOM      6  H   UNL     1       1.450   0.654   4.639  1.00  0.00     0.163 HD
BRANCH   4   7
ATOM      7  C   UNL     1       0.136   2.001   1.890  1.00  0.00     0.067 C 
ATOM      8  C   UNL     1      -0.901   2.965   2.472  1.00  0.00     0.020 C 
ATOM      9  C   UNL     1      -0.382   0.643   1.448  1.00  0.00     0.136 C 
ATOM     10  C   UNL     1      -2.281   2.357   2.772  1.00  0.00     0.023 C 
ATOM     11  N   UNL     1      -1.180   0.097   2.501  1.00  0.00    -0.342 N 
ATOM     12  C   UNL     1      -2.454   0.817   2.637  1.00  0.00     0.119 C 
BRANCH   7  13
ATOM     13  C   UNL     1       0.878   2.634   0.655  1.00  0.00     0.018 C 
BRANCH  13  14
ATOM     14  C   UNL     1       0.103   2.789  -0.680  1.00  0.00    -0.002 C 
ATOM     15  C   UNL     1      -1.127   3.681  -0.655  1.00  0.00     0.004 C 
ENDBRANCH  13  14
ENDBRANCH   7  13
BRANCH  11  16
ATOM     16  C   UNL     1      -0.848  -1.095   3.145  1.00  0.00     0.224 C 
ATOM     17  O   UNL     1      -1.774  -1.868   3.416  1.00  0.00    -0.275 OA
BRANCH  16  18
ATOM     18  C   UNL     1       0.694  -1.503   3.443  1.00  0.00     0.124 C 
BRANCH  18  19
ATOM     19  C   UNL     1       1.463  -1.718   4.857  1.00  0.00     0.156 C 
BRANCH  19  20
ATOM     20  N   UNL     1       1.956  -0.696   5.791  1.00  0.00    -0.252 N 
ATOM     21  C   UNL     1       1.580  -0.378   7.069  1.00  0.00     0.219 A 
ATOM     22  N   UNL     1       2.977   0.135   5.450  1.00  0.00    -0.160 NA
ATOM     23  N   UNL     1       2.245   0.653   7.535  1.00  0.00    -0.224 NA
ATOM     24  C   UNL     1       3.107   0.922   6.529  1.00  0.00     0.246 A 
ENDBRANCH  19  20
ENDBRANCH  18  19
ENDBRANCH  16  18
ENDBRANCH  11  16
ENDBRANCH   4   7
ENDBRANCH   2   3
ENDBRANCH   1   2
BRANCH   1  25
ATOM     25  C   UNL     1      -1.456  -1.375   6.147  1.00  0.00     0.023 C 
BRANCH  25  26
ATOM     26  C   UNL     1      -1.087  -2.233   7.377  1.00  0.00     0.116 C 
BRANCH  26  27
ATOM     27  N   UNL     1      -1.378  -1.674   8.668  1.00  0.00    -0.352 N 
ATOM     28  C   UNL     1      -0.955  -2.164   9.896  1.00  0.00     0.251 C 
ATOM     29  H   UNL     1      -1.932  -0.860   8.683  1.00  0.00     0.163 HD
ATOM     30  O   UNL     1      -1.450  -1.754  10.925  1.00  0.00    -0.269 OA
BRANCH  28  31
ATOM     31  C   UNL     1       0.077  -3.237   9.935  1.00  0.00     0.039 A 
ATOM     32  C   UNL     1      -0.269  -4.501  10.417  1.00  0.00     0.014 A 
ATOM     33  C   UNL     1       1.388  -2.989   9.524  1.00  0.00     0.014 A 
ATOM     34  C   UNL     1       0.685  -5.528  10.432  1.00  0.00     0.010 A 
ATOM     35  C   UNL     1       2.319  -4.030   9.473  1.00  0.00     0.010 A 
ATOM     36  C   UNL     1       1.982  -5.312   9.934  1.00  0.00    -0.014 A 
BRANCH  36  37
ATOM     37  C   UNL     1       3.003  -6.399   9.931  1.00  0.00     0.031 A 
ATOM     38  C   UNL     1       4.237  -6.276  10.788  1.00  0.00     0.074 A 
ATOM     39  C   UNL     1       2.848  -7.476   9.133  1.00  0.00     0.049 A 
ATOM     40  N   UNL     1       5.268  -7.078  10.877  1.00  0.00    -0.248 NA
ATOM     41  C   UNL     1       4.335  -5.082  11.642  1.00  0.00     0.031 C 
ATOM     42  C   UNL     1       1.716  -7.704   8.232  1.00  0.00     0.029 A 
ATOM     43  N   UNL     1       3.647  -8.578   8.942  1.00  0.00    -0.354 N 
ATOM     44  C   UNL     1       6.141  -6.478  11.778  1.00  0.00     0.074 A 
ATOM     45  C   UNL     1       5.541  -5.222  12.172  1.00  0.00     0.031 C 
ATOM     46  C   UNL     1       1.884  -8.879   7.601  1.00  0.00     0.029 A 
ATOM     47  C   UNL     1       3.149  -9.474   8.022  1.00  0.00     0.049 A 
ATOM     48  H   UNL     1       4.497  -8.715   9.420  1.00  0.00     0.167 HD
ATOM     49  C   UNL     1       7.323  -6.940  12.255  1.00  0.00     0.037 A 
ATOM     50  C   UNL     1       3.656 -10.637   7.565  1.00  0.00     0.037 A 
ATOM     51  C   UNL     1       7.901  -8.206  11.888  1.00  0.00     0.049 A 
ATOM     52  C   UNL     1       4.972 -11.132   8.108  1.00  0.00     0.074 A 
ATOM     53  C   UNL     1       9.070  -8.784  12.351  1.00  0.00     0.029 A 
ATOM     54  N   UNL     1       7.351  -9.091  10.973  1.00  0.00    -0.354 N 
ATOM     55  N   UNL     1       5.756 -10.573   9.000  1.00  0.00    -0.248 NA
ATOM     56  C   UNL     1       5.472 -12.415   7.591  1.00  0.00     0.031 C 
ATOM     57  C   UNL     1       9.247 -10.002  11.687  1.00  0.00     0.029 A 
ATOM     58  C   UNL     1       8.164 -10.205  10.847  1.00  0.00     0.049 A 
ATOM     59  H   UNL     1       6.508  -8.949  10.484  1.00  0.00     0.167 HD
ATOM     60  C   UNL     1       6.821 -11.452   9.176  1.00  0.00     0.074 A 
ATOM     61  C   UNL     1       6.582 -12.579   8.300  1.00  0.00     0.031 C 
ATOM     62  C   UNL     1       7.896 -11.335   9.992  1.00  0.00     0.037 A 
BRANCH  49  63
ATOM     63  C   UNL     1       8.070  -6.070  13.230  1.00  0.00     0.058 A 
ATOM     64  C   UNL     1       7.605  -5.865  14.540  1.00  0.00     0.135 A 
ATOM     65  C   UNL     1       9.279  -5.457  12.863  1.00  0.00     0.135 A 
ATOM     66  F   UNL     1       6.450  -6.418  14.942  1.00  0.00    -0.206 F 
ATOM     67  C   UNL     1       8.292  -5.054  15.437  1.00  0.00     0.059 A 
ATOM     68  C   UNL     1       9.998  -4.665  13.753  1.00  0.00     0.059 A 
ATOM     69  F   UNL     1       9.772  -5.623  11.625  1.00  0.00    -0.206 F 
ATOM     70  C   UNL     1       9.486  -4.455  15.033  1.00  0.00     0.060 A 
BRANCH  70  71
ATOM     71  S   UNL     1      10.362  -3.400  16.208  1.00  0.00     0.124 S 
ATOM     72  O   UNL     1       9.515  -2.211  16.218  1.00  0.00    -0.237 OA
ATOM     73  O   UNL     1      10.340  -4.203  17.427  1.00  0.00    -0.237 OA
ATOM     74  O   UNL     1      11.677  -3.229  15.598  1.00  0.00    -0.744 OA
ENDBRANCH  70  71
ENDBRANCH  49  63
BRANCH  50  75
ATOM     75  C   UNL     1       2.910 -11.430   6.548  1.00  0.00     0.058 A 
ATOM     76  C   UNL     1       2.315 -12.656   6.881  1.00  0.00     0.135 A 
ATOM     77  C   UNL     1       2.776 -10.979   5.226  1.00  0.00     0.135 A 
ATOM     78  F   UNL     1       2.421 -13.136   8.130  1.00  0.00    -0.206 F 
ATOM     79  C   UNL     1       1.628 -13.416   5.938  1.00  0.00     0.059 A 
ATOM     80  C   UNL     1       2.073 -11.709   4.271  1.00  0.00     0.059 A 
ATOM     81  F   UNL     1       3.313  -9.806   4.857  1.00  0.00    -0.206 F 
ATOM     82  C   UNL     1       1.512 -12.932   4.634  1.00  0.00     0.060 A 
BRANCH  82  83
ATOM     83  S   UNL     1       0.582 -13.904   3.428  1.00  0.00     0.124 S 
ATOM     84  O   UNL     1       1.500 -15.007   3.169  1.00  0.00    -0.237 OA
ATOM     85  O   UNL     1      -0.628 -14.241   4.173  1.00  0.00    -0.237 OA
ATOM     86  O   UNL     1       0.388 -12.970   2.323  1.00  0.00    -0.744 OA
ENDBRANCH  82  83
ENDBRANCH  50  75
BRANCH  62  87
ATOM     87  C   UNL     1       8.881 -12.470  10.029  1.00  0.00     0.058 A 
ATOM     88  C   UNL     1       9.805 -12.681   8.995  1.00  0.00     0.135 A 
ATOM     89  C   UNL     1       8.970 -13.289  11.168  1.00  0.00     0.135 A 
ATOM     90  F   UNL     1       9.757 -11.932   7.883  1.00  0.00    -0.206 F 
ATOM     91  C   UNL     1      10.785 -13.664   9.089  1.00  0.00     0.059 A 
ATOM     92  C   UNL     1       9.957 -14.261  11.293  1.00  0.00     0.059 A 
ATOM     93  F   UNL     1       8.114 -13.122  12.188  1.00  0.00    -0.206 F 
ATOM     94  C   UNL     1      10.860 -14.442  10.246  1.00  0.00     0.060 A 
BRANCH  94  95
ATOM     95  S   UNL     1      12.188 -15.657  10.389  1.00  0.00     0.124 S 
ATOM     96  O   UNL     1      11.734 -16.699   9.474  1.00  0.00    -0.237 OA
ATOM     97  O   UNL     1      13.355 -14.896   9.955  1.00  0.00    -0.237 OA
ATOM     98  O   UNL     1      12.172 -16.014  11.805  1.00  0.00    -0.744 OA
ENDBRANCH  94  95
ENDBRANCH  62  87
ENDBRANCH  36  37
ENDBRANCH  28  31
ENDBRANCH  26  27
ENDBRANCH  25  26
ENDBRANCH   1  25
TORSDOF 20
