REMARK SMILES CN1C(=O)C[C@@H](C(=O)NCCCCNC(=O)c2ccc(-c3c4nc(c(-c5c(F)cc(S(=O)(=O)[O-])cc5F)c5ccc([nH]5)c(-c5c(F)cc(S(=O)(=O)[O-])cc5F)c5nc(c(-c6c(F)cc(S(=O)(=O)[O-])cc6F)c6ccc3[nH]6)C=C5)C=C4)cc2)C12CCN(C(=O)c1ccccc1-n1cccn1)CC2
REMARK SMILES IDX 12 1 11 2 10 3 9 4 7 5 8 6 6 8 1 9 2 10 3 11 83 12 4 13 5 14
REMARK SMILES IDX 84 15 101 16 85 17 100 18 86 19 87 20 88 21 89 22 90 23
REMARK SMILES IDX 94 24 91 25 93 26 92 27 95 28 96 29 99 30 97 31 98 32 13 33
REMARK SMILES IDX 14 34 15 35 16 37 17 38 18 39 82 40 19 41 81 42 20 43 21 44
REMARK SMILES IDX 22 45 75 46 23 47 80 48 74 49 76 50 24 51 79 52 73 53 72 54
REMARK SMILES IDX 25 56 59 57 38 58 58 59 39 60 42 61 57 62 77 63 40 64 41 65
REMARK SMILES IDX 56 67 78 68 43 69 26 70 27 71 36 72 28 73 29 74 35 75 37 76
REMARK SMILES IDX 30 77 31 78 32 79 33 80 34 81 60 82 61 83 70 84 62 85 63 86
REMARK SMILES IDX 69 87 71 88 64 89 65 90 66 91 67 92 68 93 44 94 45 95 54 96
REMARK SMILES IDX 46 97 47 98 53 99 55 100 48 101 49 102 50 103 51 104 52 105
REMARK H PARENT 9 7 14 36 76 55 42 66
REMARK Flexibility Score: inf
ROOT
ATOM      1  C   UNL     1      -4.022  -1.110   0.525  1.00  0.00     0.023 C 
ENDROOT
BRANCH   1   2
ATOM      2  C   UNL     1      -2.600  -0.567   0.596  1.00  0.00     0.023 C 
BRANCH   2   3
ATOM      3  C   UNL     1      -2.338   0.388   1.768  1.00  0.00     0.116 C 
BRANCH   3   4
ATOM      4  N   UNL     1      -2.362  -0.236   3.083  1.00  0.00    -0.356 N 
ATOM      5  C   UNL     1      -1.411  -0.491   4.020  1.00  0.00     0.226 C 
ATOM      6  O   UNL     1      -1.806  -0.994   5.080  1.00  0.00    -0.275 OA
ATOM      7  H   UNL     1      -3.260  -0.539   3.352  1.00  0.00     0.163 HD
BRANCH   5   8
ATOM      8  C   UNL     1       0.096  -0.248   3.853  1.00  0.00     0.113 C 
ATOM      9  C   UNL     1       1.205  -0.092   0.288  1.00  0.00     0.147 C 
ATOM     10  N   UNL     1       0.890   0.100   1.690  1.00  0.00    -0.339 N 
ATOM     11  C   UNL     1       0.814   1.370   2.251  1.00  0.00     0.223 C 
ATOM     12  C   UNL     1       0.807  -0.980   2.692  1.00  0.00     0.058 C 
ATOM     13  O   UNL     1       0.991   2.434   1.676  1.00  0.00    -0.275 OA
ATOM     14  C   UNL     1       0.429   1.234   3.695  1.00  0.00     0.116 C 
ATOM     15  C   UNL     1       0.042  -2.239   2.242  1.00  0.00     0.051 C 
ATOM     16  C   UNL     1       2.270  -1.398   3.048  1.00  0.00     0.051 C 
ATOM     17  C   UNL     1       0.165  -3.402   3.215  1.00  0.00     0.122 C 
ATOM     18  C   UNL     1       2.391  -2.678   3.882  1.00  0.00     0.122 C 
ATOM     19  N   UNL     1       1.567  -3.750   3.334  1.00  0.00    -0.338 N 
ATOM     20  C   UNL     1       2.132  -4.973   2.973  1.00  0.00     0.256 C 
ATOM     21  O   UNL     1       3.328  -5.229   3.099  1.00  0.00    -0.269 OA
BRANCH  20  22
ATOM     22  C   UNL     1       1.261  -6.059   2.452  1.00  0.00     0.065 A 
ATOM     23  C   UNL     1       1.064  -7.145   3.322  1.00  0.00     0.016 A 
ATOM     24  C   UNL     1       0.577  -6.027   1.225  1.00  0.00     0.077 A 
ATOM     25  C   UNL     1       0.170  -8.167   2.995  1.00  0.00     0.001 A 
ATOM     26  C   UNL     1      -0.368  -7.031   0.935  1.00  0.00     0.029 A 
ATOM     27  C   UNL     1      -0.558  -8.100   1.810  1.00  0.00     0.002 A 
BRANCH  24  28
ATOM     28  N   UNL     1       0.795  -5.033   0.241  1.00  0.00    -0.240 N 
ATOM     29  C   UNL     1       1.947  -4.328  -0.036  1.00  0.00     0.115 A 
ATOM     30  N   UNL     1      -0.210  -4.674  -0.603  1.00  0.00    -0.177 NA
ATOM     31  C   UNL     1       1.654  -3.461  -1.062  1.00  0.00     0.042 A 
ATOM     32  C   UNL     1       0.304  -3.702  -1.355  1.00  0.00     0.135 A 
ENDBRANCH  24  28
ENDBRANCH  20  22
ENDBRANCH   5   8
ENDBRANCH   3   4
ENDBRANCH   2   3
ENDBRANCH   1   2
BRANCH   1  33
ATOM     33  C   UNL     1      -5.078  -0.026   0.391  1.00  0.00     0.116 C 
BRANCH  33  34
ATOM     34  N   UNL     1      -4.821   0.872  -0.730  1.00  0.00    -0.352 N 
ATOM     35  C   UNL     1      -5.701   1.330  -1.678  1.00  0.00     0.251 C 
ATOM     36  H   UNL     1      -3.893   1.192  -0.817  1.00  0.00     0.163 HD
ATOM     37  O   UNL     1      -5.299   1.947  -2.658  1.00  0.00    -0.269 OA
BRANCH  35  38
ATOM     38  C   UNL     1      -7.133   1.036  -1.499  1.00  0.00     0.039 A 
ATOM     39  C   UNL     1      -7.856   0.489  -2.559  1.00  0.00     0.014 A 
ATOM     40  C   UNL     1      -7.725   1.225  -0.248  1.00  0.00     0.014 A 
ATOM     41  C   UNL     1      -9.165   0.064  -2.338  1.00  0.00     0.010 A 
ATOM     42  C   UNL     1      -8.986   0.706  -0.005  1.00  0.00     0.010 A 
ATOM     43  C   UNL     1      -9.724   0.131  -1.050  1.00  0.00    -0.014 A 
BRANCH  43  44
ATOM     44  C   UNL     1     -11.089  -0.374  -0.771  1.00  0.00     0.031 A 
ATOM     45  C   UNL     1     -12.143   0.576  -0.272  1.00  0.00     0.074 A 
ATOM     46  C   UNL     1     -11.355  -1.688  -0.898  1.00  0.00     0.049 A 
ATOM     47  N   UNL     1     -13.372   0.326   0.097  1.00  0.00    -0.248 NA
ATOM     48  C   UNL     1     -11.752   1.989  -0.134  1.00  0.00     0.031 C 
ATOM     49  C   UNL     1     -10.396  -2.712  -1.323  1.00  0.00     0.029 A 
ATOM     50  N   UNL     1     -12.512  -2.391  -0.679  1.00  0.00    -0.354 N 
ATOM     51  C   UNL     1     -13.892   1.542   0.521  1.00  0.00     0.074 A 
ATOM     52  C   UNL     1     -12.825   2.514   0.437  1.00  0.00     0.031 C 
ATOM     53  C   UNL     1     -11.015  -3.902  -1.373  1.00  0.00     0.029 A 
ATOM     54  C   UNL     1     -12.399  -3.736  -0.943  1.00  0.00     0.049 A 
ATOM     55  H   UNL     1     -13.345  -1.972  -0.364  1.00  0.00     0.167 HD
ATOM     56  C   UNL     1     -15.155   1.832   0.914  1.00  0.00     0.037 A 
ATOM     57  C   UNL     1     -13.312  -4.722  -0.847  1.00  0.00     0.037 A 
ATOM     58  C   UNL     1     -16.215   0.862   0.971  1.00  0.00     0.049 A 
ATOM     59  C   UNL     1     -14.706  -4.379  -0.394  1.00  0.00     0.074 A 
ATOM     60  C   UNL     1     -17.543   1.056   1.303  1.00  0.00     0.029 A 
ATOM     61  N   UNL     1     -16.065  -0.489   0.689  1.00  0.00    -0.354 N 
ATOM     62  N   UNL     1     -15.202  -3.211  -0.059  1.00  0.00    -0.248 NA
ATOM     63  C   UNL     1     -15.667  -5.487  -0.309  1.00  0.00     0.031 C 
ATOM     64  C   UNL     1     -18.186  -0.186   1.269  1.00  0.00     0.029 A 
ATOM     65  C   UNL     1     -17.272  -1.146   0.862  1.00  0.00     0.049 A 
ATOM     66  H   UNL     1     -15.224  -0.918   0.408  1.00  0.00     0.167 HD
ATOM     67  C   UNL     1     -16.540  -3.438   0.243  1.00  0.00     0.074 A 
ATOM     68  C   UNL     1     -16.777  -4.853   0.042  1.00  0.00     0.031 C 
ATOM     69  C   UNL     1     -17.488  -2.556   0.647  1.00  0.00     0.037 A 
BRANCH  56  70
ATOM     70  C   UNL     1     -15.449   3.255   1.306  1.00  0.00     0.058 A 
ATOM     71  C   UNL     1     -15.434   4.299   0.365  1.00  0.00     0.135 A 
ATOM     72  C   UNL     1     -15.751   3.583   2.638  1.00  0.00     0.135 A 
ATOM     73  F   UNL     1     -15.134   4.047  -0.920  1.00  0.00    -0.206 F 
ATOM     74  C   UNL     1     -15.663   5.619   0.737  1.00  0.00     0.059 A 
ATOM     75  C   UNL     1     -16.017   4.893   3.026  1.00  0.00     0.059 A 
ATOM     76  F   UNL     1     -15.779   2.627   3.580  1.00  0.00    -0.206 F 
ATOM     77  C   UNL     1     -15.950   5.906   2.071  1.00  0.00     0.060 A 
BRANCH  77  78
ATOM     78  S   UNL     1     -16.231   7.627   2.540  1.00  0.00     0.124 S 
ATOM     79  O   UNL     1     -14.879   8.172   2.465  1.00  0.00    -0.237 OA
ATOM     80  O   UNL     1     -17.156   8.084   1.508  1.00  0.00    -0.237 OA
ATOM     81  O   UNL     1     -16.793   7.526   3.883  1.00  0.00    -0.744 OA
ENDBRANCH  77  78
ENDBRANCH  56  70
BRANCH  57  82
ATOM     82  C   UNL     1     -12.950  -6.114  -1.226  1.00  0.00     0.058 A 
ATOM     83  C   UNL     1     -13.487  -6.705  -2.381  1.00  0.00     0.135 A 
ATOM     84  C   UNL     1     -12.056  -6.876  -0.459  1.00  0.00     0.135 A 
ATOM     85  F   UNL     1     -14.350  -6.018  -3.145  1.00  0.00    -0.206 F 
ATOM     86  C   UNL     1     -13.165  -8.006  -2.752  1.00  0.00     0.059 A 
ATOM     87  C   UNL     1     -11.698  -8.171  -0.824  1.00  0.00     0.059 A 
ATOM     88  F   UNL     1     -11.501  -6.353   0.645  1.00  0.00    -0.206 F 
ATOM     89  C   UNL     1     -12.266  -8.730  -1.968  1.00  0.00     0.060 A 
BRANCH  89  90
ATOM     90  S   UNL     1     -11.821 -10.402  -2.486  1.00  0.00     0.124 S 
ATOM     91  O   UNL     1     -13.048 -11.136  -2.199  1.00  0.00    -0.237 OA
ATOM     92  O   UNL     1     -11.506 -10.211  -3.898  1.00  0.00    -0.237 OA
ATOM     93  O   UNL     1     -10.679 -10.724  -1.635  1.00  0.00    -0.744 OA
ENDBRANCH  89  90
ENDBRANCH  57  82
BRANCH  69  94
ATOM     94  C   UNL     1     -18.880  -3.085   0.859  1.00  0.00     0.058 A 
ATOM     95  C   UNL     1     -19.203  -3.904   1.952  1.00  0.00     0.135 A 
ATOM     96  C   UNL     1     -19.916  -2.720  -0.017  1.00  0.00     0.135 A 
ATOM     97  F   UNL     1     -18.248  -4.287   2.814  1.00  0.00    -0.206 F 
ATOM     98  C   UNL     1     -20.500  -4.362   2.156  1.00  0.00     0.059 A 
ATOM     99  C   UNL     1     -21.226  -3.141   0.186  1.00  0.00     0.059 A 
ATOM    100  F   UNL     1     -19.664  -1.929  -1.072  1.00  0.00    -0.206 F 
ATOM    101  C   UNL     1     -21.506  -3.972   1.270  1.00  0.00     0.060 A 
BRANCH 101 102
ATOM    102  S   UNL     1     -23.191  -4.544   1.569  1.00  0.00     0.124 S 
ATOM    103  O   UNL     1     -23.095  -5.951   1.192  1.00  0.00    -0.237 OA
ATOM    104  O   UNL     1     -23.362  -4.280   2.994  1.00  0.00    -0.237 OA
ATOM    105  O   UNL     1     -23.996  -3.710   0.682  1.00  0.00    -0.744 OA
ENDBRANCH 101 102
ENDBRANCH  69  94
ENDBRANCH  43  44
ENDBRANCH  35  38
ENDBRANCH  33  34
ENDBRANCH   1  33
TORSDOF 16
