REMARK SMILES Cc1ccc(C(C)(C)C)c(OCC(=O)c2nc(C)c(C(=O)NCCCCNC(=O)c3ccc(-c4c5nc(c(-c6c(F)cc(S(=O)(=O)[O-])cc6F)c6ccc([nH]6)c(-c6c(F)cc(S(=O)(=O)[O-])cc6F)c6nc(c(-c7c(F)cc(S(=O)(=O)[O-])cc7F)c7ccc4[nH]7)C=C6)C=C5)cc3)s2)c1
REMARK SMILES IDX 23 1 22 2 20 3 21 4 19 6 15 7 16 8 96 9 17 10 18 11 13 12
REMARK SMILES IDX 14 13 12 14 11 15 10 16 1 17 2 18 3 19 97 20 4 21 5 22 6 23
REMARK SMILES IDX 7 24 8 25 9 26 24 27 25 28 26 29 27 30 28 31 29 33 30 34
REMARK SMILES IDX 31 35 95 36 32 37 94 38 33 39 34 40 35 41 88 42 36 43 93 44
REMARK SMILES IDX 87 45 89 46 37 47 92 48 86 49 85 50 38 52 72 53 51 54 71 55
REMARK SMILES IDX 52 56 55 57 70 58 90 59 53 60 54 61 69 63 91 64 56 65 39 66
REMARK SMILES IDX 40 67 49 68 41 69 42 70 48 71 50 72 43 73 44 74 45 75 46 76
REMARK SMILES IDX 47 77 73 78 74 79 83 80 75 81 76 82 82 83 84 84 77 85 78 86
REMARK SMILES IDX 79 87 80 88 81 89 57 90 58 91 67 92 59 93 60 94 66 95 68 96
REMARK SMILES IDX 61 97 62 98 63 99 64 100 65 101
REMARK H PARENT 22 5 27 32 89 51 55 62
REMARK Flexibility Score: inf
ROOT
ATOM      1  C   UNL     1      -2.217   4.275   7.670  1.00  0.00     0.116 C 
ENDROOT
BRANCH   1   2
ATOM      2  N   UNL     1      -2.953   3.454   6.734  1.00  0.00    -0.351 N 
ATOM      3  C   UNL     1      -2.846   3.178   5.398  1.00  0.00     0.263 C 
ATOM      4  O   UNL     1      -3.723   2.388   5.017  1.00  0.00    -0.268 OA
ATOM      5  H   UNL     1      -3.707   2.983   7.157  1.00  0.00     0.163 HD
BRANCH   3   6
ATOM      6  C   UNL     1      -1.840   3.714   4.479  1.00  0.00     0.115 A 
ATOM      7  C   UNL     1      -0.611   3.959   2.347  1.00  0.00     0.164 A 
ATOM      8  N   UNL     1      -0.135   4.776   3.252  1.00  0.00    -0.237 NA
ATOM      9  S   UNL     1      -1.889   2.988   2.880  1.00  0.00    -0.105 S 
ATOM     10  C   UNL     1      -0.830   4.677   4.457  1.00  0.00     0.062 A 
ATOM     11  C   UNL     1      -0.346   5.653   5.465  1.00  0.00     0.068 C 
BRANCH   7  12
ATOM     12  C   UNL     1      -0.050   3.920   1.004  1.00  0.00     0.228 C 
ATOM     13  O   UNL     1       1.115   4.253   0.749  1.00  0.00    -0.288 OA
BRANCH  12  14
ATOM     14  C   UNL     1      -0.972   3.583  -0.176  1.00  0.00     0.313 C 
BRANCH  14  15
ATOM     15  O   UNL     1      -1.689   2.370  -0.243  1.00  0.00    -0.485 OA
BRANCH  15  16
ATOM     16  C   UNL     1      -1.032   1.175  -0.211  1.00  0.00     0.123 A 
ATOM     17  C   UNL     1       2.531  -0.214  -0.132  1.00  0.00     0.044 C 
ATOM     18  C   UNL     1       1.033  -0.142  -0.130  1.00  0.00    -0.047 A 
ATOM     19  C   UNL     1       0.275  -1.298   0.005  1.00  0.00     0.004 A 
ATOM     20  C   UNL     1       0.371   1.082  -0.268  1.00  0.00     0.050 A 
ATOM     21  C   UNL     1      -1.119  -1.224   0.007  1.00  0.00     0.008 A 
ATOM     22  C   UNL     1      -1.816   0.005  -0.098  1.00  0.00    -0.000 A 
BRANCH  22  23
ATOM     23  C   UNL     1      -3.367  -0.049  -0.091  1.00  0.00    -0.010 C 
ATOM     24  C   UNL     1      -3.838  -0.857  -1.326  1.00  0.00     0.016 C 
ATOM     25  C   UNL     1      -3.859  -0.757   1.195  1.00  0.00     0.016 C 
ATOM     26  C   UNL     1      -4.124   1.297  -0.154  1.00  0.00     0.016 C 
ENDBRANCH  22  23
ENDBRANCH  15  16
ENDBRANCH  14  15
ENDBRANCH  12  14
ENDBRANCH   7  12
ENDBRANCH   3   6
ENDBRANCH   1   2
BRANCH   1  27
ATOM     27  C   UNL     1      -2.819   5.684   7.779  1.00  0.00     0.023 C 
BRANCH  27  28
ATOM     28  C   UNL     1      -4.099   5.769   8.613  1.00  0.00     0.023 C 
BRANCH  28  29
ATOM     29  C   UNL     1      -3.844   5.555  10.097  1.00  0.00     0.116 C 
BRANCH  29  30
ATOM     30  N   UNL     1      -3.743   6.764  10.893  1.00  0.00    -0.352 N 
ATOM     31  C   UNL     1      -3.478   6.859  12.256  1.00  0.00     0.251 C 
ATOM     32  H   UNL     1      -3.877   7.614  10.414  1.00  0.00     0.163 HD
ATOM     33  O   UNL     1      -3.710   7.861  12.887  1.00  0.00    -0.269 OA
BRANCH  31  34
ATOM     34  C   UNL     1      -2.784   5.702  12.883  1.00  0.00     0.039 A 
ATOM     35  C   UNL     1      -1.489   5.920  13.370  1.00  0.00     0.014 A 
ATOM     36  C   UNL     1      -3.277   4.411  12.730  1.00  0.00     0.014 A 
ATOM     37  C   UNL     1      -0.621   4.838  13.519  1.00  0.00     0.010 A 
ATOM     38  C   UNL     1      -2.386   3.354  12.776  1.00  0.00     0.010 A 
ATOM     39  C   UNL     1      -1.047   3.567  13.130  1.00  0.00    -0.014 A 
BRANCH  39  40
ATOM     40  C   UNL     1      -0.153   2.418  12.989  1.00  0.00     0.031 A 
ATOM     41  C   UNL     1      -0.246   1.280  13.949  1.00  0.00     0.074 A 
ATOM     42  C   UNL     1       0.711   2.325  11.949  1.00  0.00     0.049 A 
ATOM     43  N   UNL     1       0.732   0.480  14.226  1.00  0.00    -0.248 NA
ATOM     44  C   UNL     1      -1.466   0.961  14.691  1.00  0.00     0.031 C 
ATOM     45  C   UNL     1       1.433   1.116  11.544  1.00  0.00     0.029 A 
ATOM     46  N   UNL     1       1.234   3.290  11.087  1.00  0.00    -0.354 N 
ATOM     47  C   UNL     1       0.214  -0.591  14.918  1.00  0.00     0.074 A 
ATOM     48  C   UNL     1      -1.145  -0.216  15.237  1.00  0.00     0.031 C 
ATOM     49  C   UNL     1       2.483   1.470  10.789  1.00  0.00     0.029 A 
ATOM     50  C   UNL     1       2.561   2.917  10.826  1.00  0.00     0.049 A 
ATOM     51  H   UNL     1       0.764   4.079  10.731  1.00  0.00     0.167 HD
ATOM     52  C   UNL     1       0.923  -1.752  15.032  1.00  0.00     0.037 A 
ATOM     53  C   UNL     1       3.683   3.618  11.172  1.00  0.00     0.037 A 
ATOM     54  C   UNL     1       2.212  -1.669  14.356  1.00  0.00     0.049 A 
ATOM     55  C   UNL     1       4.674   2.822  12.006  1.00  0.00     0.074 A 
ATOM     56  C   UNL     1       2.628  -2.074  13.098  1.00  0.00     0.029 A 
ATOM     57  N   UNL     1       3.211  -0.838  14.850  1.00  0.00    -0.354 N 
ATOM     58  N   UNL     1       4.381   1.700  12.601  1.00  0.00    -0.248 NA
ATOM     59  C   UNL     1       6.047   3.244  12.280  1.00  0.00     0.031 C 
ATOM     60  C   UNL     1       3.866  -1.453  12.818  1.00  0.00     0.029 A 
ATOM     61  C   UNL     1       4.208  -0.671  13.907  1.00  0.00     0.049 A 
ATOM     62  H   UNL     1       3.209  -0.426  15.745  1.00  0.00     0.167 HD
ATOM     63  C   UNL     1       5.442   1.284  13.364  1.00  0.00     0.074 A 
ATOM     64  C   UNL     1       6.476   2.264  13.097  1.00  0.00     0.031 C 
ATOM     65  C   UNL     1       5.361   0.179  14.165  1.00  0.00     0.037 A 
BRANCH  52  66
ATOM     66  C   UNL     1       0.278  -3.045  15.479  1.00  0.00     0.058 A 
ATOM     67  C   UNL     1       0.570  -4.269  14.842  1.00  0.00     0.135 A 
ATOM     68  C   UNL     1      -0.690  -3.121  16.500  1.00  0.00     0.135 A 
ATOM     69  F   UNL     1       1.531  -4.371  13.915  1.00  0.00    -0.206 F 
ATOM     70  C   UNL     1      -0.130  -5.446  15.105  1.00  0.00     0.059 A 
ATOM     71  C   UNL     1      -1.441  -4.276  16.748  1.00  0.00     0.059 A 
ATOM     72  F   UNL     1      -0.934  -2.067  17.295  1.00  0.00    -0.206 F 
ATOM     73  C   UNL     1      -1.163  -5.433  16.031  1.00  0.00     0.060 A 
BRANCH  73  74
ATOM     74  S   UNL     1      -2.148  -6.928  16.247  1.00  0.00     0.124 S 
ATOM     75  O   UNL     1      -2.456  -7.299  14.868  1.00  0.00    -0.237 OA
ATOM     76  O   UNL     1      -1.216  -7.805  16.947  1.00  0.00    -0.237 OA
ATOM     77  O   UNL     1      -3.291  -6.469  17.030  1.00  0.00    -0.744 OA
ENDBRANCH  73  74
ENDBRANCH  52  66
BRANCH  53  78
ATOM     78  C   UNL     1       3.485   5.083  11.285  1.00  0.00     0.058 A 
ATOM     79  C   UNL     1       3.250   5.805  10.102  1.00  0.00     0.135 A 
ATOM     80  C   UNL     1       3.097   5.665  12.500  1.00  0.00     0.135 A 
ATOM     81  F   UNL     1       3.635   5.301   8.919  1.00  0.00    -0.206 F 
ATOM     82  C   UNL     1       2.486   6.963  10.104  1.00  0.00     0.059 A 
ATOM     83  C   UNL     1       2.333   6.830  12.525  1.00  0.00     0.059 A 
ATOM     84  F   UNL     1       3.316   5.025  13.657  1.00  0.00    -0.206 F 
ATOM     85  C   UNL     1       1.969   7.422  11.314  1.00  0.00     0.060 A 
BRANCH  85  86
ATOM     86  S   UNL     1       0.648   8.654  11.243  1.00  0.00     0.124 S 
ATOM     87  O   UNL     1       1.292   9.751  10.530  1.00  0.00    -0.237 OA
ATOM     88  O   UNL     1      -0.375   7.924  10.495  1.00  0.00    -0.237 OA
ATOM     89  O   UNL     1       0.348   8.898  12.648  1.00  0.00    -0.744 OA
ENDBRANCH  85  86
ENDBRANCH  53  78
BRANCH  65  90
ATOM     90  C   UNL     1       6.385  -0.264  15.185  1.00  0.00     0.058 A 
ATOM     91  C   UNL     1       7.232   0.611  15.885  1.00  0.00     0.135 A 
ATOM     92  C   UNL     1       6.448  -1.622  15.589  1.00  0.00     0.135 A 
ATOM     93  F   UNL     1       7.187   1.935  15.681  1.00  0.00    -0.206 F 
ATOM     94  C   UNL     1       8.130   0.168  16.859  1.00  0.00     0.059 A 
ATOM     95  C   UNL     1       7.297  -2.077  16.596  1.00  0.00     0.059 A 
ATOM     96  F   UNL     1       5.672  -2.558  15.022  1.00  0.00    -0.206 F 
ATOM     97  C   UNL     1       8.159  -1.179  17.207  1.00  0.00     0.060 A 
BRANCH  97  98
ATOM     98  S   UNL     1       9.274  -1.756  18.500  1.00  0.00     0.124 S 
ATOM     99  O   UNL     1      10.441  -2.155  17.721  1.00  0.00    -0.237 OA
ATOM    100  O   UNL     1       9.450  -0.570  19.334  1.00  0.00    -0.237 OA
ATOM    101  O   UNL     1       8.525  -2.843  19.122  1.00  0.00    -0.744 OA
ENDBRANCH  97  98
ENDBRANCH  65  90
ENDBRANCH  39  40
ENDBRANCH  31  34
ENDBRANCH  29  30
ENDBRANCH  28  29
ENDBRANCH  27  28
ENDBRANCH   1  27
TORSDOF 19
