REMARK SMILES CC(C)C[C@H](NC(=O)CNC(=O)[C@@H](NC(=O)OCc1ccccc1)C(C)C)C(=O)NCCCCNC(=O)c1ccc(-c2c3nc(c(-c4c(F)cc(S(=O)(=O)[O-])cc4F)c4ccc([nH]4)c(-c4c(F)cc(S(=O)(=O)[O-])cc4F)c4nc(c(-c5c(F)cc(S(=O)(=O)[O-])cc5F)c5ccc2[nH]5)C=C4)C=C3)cc1
REMARK SMILES IDX 28 1 29 2 30 3 5 5 4 6 2 7 1 8 3 9 6 10 7 11 8 13 9 14 10 15
REMARK SMILES IDX 11 16 12 18 13 19 14 20 15 21 16 23 17 24 18 25 19 26 20 27
REMARK SMILES IDX 24 28 21 29 23 30 22 31 25 32 26 33 27 34 31 35 32 36 33 37
REMARK SMILES IDX 34 38 35 39 36 40 37 42 38 43 39 44 103 45 40 46 102 47
REMARK SMILES IDX 41 48 42 49 43 50 96 51 44 52 101 53 95 54 97 55 45 56
REMARK SMILES IDX 100 57 94 58 93 59 46 61 80 62 59 63 79 64 60 65 63 66 78 67
REMARK SMILES IDX 98 68 61 69 62 70 77 72 99 73 64 74 47 75 48 76 57 77 49 78
REMARK SMILES IDX 50 79 56 80 58 81 51 82 52 83 53 84 54 85 55 86 81 87 82 88
REMARK SMILES IDX 91 89 83 90 84 91 90 92 92 93 85 94 86 95 87 96 88 97 89 98
REMARK SMILES IDX 65 99 66 100 75 101 67 102 68 103 74 104 76 105 69 106
REMARK SMILES IDX 70 107 71 108 72 109 73 110
REMARK H PARENT 30 4 6 12 10 17 14 22 35 41 97 60 63 71
REMARK Flexibility Score: inf
ROOT
ATOM      1  C   UNL     1      -3.410  -1.008  -0.560  1.00  0.00     0.242 C 
ATOM      2  O   UNL     1      -4.088   0.018  -0.603  1.00  0.00    -0.273 OA
ATOM      3  N   UNL     1      -3.909  -2.109   0.080  1.00  0.00    -0.354 N 
ATOM      4  H   UNL     1      -4.783  -1.996   0.519  1.00  0.00     0.163 HD
ENDROOT
BRANCH   1   5
ATOM      5  C   UNL     1      -2.017  -1.088  -1.217  1.00  0.00     0.171 C 
BRANCH   5   6
ATOM      6  C   UNL     1      -2.016  -2.085  -2.373  1.00  0.00     0.038 C 
BRANCH   6   7
ATOM      7  C   UNL     1      -3.243  -2.180  -3.301  1.00  0.00    -0.015 C 
ATOM      8  C   UNL     1      -3.594  -0.859  -3.981  1.00  0.00     0.007 C 
ATOM      9  C   UNL     1      -2.948  -3.242  -4.370  1.00  0.00     0.007 C 
ENDBRANCH   6   7
ENDBRANCH   5   6
BRANCH   5  10
ATOM     10  N   UNL     1      -1.080  -1.304  -0.085  1.00  0.00    -0.343 N 
ATOM     11  C   UNL     1       0.091  -1.880   0.237  1.00  0.00     0.240 C 
ATOM     12  H   UNL     1      -1.449  -0.868   0.717  1.00  0.00     0.164 HD
ATOM     13  O   UNL     1       0.457  -1.675   1.407  1.00  0.00    -0.273 OA
BRANCH  11  14
ATOM     14  C   UNL     1       1.054  -2.669  -0.661  1.00  0.00     0.216 C 
BRANCH  14  15
ATOM     15  N   UNL     1       0.639  -3.391  -1.835  1.00  0.00    -0.345 N 
ATOM     16  C   UNL     1       0.823  -3.162  -3.158  1.00  0.00     0.243 C 
ATOM     17  H   UNL     1       0.123  -4.206  -1.640  1.00  0.00     0.164 HD
ATOM     18  O   UNL     1       0.519  -4.101  -3.904  1.00  0.00    -0.273 OA
BRANCH  16  19
ATOM     19  C   UNL     1       1.411  -1.851  -3.759  1.00  0.00     0.177 C 
BRANCH  19  20
ATOM     20  N   UNL     1       1.019  -0.635  -3.041  1.00  0.00    -0.309 N 
ATOM     21  C   UNL     1       1.600   0.116  -2.076  1.00  0.00     0.408 C 
ATOM     22  H   UNL     1       0.141  -0.289  -3.321  1.00  0.00     0.167 HD
ATOM     23  O   UNL     1       0.911   0.893  -1.435  1.00  0.00    -0.225 OA
BRANCH  21  24
ATOM     24  O   UNL     1       2.928  -0.082  -1.922  1.00  0.00    -0.445 OA
BRANCH  24  25
ATOM     25  C   UNL     1       3.574   0.851  -1.040  1.00  0.00     0.270 C 
BRANCH  25  26
ATOM     26  C   UNL     1       3.763   2.183  -1.729  1.00  0.00    -0.011 A 
ATOM     27  C   UNL     1       2.778   3.178  -1.625  1.00  0.00     0.007 A 
ATOM     28  C   UNL     1       4.870   2.416  -2.554  1.00  0.00     0.007 A 
ATOM     29  C   UNL     1       2.870   4.357  -2.361  1.00  0.00     0.000 A 
ATOM     30  C   UNL     1       4.976   3.612  -3.269  1.00  0.00     0.000 A 
ATOM     31  C   UNL     1       3.971   4.575  -3.183  1.00  0.00     0.000 A 
ENDBRANCH  25  26
ENDBRANCH  24  25
ENDBRANCH  21  24
ENDBRANCH  19  20
BRANCH  19  32
ATOM     32  C   UNL     1       2.889  -1.974  -4.183  1.00  0.00     0.015 C 
ATOM     33  C   UNL     1       3.129  -3.224  -5.045  1.00  0.00     0.010 C 
ATOM     34  C   UNL     1       3.324  -0.753  -5.006  1.00  0.00     0.010 C 
ENDBRANCH  19  32
ENDBRANCH  16  19
ENDBRANCH  14  15
ENDBRANCH  11  14
ENDBRANCH   5  10
ENDBRANCH   1   5
BRANCH   3  35
ATOM     35  C   UNL     1      -3.305  -3.423   0.190  1.00  0.00     0.116 C 
BRANCH  35  36
ATOM     36  C   UNL     1      -3.694  -4.139   1.470  1.00  0.00     0.023 C 
BRANCH  36  37
ATOM     37  C   UNL     1      -5.164  -4.535   1.526  1.00  0.00     0.023 C 
BRANCH  37  38
ATOM     38  C   UNL     1      -5.651  -5.322   0.316  1.00  0.00     0.116 C 
BRANCH  38  39
ATOM     39  N   UNL     1      -4.894  -6.551   0.108  1.00  0.00    -0.352 N 
ATOM     40  C   UNL     1      -5.379  -7.832  -0.007  1.00  0.00     0.251 C 
ATOM     41  H   UNL     1      -3.917  -6.451   0.042  1.00  0.00     0.163 HD
ATOM     42  O   UNL     1      -4.621  -8.795  -0.008  1.00  0.00    -0.269 OA
BRANCH  40  43
ATOM     43  C   UNL     1      -6.839  -8.013  -0.100  1.00  0.00     0.039 A 
ATOM     44  C   UNL     1      -7.486  -8.827   0.829  1.00  0.00     0.014 A 
ATOM     45  C   UNL     1      -7.563  -7.282  -1.047  1.00  0.00     0.014 A 
ATOM     46  C   UNL     1      -8.880  -8.856   0.851  1.00  0.00     0.010 A 
ATOM     47  C   UNL     1      -8.949  -7.251  -0.968  1.00  0.00     0.010 A 
ATOM     48  C   UNL     1      -9.621  -8.039  -0.021  1.00  0.00    -0.014 A 
BRANCH  48  49
ATOM     49  C   UNL     1     -11.103  -7.998   0.035  1.00  0.00     0.031 A 
ATOM     50  C   UNL     1     -11.905  -8.455  -1.153  1.00  0.00     0.074 A 
ATOM     51  C   UNL     1     -11.720  -7.489   1.119  1.00  0.00     0.049 A 
ATOM     52  N   UNL     1     -13.200  -8.437  -1.330  1.00  0.00    -0.248 NA
ATOM     53  C   UNL     1     -11.149  -8.972  -2.306  1.00  0.00     0.031 C 
ATOM     54  C   UNL     1     -11.046  -6.962   2.309  1.00  0.00     0.029 A 
ATOM     55  N   UNL     1     -13.053  -7.321   1.395  1.00  0.00    -0.354 N 
ATOM     56  C   UNL     1     -13.412  -8.920  -2.615  1.00  0.00     0.074 A 
ATOM     57  C   UNL     1     -12.111  -9.171  -3.195  1.00  0.00     0.031 C 
ATOM     58  C   UNL     1     -11.970  -6.556   3.196  1.00  0.00     0.029 A 
ATOM     59  C   UNL     1     -13.298  -6.759   2.626  1.00  0.00     0.049 A 
ATOM     60  H   UNL     1     -13.768  -7.580   0.769  1.00  0.00     0.167 HD
ATOM     61  C   UNL     1     -14.585  -9.159  -3.246  1.00  0.00     0.037 A 
ATOM     62  C   UNL     1     -14.463  -6.442   3.225  1.00  0.00     0.037 A 
ATOM     63  C   UNL     1     -15.876  -8.942  -2.649  1.00  0.00     0.049 A 
ATOM     64  C   UNL     1     -15.755  -6.727   2.507  1.00  0.00     0.074 A 
ATOM     65  C   UNL     1     -17.124  -9.219  -3.176  1.00  0.00     0.029 A 
ATOM     66  N   UNL     1     -16.084  -8.395  -1.391  1.00  0.00    -0.354 N 
ATOM     67  N   UNL     1     -15.939  -7.253   1.319  1.00  0.00    -0.248 NA
ATOM     68  C   UNL     1     -16.997  -6.383   3.211  1.00  0.00     0.031 C 
ATOM     69  C   UNL     1     -18.089  -8.800  -2.254  1.00  0.00     0.029 A 
ATOM     70  C   UNL     1     -17.441  -8.307  -1.132  1.00  0.00     0.049 A 
ATOM     71  H   UNL     1     -15.371  -8.111  -0.773  1.00  0.00     0.167 HD
ATOM     72  C   UNL     1     -17.316  -7.329   1.146  1.00  0.00     0.074 A 
ATOM     73  C   UNL     1     -17.918  -6.806   2.355  1.00  0.00     0.031 C 
ATOM     74  C   UNL     1     -18.020  -7.793   0.084  1.00  0.00     0.037 A 
BRANCH  61  75
ATOM     75  C   UNL     1     -14.526  -9.690  -4.652  1.00  0.00     0.058 A 
ATOM     76  C   UNL     1     -14.093 -10.997  -4.928  1.00  0.00     0.135 A 
ATOM     77  C   UNL     1     -14.940  -8.895  -5.732  1.00  0.00     0.135 A 
ATOM     78  F   UNL     1     -13.669 -11.794  -3.934  1.00  0.00    -0.206 F 
ATOM     79  C   UNL     1     -14.045 -11.487  -6.229  1.00  0.00     0.059 A 
ATOM     80  C   UNL     1     -14.928  -9.375  -7.039  1.00  0.00     0.059 A 
ATOM     81  F   UNL     1     -15.360  -7.637  -5.525  1.00  0.00    -0.206 F 
ATOM     82  C   UNL     1     -14.466 -10.668  -7.278  1.00  0.00     0.060 A 
BRANCH  82  83
ATOM     83  S   UNL     1     -14.409 -11.325  -8.958  1.00  0.00     0.124 S 
ATOM     84  O   UNL     1     -12.974 -11.311  -9.227  1.00  0.00    -0.237 OA
ATOM     85  O   UNL     1     -15.010 -12.645  -8.799  1.00  0.00    -0.237 OA
ATOM     86  O   UNL     1     -15.200 -10.367  -9.724  1.00  0.00    -0.744 OA
ENDBRANCH  82  83
ENDBRANCH  61  75
BRANCH  62  87
ATOM     87  C   UNL     1     -14.464  -5.846   4.588  1.00  0.00     0.058 A 
ATOM     88  C   UNL     1     -14.916  -6.582   5.694  1.00  0.00     0.135 A 
ATOM     89  C   UNL     1     -14.013  -4.537   4.815  1.00  0.00     0.135 A 
ATOM     90  F   UNL     1     -15.363  -7.836   5.527  1.00  0.00    -0.206 F 
ATOM     91  C   UNL     1     -14.940  -6.036   6.973  1.00  0.00     0.059 A 
ATOM     92  C   UNL     1     -14.004  -3.978   6.089  1.00  0.00     0.059 A 
ATOM     93  F   UNL     1     -13.554  -3.797   3.794  1.00  0.00    -0.206 F 
ATOM     94  C   UNL     1     -14.481  -4.732   7.161  1.00  0.00     0.060 A 
BRANCH  94  95
ATOM     95  S   UNL     1     -14.478  -4.047   8.832  1.00  0.00     0.124 S 
ATOM     96  O   UNL     1     -15.898  -3.799   9.050  1.00  0.00    -0.237 OA
ATOM     97  O   UNL     1     -13.892  -5.135   9.608  1.00  0.00    -0.237 OA
ATOM     98  O   UNL     1     -13.641  -2.857   8.704  1.00  0.00    -0.744 OA
ENDBRANCH  94  95
ENDBRANCH  62  87
BRANCH  74  99
ATOM     99  C   UNL     1     -19.520  -7.791   0.192  1.00  0.00     0.058 A 
ATOM    100  C   UNL     1     -20.263  -6.603   0.119  1.00  0.00     0.135 A 
ATOM    101  C   UNL     1     -20.223  -9.001   0.314  1.00  0.00     0.135 A 
ATOM    102  F   UNL     1     -19.639  -5.420   0.009  1.00  0.00    -0.206 F 
ATOM    103  C   UNL     1     -21.653  -6.613   0.185  1.00  0.00     0.059 A 
ATOM    104  C   UNL     1     -21.612  -9.036   0.354  1.00  0.00     0.059 A 
ATOM    105  F   UNL     1     -19.558 -10.166   0.376  1.00  0.00    -0.206 F 
ATOM    106  C   UNL     1     -22.318  -7.835   0.300  1.00  0.00     0.060 A 
BRANCH 106 107
ATOM    107  S   UNL     1     -24.123  -7.837   0.348  1.00  0.00     0.124 S 
ATOM    108  O   UNL     1     -24.382  -7.352   1.699  1.00  0.00    -0.237 OA
ATOM    109  O   UNL     1     -24.465  -6.918  -0.733  1.00  0.00    -0.237 OA
ATOM    110  O   UNL     1     -24.468  -9.235   0.105  1.00  0.00    -0.744 OA
ENDBRANCH 106 107
ENDBRANCH  74  99
ENDBRANCH  48  49
ENDBRANCH  40  43
ENDBRANCH  38  39
ENDBRANCH  37  38
ENDBRANCH  36  37
ENDBRANCH  35  36
ENDBRANCH   3  35
TORSDOF 25
