REMARK SMILES C[N@@H+]1CCC[C@@H](NC(=O)N2CCC(CC(=O)NCCCCNC(=O)c3ccc(-c4c5nc(c(-c6c(F)cc(S(=O)(=O)[O-])cc6F)c6ccc([nH]6)c(-c6c(F)cc(S(=O)(=O)[O-])cc6F)c6nc(c(-c7c(F)cc(S(=O)(=O)[O-])cc7F)c7ccc4[nH]7)C=C6)C=C5)cc3)CC2)C1
REMARK SMILES IDX 20 1 19 2 18 3 17 4 15 5 16 6 14 8 13 9 7 10 8 11 9 13 10 14
REMARK SMILES IDX 11 15 92 16 12 17 91 18 6 19 1 20 2 21 3 22 93 23 4 25 5 26
REMARK SMILES IDX 21 27 22 28 23 29 24 31 25 32 26 33 90 34 27 35 89 36 28 37
REMARK SMILES IDX 29 38 30 39 83 40 31 41 88 42 82 43 84 44 32 45 87 46 81 47
REMARK SMILES IDX 80 48 33 50 67 51 46 52 66 53 47 54 50 55 65 56 85 57 48 58
REMARK SMILES IDX 49 59 64 61 86 62 51 63 34 64 35 65 44 66 36 67 37 68 43 69
REMARK SMILES IDX 45 70 38 71 39 72 40 73 41 74 42 75 68 76 69 77 78 78 70 79
REMARK SMILES IDX 71 80 77 81 79 82 72 83 73 84 74 85 75 86 76 87 52 88 53 89
REMARK SMILES IDX 62 90 54 91 55 92 61 93 63 94 56 95 57 96 58 97 59 98 60 99
REMARK H PARENT 17 7 7 12 2 24 22 30 84 49 50 60
REMARK Flexibility Score: inf
ROOT
ATOM      1  C   UNL     1       7.200   1.310   0.429  1.00  0.00     0.023 C 
ENDROOT
BRANCH   1   2
ATOM      2  C   UNL     1       6.529  -0.051   0.444  1.00  0.00     0.023 C 
BRANCH   2   3
ATOM      3  C   UNL     1       7.384  -1.229  -0.037  1.00  0.00     0.116 C 
BRANCH   3   4
ATOM      4  N   UNL     1       8.179  -1.813   1.034  1.00  0.00    -0.356 N 
ATOM      5  C   UNL     1       8.042  -2.993   1.709  1.00  0.00     0.220 C 
ATOM      6  O   UNL     1       8.860  -3.259   2.591  1.00  0.00    -0.275 OA
ATOM      7  H   UNL     1       8.945  -1.264   1.320  1.00  0.00     0.163 HD
BRANCH   5   8
ATOM      8  C   UNL     1       6.898  -3.955   1.403  1.00  0.00     0.103 C 
BRANCH   8   9
ATOM      9  C   UNL     1       5.661  -3.753   2.309  1.00  0.00     0.002 C 
ATOM     10  N   UNL     1       1.142  -1.582   1.844  1.00  0.00    -0.330 N 
ATOM     11  C   UNL     1       1.457  -2.800   2.390  1.00  0.00     0.317 C 
ATOM     12  H   UNL     1       0.870  -0.837   2.427  1.00  0.00     0.165 HD
ATOM     13  O   UNL     1       0.574  -3.547   2.798  1.00  0.00    -0.249 OA
ATOM     14  N   UNL     1       2.804  -3.103   2.430  1.00  0.00    -0.325 N 
ATOM     15  C   UNL     1       3.240  -4.463   2.718  1.00  0.00     0.121 C 
ATOM     16  C   UNL     1       3.766  -2.074   2.766  1.00  0.00     0.121 C 
ATOM     17  C   UNL     1       4.565  -4.791   2.014  1.00  0.00     0.026 C 
ATOM     18  C   UNL     1       5.107  -2.346   2.130  1.00  0.00     0.026 C 
BRANCH  10  19
ATOM     19  C   UNL     1       1.209  -1.389   0.388  1.00  0.00     0.139 C 
ATOM     20  C   UNL     1      -2.340  -0.136  -0.094  1.00  0.00     0.332 C 
ATOM     21  N   UNL     1      -0.941  -0.133   0.331  1.00  0.00    -0.336 N 
ATOM     22  C   UNL     1      -0.268   1.092  -0.130  1.00  0.00     0.262 C 
ATOM     23  C   UNL     1      -0.235  -1.331  -0.176  1.00  0.00     0.287 C 
ATOM     24  H   UNL     1      -0.918  -0.156   1.350  1.00  0.00     0.347 HD
ATOM     25  C   UNL     1       1.179   1.148   0.365  1.00  0.00     0.064 C 
ATOM     26  C   UNL     1       1.959  -0.112  -0.005  1.00  0.00     0.037 C 
ENDBRANCH  10  19
ENDBRANCH   8   9
ENDBRANCH   5   8
ENDBRANCH   3   4
ENDBRANCH   2   3
ENDBRANCH   1   2
BRANCH   1  27
ATOM     27  C   UNL     1       7.448   1.863  -0.959  1.00  0.00     0.116 C 
BRANCH  27  28
ATOM     28  N   UNL     1       6.231   2.015  -1.749  1.00  0.00    -0.352 N 
ATOM     29  C   UNL     1       5.819   3.098  -2.496  1.00  0.00     0.251 C 
ATOM     30  H   UNL     1       5.623   1.241  -1.748  1.00  0.00     0.163 HD
ATOM     31  O   UNL     1       4.712   3.106  -3.017  1.00  0.00    -0.269 OA
BRANCH  29  32
ATOM     32  C   UNL     1       6.724   4.259  -2.612  1.00  0.00     0.039 A 
ATOM     33  C   UNL     1       6.228   5.538  -2.359  1.00  0.00     0.014 A 
ATOM     34  C   UNL     1       8.082   4.061  -2.870  1.00  0.00     0.014 A 
ATOM     35  C   UNL     1       7.118   6.611  -2.273  1.00  0.00     0.010 A 
ATOM     36  C   UNL     1       8.973   5.104  -2.668  1.00  0.00     0.010 A 
ATOM     37  C   UNL     1       8.501   6.392  -2.377  1.00  0.00    -0.014 A 
BRANCH  37  38
ATOM     38  C   UNL     1       9.483   7.492  -2.213  1.00  0.00     0.031 A 
ATOM     39  C   UNL     1      10.412   7.825  -3.350  1.00  0.00     0.074 A 
ATOM     40  C   UNL     1       9.599   8.124  -1.028  1.00  0.00     0.049 A 
ATOM     41  N   UNL     1      11.418   8.659  -3.379  1.00  0.00    -0.248 NA
ATOM     42  C   UNL     1      10.211   7.088  -4.611  1.00  0.00     0.031 C 
ATOM     43  C   UNL     1       8.804   7.841   0.170  1.00  0.00     0.029 A 
ATOM     44  N   UNL     1      10.443   9.130  -0.631  1.00  0.00    -0.354 N 
ATOM     45  C   UNL     1      11.983   8.524  -4.641  1.00  0.00     0.074 A 
ATOM     46  C   UNL     1      11.251   7.484  -5.327  1.00  0.00     0.031 C 
ATOM     47  C   UNL     1       9.178   8.673   1.156  1.00  0.00     0.029 A 
ATOM     48  C   UNL     1      10.261   9.524   0.674  1.00  0.00     0.049 A 
ATOM     49  H   UNL     1      11.117   9.532  -1.225  1.00  0.00     0.167 HD
ATOM     50  C   UNL     1      12.999   9.227  -5.194  1.00  0.00     0.037 A 
ATOM     51  C   UNL     1      10.899  10.464   1.398  1.00  0.00     0.037 A 
ATOM     52  C   UNL     1      13.681  10.302  -4.527  1.00  0.00     0.049 A 
ATOM     53  C   UNL     1      11.993  11.266   0.746  1.00  0.00     0.074 A 
ATOM     54  C   UNL     1      14.675  11.128  -5.020  1.00  0.00     0.029 A 
ATOM     55  N   UNL     1      13.428  10.709  -3.225  1.00  0.00    -0.354 N 
ATOM     56  N   UNL     1      12.475  11.165  -0.470  1.00  0.00    -0.248 NA
ATOM     57  C   UNL     1      12.626  12.314   1.560  1.00  0.00     0.031 C 
ATOM     58  C   UNL     1      15.040  12.021  -4.006  1.00  0.00     0.029 A 
ATOM     59  C   UNL     1      14.250  11.772  -2.895  1.00  0.00     0.049 A 
ATOM     60  H   UNL     1      12.762  10.302  -2.625  1.00  0.00     0.167 HD
ATOM     61  C   UNL     1      13.448  12.152  -0.576  1.00  0.00     0.074 A 
ATOM     62  C   UNL     1      13.478  12.847   0.695  1.00  0.00     0.031 C 
ATOM     63  C   UNL     1      14.247  12.457  -1.628  1.00  0.00     0.037 A 
BRANCH  50  64
ATOM     64  C   UNL     1      13.407   8.873  -6.595  1.00  0.00     0.058 A 
ATOM     65  C   UNL     1      12.584   9.165  -7.695  1.00  0.00     0.135 A 
ATOM     66  C   UNL     1      14.642   8.255  -6.847  1.00  0.00     0.135 A 
ATOM     67  F   UNL     1      11.383   9.735  -7.508  1.00  0.00    -0.206 F 
ATOM     68  C   UNL     1      12.956   8.830  -8.992  1.00  0.00     0.059 A 
ATOM     69  C   UNL     1      15.048   7.937  -8.140  1.00  0.00     0.059 A 
ATOM     70  F   UNL     1      15.466   7.950  -5.832  1.00  0.00    -0.206 F 
ATOM     71  C   UNL     1      14.191   8.215  -9.204  1.00  0.00     0.060 A 
BRANCH  71  72
ATOM     72  S   UNL     1      14.664   7.796 -10.895  1.00  0.00     0.124 S 
ATOM     73  O   UNL     1      13.827   6.627 -11.148  1.00  0.00    -0.237 OA
ATOM     74  O   UNL     1      14.304   9.004 -11.630  1.00  0.00    -0.237 OA
ATOM     75  O   UNL     1      16.096   7.532 -10.791  1.00  0.00    -0.744 OA
ENDBRANCH  71  72
ENDBRANCH  50  64
BRANCH  51  76
ATOM     76  C   UNL     1      10.498  10.727   2.806  1.00  0.00     0.058 A 
ATOM     77  C   UNL     1       9.819  11.905   3.152  1.00  0.00     0.135 A 
ATOM     78  C   UNL     1      10.784   9.812   3.831  1.00  0.00     0.135 A 
ATOM     79  F   UNL     1       9.526  12.811   2.207  1.00  0.00    -0.206 F 
ATOM     80  C   UNL     1       9.459  12.180   4.467  1.00  0.00     0.059 A 
ATOM     81  C   UNL     1      10.414  10.055   5.151  1.00  0.00     0.059 A 
ATOM     82  F   UNL     1      11.415   8.661   3.549  1.00  0.00    -0.206 F 
ATOM     83  C   UNL     1       9.764  11.249   5.461  1.00  0.00     0.060 A 
BRANCH  83  84
ATOM     84  S   UNL     1       9.262  11.599   7.160  1.00  0.00     0.124 S 
ATOM     85  O   UNL     1      10.253  12.592   7.559  1.00  0.00    -0.237 OA
ATOM     86  O   UNL     1       7.899  12.091   6.985  1.00  0.00    -0.237 OA
ATOM     87  O   UNL     1       9.371  10.298   7.814  1.00  0.00    -0.744 OA
ENDBRANCH  83  84
ENDBRANCH  51  76
BRANCH  63  88
ATOM     88  C   UNL     1      15.194  13.611  -1.463  1.00  0.00     0.058 A 
ATOM     89  C   UNL     1      16.361  13.498  -0.694  1.00  0.00     0.135 A 
ATOM     90  C   UNL     1      14.958  14.821  -2.134  1.00  0.00     0.135 A 
ATOM     91  F   UNL     1      16.626  12.362  -0.030  1.00  0.00    -0.206 F 
ATOM     92  C   UNL     1      17.256  14.556  -0.578  1.00  0.00     0.059 A 
ATOM     93  C   UNL     1      15.851  15.884  -2.052  1.00  0.00     0.059 A 
ATOM     94  F   UNL     1      13.860  14.973  -2.892  1.00  0.00    -0.206 F 
ATOM     95  C   UNL     1      16.992  15.745  -1.262  1.00  0.00     0.060 A 
BRANCH  95  96
ATOM     96  S   UNL     1      18.181  17.098  -1.138  1.00  0.00     0.124 S 
ATOM     97  O   UNL     1      17.890  17.621   0.193  1.00  0.00    -0.237 OA
ATOM     98  O   UNL     1      19.459  16.407  -1.283  1.00  0.00    -0.237 OA
ATOM     99  O   UNL     1      17.818  17.970  -2.251  1.00  0.00    -0.744 OA
ENDBRANCH  95  96
ENDBRANCH  63  88
ENDBRANCH  37  38
ENDBRANCH  29  32
ENDBRANCH  27  28
ENDBRANCH   1  27
TORSDOF 16
