REMARK SMILES CC[C@H](C)[C@@H](NC(=S)Nc1ccccc1)C(=O)NCCCCNC(=O)c1ccc(-c2c3nc(c(-c4c(F)cc(S(=O)(=O)[O-])cc4F)c4ccc([nH]4)c(-c4c(F)cc(S(=O)(=O)[O-])cc4F)c4nc(c(-c5c(F)cc(S(=O)(=O)[O-])cc5F)c5ccc2[nH]5)C=C4)C=C3)cc1
REMARK SMILES IDX 20 1 19 2 18 3 16 4 17 5 5 7 3 8 4 9 2 10 1 11 6 12 7 14
REMARK SMILES IDX 8 15 9 16 10 18 11 19 15 20 12 21 14 22 13 23 21 24 22 25
REMARK SMILES IDX 23 26 24 27 25 29 26 30 27 31 91 32 28 33 90 34 29 35 30 36
REMARK SMILES IDX 31 37 84 38 32 39 89 40 83 41 85 42 33 43 88 44 82 45 81 46
REMARK SMILES IDX 34 48 68 49 47 50 67 51 48 52 51 53 66 54 86 55 49 56 50 57
REMARK SMILES IDX 65 59 87 60 52 61 35 62 36 63 45 64 37 65 38 66 44 67 46 68
REMARK SMILES IDX 39 69 40 70 41 71 42 72 43 73 69 74 70 75 79 76 71 77 72 78
REMARK SMILES IDX 78 79 80 80 73 81 74 82 75 83 76 84 77 85 53 86 54 87 63 88
REMARK SMILES IDX 55 89 56 90 62 91 64 92 57 93 58 94 59 95 60 96 61 97
REMARK H PARENT 18 6 6 13 9 17 23 28 85 47 51 58
REMARK Flexibility Score: inf
ROOT
ATOM      1  C   UNL     1       4.805   1.198   2.772  1.00  0.00     0.023 C 
ENDROOT
BRANCH   1   2
ATOM      2  C   UNL     1       3.845   0.305   3.563  1.00  0.00     0.116 C 
BRANCH   2   3
ATOM      3  N   UNL     1       2.921   1.149   4.284  1.00  0.00    -0.354 N 
ATOM      4  C   UNL     1       1.613   1.375   3.991  1.00  0.00     0.242 C 
ATOM      5  O   UNL     1       1.215   2.541   4.046  1.00  0.00    -0.273 OA
ATOM      6  H   UNL     1       3.278   1.613   5.075  1.00  0.00     0.163 HD
BRANCH   4   7
ATOM      7  C   UNL     1       0.710   0.225   3.488  1.00  0.00     0.173 C 
BRANCH   7   8
ATOM      8  C   UNL     1       0.663   0.304   1.923  1.00  0.00     0.018 C 
ATOM      9  C   UNL     1       0.131  -0.968   1.256  1.00  0.00     0.010 C 
BRANCH   8  10
ATOM     10  C   UNL     1      -0.109   1.595   1.510  1.00  0.00     0.002 C 
ATOM     11  C   UNL     1      -1.032   1.506   0.306  1.00  0.00     0.004 C 
ENDBRANCH   8  10
ENDBRANCH   7   8
BRANCH   7  12
ATOM     12  N   UNL     1       1.086  -1.096   4.035  1.00  0.00    -0.350 N 
ATOM     13  H   UNL     1       1.242  -1.775   3.340  1.00  0.00     0.163 HD
BRANCH  12  14
ATOM     14  C   UNL     1       1.262  -1.565   5.289  1.00  0.00     0.171 C 
ATOM     15  S   UNL     1       1.661  -3.186   5.429  1.00  0.00    -0.041 S 
BRANCH  14  16
ATOM     16  N   UNL     1       1.317  -0.802   6.399  1.00  0.00    -0.333 N 
ATOM     17  H   UNL     1       1.840  -1.201   7.131  1.00  0.00     0.169 HD
BRANCH  16  18
ATOM     18  C   UNL     1       0.771   0.449   6.709  1.00  0.00     0.040 A 
ATOM     19  C   UNL     1       1.574   1.359   7.403  1.00  0.00     0.026 A 
ATOM     20  C   UNL     1      -0.523   0.809   6.336  1.00  0.00     0.026 A 
ATOM     21  C   UNL     1       1.142   2.675   7.577  1.00  0.00     0.002 A 
ATOM     22  C   UNL     1      -0.964   2.118   6.532  1.00  0.00     0.002 A 
ATOM     23  C   UNL     1      -0.119   3.058   7.123  1.00  0.00     0.000 A 
ENDBRANCH  16  18
ENDBRANCH  14  16
ENDBRANCH  12  14
ENDBRANCH   7  12
ENDBRANCH   4   7
ENDBRANCH   2   3
ENDBRANCH   1   2
BRANCH   1  24
ATOM     24  C   UNL     1       5.575   2.208   3.639  1.00  0.00     0.023 C 
BRANCH  24  25
ATOM     25  C   UNL     1       6.261   1.598   4.857  1.00  0.00     0.116 C 
BRANCH  25  26
ATOM     26  N   UNL     1       7.207   0.569   4.465  1.00  0.00    -0.352 N 
ATOM     27  C   UNL     1       8.519   0.444   4.822  1.00  0.00     0.251 C 
ATOM     28  H   UNL     1       6.857  -0.129   3.865  1.00  0.00     0.163 HD
ATOM     29  O   UNL     1       9.251  -0.336   4.203  1.00  0.00    -0.269 OA
BRANCH  27  30
ATOM     30  C   UNL     1       9.054   1.240   5.940  1.00  0.00     0.039 A 
ATOM     31  C   UNL     1      10.294   1.863   5.791  1.00  0.00     0.014 A 
ATOM     32  C   UNL     1       8.350   1.336   7.146  1.00  0.00     0.014 A 
ATOM     33  C   UNL     1      10.830   2.588   6.854  1.00  0.00     0.010 A 
ATOM     34  C   UNL     1       8.858   2.113   8.184  1.00  0.00     0.010 A 
ATOM     35  C   UNL     1      10.117   2.717   8.058  1.00  0.00    -0.014 A 
BRANCH  35  36
ATOM     36  C   UNL     1      10.717   3.429   9.212  1.00  0.00     0.031 A 
ATOM     37  C   UNL     1      11.104   2.659  10.446  1.00  0.00     0.074 A 
ATOM     38  C   UNL     1      10.901   4.761   9.152  1.00  0.00     0.049 A 
ATOM     39  N   UNL     1      11.662   3.090  11.547  1.00  0.00    -0.248 NA
ATOM     40  C   UNL     1      10.801   1.218  10.453  1.00  0.00     0.031 C 
ATOM     41  C   UNL     1      10.518   5.618   8.027  1.00  0.00     0.029 A 
ATOM     42  N   UNL     1      11.462   5.627  10.054  1.00  0.00    -0.354 N 
ATOM     43  C   UNL     1      11.761   1.982  12.381  1.00  0.00     0.074 A 
ATOM     44  C   UNL     1      11.159   0.870  11.681  1.00  0.00     0.031 C 
ATOM     45  C   UNL     1      10.887   6.882   8.293  1.00  0.00     0.029 A 
ATOM     46  C   UNL     1      11.512   6.928   9.612  1.00  0.00     0.049 A 
ATOM     47  H   UNL     1      11.798   5.344  10.935  1.00  0.00     0.167 HD
ATOM     48  C   UNL     1      12.328   1.893  13.608  1.00  0.00     0.037 A 
ATOM     49  C   UNL     1      12.018   8.028  10.201  1.00  0.00     0.037 A 
ATOM     50  C   UNL     1      12.961   2.998  14.279  1.00  0.00     0.049 A 
ATOM     51  C   UNL     1      12.677   7.897  11.547  1.00  0.00     0.074 A 
ATOM     52  C   UNL     1      13.622   3.003  15.495  1.00  0.00     0.029 A 
ATOM     53  N   UNL     1      13.016   4.294  13.788  1.00  0.00    -0.354 N 
ATOM     54  N   UNL     1      12.824   6.828  12.293  1.00  0.00    -0.248 NA
ATOM     55  C   UNL     1      13.254   9.118  12.124  1.00  0.00     0.031 C 
ATOM     56  C   UNL     1      14.047   4.311  15.754  1.00  0.00     0.029 A 
ATOM     57  C   UNL     1      13.689   5.111  14.680  1.00  0.00     0.049 A 
ATOM     58  H   UNL     1      12.633   4.589  12.930  1.00  0.00     0.167 HD
ATOM     59  C   UNL     1      13.541   7.240  13.411  1.00  0.00     0.074 A 
ATOM     60  C   UNL     1      13.803   8.655  13.239  1.00  0.00     0.031 C 
ATOM     61  C   UNL     1      13.949   6.515  14.482  1.00  0.00     0.037 A 
BRANCH  48  62
ATOM     62  C   UNL     1      12.290   0.557  14.297  1.00  0.00     0.058 A 
ATOM     63  C   UNL     1      13.060  -0.529  13.848  1.00  0.00     0.135 A 
ATOM     64  C   UNL     1      11.487   0.362  15.432  1.00  0.00     0.135 A 
ATOM     65  F   UNL     1      13.833  -0.404  12.757  1.00  0.00    -0.206 F 
ATOM     66  C   UNL     1      13.009  -1.768  14.477  1.00  0.00     0.059 A 
ATOM     67  C   UNL     1      11.442  -0.861  16.095  1.00  0.00     0.059 A 
ATOM     68  F   UNL     1      10.729   1.365  15.905  1.00  0.00    -0.206 F 
ATOM     69  C   UNL     1      12.194  -1.925  15.599  1.00  0.00     0.060 A 
BRANCH  69  70
ATOM     70  S   UNL     1      12.135  -3.540  16.405  1.00  0.00     0.124 S 
ATOM     71  O   UNL     1      11.313  -4.301  15.469  1.00  0.00    -0.237 OA
ATOM     72  O   UNL     1      13.544  -3.915  16.460  1.00  0.00    -0.237 OA
ATOM     73  O   UNL     1      11.516  -3.253  17.695  1.00  0.00    -0.744 OA
ENDBRANCH  69  70
ENDBRANCH  48  62
BRANCH  49  74
ATOM     74  C   UNL     1      11.970   9.336   9.496  1.00  0.00     0.058 A 
ATOM     75  C   UNL     1      13.135   9.913   8.970  1.00  0.00     0.135 A 
ATOM     76  C   UNL     1      10.762  10.027   9.322  1.00  0.00     0.135 A 
ATOM     77  F   UNL     1      14.315   9.290   9.114  1.00  0.00    -0.206 F 
ATOM     78  C   UNL     1      13.110  11.138   8.313  1.00  0.00     0.059 A 
ATOM     79  C   UNL     1      10.707  11.243   8.648  1.00  0.00     0.059 A 
ATOM     80  F   UNL     1       9.616   9.508   9.789  1.00  0.00    -0.206 F 
ATOM     81  C   UNL     1      11.889  11.796   8.156  1.00  0.00     0.060 A 
BRANCH  81  82
ATOM     82  S   UNL     1      11.859  13.365   7.262  1.00  0.00     0.124 S 
ATOM     83  O   UNL     1      12.433  14.274   8.246  1.00  0.00    -0.237 OA
ATOM     84  O   UNL     1      12.692  13.072   6.099  1.00  0.00    -0.237 OA
ATOM     85  O   UNL     1      10.441  13.558   6.974  1.00  0.00    -0.744 OA
ENDBRANCH  81  82
ENDBRANCH  49  74
BRANCH  61  86
ATOM     86  C   UNL     1      14.760   7.229  15.526  1.00  0.00     0.058 A 
ATOM     87  C   UNL     1      14.180   8.151  16.411  1.00  0.00     0.135 A 
ATOM     88  C   UNL     1      16.132   6.962  15.661  1.00  0.00     0.135 A 
ATOM     89  F   UNL     1      12.873   8.443  16.321  1.00  0.00    -0.206 F 
ATOM     90  C   UNL     1      14.939   8.810  17.372  1.00  0.00     0.059 A 
ATOM     91  C   UNL     1      16.905   7.589  16.632  1.00  0.00     0.059 A 
ATOM     92  F   UNL     1      16.732   6.078  14.848  1.00  0.00    -0.206 F 
ATOM     93  C   UNL     1      16.302   8.525  17.472  1.00  0.00     0.060 A 
BRANCH  93  94
ATOM     94  S   UNL     1      17.277   9.376  18.730  1.00  0.00     0.124 S 
ATOM     95  O   UNL     1      17.450  10.692  18.125  1.00  0.00    -0.237 OA
ATOM     96  O   UNL     1      16.401   9.324  19.896  1.00  0.00    -0.237 OA
ATOM     97  O   UNL     1      18.487   8.564  18.828  1.00  0.00    -0.744 OA
ENDBRANCH  93  94
ENDBRANCH  61  86
ENDBRANCH  35  36
ENDBRANCH  27  30
ENDBRANCH  25  26
ENDBRANCH  24  25
ENDBRANCH   1  24
TORSDOF 20
