REMARK SMILES O=C1CCCC2=C1[C@H](c1ccc([N+](=O)[O-])cc1)CC(=O)N2c1ccccc1C(=O)NCCCCNC(=O)c1ccc(-c2c3nc(c(-c4c(F)cc(S(=O)(=O)[O-])cc4F)c4ccc([nH]4)c(-c4c(F)cc(S(=O)(=O)[O-])cc4F)c4nc(c(-c5c(F)cc(S(=O)(=O)[O-])cc5F)c5ccc2[nH]5)C=C4)C=C3)cc1
REMARK SMILES IDX 32 1 31 2 30 3 28 4 29 5 27 7 22 8 23 9 24 10 26 11 25 12
REMARK SMILES IDX 21 13 1 14 2 15 3 16 7 17 4 18 6 19 8 20 5 21 18 22 19 23
REMARK SMILES IDX 20 24 9 25 10 26 17 27 11 28 16 29 12 30 13 31 14 32 15 33
REMARK SMILES IDX 33 34 34 35 35 36 36 37 37 39 38 40 39 41 103 42 40 43
REMARK SMILES IDX 102 44 41 45 42 46 43 47 96 48 44 49 101 50 95 51 97 52
REMARK SMILES IDX 45 53 100 54 94 55 93 56 46 58 80 59 59 60 79 61 60 62 63 63
REMARK SMILES IDX 78 64 98 65 61 66 62 67 77 69 99 70 64 71 47 72 48 73 57 74
REMARK SMILES IDX 49 75 50 76 56 77 58 78 51 79 52 80 53 81 54 82 55 83 81 84
REMARK SMILES IDX 82 85 91 86 83 87 84 88 90 89 92 90 85 91 86 92 87 93 88 94
REMARK SMILES IDX 89 95 65 96 66 97 75 98 67 99 68 100 74 101 76 102 69 103
REMARK SMILES IDX 70 104 71 105 72 106 73 107
REMARK H PARENT 30 6 35 38 97 57 63 68
REMARK Flexibility Score: inf
ROOT
ATOM      1  C   UNL     1       4.330  -1.367   3.205  1.00  0.00     0.023 C 
ENDROOT
BRANCH   1   2
ATOM      2  C   UNL     1       4.962  -1.185   1.833  1.00  0.00     0.116 C 
BRANCH   2   3
ATOM      3  N   UNL     1       6.325  -0.743   1.867  1.00  0.00    -0.352 N 
ATOM      4  C   UNL     1       7.420  -0.912   1.065  1.00  0.00     0.253 C 
ATOM      5  O   UNL     1       8.387  -0.248   1.470  1.00  0.00    -0.269 OA
ATOM      6  H   UNL     1       6.519  -0.185   2.655  1.00  0.00     0.163 HD
BRANCH   4   7
ATOM      7  C   UNL     1       7.622  -1.749  -0.192  1.00  0.00     0.063 A 
ATOM      8  C   UNL     1       6.770  -2.516  -1.023  1.00  0.00     0.061 A 
ATOM      9  C   UNL     1       7.321  -3.171  -2.170  1.00  0.00     0.027 A 
ATOM     10  C   UNL     1       8.666  -3.117  -2.507  1.00  0.00     0.002 A 
ATOM     11  C   UNL     1       9.001  -1.741  -0.576  1.00  0.00     0.016 A 
ATOM     12  C   UNL     1       9.515  -2.400  -1.698  1.00  0.00     0.001 A 
BRANCH   8  13
ATOM     13  N   UNL     1       5.345  -2.699  -0.936  1.00  0.00    -0.284 N 
ATOM     14  O   UNL     1       1.278  -1.095  -2.227  1.00  0.00    -0.294 OA
ATOM     15  C   UNL     1       2.223  -0.826  -1.493  1.00  0.00     0.161 C 
ATOM     16  C   UNL     1       2.677   0.591  -1.222  1.00  0.00     0.081 C 
ATOM     17  C   UNL     1       3.105  -1.914  -0.982  1.00  0.00     0.023 C 
ATOM     18  C   UNL     1       3.979   0.782  -1.964  1.00  0.00     0.015 C 
ATOM     19  C   UNL     1       4.427  -1.659  -1.145  1.00  0.00     0.033 C 
ATOM     20  C   UNL     1       2.524  -3.295  -0.690  1.00  0.00     0.064 C 
ATOM     21  C   UNL     1       4.991  -0.310  -1.607  1.00  0.00     0.055 C 
ATOM     22  C   UNL     1       3.473  -4.301  -1.321  1.00  0.00     0.114 C 
ATOM     23  C   UNL     1       4.910  -4.050  -0.909  1.00  0.00     0.232 C 
ATOM     24  O   UNL     1       5.639  -5.011  -0.651  1.00  0.00    -0.274 OA
BRANCH  20  25
ATOM     25  C   UNL     1       2.190  -3.652   0.780  1.00  0.00    -0.039 A 
ATOM     26  C   UNL     1       3.076  -4.300   1.664  1.00  0.00     0.011 A 
ATOM     27  C   UNL     1       0.906  -3.376   1.283  1.00  0.00     0.011 A 
ATOM     28  C   UNL     1       2.752  -4.520   3.016  1.00  0.00     0.086 A 
ATOM     29  C   UNL     1       0.585  -3.531   2.643  1.00  0.00     0.086 A 
ATOM     30  C   UNL     1       1.533  -4.063   3.515  1.00  0.00     0.269 A 
BRANCH  30  31
ATOM     31  N   UNL     1       1.293  -4.054   4.962  1.00  0.00     0.062 N 
ATOM     32  O   UNL     1       2.025  -4.763   5.667  1.00  0.00    -0.258 OA
ATOM     33  O   UNL     1       0.405  -3.304   5.389  1.00  0.00    -0.258 OA
ENDBRANCH  30  31
ENDBRANCH  20  25
ENDBRANCH   8  13
ENDBRANCH   4   7
ENDBRANCH   2   3
ENDBRANCH   1   2
BRANCH   1  34
ATOM     34  C   UNL     1       3.413  -0.293   3.781  1.00  0.00     0.023 C 
BRANCH  34  35
ATOM     35  C   UNL     1       2.420   0.446   2.887  1.00  0.00     0.116 C 
BRANCH  35  36
ATOM     36  N   UNL     1       1.697  -0.336   1.899  1.00  0.00    -0.352 N 
ATOM     37  C   UNL     1       0.411  -0.183   1.412  1.00  0.00     0.251 C 
ATOM     38  H   UNL     1       2.200  -1.091   1.517  1.00  0.00     0.163 HD
ATOM     39  O   UNL     1       0.064  -0.693   0.362  1.00  0.00    -0.269 OA
BRANCH  37  40
ATOM     40  C   UNL     1      -0.605   0.482   2.223  1.00  0.00     0.039 A 
ATOM     41  C   UNL     1      -1.768  -0.238   2.530  1.00  0.00     0.014 A 
ATOM     42  C   UNL     1      -0.364   1.740   2.751  1.00  0.00     0.014 A 
ATOM     43  C   UNL     1      -2.632   0.256   3.497  1.00  0.00     0.010 A 
ATOM     44  C   UNL     1      -1.158   2.172   3.791  1.00  0.00     0.010 A 
ATOM     45  C   UNL     1      -2.288   1.430   4.174  1.00  0.00    -0.014 A 
BRANCH  45  46
ATOM     46  C   UNL     1      -3.111   1.966   5.272  1.00  0.00     0.031 A 
ATOM     47  C   UNL     1      -3.710   3.327   5.089  1.00  0.00     0.074 A 
ATOM     48  C   UNL     1      -3.181   1.298   6.437  1.00  0.00     0.049 A 
ATOM     49  N   UNL     1      -4.224   4.129   5.978  1.00  0.00    -0.248 NA
ATOM     50  C   UNL     1      -3.649   3.890   3.727  1.00  0.00     0.031 C 
ATOM     51  C   UNL     1      -2.568  -0.006   6.716  1.00  0.00     0.029 A 
ATOM     52  N   UNL     1      -3.776   1.641   7.620  1.00  0.00    -0.354 N 
ATOM     53  C   UNL     1      -4.507   5.303   5.293  1.00  0.00     0.074 A 
ATOM     54  C   UNL     1      -4.039   5.137   3.936  1.00  0.00     0.031 C 
ATOM     55  C   UNL     1      -2.830  -0.354   7.987  1.00  0.00     0.029 A 
ATOM     56  C   UNL     1      -3.592   0.715   8.619  1.00  0.00     0.049 A 
ATOM     57  H   UNL     1      -4.287   2.473   7.745  1.00  0.00     0.167 HD
ATOM     58  C   UNL     1      -5.136   6.407   5.754  1.00  0.00     0.037 A 
ATOM     59  C   UNL     1      -3.994   0.747   9.903  1.00  0.00     0.037 A 
ATOM     60  C   UNL     1      -5.645   6.512   7.093  1.00  0.00     0.049 A 
ATOM     61  C   UNL     1      -4.769   1.952  10.366  1.00  0.00     0.074 A 
ATOM     62  C   UNL     1      -6.334   7.555   7.680  1.00  0.00     0.029 A 
ATOM     63  N   UNL     1      -5.542   5.506   8.046  1.00  0.00    -0.354 N 
ATOM     64  N   UNL     1      -5.043   3.057   9.709  1.00  0.00    -0.248 NA
ATOM     65  C   UNL     1      -5.303   1.913  11.731  1.00  0.00     0.031 C 
ATOM     66  C   UNL     1      -6.647   7.179   8.992  1.00  0.00     0.029 A 
ATOM     67  C   UNL     1      -6.176   5.892   9.211  1.00  0.00     0.049 A 
ATOM     68  H   UNL     1      -5.085   4.644   7.911  1.00  0.00     0.167 HD
ATOM     69  C   UNL     1      -5.799   3.836  10.575  1.00  0.00     0.074 A 
ATOM     70  C   UNL     1      -5.957   3.065  11.793  1.00  0.00     0.031 C 
ATOM     71  C   UNL     1      -6.313   5.079  10.393  1.00  0.00     0.037 A 
BRANCH  58  72
ATOM     72  C   UNL     1      -5.330   7.541   4.788  1.00  0.00     0.058 A 
ATOM     73  C   UNL     1      -6.202   7.425   3.692  1.00  0.00     0.135 A 
ATOM     74  C   UNL     1      -4.629   8.747   4.940  1.00  0.00     0.135 A 
ATOM     75  F   UNL     1      -6.874   6.282   3.481  1.00  0.00    -0.206 F 
ATOM     76  C   UNL     1      -6.345   8.448   2.763  1.00  0.00     0.059 A 
ATOM     77  C   UNL     1      -4.781   9.798   4.038  1.00  0.00     0.059 A 
ATOM     78  F   UNL     1      -3.773   8.909   5.962  1.00  0.00    -0.206 F 
ATOM     79  C   UNL     1      -5.629   9.632   2.944  1.00  0.00     0.060 A 
BRANCH  79  80
ATOM     80  S   UNL     1      -5.834  10.954   1.732  1.00  0.00     0.124 S 
ATOM     81  O   UNL     1      -5.058  10.440   0.608  1.00  0.00    -0.237 OA
ATOM     82  O   UNL     1      -7.280  10.983   1.542  1.00  0.00    -0.237 OA
ATOM     83  O   UNL     1      -5.269  12.119   2.404  1.00  0.00    -0.744 OA
ENDBRANCH  79  80
ENDBRANCH  58  72
BRANCH  59  84
ATOM     84  C   UNL     1      -3.711  -0.392  10.815  1.00  0.00     0.058 A 
ATOM     85  C   UNL     1      -4.740  -1.248  11.236  1.00  0.00     0.135 A 
ATOM     86  C   UNL     1      -2.414  -0.655  11.284  1.00  0.00     0.135 A 
ATOM     87  F   UNL     1      -5.997  -1.041  10.813  1.00  0.00    -0.206 F 
ATOM     88  C   UNL     1      -4.505  -2.300  12.116  1.00  0.00     0.059 A 
ATOM     89  C   UNL     1      -2.149  -1.717  12.146  1.00  0.00     0.059 A 
ATOM     90  F   UNL     1      -1.388   0.117  10.894  1.00  0.00    -0.206 F 
ATOM     91  C   UNL     1      -3.205  -2.523  12.570  1.00  0.00     0.060 A 
BRANCH  91  92
ATOM     92  S   UNL     1      -2.907  -3.901  13.701  1.00  0.00     0.124 S 
ATOM     93  O   UNL     1      -3.427  -3.368  14.955  1.00  0.00    -0.237 OA
ATOM     94  O   UNL     1      -3.686  -4.976  13.094  1.00  0.00    -0.237 OA
ATOM     95  O   UNL     1      -1.458  -4.076  13.641  1.00  0.00    -0.744 OA
ENDBRANCH  91  92
ENDBRANCH  59  84
BRANCH  71  96
ATOM     96  C   UNL     1      -7.113   5.646  11.527  1.00  0.00     0.058 A 
ATOM     97  C   UNL     1      -6.493   6.123  12.691  1.00  0.00     0.135 A 
ATOM     98  C   UNL     1      -8.509   5.737  11.431  1.00  0.00     0.135 A 
ATOM     99  F   UNL     1      -5.159   6.052  12.825  1.00  0.00    -0.206 F 
ATOM    100  C   UNL     1      -7.237   6.641  13.743  1.00  0.00     0.059 A 
ATOM    101  C   UNL     1      -9.271   6.276  12.460  1.00  0.00     0.059 A 
ATOM    102  F   UNL     1      -9.143   5.307  10.329  1.00  0.00    -0.206 F 
ATOM    103  C   UNL     1      -8.627   6.708  13.619  1.00  0.00     0.060 A 
BRANCH 103 104
ATOM    104  S   UNL     1      -9.585   7.391  14.986  1.00  0.00     0.124 S 
ATOM    105  O   UNL     1      -9.606   6.268  15.917  1.00  0.00    -0.237 OA
ATOM    106  O   UNL     1      -8.780   8.539  15.394  1.00  0.00    -0.237 OA
ATOM    107  O   UNL     1     -10.866   7.721  14.369  1.00  0.00    -0.744 OA
ENDBRANCH 103 104
ENDBRANCH  71  96
ENDBRANCH  45  46
ENDBRANCH  37  40
ENDBRANCH  35  36
ENDBRANCH  34  35
ENDBRANCH   1  34
TORSDOF 17
