REMARK SMILES CC(C)n1cncc1[C@@H](NC(=O)OC(C)(C)C)C(=O)NCCCCNC(=O)c1ccc(-c2c3nc(c(-c4c(F)cc(S(=O)(=O)[O-])cc4F)c4ccc([nH]4)c(-c4c(F)cc(S(=O)(=O)[O-])cc4F)c4nc(c(-c5c(F)cc(S(=O)(=O)[O-])cc5F)c5ccc2[nH]5)C=C4)C=C3)cc1
REMARK SMILES IDX 22 1 21 2 20 3 18 4 19 5 9 7 8 8 4 9 5 10 6 11 7 12 2 13
REMARK SMILES IDX 1 14 3 15 10 16 11 17 12 19 13 20 14 21 15 22 16 23 17 24
REMARK SMILES IDX 23 25 24 26 25 27 26 28 27 30 28 31 29 32 93 33 30 34 92 35
REMARK SMILES IDX 31 36 32 37 33 38 86 39 34 40 91 41 85 42 87 43 35 44 90 45
REMARK SMILES IDX 84 46 83 47 36 49 70 50 49 51 69 52 50 53 53 54 68 55 88 56
REMARK SMILES IDX 51 57 52 58 67 60 89 61 54 62 37 63 38 64 47 65 39 66 40 67
REMARK SMILES IDX 46 68 48 69 41 70 42 71 43 72 44 73 45 74 71 75 72 76 81 77
REMARK SMILES IDX 73 78 74 79 80 80 82 81 75 82 76 83 77 84 78 85 79 86 55 87
REMARK SMILES IDX 56 88 65 89 57 90 58 91 64 92 66 93 59 94 60 95 61 96 62 97
REMARK SMILES IDX 63 98
REMARK H PARENT 20 6 10 18 25 29 87 48 53 59
REMARK Flexibility Score: inf
ROOT
ATOM      1  C   UNL     1      -5.025   1.380   0.005  1.00  0.00     0.023 C 
ENDROOT
BRANCH   1   2
ATOM      2  C   UNL     1      -4.258   2.607  -0.486  1.00  0.00     0.116 C 
BRANCH   2   3
ATOM      3  N   UNL     1      -3.031   2.821   0.250  1.00  0.00    -0.354 N 
ATOM      4  C   UNL     1      -1.736   2.790  -0.184  1.00  0.00     0.248 C 
ATOM      5  O   UNL     1      -0.859   2.922   0.681  1.00  0.00    -0.272 OA
ATOM      6  H   UNL     1      -3.147   3.018   1.208  1.00  0.00     0.163 HD
BRANCH   4   7
ATOM      7  C   UNL     1      -1.327   2.441  -1.655  1.00  0.00     0.223 C 
BRANCH   7   8
ATOM      8  C   UNL     1      -1.582   0.964  -1.856  1.00  0.00     0.070 A 
ATOM      9  N   UNL     1      -0.713  -0.062  -1.556  1.00  0.00    -0.330 N 
ATOM     10  C   UNL     1      -1.444  -1.223  -1.570  1.00  0.00     0.199 A 
ATOM     11  N   UNL     1      -2.635  -1.041  -2.086  1.00  0.00    -0.245 NA
ATOM     12  C   UNL     1      -2.712   0.302  -2.313  1.00  0.00     0.137 A 
BRANCH   9  13
ATOM     13  C   UNL     1       0.737   0.004  -1.412  1.00  0.00     0.082 C 
ATOM     14  C   UNL     1       1.169   0.009   0.049  1.00  0.00     0.031 C 
ATOM     15  C   UNL     1       1.428  -1.125  -2.189  1.00  0.00     0.031 C 
ENDBRANCH   9  13
ENDBRANCH   7   8
BRANCH   7  16
ATOM     16  N   UNL     1      -1.947   3.102  -2.783  1.00  0.00    -0.304 N 
ATOM     17  C   UNL     1      -2.372   4.390  -2.873  1.00  0.00     0.408 C 
ATOM     18  H   UNL     1      -2.078   2.549  -3.587  1.00  0.00     0.168 HD
ATOM     19  O   UNL     1      -2.638   4.863  -3.961  1.00  0.00    -0.225 OA
BRANCH  17  20
ATOM     20  O   UNL     1      -2.592   4.958  -1.665  1.00  0.00    -0.444 OA
BRANCH  20  21
ATOM     21  C   UNL     1      -3.450   6.120  -1.586  1.00  0.00     0.106 C 
ATOM     22  C   UNL     1      -2.754   7.336  -2.184  1.00  0.00     0.056 C 
ATOM     23  C   UNL     1      -4.787   5.839  -2.280  1.00  0.00     0.056 C 
ATOM     24  C   UNL     1      -3.705   6.369  -0.086  1.00  0.00     0.056 C 
ENDBRANCH  20  21
ENDBRANCH  17  20
ENDBRANCH   7  16
ENDBRANCH   4   7
ENDBRANCH   2   3
ENDBRANCH   1   2
BRANCH   1  25
ATOM     25  C   UNL     1      -5.878   1.618   1.258  1.00  0.00     0.023 C 
BRANCH  25  26
ATOM     26  C   UNL     1      -7.019   2.615   1.078  1.00  0.00     0.116 C 
BRANCH  26  27
ATOM     27  N   UNL     1      -8.010   2.211   0.069  1.00  0.00    -0.352 N 
ATOM     28  C   UNL     1      -9.107   2.932  -0.391  1.00  0.00     0.251 C 
ATOM     29  H   UNL     1      -7.881   1.320  -0.329  1.00  0.00     0.163 HD
ATOM     30  O   UNL     1     -10.071   2.367  -0.893  1.00  0.00    -0.269 OA
BRANCH  28  31
ATOM     31  C   UNL     1      -9.055   4.405  -0.311  1.00  0.00     0.039 A 
ATOM     32  C   UNL     1     -10.142   5.230  -0.004  1.00  0.00     0.014 A 
ATOM     33  C   UNL     1      -7.805   4.956  -0.532  1.00  0.00     0.014 A 
ATOM     34  C   UNL     1      -9.925   6.609   0.117  1.00  0.00     0.010 A 
ATOM     35  C   UNL     1      -7.557   6.234  -0.138  1.00  0.00     0.010 A 
ATOM     36  C   UNL     1      -8.616   7.102   0.038  1.00  0.00    -0.014 A 
BRANCH  36  37
ATOM     37  C   UNL     1      -8.228   8.488   0.269  1.00  0.00     0.031 A 
ATOM     38  C   UNL     1      -8.558   8.973   1.628  1.00  0.00     0.074 A 
ATOM     39  C   UNL     1      -7.373   9.140  -0.558  1.00  0.00     0.049 A 
ATOM     40  N   UNL     1      -9.451   9.852   1.935  1.00  0.00    -0.248 NA
ATOM     41  C   UNL     1      -7.985   8.275   2.792  1.00  0.00     0.031 C 
ATOM     42  C   UNL     1      -6.786   8.678  -1.819  1.00  0.00     0.029 A 
ATOM     43  N   UNL     1      -6.758  10.345  -0.389  1.00  0.00    -0.354 N 
ATOM     44  C   UNL     1      -9.344  10.021   3.309  1.00  0.00     0.074 A 
ATOM     45  C   UNL     1      -8.640   8.865   3.794  1.00  0.00     0.031 C 
ATOM     46  C   UNL     1      -5.734   9.459  -2.163  1.00  0.00     0.029 A 
ATOM     47  C   UNL     1      -5.683  10.585  -1.254  1.00  0.00     0.049 A 
ATOM     48  H   UNL     1      -7.048  10.997   0.289  1.00  0.00     0.167 HD
ATOM     49  C   UNL     1      -9.568  11.241   3.874  1.00  0.00     0.037 A 
ATOM     50  C   UNL     1      -4.849  11.663  -1.251  1.00  0.00     0.037 A 
ATOM     51  C   UNL     1     -10.250  12.115   2.943  1.00  0.00     0.049 A 
ATOM     52  C   UNL     1      -5.592  12.750  -0.568  1.00  0.00     0.074 A 
ATOM     53  C   UNL     1     -11.443  12.050   2.248  1.00  0.00     0.029 A 
ATOM     54  N   UNL     1      -9.495  13.062   2.291  1.00  0.00    -0.354 N 
ATOM     55  N   UNL     1      -6.688  13.271  -1.053  1.00  0.00    -0.248 NA
ATOM     56  C   UNL     1      -5.422  12.865   0.871  1.00  0.00     0.031 C 
ATOM     57  C   UNL     1     -11.146  12.575   0.954  1.00  0.00     0.029 A 
ATOM     58  C   UNL     1      -9.823  13.018   0.958  1.00  0.00     0.049 A 
ATOM     59  H   UNL     1      -8.836  13.665   2.706  1.00  0.00     0.167 HD
ATOM     60  C   UNL     1      -7.538  13.380   0.038  1.00  0.00     0.074 A 
ATOM     61  C   UNL     1      -6.680  13.166   1.207  1.00  0.00     0.031 C 
ATOM     62  C   UNL     1      -8.896  13.322  -0.112  1.00  0.00     0.037 A 
BRANCH  49  63
ATOM     63  C   UNL     1      -8.825  11.773   5.081  1.00  0.00     0.058 A 
ATOM     64  C   UNL     1      -9.219  13.013   5.626  1.00  0.00     0.135 A 
ATOM     65  C   UNL     1      -7.588  11.274   5.552  1.00  0.00     0.135 A 
ATOM     66  F   UNL     1     -10.380  13.581   5.264  1.00  0.00    -0.206 F 
ATOM     67  C   UNL     1      -8.403  13.745   6.489  1.00  0.00     0.059 A 
ATOM     68  C   UNL     1      -6.785  11.962   6.452  1.00  0.00     0.059 A 
ATOM     69  F   UNL     1      -7.040  10.142   5.098  1.00  0.00    -0.206 F 
ATOM     70  C   UNL     1      -7.177  13.217   6.879  1.00  0.00     0.060 A 
BRANCH  70  71
ATOM     71  S   UNL     1      -6.069  14.207   7.894  1.00  0.00     0.124 S 
ATOM     72  O   UNL     1      -5.707  15.275   6.970  1.00  0.00    -0.237 OA
ATOM     73  O   UNL     1      -6.937  14.584   9.004  1.00  0.00    -0.237 OA
ATOM     74  O   UNL     1      -4.999  13.272   8.232  1.00  0.00    -0.744 OA
ENDBRANCH  70  71
ENDBRANCH  49  63
BRANCH  50  75
ATOM     75  C   UNL     1      -3.359  11.664  -1.354  1.00  0.00     0.058 A 
ATOM     76  C   UNL     1      -2.615  12.807  -1.698  1.00  0.00     0.135 A 
ATOM     77  C   UNL     1      -2.615  10.592  -0.826  1.00  0.00     0.135 A 
ATOM     78  F   UNL     1      -3.244  13.912  -2.127  1.00  0.00    -0.206 F 
ATOM     79  C   UNL     1      -1.218  12.872  -1.545  1.00  0.00     0.059 A 
ATOM     80  C   UNL     1      -1.224  10.614  -0.701  1.00  0.00     0.059 A 
ATOM     81  F   UNL     1      -3.244   9.527  -0.310  1.00  0.00    -0.206 F 
ATOM     82  C   UNL     1      -0.530  11.766  -1.044  1.00  0.00     0.060 A 
BRANCH  82  83
ATOM     83  S   UNL     1       1.254  11.875  -0.734  1.00  0.00     0.124 S 
ATOM     84  O   UNL     1       1.784  12.139  -2.067  1.00  0.00    -0.237 OA
ATOM     85  O   UNL     1       1.332  12.981   0.214  1.00  0.00    -0.237 OA
ATOM     86  O   UNL     1       1.584  10.561  -0.186  1.00  0.00    -0.744 OA
ENDBRANCH  82  83
ENDBRANCH  50  75
BRANCH  62  87
ATOM     87  C   UNL     1      -9.470  13.379  -1.511  1.00  0.00     0.058 A 
ATOM     88  C   UNL     1      -9.316  12.375  -2.487  1.00  0.00     0.135 A 
ATOM     89  C   UNL     1     -10.359  14.418  -1.813  1.00  0.00     0.135 A 
ATOM     90  F   UNL     1      -8.562  11.296  -2.251  1.00  0.00    -0.206 F 
ATOM     91  C   UNL     1      -9.990  12.418  -3.712  1.00  0.00     0.059 A 
ATOM     92  C   UNL     1     -11.062  14.470  -3.015  1.00  0.00     0.059 A 
ATOM     93  F   UNL     1     -10.600  15.377  -0.904  1.00  0.00    -0.206 F 
ATOM     94  C   UNL     1     -10.865  13.472  -3.966  1.00  0.00     0.060 A 
BRANCH  94  95
ATOM     95  S   UNL     1     -11.794  13.498  -5.516  1.00  0.00     0.124 S 
ATOM     96  O   UNL     1     -10.749  13.774  -6.496  1.00  0.00    -0.237 OA
ATOM     97  O   UNL     1     -12.370  12.157  -5.565  1.00  0.00    -0.237 OA
ATOM     98  O   UNL     1     -12.761  14.575  -5.316  1.00  0.00    -0.744 OA
ENDBRANCH  94  95
ENDBRANCH  62  87
ENDBRANCH  36  37
ENDBRANCH  28  31
ENDBRANCH  26  27
ENDBRANCH  25  26
ENDBRANCH   1  25
TORSDOF 19
