REMARK SMILES O=C(NCCCCNC(=O)c1ccc(CNc2nc3ccccc3o2)o1)c1ccc(-c2c3nc(c(-c4c(F)cc(S(=O)(=O)[O-])cc4F)c4ccc([nH]4)c(-c4c(F)cc(S(=O)(=O)[O-])cc4F)c4nc(c(-c5c(F)cc(S(=O)(=O)[O-])cc5F)c5ccc2[nH]5)C=C4)C=C3)cc1
REMARK SMILES IDX 5 1 4 2 3 3 1 4 2 5 27 7 28 8 92 9 29 10 91 11 30 12 31 13
REMARK SMILES IDX 32 14 85 15 33 16 90 17 84 18 86 19 34 20 89 21 83 22 82 23
REMARK SMILES IDX 35 25 69 26 48 27 68 28 49 29 52 30 67 31 87 32 50 33 51 34
REMARK SMILES IDX 66 36 88 37 53 38 36 39 37 40 46 41 38 42 39 43 45 44 47 45
REMARK SMILES IDX 40 46 41 47 42 48 43 49 44 50 70 51 71 52 80 53 72 54 73 55
REMARK SMILES IDX 79 56 81 57 74 58 75 59 76 60 77 61 78 62 54 63 55 64 64 65
REMARK SMILES IDX 56 66 57 67 63 68 65 69 58 70 59 71 60 72 61 73 62 74 6 75
REMARK SMILES IDX 7 76 8 77 9 78 10 80 11 81 12 82 26 83 13 84 14 85 15 86
REMARK SMILES IDX 16 87 17 89 18 90 25 91 19 92 24 93 20 94 23 95 21 96 22 97
REMARK H PARENT 3 6 86 24 52 35 8 79 16 88
REMARK Flexibility Score: inf
ROOT
ATOM      1  C   UNL     1       4.877   2.082  -1.518  1.00  0.00     0.023 C 
ENDROOT
BRANCH   1   2
ATOM      2  C   UNL     1       4.538   1.252  -0.287  1.00  0.00     0.116 C 
BRANCH   2   3
ATOM      3  N   UNL     1       3.105   1.131  -0.062  1.00  0.00    -0.352 N 
ATOM      4  O   UNL     1       1.119   0.081   0.129  1.00  0.00    -0.269 OA
ATOM      5  C   UNL     1       2.342  -0.004   0.089  1.00  0.00     0.251 C 
ATOM      6  H   UNL     1       2.611   1.981  -0.010  1.00  0.00     0.163 HD
BRANCH   5   7
ATOM      7  C   UNL     1       3.005  -1.324   0.173  1.00  0.00     0.039 A 
ATOM      8  C   UNL     1       4.128  -1.502   0.982  1.00  0.00     0.014 A 
ATOM      9  C   UNL     1       2.504  -2.390  -0.579  1.00  0.00     0.014 A 
ATOM     10  C   UNL     1       4.839  -2.695   0.921  1.00  0.00     0.010 A 
ATOM     11  C   UNL     1       3.169  -3.620  -0.567  1.00  0.00     0.010 A 
ATOM     12  C   UNL     1       4.360  -3.773   0.159  1.00  0.00    -0.014 A 
BRANCH  12  13
ATOM     13  C   UNL     1       5.089  -5.067   0.195  1.00  0.00     0.031 A 
ATOM     14  C   UNL     1       5.736  -5.636  -1.038  1.00  0.00     0.074 A 
ATOM     15  C   UNL     1       5.184  -5.716   1.373  1.00  0.00     0.049 A 
ATOM     16  N   UNL     1       6.416  -6.746  -1.170  1.00  0.00    -0.248 NA
ATOM     17  C   UNL     1       5.599  -4.867  -2.284  1.00  0.00     0.031 C 
ATOM     18  C   UNL     1       4.584  -5.264   2.632  1.00  0.00     0.029 A 
ATOM     19  N   UNL     1       5.825  -6.878   1.711  1.00  0.00    -0.354 N 
ATOM     20  C   UNL     1       6.773  -6.821  -2.511  1.00  0.00     0.074 A 
ATOM     21  C   UNL     1       6.213  -5.653  -3.159  1.00  0.00     0.031 C 
ATOM     22  C   UNL     1       4.922  -6.114   3.611  1.00  0.00     0.029 A 
ATOM     23  C   UNL     1       5.704  -7.205   3.041  1.00  0.00     0.049 A 
ATOM     24  H   UNL     1       6.325  -7.427   1.065  1.00  0.00     0.167 HD
ATOM     25  C   UNL     1       7.506  -7.772  -3.139  1.00  0.00     0.037 A 
ATOM     26  C   UNL     1       6.153  -8.272   3.727  1.00  0.00     0.037 A 
ATOM     27  C   UNL     1       8.070  -8.925  -2.480  1.00  0.00     0.049 A 
ATOM     28  C   UNL     1       6.944  -9.322   3.002  1.00  0.00     0.074 A 
ATOM     29  C   UNL     1       8.856  -9.928  -3.022  1.00  0.00     0.029 A 
ATOM     30  N   UNL     1       7.906  -9.232  -1.136  1.00  0.00    -0.354 N 
ATOM     31  N   UNL     1       7.296  -9.359   1.739  1.00  0.00    -0.248 NA
ATOM     32  C   UNL     1       7.396 -10.474   3.791  1.00  0.00     0.031 C 
ATOM     33  C   UNL     1       9.128 -10.863  -2.018  1.00  0.00     0.029 A 
ATOM     34  C   UNL     1       8.556 -10.419  -0.837  1.00  0.00     0.049 A 
ATOM     35  H   UNL     1       7.402  -8.686  -0.490  1.00  0.00     0.167 HD
ATOM     36  C   UNL     1       8.027 -10.530   1.585  1.00  0.00     0.074 A 
ATOM     37  C   UNL     1       8.080 -11.163   2.888  1.00  0.00     0.031 C 
ATOM     38  C   UNL     1       8.601 -11.036   0.465  1.00  0.00     0.037 A 
BRANCH  25  39
ATOM     39  C   UNL     1       7.732  -7.625  -4.621  1.00  0.00     0.058 A 
ATOM     40  C   UNL     1       8.595  -6.649  -5.145  1.00  0.00     0.135 A 
ATOM     41  C   UNL     1       7.117  -8.506  -5.526  1.00  0.00     0.135 A 
ATOM     42  F   UNL     1       9.200  -5.772  -4.328  1.00  0.00    -0.206 F 
ATOM     43  C   UNL     1       8.824  -6.539  -6.513  1.00  0.00     0.059 A 
ATOM     44  C   UNL     1       7.351  -8.430  -6.897  1.00  0.00     0.059 A 
ATOM     45  F   UNL     1       6.284  -9.459  -5.081  1.00  0.00    -0.206 F 
ATOM     46  C   UNL     1       8.196  -7.433  -7.382  1.00  0.00     0.060 A 
BRANCH  46  47
ATOM     47  S   UNL     1       8.506  -7.279  -9.154  1.00  0.00     0.124 S 
ATOM     48  O   UNL     1       7.750  -6.073  -9.477  1.00  0.00    -0.237 OA
ATOM     49  O   UNL     1       9.959  -7.148  -9.208  1.00  0.00    -0.237 OA
ATOM     50  O   UNL     1       7.971  -8.520  -9.704  1.00  0.00    -0.744 OA
ENDBRANCH  46  47
ENDBRANCH  25  39
BRANCH  26  51
ATOM     51  C   UNL     1       5.850  -8.396   5.176  1.00  0.00     0.058 A 
ATOM     52  C   UNL     1       6.857  -8.261   6.141  1.00  0.00     0.135 A 
ATOM     53  C   UNL     1       4.537  -8.616   5.625  1.00  0.00     0.135 A 
ATOM     54  F   UNL     1       8.127  -8.052   5.761  1.00  0.00    -0.206 F 
ATOM     55  C   UNL     1       6.579  -8.352   7.501  1.00  0.00     0.059 A 
ATOM     56  C   UNL     1       4.229  -8.682   6.979  1.00  0.00     0.059 A 
ATOM     57  F   UNL     1       3.534  -8.731   4.740  1.00  0.00    -0.206 F 
ATOM     58  C   UNL     1       5.260  -8.559   7.909  1.00  0.00     0.060 A 
BRANCH  58  59
ATOM     59  S   UNL     1       4.899  -8.623   9.677  1.00  0.00     0.124 S 
ATOM     60  O   UNL     1       5.413  -9.939  10.034  1.00  0.00    -0.237 OA
ATOM     61  O   UNL     1       5.653  -7.482  10.186  1.00  0.00    -0.237 OA
ATOM     62  O   UNL     1       3.447  -8.476   9.728  1.00  0.00    -0.744 OA
ENDBRANCH  58  59
ENDBRANCH  26  51
BRANCH  38  63
ATOM     63  C   UNL     1       9.362 -12.324   0.607  1.00  0.00     0.058 A 
ATOM     64  C   UNL     1       8.706 -13.552   0.788  1.00  0.00     0.135 A 
ATOM     65  C   UNL     1      10.763 -12.334   0.522  1.00  0.00     0.135 A 
ATOM     66  F   UNL     1       7.367 -13.595   0.886  1.00  0.00    -0.206 F 
ATOM     67  C   UNL     1       9.415 -14.743   0.905  1.00  0.00     0.059 A 
ATOM     68  C   UNL     1      11.491 -13.517   0.609  1.00  0.00     0.059 A 
ATOM     69  F   UNL     1      11.438 -11.188   0.342  1.00  0.00    -0.206 F 
ATOM     70  C   UNL     1      10.807 -14.715   0.812  1.00  0.00     0.060 A 
BRANCH  70  71
ATOM     71  S   UNL     1      11.714 -16.271   0.934  1.00  0.00     0.124 S 
ATOM     72  O   UNL     1      11.626 -16.552   2.363  1.00  0.00    -0.237 OA
ATOM     73  O   UNL     1      10.941 -17.153   0.065  1.00  0.00    -0.237 OA
ATOM     74  O   UNL     1      13.045 -15.927   0.442  1.00  0.00    -0.744 OA
ENDBRANCH  70  71
ENDBRANCH  38  63
ENDBRANCH  12  13
ENDBRANCH   5   7
ENDBRANCH   2   3
ENDBRANCH   1   2
BRANCH   1  75
ATOM     75  C   UNL     1       4.373   3.522  -1.486  1.00  0.00     0.023 C 
BRANCH  75  76
ATOM     76  C   UNL     1       4.782   4.319  -0.250  1.00  0.00     0.116 C 
BRANCH  76  77
ATOM     77  N   UNL     1       6.219   4.503  -0.169  1.00  0.00    -0.349 N 
ATOM     78  C   UNL     1       6.934   5.677  -0.211  1.00  0.00     0.286 C 
ATOM     79  H   UNL     1       6.752   3.681  -0.072  1.00  0.00     0.163 HD
ATOM     80  O   UNL     1       8.158   5.603  -0.333  1.00  0.00    -0.266 OA
BRANCH  78  81
ATOM     81  C   UNL     1       6.215   6.925  -0.112  1.00  0.00     0.191 A 
ATOM     82  C   UNL     1       5.250   7.384   0.769  1.00  0.00     0.056 A 
ATOM     83  O   UNL     1       6.488   7.901  -1.026  1.00  0.00    -0.454 OA
ATOM     84  C   UNL     1       4.889   8.685   0.342  1.00  0.00     0.048 A 
ATOM     85  C   UNL     1       5.674   8.960  -0.755  1.00  0.00     0.124 A 
BRANCH  85  86
ATOM     86  C   UNL     1       5.859  10.153  -1.629  1.00  0.00     0.193 C 
BRANCH  86  87
ATOM     87  N   UNL     1       7.122  10.809  -1.375  1.00  0.00    -0.332 N 
ATOM     88  H   UNL     1       7.412  10.954  -0.446  1.00  0.00     0.165 HD
BRANCH  87  89
ATOM     89  C   UNL     1       7.905  11.224  -2.376  1.00  0.00     0.296 A 
ATOM     90  N   UNL     1       9.216  11.293  -2.359  1.00  0.00    -0.194 NA
ATOM     91  O   UNL     1       7.316  11.617  -3.546  1.00  0.00    -0.424 OA
ATOM     92  C   UNL     1       9.534  11.701  -3.625  1.00  0.00     0.111 A 
ATOM     93  C   UNL     1       8.376  11.928  -4.350  1.00  0.00     0.156 A 
ATOM     94  C   UNL     1      10.774  11.903  -4.240  1.00  0.00     0.032 A 
ATOM     95  C   UNL     1       8.342  12.381  -5.662  1.00  0.00     0.049 A 
ATOM     96  C   UNL     1      10.785  12.348  -5.570  1.00  0.00     0.003 A 
ATOM     97  C   UNL     1       9.591  12.590  -6.263  1.00  0.00     0.004 A 
ENDBRANCH  87  89
ENDBRANCH  86  87
ENDBRANCH  85  86
ENDBRANCH  78  81
ENDBRANCH  76  77
ENDBRANCH  75  76
ENDBRANCH   1  75
TORSDOF 17
