REMARK SMILES N#C/C(=C/c1cccc(OCC(=O)NCCCCNC(=O)c2ccc(-c3c4nc(c(-c5c(F)cc(S(=O)(=O)[O-])cc5F)c5ccc([nH]5)c(-c5c(F)cc(S(=O)(=O)[O-])cc5F)c5nc(c(-c6c(F)cc(S(=O)(=O)[O-])cc6F)c6ccc3[nH]6)C=C5)C=C4)cc2)c1)c1nc2ccccc2[nH]1
REMARK SMILES IDX 16 1 15 2 14 3 12 4 13 5 11 7 10 8 9 9 5 10 6 11 88 12 7 13
REMARK SMILES IDX 8 14 4 15 3 16 2 17 1 18 89 19 90 20 97 21 91 22 96 23 92 25
REMARK SMILES IDX 95 26 93 27 94 28 17 29 18 30 19 31 20 32 21 34 22 35 23 36
REMARK SMILES IDX 87 37 24 38 86 39 25 40 26 41 27 42 80 43 28 44 85 45 79 46
REMARK SMILES IDX 81 47 29 48 84 49 78 50 77 51 30 53 64 54 43 55 63 56 44 57
REMARK SMILES IDX 47 58 62 59 82 60 45 61 46 62 61 64 83 65 48 66 31 67 32 68
REMARK SMILES IDX 41 69 33 70 34 71 40 72 42 73 35 74 36 75 37 76 38 77 39 78
REMARK SMILES IDX 65 79 66 80 75 81 67 82 68 83 74 84 76 85 69 86 70 87 71 88
REMARK SMILES IDX 72 89 73 90 49 91 50 92 59 93 51 94 52 95 58 96 60 97 53 98
REMARK SMILES IDX 54 99 55 100 56 101 57 102
REMARK H PARENT 14 6 97 24 19 33 81 52 47 63
REMARK Flexibility Score: inf
ROOT
ATOM      1  C   UNL     1      10.537   0.427  -2.205  1.00  0.00     0.023 C 
ENDROOT
BRANCH   1   2
ATOM      2  C   UNL     1      10.140   1.903  -2.256  1.00  0.00     0.116 C 
BRANCH   2   3
ATOM      3  N   UNL     1       8.713   2.163  -2.281  1.00  0.00    -0.353 N 
ATOM      4  C   UNL     1       7.951   2.765  -1.314  1.00  0.00     0.257 C 
ATOM      5  O   UNL     1       6.817   3.171  -1.585  1.00  0.00    -0.271 OA
ATOM      6  H   UNL     1       8.234   1.872  -3.091  1.00  0.00     0.163 HD
BRANCH   4   7
ATOM      7  C   UNL     1       8.528   2.985   0.089  1.00  0.00     0.329 C 
BRANCH   7   8
ATOM      8  O   UNL     1       9.048   1.845   0.752  1.00  0.00    -0.484 OA
BRANCH   8   9
ATOM      9  C   UNL     1       8.172   0.859   1.117  1.00  0.00     0.120 A 
ATOM     10  C   UNL     1       5.998  -0.209   1.369  1.00  0.00    -0.021 A 
ATOM     11  C   UNL     1       6.623  -1.356   1.868  1.00  0.00     0.008 A 
ATOM     12  C   UNL     1       6.779   0.906   1.019  1.00  0.00     0.054 A 
ATOM     13  C   UNL     1       8.012  -1.396   1.996  1.00  0.00     0.004 A 
ATOM     14  C   UNL     1       8.779  -0.293   1.620  1.00  0.00     0.046 A 
BRANCH  10  15
ATOM     15  C   UNL     1       4.532  -0.189   1.216  1.00  0.00     0.031 C 
ATOM     16  C   UNL     1       3.860  -0.017   0.059  1.00  0.00     0.095 C 
BRANCH  16  17
ATOM     17  C   UNL     1       2.340  -0.017   0.059  1.00  0.00     0.103 C 
ATOM     18  N   UNL     1       1.079  -0.017   0.059  1.00  0.00    -0.192 NA
ENDBRANCH  16  17
BRANCH  16  19
ATOM     19  C   UNL     1       4.527   0.081  -1.195  1.00  0.00     0.149 A 
ATOM     20  N   UNL     1       5.448  -0.693  -1.735  1.00  0.00    -0.228 NA
ATOM     21  N   UNL     1       4.232   1.134  -2.034  1.00  0.00    -0.337 N 
ATOM     22  C   UNL     1       5.785  -0.101  -2.925  1.00  0.00     0.089 A 
ATOM     23  C   UNL     1       5.060   1.064  -3.125  1.00  0.00     0.066 A 
ATOM     24  H   UNL     1       3.543   1.820  -1.877  1.00  0.00     0.168 HD
ATOM     25  C   UNL     1       6.721  -0.495  -3.888  1.00  0.00     0.030 A 
ATOM     26  C   UNL     1       5.247   1.905  -4.225  1.00  0.00     0.028 A 
ATOM     27  C   UNL     1       6.939   0.333  -4.996  1.00  0.00     0.002 A 
ATOM     28  C   UNL     1       6.223   1.521  -5.152  1.00  0.00     0.002 A 
ENDBRANCH  16  19
ENDBRANCH  10  15
ENDBRANCH   8   9
ENDBRANCH   7   8
ENDBRANCH   4   7
ENDBRANCH   2   3
ENDBRANCH   1   2
BRANCH   1  29
ATOM     29  C   UNL     1      10.380  -0.435  -3.465  1.00  0.00     0.023 C 
BRANCH  29  30
ATOM     30  C   UNL     1      10.612   0.196  -4.837  1.00  0.00     0.116 C 
BRANCH  30  31
ATOM     31  N   UNL     1      12.012   0.246  -5.219  1.00  0.00    -0.352 N 
ATOM     32  C   UNL     1      12.608  -0.221  -6.373  1.00  0.00     0.251 C 
ATOM     33  H   UNL     1      12.616   0.669  -4.567  1.00  0.00     0.163 HD
ATOM     34  O   UNL     1      13.833  -0.244  -6.453  1.00  0.00    -0.269 OA
BRANCH  32  35
ATOM     35  C   UNL     1      11.788  -0.715  -7.511  1.00  0.00     0.039 A 
ATOM     36  C   UNL     1      12.144  -1.919  -8.129  1.00  0.00     0.014 A 
ATOM     37  C   UNL     1      10.701   0.015  -8.002  1.00  0.00     0.014 A 
ATOM     38  C   UNL     1      11.384  -2.416  -9.197  1.00  0.00     0.010 A 
ATOM     39  C   UNL     1       9.915  -0.506  -9.037  1.00  0.00     0.010 A 
ATOM     40  C   UNL     1      10.246  -1.727  -9.649  1.00  0.00    -0.014 A 
BRANCH  40  41
ATOM     41  C   UNL     1       9.402  -2.268 -10.756  1.00  0.00     0.031 A 
ATOM     42  C   UNL     1       9.299  -1.530 -12.068  1.00  0.00     0.074 A 
ATOM     43  C   UNL     1       8.683  -3.395 -10.570  1.00  0.00     0.049 A 
ATOM     44  N   UNL     1       8.560  -1.802 -13.114  1.00  0.00    -0.248 NA
ATOM     45  C   UNL     1      10.120  -0.317 -12.219  1.00  0.00     0.031 C 
ATOM     46  C   UNL     1       8.666  -4.195  -9.343  1.00  0.00     0.029 A 
ATOM     47  N   UNL     1       7.811  -4.057 -11.404  1.00  0.00    -0.354 N 
ATOM     48  C   UNL     1       8.807  -0.788 -14.034  1.00  0.00     0.074 A 
ATOM     49  C   UNL     1       9.745   0.121 -13.413  1.00  0.00     0.031 C 
ATOM     50  C   UNL     1       7.831  -5.236  -9.505  1.00  0.00     0.029 A 
ATOM     51  C   UNL     1       7.220  -5.160 -10.830  1.00  0.00     0.049 A 
ATOM     52  H   UNL     1       7.628  -3.769 -12.328  1.00  0.00     0.167 HD
ATOM     53  C   UNL     1       8.306  -0.636 -15.283  1.00  0.00     0.037 A 
ATOM     54  C   UNL     1       6.278  -6.003 -11.301  1.00  0.00     0.037 A 
ATOM     55  C   UNL     1       7.405  -1.564 -15.917  1.00  0.00     0.049 A 
ATOM     56  C   UNL     1       5.732  -5.801 -12.694  1.00  0.00     0.074 A 
ATOM     57  C   UNL     1       6.916  -1.533 -17.213  1.00  0.00     0.029 A 
ATOM     58  N   UNL     1       6.850  -2.679 -15.309  1.00  0.00    -0.354 N 
ATOM     59  N   UNL     1       6.046  -4.884 -13.577  1.00  0.00    -0.248 NA
ATOM     60  C   UNL     1       4.708  -6.750 -13.157  1.00  0.00     0.031 C 
ATOM     61  C   UNL     1       6.018  -2.592 -17.369  1.00  0.00     0.029 A 
ATOM     62  C   UNL     1       5.997  -3.322 -16.192  1.00  0.00     0.049 A 
ATOM     63  H   UNL     1       7.034  -2.971 -14.387  1.00  0.00     0.167 HD
ATOM     64  C   UNL     1       5.288  -5.170 -14.709  1.00  0.00     0.074 A 
ATOM     65  C   UNL     1       4.507  -6.349 -14.405  1.00  0.00     0.031 C 
ATOM     66  C   UNL     1       5.245  -4.514 -15.894  1.00  0.00     0.037 A 
BRANCH  53  67
ATOM     67  C   UNL     1       8.705   0.582 -16.073  1.00  0.00     0.058 A 
ATOM     68  C   UNL     1       9.986   0.718 -16.628  1.00  0.00     0.135 A 
ATOM     69  C   UNL     1       7.753   1.572 -16.371  1.00  0.00     0.135 A 
ATOM     70  F   UNL     1      10.938  -0.191 -16.365  1.00  0.00    -0.206 F 
ATOM     71  C   UNL     1      10.312   1.795 -17.448  1.00  0.00     0.059 A 
ATOM     72  C   UNL     1       8.048   2.642 -17.210  1.00  0.00     0.059 A 
ATOM     73  F   UNL     1       6.512   1.490 -15.866  1.00  0.00    -0.206 F 
ATOM     74  C   UNL     1       9.333   2.747 -17.741  1.00  0.00     0.060 A 
BRANCH  74  75
ATOM     75  S   UNL     1       9.757   4.107 -18.850  1.00  0.00     0.124 S 
ATOM     76  O   UNL     1      10.655   4.896 -18.013  1.00  0.00    -0.237 OA
ATOM     77  O   UNL     1      10.383   3.411 -19.970  1.00  0.00    -0.237 OA
ATOM     78  O   UNL     1       8.468   4.725 -19.142  1.00  0.00    -0.744 OA
ENDBRANCH  74  75
ENDBRANCH  53  67
BRANCH  54  79
ATOM     79  C   UNL     1       5.760  -7.114 -10.451  1.00  0.00     0.058 A 
ATOM     80  C   UNL     1       5.986  -8.457 -10.791  1.00  0.00     0.135 A 
ATOM     81  C   UNL     1       4.985  -6.854  -9.310  1.00  0.00     0.135 A 
ATOM     82  F   UNL     1       6.714  -8.760 -11.877  1.00  0.00    -0.206 F 
ATOM     83  C   UNL     1       5.428  -9.500 -10.059  1.00  0.00     0.059 A 
ATOM     84  C   UNL     1       4.444  -7.880  -8.542  1.00  0.00     0.059 A 
ATOM     85  F   UNL     1       4.750  -5.589  -8.929  1.00  0.00    -0.206 F 
ATOM     86  C   UNL     1       4.652  -9.200  -8.938  1.00  0.00     0.060 A 
BRANCH  86  87
ATOM     87  S   UNL     1       3.926 -10.560  -7.996  1.00  0.00     0.124 S 
ATOM     88  O   UNL     1       2.861 -10.999  -8.890  1.00  0.00    -0.237 OA
ATOM     89  O   UNL     1       5.057 -11.472  -7.853  1.00  0.00    -0.237 OA
ATOM     90  O   UNL     1       3.489  -9.917  -6.761  1.00  0.00    -0.744 OA
ENDBRANCH  86  87
ENDBRANCH  54  79
BRANCH  66  91
ATOM     91  C   UNL     1       4.372  -5.077 -16.983  1.00  0.00     0.058 A 
ATOM     92  C   UNL     1       2.972  -4.995 -16.933  1.00  0.00     0.135 A 
ATOM     93  C   UNL     1       4.953  -5.636 -18.135  1.00  0.00     0.135 A 
ATOM     94  F   UNL     1       2.365  -4.476 -15.854  1.00  0.00    -0.206 F 
ATOM     95  C   UNL     1       2.178  -5.459 -17.977  1.00  0.00     0.059 A 
ATOM     96  C   UNL     1       4.180  -6.079 -19.204  1.00  0.00     0.059 A 
ATOM     97  F   UNL     1       6.288  -5.731 -18.240  1.00  0.00    -0.206 F 
ATOM     98  C   UNL     1       2.792  -5.992 -19.113  1.00  0.00     0.060 A 
BRANCH  98  99
ATOM     99  S   UNL     1       1.752  -6.536 -20.485  1.00  0.00     0.124 S 
ATOM    100  O   UNL     1       1.164  -7.757 -19.945  1.00  0.00    -0.237 OA
ATOM    101  O   UNL     1       0.838  -5.410 -20.648  1.00  0.00    -0.237 OA
ATOM    102  O   UNL     1       2.702  -6.727 -21.578  1.00  0.00    -0.744 OA
ENDBRANCH  98  99
ENDBRANCH  66  91
ENDBRANCH  40  41
ENDBRANCH  32  35
ENDBRANCH  30  31
ENDBRANCH  29  30
ENDBRANCH   1  29
TORSDOF 19
