REMARK SMILES Cc1cc(Cl)c2c(c1)C=C(C(=O)NCCCCNC(=O)c1ccc(-c3c4nc(c(-c5c(F)cc(S(=O)(=O)[O-])cc5F)c5ccc([nH]5)c(-c5c(F)cc(S(=O)(=O)[O-])cc5F)c5nc(c(-c6c(F)cc(S(=O)(=O)[O-])cc6F)c6ccc3[nH]6)C=C5)C=C4)cc1)[C@@H](C(F)(F)F)O2
REMARK SMILES IDX 16 1 15 2 14 3 13 4 11 5 12 6 10 8 1 9 2 10 3 11 8 12 4 13
REMARK SMILES IDX 7 14 5 15 6 16 9 17 92 18 87 19 88 20 89 21 90 22 91 23
REMARK SMILES IDX 17 24 18 25 19 26 20 28 21 29 22 30 86 31 23 32 85 33 24 34
REMARK SMILES IDX 25 35 26 36 79 37 27 38 84 39 78 40 80 41 28 42 83 43 77 44
REMARK SMILES IDX 76 45 29 47 63 48 42 49 62 50 43 51 46 52 61 53 81 54 44 55
REMARK SMILES IDX 45 56 60 58 82 59 47 60 30 61 31 62 40 63 32 64 33 65 39 66
REMARK SMILES IDX 41 67 34 68 35 69 36 70 37 71 38 72 64 73 65 74 74 75 66 76
REMARK SMILES IDX 67 77 73 78 75 79 68 80 69 81 70 82 71 83 72 84 48 85 49 86
REMARK SMILES IDX 58 87 50 88 51 89 57 90 59 91 52 92 53 93 54 94 55 95 56 96
REMARK H PARENT 13 7 18 27 80 46 46 57
REMARK Flexibility Score: inf
ROOT
ATOM      1  C   UNL     1       1.624  10.939   2.038  1.00  0.00     0.023 C 
ENDROOT
BRANCH   1   2
ATOM      2  C   UNL     1       0.916   9.585   2.137  1.00  0.00     0.023 C 
BRANCH   2   3
ATOM      3  C   UNL     1       0.380   9.063   0.808  1.00  0.00     0.116 C 
BRANCH   3   4
ATOM      4  N   UNL     1       1.394   8.347   0.057  1.00  0.00    -0.352 N 
ATOM      5  C   UNL     1       1.683   7.056  -0.229  1.00  0.00     0.251 C 
ATOM      6  O   UNL     1       2.686   6.884  -0.930  1.00  0.00    -0.270 OA
ATOM      7  H   UNL     1       2.044   8.962  -0.353  1.00  0.00     0.163 HD
BRANCH   5   8
ATOM      8  C   UNL     1       0.899   5.871   0.232  1.00  0.00     0.067 C 
ATOM      9  C   UNL     1       1.026  -0.306  -0.127  1.00  0.00     0.044 C 
ATOM     10  C   UNL     1       0.547   1.034   0.346  1.00  0.00    -0.049 A 
ATOM     11  C   UNL     1      -0.586   1.137   1.162  1.00  0.00     0.028 A 
ATOM     12  C   UNL     1       1.202   2.204  -0.062  1.00  0.00     0.015 A 
ATOM     13  C   UNL     1      -1.039   2.388   1.584  1.00  0.00     0.084 A 
ATOM     14  C   UNL     1       0.747   3.461   0.356  1.00  0.00     0.019 A 
ATOM     15  Cl  UNL     1      -2.432   2.457   2.603  1.00  0.00    -0.080 Cl
ATOM     16  C   UNL     1      -0.378   3.552   1.178  1.00  0.00     0.146 A 
ATOM     17  C   UNL     1       1.458   4.675  -0.027  1.00  0.00     0.025 C 
ATOM     18  O   UNL     1      -0.829   4.756   1.645  1.00  0.00    -0.474 OA
ATOM     19  C   UNL     1      -0.447   5.942   0.896  1.00  0.00     0.314 C 
BRANCH  19  20
ATOM     20  C   UNL     1      -1.576   6.305  -0.086  1.00  0.00     0.429 C 
ATOM     21  F   UNL     1      -2.693   6.676   0.588  1.00  0.00    -0.167 F 
ATOM     22  F   UNL     1      -1.252   7.343  -0.892  1.00  0.00    -0.167 F 
ATOM     23  F   UNL     1      -1.913   5.271  -0.891  1.00  0.00    -0.167 F 
ENDBRANCH  19  20
ENDBRANCH   5   8
ENDBRANCH   3   4
ENDBRANCH   2   3
ENDBRANCH   1   2
BRANCH   1  24
ATOM     24  C   UNL     1       0.804  12.062   1.403  1.00  0.00     0.116 C 
BRANCH  24  25
ATOM     25  N   UNL     1      -0.525  12.210   1.979  1.00  0.00    -0.352 N 
ATOM     26  C   UNL     1      -1.235  13.366   2.195  1.00  0.00     0.251 C 
ATOM     27  H   UNL     1      -0.972  11.375   2.248  1.00  0.00     0.163 HD
ATOM     28  O   UNL     1      -2.314  13.333   2.777  1.00  0.00    -0.269 OA
BRANCH  26  29
ATOM     29  C   UNL     1      -0.660  14.649   1.750  1.00  0.00     0.039 A 
ATOM     30  C   UNL     1      -0.533  15.687   2.675  1.00  0.00     0.014 A 
ATOM     31  C   UNL     1      -0.204  14.800   0.437  1.00  0.00     0.014 A 
ATOM     32  C   UNL     1       0.114  16.864   2.298  1.00  0.00     0.010 A 
ATOM     33  C   UNL     1       0.492  15.949   0.082  1.00  0.00     0.010 A 
ATOM     34  C   UNL     1       0.656  16.990   1.009  1.00  0.00    -0.014 A 
BRANCH  34  35
ATOM     35  C   UNL     1       1.379  18.218   0.600  1.00  0.00     0.031 A 
ATOM     36  C   UNL     1       0.786  19.111  -0.453  1.00  0.00     0.074 A 
ATOM     37  C   UNL     1       2.582  18.497   1.135  1.00  0.00     0.049 A 
ATOM     38  N   UNL     1       1.291  20.182  -1.006  1.00  0.00    -0.248 NA
ATOM     39  C   UNL     1      -0.540  18.733  -0.969  1.00  0.00     0.031 C 
ATOM     40  C   UNL     1       3.271  17.686   2.141  1.00  0.00     0.029 A 
ATOM     41  N   UNL     1       3.442  19.540   0.905  1.00  0.00    -0.354 N 
ATOM     42  C   UNL     1       0.352  20.601  -1.940  1.00  0.00     0.074 A 
ATOM     43  C   UNL     1      -0.729  19.639  -1.917  1.00  0.00     0.031 C 
ATOM     44  C   UNL     1       4.435  18.277   2.461  1.00  0.00     0.029 A 
ATOM     45  C   UNL     1       4.589  19.488   1.661  1.00  0.00     0.049 A 
ATOM     46  H   UNL     1       3.255  20.259   0.259  1.00  0.00     0.167 HD
ATOM     47  C   UNL     1       0.375  21.703  -2.725  1.00  0.00     0.037 A 
ATOM     48  C   UNL     1       5.644  20.324   1.702  1.00  0.00     0.037 A 
ATOM     49  C   UNL     1       1.438  22.671  -2.723  1.00  0.00     0.049 A 
ATOM     50  C   UNL     1       5.652  21.536   0.811  1.00  0.00     0.074 A 
ATOM     51  C   UNL     1       1.537  23.844  -3.449  1.00  0.00     0.029 A 
ATOM     52  N   UNL     1       2.586  22.581  -1.948  1.00  0.00    -0.354 N 
ATOM     53  N   UNL     1       4.743  21.933  -0.047  1.00  0.00    -0.248 NA
ATOM     54  C   UNL     1       6.830  22.411   0.891  1.00  0.00     0.031 C 
ATOM     55  C   UNL     1       2.759  24.450  -3.134  1.00  0.00     0.029 A 
ATOM     56  C   UNL     1       3.406  23.670  -2.188  1.00  0.00     0.049 A 
ATOM     57  H   UNL     1       2.787  21.849  -1.321  1.00  0.00     0.167 HD
ATOM     58  C   UNL     1       5.234  23.109  -0.603  1.00  0.00     0.074 A 
ATOM     59  C   UNL     1       6.512  23.368   0.030  1.00  0.00     0.031 C 
ATOM     60  C   UNL     1       4.679  23.901  -1.554  1.00  0.00     0.037 A 
BRANCH  47  61
ATOM     61  C   UNL     1      -0.797  21.920  -3.639  1.00  0.00     0.058 A 
ATOM     62  C   UNL     1      -2.050  22.309  -3.140  1.00  0.00     0.135 A 
ATOM     63  C   UNL     1      -0.668  21.747  -5.026  1.00  0.00     0.135 A 
ATOM     64  F   UNL     1      -2.232  22.468  -1.819  1.00  0.00    -0.206 F 
ATOM     65  C   UNL     1      -3.143  22.492  -3.980  1.00  0.00     0.059 A 
ATOM     66  C   UNL     1      -1.743  21.948  -5.888  1.00  0.00     0.059 A 
ATOM     67  F   UNL     1       0.507  21.370  -5.555  1.00  0.00    -0.206 F 
ATOM     68  C   UNL     1      -2.980  22.305  -5.353  1.00  0.00     0.060 A 
BRANCH  68  69
ATOM     69  S   UNL     1      -4.410  22.541  -6.429  1.00  0.00     0.124 S 
ATOM     70  O   UNL     1      -5.191  21.341  -6.141  1.00  0.00    -0.237 OA
ATOM     71  O   UNL     1      -4.970  23.794  -5.935  1.00  0.00    -0.237 OA
ATOM     72  O   UNL     1      -3.824  22.602  -7.764  1.00  0.00    -0.744 OA
ENDBRANCH  68  69
ENDBRANCH  47  61
BRANCH  48  73
ATOM     73  C   UNL     1       6.764  20.058   2.640  1.00  0.00     0.058 A 
ATOM     74  C   UNL     1       6.929  20.835   3.795  1.00  0.00     0.135 A 
ATOM     75  C   UNL     1       7.672  19.011   2.420  1.00  0.00     0.135 A 
ATOM     76  F   UNL     1       6.090  21.853   4.043  1.00  0.00    -0.206 F 
ATOM     77  C   UNL     1       7.956  20.588   4.700  1.00  0.00     0.059 A 
ATOM     78  C   UNL     1       8.696  18.732   3.320  1.00  0.00     0.059 A 
ATOM     79  F   UNL     1       7.548  18.230   1.336  1.00  0.00    -0.206 F 
ATOM     80  C   UNL     1       8.832  19.530   4.455  1.00  0.00     0.060 A 
BRANCH  80  81
ATOM     81  S   UNL     1      10.121  19.177   5.671  1.00  0.00     0.124 S 
ATOM     82  O   UNL     1      11.047  20.280   5.447  1.00  0.00    -0.237 OA
ATOM     83  O   UNL     1       9.376  19.212   6.926  1.00  0.00    -0.237 OA
ATOM     84  O   UNL     1      10.602  17.857   5.275  1.00  0.00    -0.744 OA
ENDBRANCH  80  81
ENDBRANCH  48  73
BRANCH  60  85
ATOM     85  C   UNL     1       5.453  25.119  -1.968  1.00  0.00     0.058 A 
ATOM     86  C   UNL     1       6.576  25.018  -2.803  1.00  0.00     0.135 A 
ATOM     87  C   UNL     1       5.038  26.400  -1.572  1.00  0.00     0.135 A 
ATOM     88  F   UNL     1       7.016  23.814  -3.203  1.00  0.00    -0.206 F 
ATOM     89  C   UNL     1       7.274  26.147  -3.218  1.00  0.00     0.059 A 
ATOM     90  C   UNL     1       5.708  27.544  -1.993  1.00  0.00     0.059 A 
ATOM     91  F   UNL     1       3.964  26.548  -0.781  1.00  0.00    -0.206 F 
ATOM     92  C   UNL     1       6.831  27.406  -2.809  1.00  0.00     0.060 A 
BRANCH  92  93
ATOM     93  S   UNL     1       7.725  28.866  -3.383  1.00  0.00     0.124 S 
ATOM     94  O   UNL     1       8.924  28.820  -2.554  1.00  0.00    -0.237 OA
ATOM     95  O   UNL     1       7.922  28.576  -4.800  1.00  0.00    -0.237 OA
ATOM     96  O   UNL     1       6.804  29.962  -3.096  1.00  0.00    -0.744 OA
ENDBRANCH  92  93
ENDBRANCH  60  85
ENDBRANCH  34  35
ENDBRANCH  26  29
ENDBRANCH  24  25
ENDBRANCH   1  24
TORSDOF 15
