REMARK SMILES O=C(C[N@H+](Cc1c(F)cccc1Cl)C1CC1)NCCCCNC(=O)c1ccc(-c2c3nc(c(-c4c(F)cc(S(=O)(=O)[O-])cc4F)c4ccc([nH]4)c(-c4c(F)cc(S(=O)(=O)[O-])cc4F)c4nc(c(-c5c(F)cc(S(=O)(=O)[O-])cc5F)c5ccc2[nH]5)C=C4)C=C3)cc1
REMARK SMILES IDX 19 1 18 2 17 3 1 4 2 5 3 7 4 8 5 10 6 11 7 12 12 13 8 14
REMARK SMILES IDX 9 15 11 16 13 17 10 18 14 19 15 20 16 21 20 22 21 23 22 24
REMARK SMILES IDX 23 25 24 27 25 28 26 29 90 30 27 31 89 32 28 33 29 34 30 35
REMARK SMILES IDX 83 36 31 37 88 38 82 39 84 40 32 41 87 42 81 43 80 44 33 46
REMARK SMILES IDX 67 47 46 48 66 49 47 50 50 51 65 52 85 53 48 54 49 55 64 57
REMARK SMILES IDX 86 58 51 59 34 60 35 61 44 62 36 63 37 64 43 65 45 66 38 67
REMARK SMILES IDX 39 68 40 69 41 70 42 71 68 72 69 73 78 74 70 75 71 76 77 77
REMARK SMILES IDX 79 78 72 79 73 80 74 81 75 82 76 83 52 84 53 85 62 86 54 87
REMARK SMILES IDX 55 88 61 89 63 90 56 91 57 92 58 93 59 94 60 95
REMARK H PARENT 17 6 4 9 22 26 84 45 50 56
REMARK Flexibility Score: inf
ROOT
ATOM      1  C   UNL     1       2.425  -3.481  -0.758  1.00  0.00     0.023 C 
ENDROOT
BRANCH   1   2
ATOM      2  C   UNL     1       2.064  -2.622   0.453  1.00  0.00     0.116 C 
BRANCH   2   3
ATOM      3  N   UNL     1       2.828  -1.398   0.482  1.00  0.00    -0.351 N 
ATOM      4  O   UNL     1       1.381  -0.227  -0.857  1.00  0.00    -0.269 OA
ATOM      5  C   UNL     1       2.434  -0.281  -0.227  1.00  0.00     0.275 C 
ATOM      6  H   UNL     1       3.650  -1.359   1.022  1.00  0.00     0.163 HD
BRANCH   5   7
ATOM      7  C   UNL     1       3.452   0.856  -0.185  1.00  0.00     0.364 C 
BRANCH   7   8
ATOM      8  N   UNL     1       3.082   1.894   0.787  1.00  0.00    -0.321 N 
ATOM      9  H   UNL     1       2.109   2.124   0.584  1.00  0.00     0.349 HD
BRANCH   8  10
ATOM     10  C   UNL     1       3.896   3.099   0.585  1.00  0.00     0.304 C 
BRANCH  10  11
ATOM     11  C   UNL     1       3.115   4.393   0.545  1.00  0.00     0.061 A 
ATOM     12  C   UNL     1       3.811   5.558   0.906  1.00  0.00     0.133 A 
ATOM     13  C   UNL     1       1.790   4.554   0.105  1.00  0.00     0.052 A 
ATOM     14  F   UNL     1       5.107   5.480   1.244  1.00  0.00    -0.206 F 
ATOM     15  C   UNL     1       3.211   6.816   0.911  1.00  0.00     0.040 A 
ATOM     16  C   UNL     1       1.172   5.813   0.144  1.00  0.00     0.021 A 
ATOM     17  Cl  UNL     1       0.818   3.288  -0.559  1.00  0.00    -0.084 Cl
ATOM     18  C   UNL     1       1.877   6.942   0.551  1.00  0.00     0.005 A 
ENDBRANCH  10  11
ENDBRANCH   8  10
BRANCH   8  19
ATOM     19  C   UNL     1       2.984   1.469   2.192  1.00  0.00     0.185 C 
ATOM     20  C   UNL     1       2.038   2.211   3.104  1.00  0.00     0.071 C 
ATOM     21  C   UNL     1       1.726   0.807   2.694  1.00  0.00     0.071 C 
ENDBRANCH   8  19
ENDBRANCH   7   8
ENDBRANCH   5   7
ENDBRANCH   2   3
ENDBRANCH   1   2
BRANCH   1  22
ATOM     22  C   UNL     1       3.916  -3.809  -0.885  1.00  0.00     0.023 C 
BRANCH  22  23
ATOM     23  C   UNL     1       4.556  -4.418   0.357  1.00  0.00     0.116 C 
BRANCH  23  24
ATOM     24  N   UNL     1       3.939  -5.673   0.749  1.00  0.00    -0.352 N 
ATOM     25  C   UNL     1       4.532  -6.875   1.058  1.00  0.00     0.251 C 
ATOM     26  H   UNL     1       2.956  -5.662   0.802  1.00  0.00     0.163 HD
ATOM     27  O   UNL     1       3.843  -7.872   1.221  1.00  0.00    -0.269 OA
BRANCH  25  28
ATOM     28  C   UNL     1       6.007  -6.961   1.161  1.00  0.00     0.039 A 
ATOM     29  C   UNL     1       6.663  -8.023   0.534  1.00  0.00     0.014 A 
ATOM     30  C   UNL     1       6.739  -5.999   1.862  1.00  0.00     0.014 A 
ATOM     31  C   UNL     1       8.059  -8.083   0.555  1.00  0.00     0.010 A 
ATOM     32  C   UNL     1       8.131  -6.019   1.817  1.00  0.00     0.010 A 
ATOM     33  C   UNL     1       8.807  -7.061   1.164  1.00  0.00    -0.014 A 
BRANCH  33  34
ATOM     34  C   UNL     1      10.293  -7.063   1.118  1.00  0.00     0.031 A 
ATOM     35  C   UNL     1      11.092  -7.157   2.390  1.00  0.00     0.074 A 
ATOM     36  C   UNL     1      10.923  -6.918  -0.065  1.00  0.00     0.049 A 
ATOM     37  N   UNL     1      12.390  -7.114   2.555  1.00  0.00    -0.248 NA
ATOM     38  C   UNL     1      10.334  -7.291   3.644  1.00  0.00     0.031 C 
ATOM     39  C   UNL     1      10.260  -6.772  -1.364  1.00  0.00     0.029 A 
ATOM     40  N   UNL     1      12.260  -6.862  -0.370  1.00  0.00    -0.354 N 
ATOM     41  C   UNL     1      12.602  -7.203   3.926  1.00  0.00     0.074 A 
ATOM     42  C   UNL     1      11.298  -7.245   4.551  1.00  0.00     0.031 C 
ATOM     43  C   UNL     1      11.192  -6.668  -2.325  1.00  0.00     0.029 A 
ATOM     44  C   UNL     1      12.516  -6.696  -1.711  1.00  0.00     0.049 A 
ATOM     45  H   UNL     1      12.970  -6.933   0.309  1.00  0.00     0.167 HD
ATOM     46  C   UNL     1      13.775  -7.266   4.600  1.00  0.00     0.037 A 
ATOM     47  C   UNL     1      13.684  -6.572  -2.373  1.00  0.00     0.037 A 
ATOM     48  C   UNL     1      15.070  -7.242   3.969  1.00  0.00     0.049 A 
ATOM     49  C   UNL     1      14.974  -6.631  -1.601  1.00  0.00     0.074 A 
ATOM     50  C   UNL     1      16.316  -7.361   4.559  1.00  0.00     0.029 A 
ATOM     51  N   UNL     1      15.287  -7.084   2.607  1.00  0.00    -0.354 N 
ATOM     52  N   UNL     1      15.157  -6.783  -0.311  1.00  0.00    -0.248 NA
ATOM     53  C   UNL     1      16.218  -6.508  -2.374  1.00  0.00     0.031 C 
ATOM     54  C   UNL     1      17.288  -7.217   3.563  1.00  0.00     0.029 A 
ATOM     55  C   UNL     1      16.647  -7.073   2.342  1.00  0.00     0.049 A 
ATOM     56  H   UNL     1      14.579  -6.993   1.929  1.00  0.00     0.167 HD
ATOM     57  C   UNL     1      16.535  -6.805  -0.121  1.00  0.00     0.074 A 
ATOM     58  C   UNL     1      17.137  -6.661  -1.431  1.00  0.00     0.031 C 
ATOM     59  C   UNL     1      17.236  -6.934   1.032  1.00  0.00     0.037 A 
BRANCH  46  60
ATOM     60  C   UNL     1      13.715  -7.363   6.102  1.00  0.00     0.058 A 
ATOM     61  C   UNL     1      13.239  -8.514   6.751  1.00  0.00     0.135 A 
ATOM     62  C   UNL     1      14.173  -6.305   6.904  1.00  0.00     0.135 A 
ATOM     63  F   UNL     1      12.776  -9.552   6.036  1.00  0.00    -0.206 F 
ATOM     64  C   UNL     1      13.186  -8.599   8.139  1.00  0.00     0.059 A 
ATOM     65  C   UNL     1      14.159  -6.380   8.294  1.00  0.00     0.059 A 
ATOM     66  F   UNL     1      14.639  -5.180   6.338  1.00  0.00    -0.206 F 
ATOM     67  C   UNL     1      13.649  -7.526   8.902  1.00  0.00     0.060 A 
BRANCH  67  68
ATOM     68  S   UNL     1      13.572  -7.653  10.701  1.00  0.00     0.124 S 
ATOM     69  O   UNL     1      12.136  -7.540  10.939  1.00  0.00    -0.237 OA
ATOM     70  O   UNL     1      14.153  -8.969  10.945  1.00  0.00    -0.237 OA
ATOM     71  O   UNL     1      14.373  -6.521  11.157  1.00  0.00    -0.744 OA
ENDBRANCH  67  68
ENDBRANCH  46  60
BRANCH  47  72
ATOM     72  C   UNL     1      13.685  -6.399  -3.851  1.00  0.00     0.058 A 
ATOM     73  C   UNL     1      14.151  -7.417  -4.697  1.00  0.00     0.135 A 
ATOM     74  C   UNL     1      13.208  -5.222  -4.449  1.00  0.00     0.135 A 
ATOM     75  F   UNL     1      14.624  -8.559  -4.174  1.00  0.00    -0.206 F 
ATOM     76  C   UNL     1      14.159  -7.270  -6.080  1.00  0.00     0.059 A 
ATOM     77  C   UNL     1      13.180  -5.062  -5.831  1.00  0.00     0.059 A 
ATOM     78  F   UNL     1      12.736  -4.223  -3.686  1.00  0.00    -0.206 F 
ATOM     79  C   UNL     1      13.667  -6.089  -6.638  1.00  0.00     0.060 A 
BRANCH  79  80
ATOM     80  S   UNL     1      13.636  -5.929  -8.437  1.00  0.00     0.124 S 
ATOM     81  O   UNL     1      15.054  -5.778  -8.743  1.00  0.00    -0.237 OA
ATOM     82  O   UNL     1      13.025  -7.190  -8.844  1.00  0.00    -0.237 OA
ATOM     83  O   UNL     1      12.813  -4.743  -8.654  1.00  0.00    -0.744 OA
ENDBRANCH  79  80
ENDBRANCH  47  72
BRANCH  59  84
ATOM     84  C   UNL     1      18.738  -6.966   0.934  1.00  0.00     0.058 A 
ATOM     85  C   UNL     1      19.485  -5.819   0.620  1.00  0.00     0.135 A 
ATOM     86  C   UNL     1      19.441  -8.150   1.210  1.00  0.00     0.135 A 
ATOM     87  F   UNL     1      18.863  -4.663   0.341  1.00  0.00    -0.206 F 
ATOM     88  C   UNL     1      20.874  -5.852   0.561  1.00  0.00     0.059 A 
ATOM     89  C   UNL     1      20.832  -8.197   1.187  1.00  0.00     0.059 A 
ATOM     90  F   UNL     1      18.777  -9.274   1.525  1.00  0.00    -0.206 F 
ATOM     91  C   UNL     1      21.539  -7.045   0.849  1.00  0.00     0.060 A 
BRANCH  91  92
ATOM     92  S   UNL     1      23.344  -7.063   0.803  1.00  0.00     0.124 S 
ATOM     93  O   UNL     1      23.602  -6.991  -0.631  1.00  0.00    -0.237 OA
ATOM     94  O   UNL     1      23.687  -5.869   1.570  1.00  0.00    -0.237 OA
ATOM     95  O   UNL     1      23.689  -8.330   1.441  1.00  0.00    -0.744 OA
ENDBRANCH  91  92
ENDBRANCH  59  84
ENDBRANCH  33  34
ENDBRANCH  25  28
ENDBRANCH  23  24
ENDBRANCH  22  23
ENDBRANCH   1  22
TORSDOF 18
