REMARK SMILES CCOC(=O)C1=NN(c2ccc([N+](=O)[O-])cc2C(F)(F)F)[C@@](C)(C(=O)NCCCCNC(=O)c2ccc(-c3c4nc(c(-c5c(F)cc(S(=O)(=O)[O-])cc5F)c5ccc([nH]5)c(-c5c(F)cc(S(=O)(=O)[O-])cc5F)c5nc(c(-c6c(F)cc(S(=O)(=O)[O-])cc6F)c6ccc3[nH]6)C=C5)C=C4)cc2)C1
REMARK SMILES IDX 28 1 27 2 26 3 24 4 25 5 22 7 6 8 7 9 100 10 8 11 23 12 4 13
REMARK SMILES IDX 5 14 3 15 2 16 1 17 9 18 10 19 17 20 11 21 16 22 12 23 18 24
REMARK SMILES IDX 19 25 20 26 21 27 13 28 14 29 15 30 29 31 30 32 31 33 32 34
REMARK SMILES IDX 33 36 34 37 35 38 99 39 36 40 98 41 37 42 38 43 39 44 92 45
REMARK SMILES IDX 40 46 97 47 91 48 93 49 41 50 96 51 90 52 89 53 42 55 76 56
REMARK SMILES IDX 55 57 75 58 56 59 59 60 74 61 94 62 57 63 58 64 73 66 95 67
REMARK SMILES IDX 60 68 43 69 44 70 53 71 45 72 46 73 52 74 54 75 47 76 48 77
REMARK SMILES IDX 49 78 50 79 51 80 77 81 78 82 87 83 79 84 80 85 86 86 88 87
REMARK SMILES IDX 81 88 82 89 83 90 84 91 85 92 61 93 62 94 71 95 63 96 64 97
REMARK SMILES IDX 70 98 72 99 65 100 66 101 67 102 68 103 69 104
REMARK H PARENT 26 6 31 35 93 54 59 65
REMARK Flexibility Score: inf
ROOT
ATOM      1  C   UNL     1       5.075   0.008  -9.275  1.00  0.00     0.023 C 
ENDROOT
BRANCH   1   2
ATOM      2  C   UNL     1       5.660  -0.882  -8.179  1.00  0.00     0.116 C 
BRANCH   2   3
ATOM      3  N   UNL     1       5.803  -0.142  -6.944  1.00  0.00    -0.354 N 
ATOM      4  C   UNL     1       5.244  -0.297  -5.716  1.00  0.00     0.248 C 
ATOM      5  O   UNL     1       5.420   0.658  -4.947  1.00  0.00    -0.272 OA
ATOM      6  H   UNL     1       6.424   0.619  -7.006  1.00  0.00     0.163 HD
BRANCH   4   7
ATOM      7  C   UNL     1       4.478  -1.575  -5.249  1.00  0.00     0.144 C 
ATOM      8  C   UNL     1       2.948  -0.744  -3.747  1.00  0.00     0.149 C 
ATOM      9  N   UNL     1       2.252  -0.895  -4.832  1.00  0.00    -0.169 NA
ATOM     10  C   UNL     1       4.268  -1.437  -3.717  1.00  0.00     0.106 C 
ATOM     11  N   UNL     1       3.051  -1.609  -5.695  1.00  0.00    -0.249 N 
ATOM     12  C   UNL     1       5.281  -2.847  -5.495  1.00  0.00     0.048 C 
BRANCH   8  13
ATOM     13  C   UNL     1       2.493   0.037  -2.541  1.00  0.00     0.354 C 
ATOM     14  O   UNL     1       3.273   0.643  -1.842  1.00  0.00    -0.245 OA
BRANCH  13  15
ATOM     15  O   UNL     1       1.163  -0.108  -2.366  1.00  0.00    -0.461 OA
BRANCH  15  16
ATOM     16  C   UNL     1       0.615   0.626  -1.264  1.00  0.00     0.230 C 
ATOM     17  C   UNL     1       0.841  -0.113   0.042  1.00  0.00     0.049 C 
ENDBRANCH  15  16
ENDBRANCH  13  15
ENDBRANCH   8  13
BRANCH  11  18
ATOM     18  C   UNL     1       2.567  -1.793  -6.982  1.00  0.00     0.073 A 
ATOM     19  C   UNL     1       2.131  -0.669  -7.715  1.00  0.00     0.036 A 
ATOM     20  C   UNL     1       2.421  -3.060  -7.579  1.00  0.00     0.088 A 
ATOM     21  C   UNL     1       1.683  -0.765  -9.038  1.00  0.00     0.088 A 
ATOM     22  C   UNL     1       2.006  -3.156  -8.930  1.00  0.00     0.101 A 
ATOM     23  C   UNL     1       1.653  -2.012  -9.654  1.00  0.00     0.270 A 
BRANCH  20  24
ATOM     24  C   UNL     1       2.638  -4.355  -6.834  1.00  0.00     0.418 C 
ATOM     25  F   UNL     1       1.735  -5.314  -7.197  1.00  0.00    -0.166 F 
ATOM     26  F   UNL     1       3.859  -4.898  -7.103  1.00  0.00    -0.166 F 
ATOM     27  F   UNL     1       2.548  -4.280  -5.479  1.00  0.00    -0.166 F 
ENDBRANCH  20  24
BRANCH  23  28
ATOM     28  N   UNL     1       1.241  -2.131 -11.059  1.00  0.00     0.062 N 
ATOM     29  O   UNL     1       0.918  -1.095 -11.655  1.00  0.00    -0.258 OA
ATOM     30  O   UNL     1       1.246  -3.263 -11.563  1.00  0.00    -0.258 OA
ENDBRANCH  23  28
ENDBRANCH  11  18
ENDBRANCH   4   7
ENDBRANCH   2   3
ENDBRANCH   1   2
BRANCH   1  31
ATOM     31  C   UNL     1       6.016   1.075  -9.826  1.00  0.00     0.023 C 
BRANCH  31  32
ATOM     32  C   UNL     1       7.306   0.548 -10.436  1.00  0.00     0.116 C 
BRANCH  32  33
ATOM     33  N   UNL     1       7.079  -0.434 -11.486  1.00  0.00    -0.352 N 
ATOM     34  C   UNL     1       7.662  -0.518 -12.727  1.00  0.00     0.251 C 
ATOM     35  H   UNL     1       6.418  -1.134 -11.278  1.00  0.00     0.163 HD
ATOM     36  O   UNL     1       7.269  -1.350 -13.538  1.00  0.00    -0.269 OA
BRANCH  34  37
ATOM     37  C   UNL     1       8.741   0.426 -13.083  1.00  0.00     0.039 A 
ATOM     38  C   UNL     1       8.653   1.130 -14.286  1.00  0.00     0.014 A 
ATOM     39  C   UNL     1       9.808   0.643 -12.207  1.00  0.00     0.014 A 
ATOM     40  C   UNL     1       9.600   2.114 -14.576  1.00  0.00     0.010 A 
ATOM     41  C   UNL     1      10.712   1.666 -12.468  1.00  0.00     0.010 A 
ATOM     42  C   UNL     1      10.613   2.413 -13.652  1.00  0.00    -0.014 A 
BRANCH  42  43
ATOM     43  C   UNL     1      11.587   3.504 -13.896  1.00  0.00     0.031 A 
ATOM     44  C   UNL     1      13.043   3.178 -14.067  1.00  0.00     0.074 A 
ATOM     45  C   UNL     1      11.175   4.786 -13.868  1.00  0.00     0.049 A 
ATOM     46  N   UNL     1      14.066   3.987 -14.150  1.00  0.00    -0.248 NA
ATOM     47  C   UNL     1      13.398   1.750 -14.116  1.00  0.00     0.031 C 
ATOM     48  C   UNL     1       9.796   5.231 -13.652  1.00  0.00     0.029 A 
ATOM     49  N   UNL     1      11.882   5.953 -14.004  1.00  0.00    -0.354 N 
ATOM     50  C   UNL     1      15.188   3.170 -14.219  1.00  0.00     0.074 A 
ATOM     51  C   UNL     1      14.722   1.802 -14.145  1.00  0.00     0.031 C 
ATOM     52  C   UNL     1       9.757   6.573 -13.687  1.00  0.00     0.029 A 
ATOM     53  C   UNL     1      11.108   7.083 -13.899  1.00  0.00     0.049 A 
ATOM     54  H   UNL     1      12.854   5.979 -14.163  1.00  0.00     0.167 HD
ATOM     55  C   UNL     1      16.487   3.528 -14.345  1.00  0.00     0.037 A 
ATOM     56  C   UNL     1      11.451   8.383 -13.962  1.00  0.00     0.037 A 
ATOM     57  C   UNL     1      16.942   4.886 -14.476  1.00  0.00     0.049 A 
ATOM     58  C   UNL     1      12.889   8.754 -14.186  1.00  0.00     0.074 A 
ATOM     59  C   UNL     1      18.231   5.350 -14.668  1.00  0.00     0.029 A 
ATOM     60  N   UNL     1      16.116   5.999 -14.443  1.00  0.00    -0.354 N 
ATOM     61  N   UNL     1      13.934   7.968 -14.282  1.00  0.00    -0.248 NA
ATOM     62  C   UNL     1      13.195  10.185 -14.315  1.00  0.00     0.031 C 
ATOM     63  C   UNL     1      18.185   6.747 -14.746  1.00  0.00     0.029 A 
ATOM     64  C   UNL     1      16.865   7.149 -14.618  1.00  0.00     0.049 A 
ATOM     65  H   UNL     1      15.140   5.975 -14.315  1.00  0.00     0.167 HD
ATOM     66  C   UNL     1      15.020   8.806 -14.499  1.00  0.00     0.074 A 
ATOM     67  C   UNL     1      14.505  10.161 -14.528  1.00  0.00     0.031 C 
ATOM     68  C   UNL     1      16.327   8.485 -14.657  1.00  0.00     0.037 A 
BRANCH  55  69
ATOM     69  C   UNL     1      17.502   2.423 -14.352  1.00  0.00     0.058 A 
ATOM     70  C   UNL     1      17.676   1.595 -15.472  1.00  0.00     0.135 A 
ATOM     71  C   UNL     1      18.303   2.184 -13.225  1.00  0.00     0.135 A 
ATOM     72  F   UNL     1      16.919   1.772 -16.566  1.00  0.00    -0.206 F 
ATOM     73  C   UNL     1      18.585   0.543 -15.462  1.00  0.00     0.059 A 
ATOM     74  C   UNL     1      19.234   1.149 -13.200  1.00  0.00     0.059 A 
ATOM     75  F   UNL     1      18.172   2.945 -12.128  1.00  0.00    -0.206 F 
ATOM     76  C   UNL     1      19.353   0.322 -14.317  1.00  0.00     0.060 A 
BRANCH  76  77
ATOM     77  S   UNL     1      20.515  -1.059 -14.299  1.00  0.00     0.124 S 
ATOM     78  O   UNL     1      19.632  -2.174 -13.968  1.00  0.00    -0.237 OA
ATOM     79  O   UNL     1      21.042  -1.052 -15.660  1.00  0.00    -0.237 OA
ATOM     80  O   UNL     1      21.468  -0.681 -13.261  1.00  0.00    -0.744 OA
ENDBRANCH  76  77
ENDBRANCH  55  69
BRANCH  56  81
ATOM     81  C   UNL     1      10.404   9.428 -13.846  1.00  0.00     0.058 A 
ATOM     82  C   UNL     1       9.932  10.095 -14.986  1.00  0.00     0.135 A 
ATOM     83  C   UNL     1       9.838   9.760 -12.607  1.00  0.00     0.135 A 
ATOM     84  F   UNL     1      10.449   9.810 -16.191  1.00  0.00    -0.206 F 
ATOM     85  C   UNL     1       8.938  11.064 -14.902  1.00  0.00     0.059 A 
ATOM     86  C   UNL     1       8.832  10.716 -12.500  1.00  0.00     0.059 A 
ATOM     87  F   UNL     1      10.246   9.136 -11.492  1.00  0.00    -0.206 F 
ATOM     88  C   UNL     1       8.394  11.368 -13.653  1.00  0.00     0.060 A 
BRANCH  88  89
ATOM     89  S   UNL     1       7.059  12.581 -13.555  1.00  0.00     0.124 S 
ATOM     90  O   UNL     1       7.802  13.835 -13.583  1.00  0.00    -0.237 OA
ATOM     91  O   UNL     1       6.273  12.278 -14.747  1.00  0.00    -0.237 OA
ATOM     92  O   UNL     1       6.410  12.255 -12.288  1.00  0.00    -0.744 OA
ENDBRANCH  88  89
ENDBRANCH  56  81
BRANCH  68  93
ATOM     93  C   UNL     1      17.284   9.612 -14.902  1.00  0.00     0.058 A 
ATOM     94  C   UNL     1      17.758  10.408 -13.850  1.00  0.00     0.135 A 
ATOM     95  C   UNL     1      17.769   9.865 -16.195  1.00  0.00     0.135 A 
ATOM     96  F   UNL     1      17.316  10.206 -12.598  1.00  0.00    -0.206 F 
ATOM     97  C   UNL     1      18.676  11.428 -14.071  1.00  0.00     0.059 A 
ATOM     98  C   UNL     1      18.698  10.871 -16.437  1.00  0.00     0.059 A 
ATOM     99  F   UNL     1      17.346   9.124 -17.232  1.00  0.00    -0.206 F 
ATOM    100  C   UNL     1      19.139  11.653 -15.370  1.00  0.00     0.060 A 
BRANCH 100 101
ATOM    101  S   UNL     1      20.363  12.951 -15.648  1.00  0.00     0.124 S 
ATOM    102  O   UNL     1      19.520  14.140 -15.710  1.00  0.00    -0.237 OA
ATOM    103  O   UNL     1      21.219  12.841 -14.471  1.00  0.00    -0.237 OA
ATOM    104  O   UNL     1      20.989  12.556 -16.907  1.00  0.00    -0.744 OA
ENDBRANCH 100 101
ENDBRANCH  68  93
ENDBRANCH  42  43
ENDBRANCH  34  37
ENDBRANCH  32  33
ENDBRANCH  31  32
ENDBRANCH   1  31
TORSDOF 20
