REMARK SMILES COc1ccc(N2CC[C@H](C(=O)NCCCCNC(=O)c3ccc(-c4c5nc(c(-c6c(F)cc(S(=O)(=O)[O-])cc6F)c6ccc([nH]6)c(-c6c(F)cc(S(=O)(=O)[O-])cc6F)c6nc(c(-c7c(F)cc(S(=O)(=O)[O-])cc7F)c7ccc4[nH]7)C=C6)C=C5)cc3)C2=O)cc1
REMARK SMILES IDX 16 1 15 2 14 3 13 4 11 5 12 6 10 8 7 9 8 10 87 11 9 12 88 13
REMARK SMILES IDX 6 14 3 15 4 16 90 17 5 18 89 19 2 20 1 21 17 22 18 23 19 24
REMARK SMILES IDX 20 26 21 27 22 28 86 29 23 30 85 31 24 32 25 33 26 34 79 35
REMARK SMILES IDX 27 36 84 37 78 38 80 39 28 40 83 41 77 42 76 43 29 45 63 46
REMARK SMILES IDX 42 47 62 48 43 49 46 50 61 51 81 52 44 53 45 54 60 56 82 57
REMARK SMILES IDX 47 58 30 59 31 60 40 61 32 62 33 63 39 64 41 65 34 66 35 67
REMARK SMILES IDX 36 68 37 69 38 70 64 71 65 72 74 73 66 74 67 75 73 76 75 77
REMARK SMILES IDX 68 78 69 79 70 80 71 81 72 82 48 83 49 84 58 85 50 86 51 87
REMARK SMILES IDX 57 88 59 89 52 90 53 91 54 92 55 93 56 94
REMARK H PARENT 13 7 18 25 80 44 46 55
REMARK Flexibility Score: inf
ROOT
ATOM      1  C   UNL     1       5.260   5.158  -7.824  1.00  0.00     0.023 C 
ENDROOT
BRANCH   1   2
ATOM      2  C   UNL     1       5.067   5.133  -6.306  1.00  0.00     0.023 C 
BRANCH   2   3
ATOM      3  C   UNL     1       5.491   6.413  -5.579  1.00  0.00     0.116 C 
BRANCH   3   4
ATOM      4  N   UNL     1       4.538   7.478  -5.814  1.00  0.00    -0.355 N 
ATOM      5  C   UNL     1       3.434   7.852  -5.120  1.00  0.00     0.232 C 
ATOM      6  O   UNL     1       2.761   8.747  -5.648  1.00  0.00    -0.274 OA
ATOM      7  H   UNL     1       4.723   8.022  -6.613  1.00  0.00     0.163 HD
BRANCH   5   8
ATOM      8  C   UNL     1       3.103   7.360  -3.718  1.00  0.00     0.169 C 
ATOM      9  N   UNL     1       1.797   5.618  -2.770  1.00  0.00    -0.312 N 
ATOM     10  C   UNL     1       1.114   6.828  -2.412  1.00  0.00     0.127 C 
ATOM     11  C   UNL     1       2.984   5.875  -3.458  1.00  0.00     0.239 C 
ATOM     12  C   UNL     1       1.706   7.877  -3.321  1.00  0.00     0.045 C 
ATOM     13  O   UNL     1       3.829   5.036  -3.742  1.00  0.00    -0.274 OA
BRANCH   9  14
ATOM     14  C   UNL     1       1.389   4.344  -2.305  1.00  0.00     0.044 A 
ATOM     15  C   UNL     1       0.579   1.788  -1.431  1.00  0.00     0.119 A 
ATOM     16  C   UNL     1      -0.367   2.740  -1.807  1.00  0.00     0.048 A 
ATOM     17  C   UNL     1       1.932   2.100  -1.513  1.00  0.00     0.048 A 
ATOM     18  C   UNL     1       0.032   4.019  -2.213  1.00  0.00     0.030 A 
ATOM     19  C   UNL     1       2.330   3.366  -1.956  1.00  0.00     0.030 A 
BRANCH  15  20
ATOM     20  O   UNL     1       0.088   0.569  -1.054  1.00  0.00    -0.497 OA
ATOM     21  C   UNL     1       0.803  -0.044   0.015  1.00  0.00     0.278 C 
ENDBRANCH  15  20
ENDBRANCH   9  14
ENDBRANCH   5   8
ENDBRANCH   3   4
ENDBRANCH   2   3
ENDBRANCH   1   2
BRANCH   1  22
ATOM     22  C   UNL     1       6.697   5.337  -8.290  1.00  0.00     0.116 C 
BRANCH  22  23
ATOM     23  N   UNL     1       7.600   4.316  -7.781  1.00  0.00    -0.352 N 
ATOM     24  C   UNL     1       8.693   3.756  -8.397  1.00  0.00     0.251 C 
ATOM     25  H   UNL     1       7.402   3.982  -6.876  1.00  0.00     0.163 HD
ATOM     26  O   UNL     1       9.293   2.826  -7.866  1.00  0.00    -0.269 OA
BRANCH  24  27
ATOM     27  C   UNL     1       9.114   4.255  -9.724  1.00  0.00     0.039 A 
ATOM     28  C   UNL     1       9.379   3.330 -10.737  1.00  0.00     0.014 A 
ATOM     29  C   UNL     1       9.217   5.626  -9.975  1.00  0.00     0.014 A 
ATOM     30  C   UNL     1       9.688   3.783 -12.021  1.00  0.00     0.010 A 
ATOM     31  C   UNL     1       9.453   6.075 -11.271  1.00  0.00     0.010 A 
ATOM     32  C   UNL     1       9.695   5.159 -12.305  1.00  0.00    -0.014 A 
BRANCH  32  33
ATOM     33  C   UNL     1       9.970   5.661 -13.674  1.00  0.00     0.031 A 
ATOM     34  C   UNL     1      11.202   6.483 -13.937  1.00  0.00     0.074 A 
ATOM     35  C   UNL     1       9.084   5.430 -14.662  1.00  0.00     0.049 A 
ATOM     36  N   UNL     1      11.585   7.069 -15.042  1.00  0.00    -0.248 NA
ATOM     37  C   UNL     1      12.108   6.699 -12.797  1.00  0.00     0.031 C 
ATOM     38  C   UNL     1       7.830   4.687 -14.519  1.00  0.00     0.029 A 
ATOM     39  N   UNL     1       9.100   5.802 -15.982  1.00  0.00    -0.354 N 
ATOM     40  C   UNL     1      12.764   7.734 -14.728  1.00  0.00     0.074 A 
ATOM     41  C   UNL     1      13.004   7.525 -13.317  1.00  0.00     0.031 C 
ATOM     42  C   UNL     1       7.212   4.634 -15.710  1.00  0.00     0.029 A 
ATOM     43  C   UNL     1       8.008   5.363 -16.693  1.00  0.00     0.049 A 
ATOM     44  H   UNL     1       9.825   6.333 -16.383  1.00  0.00     0.167 HD
ATOM     45  C   UNL     1      13.587   8.433 -15.546  1.00  0.00     0.037 A 
ATOM     46  C   UNL     1       7.689   5.528 -17.991  1.00  0.00     0.037 A 
ATOM     47  C   UNL     1      13.358   8.612 -16.956  1.00  0.00     0.049 A 
ATOM     48  C   UNL     1       8.625   6.294 -18.884  1.00  0.00     0.074 A 
ATOM     49  C   UNL     1      14.151   9.267 -17.882  1.00  0.00     0.029 A 
ATOM     50  N   UNL     1      12.256   8.127 -17.644  1.00  0.00    -0.354 N 
ATOM     51  N   UNL     1       9.760   6.879 -18.581  1.00  0.00    -0.248 NA
ATOM     52  C   UNL     1       8.243   6.415 -20.298  1.00  0.00     0.031 C 
ATOM     53  C   UNL     1      13.515   9.199 -19.127  1.00  0.00     0.029 A 
ATOM     54  C   UNL     1      12.344   8.472 -18.983  1.00  0.00     0.049 A 
ATOM     55  H   UNL     1      11.519   7.613 -17.241  1.00  0.00     0.167 HD
ATOM     56  C   UNL     1      10.242   7.412 -19.771  1.00  0.00     0.074 A 
ATOM     57  C   UNL     1       9.278   7.074 -20.800  1.00  0.00     0.031 C 
ATOM     58  C   UNL     1      11.380   8.115 -19.993  1.00  0.00     0.037 A 
BRANCH  45  59
ATOM     59  C   UNL     1      14.813   9.044 -14.928  1.00  0.00     0.058 A 
ATOM     60  C   UNL     1      15.888   8.251 -14.492  1.00  0.00     0.135 A 
ATOM     61  C   UNL     1      14.917  10.434 -14.764  1.00  0.00     0.135 A 
ATOM     62  F   UNL     1      15.832   6.915 -14.609  1.00  0.00    -0.206 F 
ATOM     63  C   UNL     1      17.003   8.810 -13.879  1.00  0.00     0.059 A 
ATOM     64  C   UNL     1      16.037  11.018 -14.178  1.00  0.00     0.059 A 
ATOM     65  F   UNL     1      13.920  11.239 -15.163  1.00  0.00    -0.206 F 
ATOM     66  C   UNL     1      17.065  10.195 -13.719  1.00  0.00     0.060 A 
BRANCH  66  67
ATOM     67  S   UNL     1      18.508  10.908 -12.900  1.00  0.00     0.124 S 
ATOM     68  O   UNL     1      18.226  10.604 -11.501  1.00  0.00    -0.237 OA
ATOM     69  O   UNL     1      19.611  10.163 -13.500  1.00  0.00    -0.237 OA
ATOM     70  O   UNL     1      18.440  12.320 -13.263  1.00  0.00    -0.744 OA
ENDBRANCH  66  67
ENDBRANCH  45  59
BRANCH  46  71
ATOM     71  C   UNL     1       6.448   4.916 -18.533  1.00  0.00     0.058 A 
ATOM     72  C   UNL     1       6.513   3.794 -19.372  1.00  0.00     0.135 A 
ATOM     73  C   UNL     1       5.180   5.422 -18.213  1.00  0.00     0.135 A 
ATOM     74  F   UNL     1       7.704   3.277 -19.710  1.00  0.00    -0.206 F 
ATOM     75  C   UNL     1       5.364   3.203 -19.889  1.00  0.00     0.059 A 
ATOM     76  C   UNL     1       4.015   4.836 -18.700  1.00  0.00     0.059 A 
ATOM     77  F   UNL     1       5.065   6.484 -17.399  1.00  0.00    -0.206 F 
ATOM     78  C   UNL     1       4.119   3.731 -19.546  1.00  0.00     0.060 A 
BRANCH  78  79
ATOM     79  S   UNL     1       2.632   2.927 -20.181  1.00  0.00     0.124 S 
ATOM     80  O   UNL     1       2.626   3.374 -21.568  1.00  0.00    -0.237 OA
ATOM     81  O   UNL     1       2.930   1.514 -19.967  1.00  0.00    -0.237 OA
ATOM     82  O   UNL     1       1.572   3.470 -19.336  1.00  0.00    -0.744 OA
ENDBRANCH  78  79
ENDBRANCH  46  71
BRANCH  58  83
ATOM     83  C   UNL     1      11.665   8.530 -21.408  1.00  0.00     0.058 A 
ATOM     84  C   UNL     1      10.970   9.582 -22.022  1.00  0.00     0.135 A 
ATOM     85  C   UNL     1      12.678   7.893 -22.143  1.00  0.00     0.135 A 
ATOM     86  F   UNL     1       9.988  10.219 -21.364  1.00  0.00    -0.206 F 
ATOM     87  C   UNL     1      11.252   9.974 -23.327  1.00  0.00     0.059 A 
ATOM     88  C   UNL     1      12.993   8.284 -23.440  1.00  0.00     0.059 A 
ATOM     89  F   UNL     1      13.380   6.888 -21.596  1.00  0.00    -0.206 F 
ATOM     90  C   UNL     1      12.265   9.318 -24.028  1.00  0.00     0.060 A 
BRANCH  90  91
ATOM     91  S   UNL     1      12.645   9.853 -25.710  1.00  0.00     0.124 S 
ATOM     92  O   UNL     1      11.551   9.249 -26.464  1.00  0.00    -0.237 OA
ATOM     93  O   UNL     1      12.608  11.307 -25.594  1.00  0.00    -0.237 OA
ATOM     94  O   UNL     1      13.967   9.284 -25.956  1.00  0.00    -0.744 OA
ENDBRANCH  90  91
ENDBRANCH  58  83
ENDBRANCH  32  33
ENDBRANCH  24  27
ENDBRANCH  22  23
ENDBRANCH   1  22
TORSDOF 16
