REMARK SMILES CC(C)=CC[N@H+]1CCCC[C@H]1C(=O)NCCCCNC(=O)c1ccc(-c2c3nc(c(-c4c(F)cc(S(=O)(=O)[O-])cc4F)c4ccc([nH]4)c(-c4c(F)cc(S(=O)(=O)[O-])cc4F)c4nc(c(-c5c(F)cc(S(=O)(=O)[O-])cc5F)c5ccc2[nH]5)C=C4)C=C3)cc1
REMARK SMILES IDX 17 1 16 2 15 3 14 4 12 5 13 6 11 8 6 9 7 10 8 12 10 13 9 14
REMARK SMILES IDX 5 15 4 16 1 17 2 18 3 19 18 20 19 21 20 22 21 24 22 25 23 26
REMARK SMILES IDX 87 27 24 28 86 29 25 30 26 31 27 32 80 33 28 34 85 35 79 36
REMARK SMILES IDX 81 37 29 38 84 39 78 40 77 41 30 43 64 44 43 45 63 46 44 47
REMARK SMILES IDX 47 48 62 49 82 50 45 51 46 52 61 54 83 55 48 56 31 57 32 58
REMARK SMILES IDX 41 59 33 60 34 61 40 62 42 63 35 64 36 65 37 66 38 67 39 68
REMARK SMILES IDX 65 69 66 70 75 71 67 72 68 73 74 74 76 75 69 76 70 77 71 78
REMARK SMILES IDX 72 79 73 80 49 81 50 82 59 83 51 84 52 85 58 86 60 87 53 88
REMARK SMILES IDX 54 89 55 90 56 91 57 92
REMARK H PARENT 14 7 6 11 19 23 81 42 47 53
REMARK Flexibility Score: inf
ROOT
ATOM      1  C   UNL     1      -0.166   7.171  -5.029  1.00  0.00     0.023 C 
ENDROOT
BRANCH   1   2
ATOM      2  C   UNL     1       1.014   6.833  -4.114  1.00  0.00     0.023 C 
BRANCH   2   3
ATOM      3  C   UNL     1       0.857   5.528  -3.336  1.00  0.00     0.116 C 
BRANCH   3   4
ATOM      4  N   UNL     1       0.775   4.390  -4.233  1.00  0.00    -0.351 N 
ATOM      5  C   UNL     1       1.665   3.386  -4.482  1.00  0.00     0.278 C 
ATOM      6  O   UNL     1       1.386   2.601  -5.391  1.00  0.00    -0.268 OA
ATOM      7  H   UNL     1      -0.062   4.333  -4.747  1.00  0.00     0.163 HD
BRANCH   5   8
ATOM      8  C   UNL     1       2.936   3.243  -3.613  1.00  0.00     0.274 C 
ATOM      9  N   UNL     1       2.918   2.009  -2.797  1.00  0.00    -0.321 N 
ATOM     10  C   UNL     1       3.190   0.785  -3.555  1.00  0.00     0.263 C 
ATOM     11  H   UNL     1       3.728   2.086  -2.183  1.00  0.00     0.349 HD
ATOM     12  C   UNL     1       4.499   0.876  -4.337  1.00  0.00     0.062 C 
ATOM     13  C   UNL     1       4.205   3.358  -4.470  1.00  0.00     0.076 C 
ATOM     14  C   UNL     1       4.524   2.091  -5.253  1.00  0.00     0.012 C 
BRANCH   9  15
ATOM     15  C   UNL     1       1.783   1.931  -1.864  1.00  0.00     0.291 C 
BRANCH  15  16
ATOM     16  C   UNL     1       0.736   0.892  -2.172  1.00  0.00     0.032 C 
ATOM     17  C   UNL     1       0.919  -0.324   0.012  1.00  0.00     0.039 C 
ATOM     18  C   UNL     1       0.368  -0.132  -1.373  1.00  0.00    -0.075 C 
ATOM     19  C   UNL     1      -0.605  -1.164  -1.872  1.00  0.00     0.039 C 
ENDBRANCH  15  16
ENDBRANCH   9  15
ENDBRANCH   5   8
ENDBRANCH   3   4
ENDBRANCH   2   3
ENDBRANCH   1   2
BRANCH   1  20
ATOM     20  C   UNL     1      -1.530   7.192  -4.346  1.00  0.00     0.116 C 
BRANCH  20  21
ATOM     21  N   UNL     1      -1.599   8.154  -3.257  1.00  0.00    -0.352 N 
ATOM     22  C   UNL     1      -2.590   9.062  -2.971  1.00  0.00     0.251 C 
ATOM     23  H   UNL     1      -0.832   8.154  -2.641  1.00  0.00     0.163 HD
ATOM     24  O   UNL     1      -2.411   9.903  -2.094  1.00  0.00    -0.269 OA
BRANCH  22  25
ATOM     25  C   UNL     1      -3.852   9.041  -3.741  1.00  0.00     0.039 A 
ATOM     26  C   UNL     1      -4.374  10.248  -4.212  1.00  0.00     0.014 A 
ATOM     27  C   UNL     1      -4.509   7.838  -4.013  1.00  0.00     0.014 A 
ATOM     28  C   UNL     1      -5.525  10.241  -5.002  1.00  0.00     0.010 A 
ATOM     29  C   UNL     1      -5.607   7.826  -4.869  1.00  0.00     0.010 A 
ATOM     30  C   UNL     1      -6.133   9.027  -5.365  1.00  0.00    -0.014 A 
BRANCH  30  31
ATOM     31  C   UNL     1      -7.313   9.007  -6.269  1.00  0.00     0.031 A 
ATOM     32  C   UNL     1      -8.634   8.469  -5.789  1.00  0.00     0.074 A 
ATOM     33  C   UNL     1      -7.180   9.420  -7.544  1.00  0.00     0.049 A 
ATOM     34  N   UNL     1      -9.769   8.371  -6.433  1.00  0.00    -0.248 NA
ATOM     35  C   UNL     1      -8.678   7.942  -4.416  1.00  0.00     0.031 C 
ATOM     36  C   UNL     1      -5.933   9.886  -8.153  1.00  0.00     0.029 A 
ATOM     37  N   UNL     1      -8.098   9.506  -8.561  1.00  0.00    -0.354 N 
ATOM     38  C   UNL     1     -10.654   7.759  -5.554  1.00  0.00     0.074 A 
ATOM     39  C   UNL     1      -9.907   7.452  -4.354  1.00  0.00     0.031 C 
ATOM     40  C   UNL     1      -6.168  10.232  -9.428  1.00  0.00     0.029 A 
ATOM     41  C   UNL     1      -7.573   9.982  -9.739  1.00  0.00     0.049 A 
ATOM     42  H   UNL     1      -9.043   9.250  -8.456  1.00  0.00     0.167 HD
ATOM     43  C   UNL     1     -11.973   7.499  -5.720  1.00  0.00     0.037 A 
ATOM     44  C   UNL     1      -8.153  10.193 -10.937  1.00  0.00     0.037 A 
ATOM     45  C   UNL     1     -12.711   7.823  -6.913  1.00  0.00     0.049 A 
ATOM     46  C   UNL     1      -9.624   9.930 -11.095  1.00  0.00     0.074 A 
ATOM     47  C   UNL     1     -14.066   7.681  -7.153  1.00  0.00     0.029 A 
ATOM     48  N   UNL     1     -12.153   8.339  -8.075  1.00  0.00    -0.354 N 
ATOM     49  N   UNL     1     -10.473   9.450 -10.217  1.00  0.00    -0.248 NA
ATOM     50  C   UNL     1     -10.222  10.249 -12.398  1.00  0.00     0.031 C 
ATOM     51  C   UNL     1     -14.318   8.056  -8.477  1.00  0.00     0.029 A 
ATOM     52  C   UNL     1     -13.131   8.491  -9.046  1.00  0.00     0.049 A 
ATOM     53  H   UNL     1     -11.202   8.565  -8.193  1.00  0.00     0.167 HD
ATOM     54  C   UNL     1     -11.709   9.426 -10.854  1.00  0.00     0.074 A 
ATOM     55  C   UNL     1     -11.498   9.954 -12.188  1.00  0.00     0.031 C 
ATOM     56  C   UNL     1     -12.908   9.009 -10.375  1.00  0.00     0.037 A 
BRANCH  43  57
ATOM     57  C   UNL     1     -12.693   6.818  -4.584  1.00  0.00     0.058 A 
ATOM     58  C   UNL     1     -12.897   7.452  -3.347  1.00  0.00     0.135 A 
ATOM     59  C   UNL     1     -13.175   5.507  -4.731  1.00  0.00     0.135 A 
ATOM     60  F   UNL     1     -12.451   8.702  -3.145  1.00  0.00    -0.206 F 
ATOM     61  C   UNL     1     -13.498   6.792  -2.280  1.00  0.00     0.059 A 
ATOM     62  C   UNL     1     -13.812   4.840  -3.687  1.00  0.00     0.059 A 
ATOM     63  F   UNL     1     -13.017   4.853  -5.892  1.00  0.00    -0.206 F 
ATOM     64  C   UNL     1     -13.944   5.482  -2.457  1.00  0.00     0.060 A 
BRANCH  64  65
ATOM     65  S   UNL     1     -14.680   4.623  -1.051  1.00  0.00     0.124 S 
ATOM     66  O   UNL     1     -13.504   4.352  -0.229  1.00  0.00    -0.237 OA
ATOM     67  O   UNL     1     -15.604   5.621  -0.523  1.00  0.00    -0.237 OA
ATOM     68  O   UNL     1     -15.305   3.451  -1.656  1.00  0.00    -0.744 OA
ENDBRANCH  64  65
ENDBRANCH  43  57
BRANCH  44  69
ATOM     69  C   UNL     1      -7.329  10.712 -12.060  1.00  0.00     0.058 A 
ATOM     70  C   UNL     1      -7.445  12.040 -12.492  1.00  0.00     0.135 A 
ATOM     71  C   UNL     1      -6.349   9.909 -12.667  1.00  0.00     0.135 A 
ATOM     72  F   UNL     1      -8.371  12.845 -11.948  1.00  0.00    -0.206 F 
ATOM     73  C   UNL     1      -6.615  12.560 -13.481  1.00  0.00     0.059 A 
ATOM     74  C   UNL     1      -5.492  10.412 -13.640  1.00  0.00     0.059 A 
ATOM     75  F   UNL     1      -6.188   8.636 -12.276  1.00  0.00    -0.206 F 
ATOM     76  C   UNL     1      -5.631  11.740 -14.039  1.00  0.00     0.060 A 
BRANCH  76  77
ATOM     77  S   UNL     1      -4.490  12.456 -15.243  1.00  0.00     0.124 S 
ATOM     78  O   UNL     1      -5.352  12.618 -16.407  1.00  0.00    -0.237 OA
ATOM     79  O   UNL     1      -4.077  13.687 -14.576  1.00  0.00    -0.237 OA
ATOM     80  O   UNL     1      -3.448  11.440 -15.363  1.00  0.00    -0.744 OA
ENDBRANCH  76  77
ENDBRANCH  44  69
BRANCH  56  81
ATOM     81  C   UNL     1     -14.099   9.122 -11.289  1.00  0.00     0.058 A 
ATOM     82  C   UNL     1     -14.265   8.277 -12.397  1.00  0.00     0.135 A 
ATOM     83  C   UNL     1     -15.117  10.050 -11.015  1.00  0.00     0.135 A 
ATOM     84  F   UNL     1     -13.319   7.376 -12.708  1.00  0.00    -0.206 F 
ATOM     85  C   UNL     1     -15.387   8.363 -13.215  1.00  0.00     0.059 A 
ATOM     86  C   UNL     1     -16.262  10.133 -11.802  1.00  0.00     0.059 A 
ATOM     87  F   UNL     1     -15.015  10.876  -9.962  1.00  0.00    -0.206 F 
ATOM     88  C   UNL     1     -16.383   9.292 -12.907  1.00  0.00     0.060 A 
BRANCH  88  89
ATOM     89  S   UNL     1     -17.851   9.368 -13.955  1.00  0.00     0.124 S 
ATOM     90  O   UNL     1     -17.320   9.997 -15.160  1.00  0.00    -0.237 OA
ATOM     91  O   UNL     1     -18.216   7.961 -14.083  1.00  0.00    -0.237 OA
ATOM     92  O   UNL     1     -18.781  10.183 -13.180  1.00  0.00    -0.744 OA
ENDBRANCH  88  89
ENDBRANCH  56  81
ENDBRANCH  30  31
ENDBRANCH  22  25
ENDBRANCH  20  21
ENDBRANCH   1  20
TORSDOF 16
