REMARK SMILES COC(=O)C1=C(C)N(c2ccccc2)C(=S)N[C@@H]1c1ccc(C(=O)NCCCCNC(=O)c2ccc(-c3c4nc(c(-c5c(F)cc(S(=O)(=O)[O-])cc5F)c5ccc([nH]5)c(-c5c(F)cc(S(=O)(=O)[O-])cc5F)c5nc(c(-c6c(F)cc(S(=O)(=O)[O-])cc6F)c6ccc3[nH]6)C=C5)C=C4)cc2)cc1
REMARK SMILES IDX 27 1 26 2 25 3 23 4 24 5 22 7 19 8 20 9 100 10 21 11 99 12
REMARK SMILES IDX 18 13 5 14 6 15 7 16 8 17 17 18 15 19 16 21 3 22 4 23 2 24
REMARK SMILES IDX 1 25 9 26 10 27 14 28 11 29 13 30 12 31 28 32 29 33 30 34
REMARK SMILES IDX 31 35 32 37 33 38 34 39 98 40 35 41 97 42 36 43 37 44 38 45
REMARK SMILES IDX 91 46 39 47 96 48 90 49 92 50 40 51 95 52 89 53 88 54 41 56
REMARK SMILES IDX 75 57 54 58 74 59 55 60 58 61 73 62 93 63 56 64 57 65 72 67
REMARK SMILES IDX 94 68 59 69 42 70 43 71 52 72 44 73 45 74 51 75 53 76 46 77
REMARK SMILES IDX 47 78 48 79 49 80 50 81 76 82 77 83 86 84 78 85 79 86 85 87
REMARK SMILES IDX 87 88 80 89 81 90 82 91 83 92 84 93 60 94 61 95 70 96 62 97
REMARK SMILES IDX 63 98 69 99 71 100 64 101 65 102 66 103 67 104 68 105
REMARK H PARENT 25 6 17 20 30 36 92 55 58 66
REMARK Flexibility Score: inf
ROOT
ATOM      1  C   UNL     1      -7.463  -3.280  -3.126  1.00  0.00     0.023 C 
ENDROOT
BRANCH   1   2
ATOM      2  C   UNL     1      -6.521  -4.272  -3.810  1.00  0.00     0.116 C 
BRANCH   2   3
ATOM      3  N   UNL     1      -5.715  -3.613  -4.819  1.00  0.00    -0.352 N 
ATOM      4  C   UNL     1      -4.407  -3.205  -4.801  1.00  0.00     0.251 C 
ATOM      5  O   UNL     1      -3.921  -2.740  -5.831  1.00  0.00    -0.269 OA
ATOM      6  H   UNL     1      -6.190  -3.426  -5.661  1.00  0.00     0.163 HD
BRANCH   4   7
ATOM      7  C   UNL     1      -3.540  -3.352  -3.603  1.00  0.00     0.039 A 
ATOM      8  C   UNL     1      -1.745  -3.622  -1.430  1.00  0.00    -0.021 A 
ATOM      9  C   UNL     1      -1.318  -3.834  -2.752  1.00  0.00     0.007 A 
ATOM     10  C   UNL     1      -3.086  -3.266  -1.218  1.00  0.00     0.007 A 
ATOM     11  C   UNL     1      -2.202  -3.689  -3.824  1.00  0.00     0.014 A 
ATOM     12  C   UNL     1      -3.967  -3.114  -2.295  1.00  0.00     0.014 A 
BRANCH   8  13
ATOM     13  C   UNL     1      -0.824  -3.807  -0.227  1.00  0.00     0.151 C 
ATOM     14  C   UNL     1       0.630  -3.634  -0.522  1.00  0.00     0.083 C 
ATOM     15  C   UNL     1       1.457  -4.685  -0.718  1.00  0.00     0.035 C 
ATOM     16  C   UNL     1       2.890  -4.521  -1.175  1.00  0.00     0.065 C 
ATOM     17  N   UNL     1       0.943  -6.000  -0.560  1.00  0.00    -0.291 N 
ATOM     18  N   UNL     1      -1.046  -5.110   0.347  1.00  0.00    -0.351 N 
ATOM     19  C   UNL     1      -0.301  -6.219   0.071  1.00  0.00     0.178 C 
ATOM     20  H   UNL     1      -1.790  -5.207   0.985  1.00  0.00     0.163 HD
ATOM     21  S   UNL     1      -0.946  -7.674   0.615  1.00  0.00    -0.040 S 
BRANCH  14  22
ATOM     22  C   UNL     1       1.036  -2.229  -0.760  1.00  0.00     0.337 C 
ATOM     23  O   UNL     1       1.599  -1.832  -1.766  1.00  0.00    -0.246 OA
BRANCH  22  24
ATOM     24  O   UNL     1       0.656  -1.466   0.296  1.00  0.00    -0.466 OA
ATOM     25  C   UNL     1       0.929  -0.074   0.124  1.00  0.00     0.282 C 
ENDBRANCH  22  24
ENDBRANCH  14  22
BRANCH  17  26
ATOM     26  C   UNL     1       1.637  -7.137  -1.096  1.00  0.00     0.048 A 
ATOM     27  C   UNL     1       2.866  -7.559  -0.580  1.00  0.00     0.027 A 
ATOM     28  C   UNL     1       1.071  -7.831  -2.177  1.00  0.00     0.027 A 
ATOM     29  C   UNL     1       3.532  -8.645  -1.153  1.00  0.00     0.002 A 
ATOM     30  C   UNL     1       1.733  -8.921  -2.741  1.00  0.00     0.002 A 
ATOM     31  C   UNL     1       2.966  -9.323  -2.233  1.00  0.00     0.000 A 
ENDBRANCH  17  26
ENDBRANCH   8  13
ENDBRANCH   4   7
ENDBRANCH   2   3
ENDBRANCH   1   2
BRANCH   1  32
ATOM     32  C   UNL     1      -8.653  -2.835  -3.980  1.00  0.00     0.023 C 
BRANCH  32  33
ATOM     33  C   UNL     1      -9.632  -3.943  -4.352  1.00  0.00     0.116 C 
BRANCH  33  34
ATOM     34  N   UNL     1     -10.201  -4.613  -3.194  1.00  0.00    -0.352 N 
ATOM     35  C   UNL     1     -11.441  -5.192  -3.064  1.00  0.00     0.251 C 
ATOM     36  H   UNL     1      -9.623  -4.659  -2.398  1.00  0.00     0.163 HD
ATOM     37  O   UNL     1     -11.807  -5.623  -1.975  1.00  0.00    -0.269 OA
BRANCH  35  38
ATOM     38  C   UNL     1     -12.342  -5.248  -4.234  1.00  0.00     0.039 A 
ATOM     39  C   UNL     1     -13.658  -4.801  -4.087  1.00  0.00     0.014 A 
ATOM     40  C   UNL     1     -11.886  -5.713  -5.470  1.00  0.00     0.014 A 
ATOM     41  C   UNL     1     -14.499  -4.757  -5.200  1.00  0.00     0.010 A 
ATOM     42  C   UNL     1     -12.709  -5.619  -6.589  1.00  0.00     0.010 A 
ATOM     43  C   UNL     1     -14.020  -5.134  -6.464  1.00  0.00    -0.014 A 
BRANCH  43  44
ATOM     44  C   UNL     1     -14.871  -5.019  -7.673  1.00  0.00     0.031 A 
ATOM     45  C   UNL     1     -15.320  -6.256  -8.398  1.00  0.00     0.074 A 
ATOM     46  C   UNL     1     -15.177  -3.799  -8.154  1.00  0.00     0.049 A 
ATOM     47  N   UNL     1     -15.995  -6.358  -9.514  1.00  0.00    -0.248 NA
ATOM     48  C   UNL     1     -14.938  -7.547  -7.804  1.00  0.00     0.031 C 
ATOM     49  C   UNL     1     -14.755  -2.526  -7.565  1.00  0.00     0.029 A 
ATOM     50  N   UNL     1     -15.903  -3.429  -9.258  1.00  0.00    -0.354 N 
ATOM     51  C   UNL     1     -16.103  -7.720  -9.766  1.00  0.00     0.074 A 
ATOM     52  C   UNL     1     -15.392  -8.404  -8.707  1.00  0.00     0.031 C 
ATOM     53  C   UNL     1     -15.239  -1.517  -8.307  1.00  0.00     0.029 A 
ATOM     54  C   UNL     1     -15.982  -2.069  -9.435  1.00  0.00     0.049 A 
ATOM     55  H   UNL     1     -16.327  -4.078  -9.865  1.00  0.00     0.167 HD
ATOM     56  C   UNL     1     -16.752  -8.344 -10.778  1.00  0.00     0.037 A 
ATOM     57  C   UNL     1     -16.584  -1.349 -10.401  1.00  0.00     0.037 A 
ATOM     58  C   UNL     1     -17.483  -7.660 -11.812  1.00  0.00     0.049 A 
ATOM     59  C   UNL     1     -17.327  -2.063 -11.495  1.00  0.00     0.074 A 
ATOM     60  C   UNL     1     -18.215  -8.203 -12.854  1.00  0.00     0.029 A 
ATOM     61  N   UNL     1     -17.580  -6.282 -11.931  1.00  0.00    -0.354 N 
ATOM     62  N   UNL     1     -17.459  -3.353 -11.692  1.00  0.00    -0.248 NA
ATOM     63  C   UNL     1     -18.008  -1.226 -12.492  1.00  0.00     0.031 C 
ATOM     64  C   UNL     1     -18.738  -7.151 -13.615  1.00  0.00     0.029 A 
ATOM     65  C   UNL     1     -18.355  -5.954 -13.030  1.00  0.00     0.049 A 
ATOM     66  H   UNL     1     -17.159  -5.631 -11.323  1.00  0.00     0.167 HD
ATOM     67  C   UNL     1     -18.254  -3.483 -12.825  1.00  0.00     0.074 A 
ATOM     68  C   UNL     1     -18.581  -2.141 -13.263  1.00  0.00     0.031 C 
ATOM     69  C   UNL     1     -18.675  -4.612 -13.445  1.00  0.00     0.037 A 
BRANCH  56  70
ATOM     70  C   UNL     1     -16.703  -9.844 -10.804  1.00  0.00     0.058 A 
ATOM     71  C   UNL     1     -17.439 -10.616  -9.890  1.00  0.00     0.135 A 
ATOM     72  C   UNL     1     -15.924 -10.520 -11.756  1.00  0.00     0.135 A 
ATOM     73  F   UNL     1     -18.186 -10.018  -8.949  1.00  0.00    -0.206 F 
ATOM     74  C   UNL     1     -17.378 -12.005  -9.898  1.00  0.00     0.059 A 
ATOM     75  C   UNL     1     -15.866 -11.910 -11.796  1.00  0.00     0.059 A 
ATOM     76  F   UNL     1     -15.200  -9.829 -12.651  1.00  0.00    -0.206 F 
ATOM     77  C   UNL     1     -16.583 -12.643 -10.851  1.00  0.00     0.060 A 
BRANCH  77  78
ATOM     78  S   UNL     1     -16.502 -14.447 -10.845  1.00  0.00     0.124 S 
ATOM     79  O   UNL     1     -15.581 -14.690  -9.739  1.00  0.00    -0.237 OA
ATOM     80  O   UNL     1     -17.891 -14.826 -10.607  1.00  0.00    -0.237 OA
ATOM     81  O   UNL     1     -15.988 -14.766 -12.173  1.00  0.00    -0.744 OA
ENDBRANCH  77  78
ENDBRANCH  56  70
BRANCH  57  82
ATOM     82  C   UNL     1     -16.531   0.134 -10.356  1.00  0.00     0.058 A 
ATOM     83  C   UNL     1     -17.654   0.880  -9.969  1.00  0.00     0.135 A 
ATOM     84  C   UNL     1     -15.356   0.832 -10.669  1.00  0.00     0.135 A 
ATOM     85  F   UNL     1     -18.801   0.254  -9.664  1.00  0.00    -0.206 F 
ATOM     86  C   UNL     1     -17.619   2.268  -9.904  1.00  0.00     0.059 A 
ATOM     87  C   UNL     1     -15.290   2.220 -10.594  1.00  0.00     0.059 A 
ATOM     88  F   UNL     1     -14.250   0.160 -11.027  1.00  0.00    -0.206 F 
ATOM     89  C   UNL     1     -16.430   2.930 -10.218  1.00  0.00     0.060 A 
BRANCH  89  90
ATOM     90  S   UNL     1     -16.371   4.729 -10.071  1.00  0.00     0.124 S 
ATOM     91  O   UNL     1     -17.048   5.145 -11.294  1.00  0.00    -0.237 OA
ATOM     92  O   UNL     1     -17.099   4.963  -8.827  1.00  0.00    -0.237 OA
ATOM     93  O   UNL     1     -14.940   5.011 -10.011  1.00  0.00    -0.744 OA
ENDBRANCH  89  90
ENDBRANCH  57  82
BRANCH  69  94
ATOM     94  C   UNL     1     -19.555  -4.446 -14.649  1.00  0.00     0.058 A 
ATOM     95  C   UNL     1     -19.028  -4.075 -15.895  1.00  0.00     0.135 A 
ATOM     96  C   UNL     1     -20.931  -4.708 -14.566  1.00  0.00     0.135 A 
ATOM     97  F   UNL     1     -17.719  -3.806 -16.023  1.00  0.00    -0.206 F 
ATOM     98  C   UNL     1     -19.840  -3.955 -17.018  1.00  0.00     0.059 A 
ATOM     99  C   UNL     1     -21.759  -4.612 -15.680  1.00  0.00     0.059 A 
ATOM    100  F   UNL     1     -21.480  -5.073 -13.396  1.00  0.00    -0.206 F 
ATOM    101  C   UNL     1     -21.205  -4.225 -16.900  1.00  0.00     0.060 A 
BRANCH 101 102
ATOM    102  S   UNL     1     -22.247  -4.104 -18.370  1.00  0.00     0.124 S 
ATOM    103  O   UNL     1     -22.446  -2.662 -18.470  1.00  0.00    -0.237 OA
ATOM    104  O   UNL     1     -21.407  -4.702 -19.404  1.00  0.00    -0.237 OA
ATOM    105  O   UNL     1     -23.430  -4.879 -18.009  1.00  0.00    -0.744 OA
ENDBRANCH 101 102
ENDBRANCH  69  94
ENDBRANCH  43  44
ENDBRANCH  35  38
ENDBRANCH  33  34
ENDBRANCH  32  33
ENDBRANCH   1  32
TORSDOF 18
