REMARK SMILES O=C(NCCCCNC(=O)c1[nH]ncc1C[NH+]1CCC([N@H+]2CCC[C@@H](C(=O)N3CCCC3)C2)CC1)c1ccc(-c2c3nc(c(-c4c(F)cc(S(=O)(=O)[O-])cc4F)c4ccc([nH]4)c(-c4c(F)cc(S(=O)(=O)[O-])cc4F)c4nc(c(-c5c(F)cc(S(=O)(=O)[O-])cc5F)c5ccc2[nH]5)C=C4)C=C3)cc1
REMARK SMILES IDX 6 1 5 2 4 3 3 4 1 5 2 6 36 8 37 9 101 10 38 11 100 12 39 13
REMARK SMILES IDX 40 14 41 15 94 16 42 17 99 18 93 19 95 20 43 21 98 22 92 23
REMARK SMILES IDX 91 24 44 26 78 27 57 28 77 29 58 30 61 31 76 32 96 33 59 34
REMARK SMILES IDX 60 35 75 37 97 38 62 39 45 40 46 41 55 42 47 43 48 44 54 45
REMARK SMILES IDX 56 46 49 47 50 48 51 49 52 50 53 51 79 52 80 53 89 54 81 55
REMARK SMILES IDX 82 56 88 57 90 58 83 59 84 60 85 61 86 62 87 63 63 64 64 65
REMARK SMILES IDX 73 66 65 67 66 68 72 69 74 70 67 71 68 72 69 73 70 74 71 75
REMARK SMILES IDX 7 76 8 77 9 78 10 80 11 81 12 82 15 83 13 84 14 86 16 87
REMARK SMILES IDX 17 88 18 89 35 90 19 92 34 93 20 94 21 95 22 96 33 97 23 99
REMARK SMILES IDX 25 100 24 101 26 102 27 103 28 104 29 105 32 106 30 107
REMARK SMILES IDX 31 108
REMARK H PARENT 3 7 95 25 61 36 8 79 12 85 17 91 21 98
REMARK Flexibility Score: inf
ROOT
ATOM      1  C   UNL     1       4.558   3.280  -1.820  1.00  0.00     0.023 C 
ENDROOT
BRANCH   1   2
ATOM      2  C   UNL     1       5.030   1.833  -1.720  1.00  0.00     0.023 C 
BRANCH   2   3
ATOM      3  C   UNL     1       4.669   1.122  -0.423  1.00  0.00     0.116 C 
BRANCH   3   4
ATOM      4  N   UNL     1       3.233   1.029  -0.203  1.00  0.00    -0.352 N 
ATOM      5  O   UNL     1       1.221   0.019  -0.038  1.00  0.00    -0.269 OA
ATOM      6  C   UNL     1       2.443  -0.090  -0.081  1.00  0.00     0.251 C 
ATOM      7  H   UNL     1       2.760   1.890  -0.131  1.00  0.00     0.163 HD
BRANCH   6   8
ATOM      8  C   UNL     1       3.078  -1.424  -0.035  1.00  0.00     0.039 A 
ATOM      9  C   UNL     1       4.183  -1.648   0.788  1.00  0.00     0.014 A 
ATOM     10  C   UNL     1       2.585  -2.447  -0.849  1.00  0.00     0.014 A 
ATOM     11  C   UNL     1       4.898  -2.832   0.669  1.00  0.00     0.010 A 
ATOM     12  C   UNL     1       3.249  -3.677  -0.890  1.00  0.00     0.010 A 
ATOM     13  C   UNL     1       4.433  -3.867  -0.160  1.00  0.00    -0.014 A 
BRANCH  13  14
ATOM     14  C   UNL     1       5.167  -5.157  -0.188  1.00  0.00     0.031 A 
ATOM     15  C   UNL     1       5.819  -5.661  -1.446  1.00  0.00     0.074 A 
ATOM     16  C   UNL     1       5.265  -5.862   0.958  1.00  0.00     0.049 A 
ATOM     17  N   UNL     1       6.498  -6.764  -1.634  1.00  0.00    -0.248 NA
ATOM     18  C   UNL     1       5.688  -4.829  -2.652  1.00  0.00     0.031 C 
ATOM     19  C   UNL     1       4.663  -5.473   2.237  1.00  0.00     0.029 A 
ATOM     20  N   UNL     1       5.912  -7.035   1.241  1.00  0.00    -0.354 N 
ATOM     21  C   UNL     1       6.859  -6.771  -2.976  1.00  0.00     0.074 A 
ATOM     22  C   UNL     1       6.304  -5.570  -3.564  1.00  0.00     0.031 C 
ATOM     23  C   UNL     1       5.006  -6.365   3.176  1.00  0.00     0.029 A 
ATOM     24  C   UNL     1       5.791  -7.424   2.554  1.00  0.00     0.049 A 
ATOM     25  H   UNL     1       6.416  -7.550   0.570  1.00  0.00     0.167 HD
ATOM     26  C   UNL     1       7.590  -7.692  -3.650  1.00  0.00     0.037 A 
ATOM     27  C   UNL     1       6.239  -8.524   3.187  1.00  0.00     0.037 A 
ATOM     28  C   UNL     1       8.151  -8.876  -3.048  1.00  0.00     0.049 A 
ATOM     29  C   UNL     1       7.029  -9.537   2.412  1.00  0.00     0.074 A 
ATOM     30  C   UNL     1       8.934  -9.854  -3.638  1.00  0.00     0.029 A 
ATOM     31  N   UNL     1       7.988  -9.247  -1.720  1.00  0.00    -0.354 N 
ATOM     32  N   UNL     1       7.381  -9.512   1.148  1.00  0.00    -0.248 NA
ATOM     33  C   UNL     1       7.480 -10.727   3.143  1.00  0.00     0.031 C 
ATOM     34  C   UNL     1       9.206 -10.837  -2.680  1.00  0.00     0.029 A 
ATOM     35  C   UNL     1       8.636 -10.448  -1.479  1.00  0.00     0.049 A 
ATOM     36  H   UNL     1       7.485  -8.732  -1.048  1.00  0.00     0.167 HD
ATOM     37  C   UNL     1       8.110 -10.675   0.936  1.00  0.00     0.074 A 
ATOM     38  C   UNL     1       8.163 -11.371   2.206  1.00  0.00     0.031 C 
ATOM     39  C   UNL     1       8.681 -11.126  -0.207  1.00  0.00     0.037 A 
BRANCH  26  40
ATOM     40  C   UNL     1       7.819  -7.473  -5.122  1.00  0.00     0.058 A 
ATOM     41  C   UNL     1       8.691  -6.481  -5.597  1.00  0.00     0.135 A 
ATOM     42  C   UNL     1       7.203  -8.308  -6.070  1.00  0.00     0.135 A 
ATOM     43  F   UNL     1       9.297  -5.646  -4.739  1.00  0.00    -0.206 F 
ATOM     44  C   UNL     1       8.928  -6.311  -6.958  1.00  0.00     0.059 A 
ATOM     45  C   UNL     1       7.444  -8.172  -7.434  1.00  0.00     0.059 A 
ATOM     46  F   UNL     1       6.361  -9.275  -5.672  1.00  0.00    -0.206 F 
ATOM     47  C   UNL     1       8.300  -7.162  -7.870  1.00  0.00     0.060 A 
BRANCH  47  48
ATOM     48  S   UNL     1       8.626  -6.934  -9.631  1.00  0.00     0.124 S 
ATOM     49  O   UNL     1       7.885  -5.707  -9.907  1.00  0.00    -0.237 OA
ATOM     50  O   UNL     1      10.081  -6.816  -9.667  1.00  0.00    -0.237 OA
ATOM     51  O   UNL     1       8.083  -8.144 -10.239  1.00  0.00    -0.744 OA
ENDBRANCH  47  48
ENDBRANCH  26  40
BRANCH  27  52
ATOM     52  C   UNL     1       5.934  -8.719   4.628  1.00  0.00     0.058 A 
ATOM     53  C   UNL     1       6.940  -8.639   5.600  1.00  0.00     0.135 A 
ATOM     54  C   UNL     1       4.620  -8.958   5.062  1.00  0.00     0.135 A 
ATOM     55  F   UNL     1       8.211  -8.413   5.233  1.00  0.00    -0.206 F 
ATOM     56  C   UNL     1       6.659  -8.803   6.952  1.00  0.00     0.059 A 
ATOM     57  C   UNL     1       4.309  -9.097   6.410  1.00  0.00     0.059 A 
ATOM     58  F   UNL     1       3.618  -9.023   4.172  1.00  0.00    -0.206 F 
ATOM     59  C   UNL     1       5.339  -9.029   7.347  1.00  0.00     0.060 A 
BRANCH  59  60
ATOM     60  S   UNL     1       4.976  -9.195   9.108  1.00  0.00     0.124 S 
ATOM     61  O   UNL     1       5.481 -10.534   9.385  1.00  0.00    -0.237 OA
ATOM     62  O   UNL     1       5.738  -8.092   9.684  1.00  0.00    -0.237 OA
ATOM     63  O   UNL     1       3.525  -9.042   9.166  1.00  0.00    -0.744 OA
ENDBRANCH  59  60
ENDBRANCH  27  52
BRANCH  39  64
ATOM     64  C   UNL     1       9.441 -12.421  -0.128  1.00  0.00     0.058 A 
ATOM     65  C   UNL     1       8.784 -13.655  -0.007  1.00  0.00     0.135 A 
ATOM     66  C   UNL     1      10.842 -12.427  -0.212  1.00  0.00     0.135 A 
ATOM     67  F   UNL     1       7.445 -13.701   0.088  1.00  0.00    -0.206 F 
ATOM     68  C   UNL     1       9.492 -14.850   0.053  1.00  0.00     0.059 A 
ATOM     69  C   UNL     1      11.569 -13.613  -0.182  1.00  0.00     0.059 A 
ATOM     70  F   UNL     1      11.518 -11.274  -0.337  1.00  0.00    -0.206 F 
ATOM     71  C   UNL     1      10.885 -14.819  -0.037  1.00  0.00     0.060 A 
BRANCH  71  72
ATOM     72  S   UNL     1      11.791 -16.379   0.010  1.00  0.00     0.124 S 
ATOM     73  O   UNL     1      11.704 -16.727   1.424  1.00  0.00    -0.237 OA
ATOM     74  O   UNL     1      11.016 -17.219  -0.898  1.00  0.00    -0.237 OA
ATOM     75  O   UNL     1      13.122 -16.013  -0.466  1.00  0.00    -0.744 OA
ENDBRANCH  71  72
ENDBRANCH  39  64
ENDBRANCH  13  14
ENDBRANCH   6   8
ENDBRANCH   3   4
ENDBRANCH   2   3
ENDBRANCH   1   2
BRANCH   1  76
ATOM     76  C   UNL     1       4.901   4.154  -0.621  1.00  0.00     0.116 C 
BRANCH  76  77
ATOM     77  N   UNL     1       6.332   4.277  -0.389  1.00  0.00    -0.351 N 
ATOM     78  C   UNL     1       7.085   5.414  -0.273  1.00  0.00     0.269 C 
ATOM     79  H   UNL     1       6.824   3.429  -0.305  1.00  0.00     0.163 HD
ATOM     80  O   UNL     1       8.317   5.312  -0.270  1.00  0.00    -0.268 OA
BRANCH  78  81
ATOM     81  C   UNL     1       6.429   6.686  -0.236  1.00  0.00     0.131 A 
ATOM     82  N   UNL     1       6.844   7.725  -1.021  1.00  0.00    -0.272 N 
ATOM     83  C   UNL     1       5.370   7.186   0.515  1.00  0.00     0.057 A 
ATOM     84  N   UNL     1       6.027   8.790  -0.988  1.00  0.00    -0.183 NA
ATOM     85  H   UNL     1       7.667   7.696  -1.561  1.00  0.00     0.190 HD
ATOM     86  C   UNL     1       5.130   8.457  -0.058  1.00  0.00     0.145 A 
BRANCH  83  87
ATOM     87  C   UNL     1       4.609   6.510   1.610  1.00  0.00     0.303 C 
BRANCH  87  88
ATOM     88  N   UNL     1       4.739   7.135   2.925  1.00  0.00    -0.331 N 
ATOM     89  C   UNL     1       6.113   7.185   3.422  1.00  0.00     0.268 C 
ATOM     90  C   UNL     1       4.042   8.408   3.068  1.00  0.00     0.268 C 
ATOM     91  H   UNL     1       4.240   6.493   3.540  1.00  0.00     0.348 HD
ATOM     92  C   UNL     1       6.126   7.556   4.907  1.00  0.00     0.126 C 
ATOM     93  C   UNL     1       3.958   8.795   4.544  1.00  0.00     0.126 C 
ATOM     94  C   UNL     1       5.363   8.871   5.167  1.00  0.00     0.195 C 
BRANCH  94  95
ATOM     95  N   UNL     1       5.312   9.329   6.581  1.00  0.00    -0.331 N 
ATOM     96  C   UNL     1       4.643   8.389   7.494  1.00  0.00     0.262 C 
ATOM     97  C   UNL     1       6.665   9.650   7.068  1.00  0.00     0.275 C 
ATOM     98  H   UNL     1       4.737  10.171   6.580  1.00  0.00     0.348 HD
ATOM     99  C   UNL     1       4.568   8.956   8.915  1.00  0.00     0.062 C 
ATOM    100  C   UNL     1       6.681  10.219   8.498  1.00  0.00     0.134 C 
ATOM    101  C   UNL     1       5.958   9.278   9.458  1.00  0.00     0.025 C 
BRANCH 100 102
ATOM    102  C   UNL     1       8.160  10.379   8.827  1.00  0.00     0.231 C 
ATOM    103  O   UNL     1       8.858   9.406   9.119  1.00  0.00    -0.274 OA
ATOM    104  N   UNL     1       8.721  11.605   8.551  1.00  0.00    -0.342 N 
ATOM    105  C   UNL     1       8.130  12.918   8.717  1.00  0.00     0.119 C 
ATOM    106  C   UNL     1      10.101  11.703   8.115  1.00  0.00     0.119 C 
ATOM    107  C   UNL     1       8.932  13.789   7.770  1.00  0.00     0.023 C 
ATOM    108  C   UNL     1      10.332  13.184   7.835  1.00  0.00     0.023 C 
ENDBRANCH 100 102
ENDBRANCH  94  95
ENDBRANCH  87  88
ENDBRANCH  83  87
ENDBRANCH  78  81
ENDBRANCH  76  77
ENDBRANCH   1  76
TORSDOF 18
