REMARK SMILES O=C(NCCCCNC(=O)c1[nH]nc2c1CCC2)c1ccc(-c2c3nc(c(-c4c(F)cc(S(=O)(=O)[O-])cc4F)c4ccc([nH]4)c(-c4c(F)cc(S(=O)(=O)[O-])cc4F)c4nc(c(-c5c(F)cc(S(=O)(=O)[O-])cc5F)c5ccc2[nH]5)C=C4)C=C3)cc1
REMARK SMILES IDX 4 1 3 2 1 3 2 4 19 6 20 7 84 8 21 9 83 10 22 11 23 12 24 13
REMARK SMILES IDX 77 14 25 15 82 16 76 17 78 18 26 19 81 20 75 21 74 22 27 24
REMARK SMILES IDX 61 25 40 26 60 27 41 28 44 29 59 30 79 31 42 32 43 33 58 35
REMARK SMILES IDX 80 36 45 37 28 38 29 39 38 40 30 41 31 42 37 43 39 44 32 45
REMARK SMILES IDX 33 46 34 47 35 48 36 49 62 50 63 51 72 52 64 53 65 54 71 55
REMARK SMILES IDX 73 56 66 57 67 58 68 59 69 60 70 61 46 62 47 63 56 64 48 65
REMARK SMILES IDX 49 66 55 67 57 68 50 69 51 70 52 71 53 72 54 73 5 74 6 75
REMARK SMILES IDX 7 76 8 77 9 78 10 80 11 81 12 82 15 83 13 84 14 86 16 87
REMARK SMILES IDX 18 88 17 89
REMARK H PARENT 3 5 78 23 44 34 8 79 12 85
REMARK Flexibility Score: inf
ROOT
ATOM      1  C   UNL     1       4.800   0.588  -1.090  1.00  0.00     0.116 C 
ENDROOT
BRANCH   1   2
ATOM      2  N   UNL     1       3.429   1.030  -0.940  1.00  0.00    -0.352 N 
ATOM      3  O   UNL     1       1.376   1.329  -0.165  1.00  0.00    -0.269 OA
ATOM      4  C   UNL     1       2.381   0.614  -0.164  1.00  0.00     0.251 C 
ATOM      5  H   UNL     1       3.202   1.792  -1.521  1.00  0.00     0.163 HD
BRANCH   4   6
ATOM      6  C   UNL     1       2.359  -0.668   0.586  1.00  0.00     0.039 A 
ATOM      7  C   UNL     1       3.487  -1.419   0.926  1.00  0.00     0.014 A 
ATOM      8  C   UNL     1       1.088  -1.163   0.920  1.00  0.00     0.014 A 
ATOM      9  C   UNL     1       3.353  -2.704   1.432  1.00  0.00     0.010 A 
ATOM     10  C   UNL     1       0.950  -2.426   1.476  1.00  0.00     0.010 A 
ATOM     11  C   UNL     1       2.083  -3.217   1.667  1.00  0.00    -0.014 A 
BRANCH  11  12
ATOM     12  C   UNL     1       1.978  -4.571   2.203  1.00  0.00     0.031 A 
ATOM     13  C   UNL     1       2.492  -4.759   3.599  1.00  0.00     0.074 A 
ATOM     14  C   UNL     1       1.279  -5.510   1.534  1.00  0.00     0.049 A 
ATOM     15  N   UNL     1       3.258  -5.686   4.082  1.00  0.00    -0.248 NA
ATOM     16  C   UNL     1       2.155  -3.707   4.577  1.00  0.00     0.031 C 
ATOM     17  C   UNL     1       0.498  -5.332   0.303  1.00  0.00     0.029 A 
ATOM     18  N   UNL     1       0.986  -6.787   1.895  1.00  0.00    -0.354 N 
ATOM     19  C   UNL     1       3.339  -5.444   5.456  1.00  0.00     0.074 A 
ATOM     20  C   UNL     1       2.755  -4.149   5.680  1.00  0.00     0.031 C 
ATOM     21  C   UNL     1      -0.373  -6.356   0.181  1.00  0.00     0.029 A 
ATOM     22  C   UNL     1      -0.128  -7.306   1.252  1.00  0.00     0.049 A 
ATOM     23  H   UNL     1       1.514  -7.295   2.552  1.00  0.00     0.167 HD
ATOM     24  C   UNL     1       3.697  -6.398   6.360  1.00  0.00     0.037 A 
ATOM     25  C   UNL     1      -0.872  -8.366   1.656  1.00  0.00     0.037 A 
ATOM     26  C   UNL     1       4.446  -7.462   5.753  1.00  0.00     0.049 A 
ATOM     27  C   UNL     1      -0.048  -9.146   2.616  1.00  0.00     0.074 A 
ATOM     28  C   UNL     1       5.656  -7.540   5.092  1.00  0.00     0.029 A 
ATOM     29  N   UNL     1       3.810  -8.650   5.495  1.00  0.00    -0.354 N 
ATOM     30  N   UNL     1       1.057  -9.768   2.299  1.00  0.00    -0.248 NA
ATOM     31  C   UNL     1      -0.217  -8.866   4.034  1.00  0.00     0.031 C 
ATOM     32  C   UNL     1       5.461  -8.525   4.082  1.00  0.00     0.029 A 
ATOM     33  C   UNL     1       4.159  -9.008   4.217  1.00  0.00     0.049 A 
ATOM     34  H   UNL     1       3.221  -9.148   6.106  1.00  0.00     0.167 HD
ATOM     35  C   UNL     1       1.891  -9.605   3.397  1.00  0.00     0.074 A 
ATOM     36  C   UNL     1       1.022  -9.114   4.464  1.00  0.00     0.031 C 
ATOM     37  C   UNL     1       3.252  -9.621   3.272  1.00  0.00     0.037 A 
BRANCH  24  38
ATOM     38  C   UNL     1       3.084  -6.515   7.737  1.00  0.00     0.058 A 
ATOM     39  C   UNL     1       3.642  -7.397   8.685  1.00  0.00     0.135 A 
ATOM     40  C   UNL     1       1.802  -6.011   8.056  1.00  0.00     0.135 A 
ATOM     41  F   UNL     1       4.853  -7.941   8.484  1.00  0.00    -0.206 F 
ATOM     42  C   UNL     1       2.943  -7.810   9.823  1.00  0.00     0.059 A 
ATOM     43  C   UNL     1       1.112  -6.367   9.208  1.00  0.00     0.059 A 
ATOM     44  F   UNL     1       1.116  -5.229   7.213  1.00  0.00    -0.206 F 
ATOM     45  C   UNL     1       1.668  -7.306  10.060  1.00  0.00     0.060 A 
BRANCH  45  46
ATOM     46  S   UNL     1       0.699  -7.951  11.436  1.00  0.00     0.124 S 
ATOM     47  O   UNL     1       0.411  -9.305  10.976  1.00  0.00    -0.237 OA
ATOM     48  O   UNL     1       1.637  -7.839  12.549  1.00  0.00    -0.237 OA
ATOM     49  O   UNL     1      -0.445  -7.046  11.495  1.00  0.00    -0.744 OA
ENDBRANCH  45  46
ENDBRANCH  24  38
BRANCH  25  50
ATOM     50  C   UNL     1      -2.356  -8.467   1.583  1.00  0.00     0.058 A 
ATOM     51  C   UNL     1      -3.019  -9.697   1.727  1.00  0.00     0.135 A 
ATOM     52  C   UNL     1      -3.173  -7.316   1.609  1.00  0.00     0.135 A 
ATOM     53  F   UNL     1      -2.317 -10.840   1.755  1.00  0.00    -0.206 F 
ATOM     54  C   UNL     1      -4.407  -9.779   1.901  1.00  0.00     0.059 A 
ATOM     55  C   UNL     1      -4.556  -7.373   1.763  1.00  0.00     0.059 A 
ATOM     56  F   UNL     1      -2.641  -6.085   1.573  1.00  0.00    -0.206 F 
ATOM     57  C   UNL     1      -5.166  -8.608   1.927  1.00  0.00     0.060 A 
BRANCH  57  58
ATOM     58  S   UNL     1      -6.937  -8.694   2.284  1.00  0.00     0.124 S 
ATOM     59  O   UNL     1      -7.454  -9.345   1.086  1.00  0.00    -0.237 OA
ATOM     60  O   UNL     1      -6.965  -9.490   3.506  1.00  0.00    -0.237 OA
ATOM     61  O   UNL     1      -7.319  -7.294   2.447  1.00  0.00    -0.744 OA
ENDBRANCH  57  58
ENDBRANCH  25  50
BRANCH  37  62
ATOM     62  C   UNL     1       3.845 -10.040   1.951  1.00  0.00     0.058 A 
ATOM     63  C   UNL     1       3.706  -9.293   0.767  1.00  0.00     0.135 A 
ATOM     64  C   UNL     1       4.739 -11.119   1.920  1.00  0.00     0.135 A 
ATOM     65  F   UNL     1       2.964  -8.179   0.742  1.00  0.00    -0.206 F 
ATOM     66  C   UNL     1       4.394  -9.620  -0.401  1.00  0.00     0.059 A 
ATOM     67  C   UNL     1       5.462 -11.447   0.774  1.00  0.00     0.059 A 
ATOM     68  F   UNL     1       4.973 -11.830   3.036  1.00  0.00    -0.206 F 
ATOM     69  C   UNL     1       5.278 -10.696  -0.386  1.00  0.00     0.060 A 
BRANCH  69  70
ATOM     70  S   UNL     1       6.255 -11.041  -1.866  1.00  0.00     0.124 S 
ATOM     71  O   UNL     1       5.256 -11.600  -2.771  1.00  0.00    -0.237 OA
ATOM     72  O   UNL     1       6.765  -9.720  -2.225  1.00  0.00    -0.237 OA
ATOM     73  O   UNL     1       7.268 -11.982  -1.395  1.00  0.00    -0.744 OA
ENDBRANCH  69  70
ENDBRANCH  37  62
ENDBRANCH  11  12
ENDBRANCH   4   6
ENDBRANCH   1   2
BRANCH   1  74
ATOM     74  C   UNL     1       4.995  -0.651  -1.965  1.00  0.00     0.023 C 
BRANCH  74  75
ATOM     75  C   UNL     1       4.502  -0.517  -3.406  1.00  0.00     0.023 C 
BRANCH  75  76
ATOM     76  C   UNL     1       4.902   0.773  -4.110  1.00  0.00     0.116 C 
BRANCH  76  77
ATOM     77  N   UNL     1       6.341   0.944  -4.211  1.00  0.00    -0.351 N 
ATOM     78  C   UNL     1       7.067   1.370  -5.293  1.00  0.00     0.269 C 
ATOM     79  H   UNL     1       6.859   0.728  -3.402  1.00  0.00     0.163 HD
ATOM     80  O   UNL     1       8.293   1.278  -5.263  1.00  0.00    -0.268 OA
BRANCH  78  81
ATOM     81  C   UNL     1       6.358   1.845  -6.441  1.00  0.00     0.126 A 
ATOM     82  N   UNL     1       6.630   1.393  -7.718  1.00  0.00    -0.272 N 
ATOM     83  C   UNL     1       5.344   2.752  -6.617  1.00  0.00     0.006 A 
ATOM     84  N   UNL     1       5.761   1.841  -8.665  1.00  0.00    -0.180 NA
ATOM     85  H   UNL     1       7.387   0.799  -7.925  1.00  0.00     0.190 HD
ATOM     86  C   UNL     1       4.991   2.658  -7.962  1.00  0.00     0.066 A 
ATOM     87  C   UNL     1       4.477   3.700  -5.894  1.00  0.00     0.040 C 
ATOM     88  C   UNL     1       3.799   3.456  -8.302  1.00  0.00     0.059 C 
ATOM     89  C   UNL     1       3.264   3.820  -6.874  1.00  0.00     0.011 C 
ENDBRANCH  78  81
ENDBRANCH  76  77
ENDBRANCH  75  76
ENDBRANCH  74  75
ENDBRANCH   1  74
TORSDOF 14
