REMARK SMILES O=C(NCCCCNC(=O)[C@@H]1CCC(=O)N(CCCOC2CCCCC2)[C@H]1c1ccco1)c1ccc(-c2c3nc(c(-c4c(F)cc(S(=O)(=O)[O-])cc4F)c4ccc([nH]4)c(-c4c(F)cc(S(=O)(=O)[O-])cc4F)c4nc(c(-c5c(F)cc(S(=O)(=O)[O-])cc5F)c5ccc2[nH]5)C=C4)C=C3)cc1
REMARK SMILES IDX 6 1 5 2 4 3 3 4 1 5 2 6 33 8 34 9 98 10 35 11 97 12 36 13
REMARK SMILES IDX 37 14 38 15 91 16 39 17 96 18 90 19 92 20 40 21 95 22 89 23
REMARK SMILES IDX 88 24 41 26 75 27 54 28 74 29 55 30 58 31 73 32 93 33 56 34
REMARK SMILES IDX 57 35 72 37 94 38 59 39 42 40 43 41 52 42 44 43 45 44 51 45
REMARK SMILES IDX 53 46 46 47 47 48 48 49 49 50 50 51 76 52 77 53 86 54 78 55
REMARK SMILES IDX 79 56 85 57 87 58 80 59 81 60 82 61 83 62 84 63 60 64 61 65
REMARK SMILES IDX 70 66 62 67 63 68 69 69 71 70 64 71 65 72 66 73 67 74 68 75
REMARK SMILES IDX 7 76 8 77 9 78 10 80 11 81 12 82 27 83 13 84 16 85 14 86
REMARK SMILES IDX 15 87 28 88 29 89 32 90 30 91 31 92 17 93 18 94 19 95 20 96
REMARK SMILES IDX 21 97 22 98 26 99 23 100 25 101 24 102
REMARK H PARENT 3 7 92 25 58 36 8 79
REMARK Flexibility Score: inf
ROOT
ATOM      1  C   UNL     1       4.726   1.545  -3.192  1.00  0.00     0.023 C 
ENDROOT
BRANCH   1   2
ATOM      2  C   UNL     1       5.233   0.361  -2.378  1.00  0.00     0.023 C 
BRANCH   2   3
ATOM      3  C   UNL     1       4.687   0.266  -0.960  1.00  0.00     0.116 C 
BRANCH   3   4
ATOM      4  N   UNL     1       3.239   0.399  -0.838  1.00  0.00    -0.352 N 
ATOM      5  O   UNL     1       1.213   0.008   0.114  1.00  0.00    -0.269 OA
ATOM      6  C   UNL     1       2.429  -0.153   0.134  1.00  0.00     0.251 C 
ATOM      7  H   UNL     1       2.790   0.943  -1.524  1.00  0.00     0.163 HD
BRANCH   6   8
ATOM      8  C   UNL     1       3.070  -0.986   1.169  1.00  0.00     0.039 A 
ATOM      9  C   UNL     1       4.179  -0.484   1.847  1.00  0.00     0.014 A 
ATOM     10  C   UNL     1       2.668  -2.313   1.339  1.00  0.00     0.014 A 
ATOM     11  C   UNL     1       5.009  -1.363   2.520  1.00  0.00     0.010 A 
ATOM     12  C   UNL     1       3.443  -3.169   2.128  1.00  0.00     0.010 A 
ATOM     13  C   UNL     1       4.647  -2.713   2.684  1.00  0.00    -0.014 A 
BRANCH  13  14
ATOM     14  C   UNL     1       5.540  -3.582   3.494  1.00  0.00     0.031 A 
ATOM     15  C   UNL     1       6.230  -4.785   2.906  1.00  0.00     0.074 A 
ATOM     16  C   UNL     1       5.796  -3.201   4.762  1.00  0.00     0.049 A 
ATOM     17  N   UNL     1       7.083  -5.597   3.477  1.00  0.00    -0.248 NA
ATOM     18  C   UNL     1       5.920  -5.132   1.510  1.00  0.00     0.031 C 
ATOM     19  C   UNL     1       5.163  -2.062   5.437  1.00  0.00     0.029 A 
ATOM     20  N   UNL     1       6.681  -3.682   5.689  1.00  0.00    -0.354 N 
ATOM     21  C   UNL     1       7.391  -6.565   2.528  1.00  0.00     0.074 A 
ATOM     22  C   UNL     1       6.624  -6.246   1.342  1.00  0.00     0.031 C 
ATOM     23  C   UNL     1       5.745  -1.877   6.628  1.00  0.00     0.029 A 
ATOM     24  C   UNL     1       6.725  -2.933   6.840  1.00  0.00     0.049 A 
ATOM     25  H   UNL     1       7.232  -4.486   5.544  1.00  0.00     0.167 HD
ATOM     26  C   UNL     1       8.237  -7.619   2.640  1.00  0.00     0.037 A 
ATOM     27  C   UNL     1       7.459  -3.085   7.957  1.00  0.00     0.037 A 
ATOM     28  C   UNL     1       9.012  -7.909   3.822  1.00  0.00     0.049 A 
ATOM     29  C   UNL     1       8.413  -4.237   8.037  1.00  0.00     0.074 A 
ATOM     30  C   UNL     1       9.891  -8.956   4.042  1.00  0.00     0.029 A 
ATOM     31  N   UNL     1       9.013  -7.141   4.979  1.00  0.00    -0.354 N 
ATOM     32  N   UNL     1       8.665  -5.156   7.136  1.00  0.00    -0.248 NA
ATOM     33  C   UNL     1       9.170  -4.382   9.285  1.00  0.00     0.031 C 
ATOM     34  C   UNL     1      10.403  -8.836   5.340  1.00  0.00     0.029 A 
ATOM     35  C   UNL     1       9.873  -7.693   5.915  1.00  0.00     0.049 A 
ATOM     36  H   UNL     1       8.481  -6.324   5.114  1.00  0.00     0.167 HD
ATOM     37  C   UNL     1       9.597  -6.004   7.716  1.00  0.00     0.074 A 
ATOM     38  C   UNL     1       9.899  -5.459   9.026  1.00  0.00     0.031 C 
ATOM     39  C   UNL     1      10.141  -7.142   7.220  1.00  0.00     0.037 A 
BRANCH  26  40
ATOM     40  C   UNL     1       8.365  -8.552   1.466  1.00  0.00     0.058 A 
ATOM     41  C   UNL     1       9.080  -8.194   0.313  1.00  0.00     0.135 A 
ATOM     42  C   UNL     1       7.826  -9.849   1.523  1.00  0.00     0.135 A 
ATOM     43  F   UNL     1       9.603  -6.963   0.197  1.00  0.00    -0.206 F 
ATOM     44  C   UNL     1       9.248  -9.083  -0.746  1.00  0.00     0.059 A 
ATOM     45  C   UNL     1       7.999 -10.761   0.485  1.00  0.00     0.059 A 
ATOM     46  F   UNL     1       7.133 -10.244   2.602  1.00  0.00    -0.206 F 
ATOM     47  C   UNL     1       8.706 -10.366  -0.649  1.00  0.00     0.060 A 
BRANCH  47  48
ATOM     48  S   UNL     1       8.955 -11.518  -2.019  1.00  0.00     0.124 S 
ATOM     49  O   UNL     1       8.035 -10.984  -3.018  1.00  0.00    -0.237 OA
ATOM     50  O   UNL     1      10.375 -11.351  -2.314  1.00  0.00    -0.237 OA
ATOM     51  O   UNL     1       8.584 -12.809  -1.450  1.00  0.00    -0.744 OA
ENDBRANCH  47  48
ENDBRANCH  26  40
BRANCH  27  52
ATOM     52  C   UNL     1       7.279  -2.138   9.087  1.00  0.00     0.058 A 
ATOM     53  C   UNL     1       8.278  -1.219   9.434  1.00  0.00     0.135 A 
ATOM     54  C   UNL     1       6.076  -2.105   9.810  1.00  0.00     0.135 A 
ATOM     55  F   UNL     1       9.445  -1.212   8.771  1.00  0.00    -0.206 F 
ATOM     56  C   UNL     1       8.095  -0.303  10.465  1.00  0.00     0.059 A 
ATOM     57  C   UNL     1       5.858  -1.180  10.823  1.00  0.00     0.059 A 
ATOM     58  F   UNL     1       5.081  -2.950   9.500  1.00  0.00    -0.206 F 
ATOM     59  C   UNL     1       6.879  -0.290  11.152  1.00  0.00     0.060 A 
BRANCH  59  60
ATOM     60  S   UNL     1       6.614   0.942  12.445  1.00  0.00     0.124 S 
ATOM     61  O   UNL     1       7.308   0.332  13.573  1.00  0.00    -0.237 OA
ATOM     62  O   UNL     1       7.241   2.131  11.876  1.00  0.00    -0.237 OA
ATOM     63  O   UNL     1       5.160   1.003  12.551  1.00  0.00    -0.744 OA
ENDBRANCH  59  60
ENDBRANCH  27  52
BRANCH  39  64
ATOM     64  C   UNL     1      11.105  -7.864   8.114  1.00  0.00     0.058 A 
ATOM     65  C   UNL     1      10.659  -8.590   9.230  1.00  0.00     0.135 A 
ATOM     66  C   UNL     1      12.485  -7.818   7.863  1.00  0.00     0.135 A 
ATOM     67  F   UNL     1       9.349  -8.654   9.514  1.00  0.00    -0.206 F 
ATOM     68  C   UNL     1      11.553  -9.212  10.093  1.00  0.00     0.059 A 
ATOM     69  C   UNL     1      13.395  -8.453   8.701  1.00  0.00     0.059 A 
ATOM     70  F   UNL     1      12.958  -7.143   6.804  1.00  0.00    -0.206 F 
ATOM     71  C   UNL     1      12.921  -9.130   9.825  1.00  0.00     0.060 A 
BRANCH  71  72
ATOM     72  S   UNL     1      14.076  -9.928  10.958  1.00  0.00     0.124 S 
ATOM     73  O   UNL     1      14.114  -8.969  12.058  1.00  0.00    -0.237 OA
ATOM     74  O   UNL     1      13.414 -11.196  11.245  1.00  0.00    -0.237 OA
ATOM     75  O   UNL     1      15.302 -10.032  10.172  1.00  0.00    -0.744 OA
ENDBRANCH  71  72
ENDBRANCH  39  64
ENDBRANCH  13  14
ENDBRANCH   6   8
ENDBRANCH   3   4
ENDBRANCH   2   3
ENDBRANCH   1   2
BRANCH   1  76
ATOM     76  C   UNL     1       4.956   2.916  -2.559  1.00  0.00     0.116 C 
BRANCH  76  77
ATOM     77  N   UNL     1       6.106   3.586  -3.122  1.00  0.00    -0.356 N 
ATOM     78  C   UNL     1       6.281   4.509  -4.086  1.00  0.00     0.225 C 
ATOM     79  H   UNL     1       6.953   3.303  -2.706  1.00  0.00     0.163 HD
ATOM     80  O   UNL     1       7.444   4.928  -4.191  1.00  0.00    -0.275 OA
BRANCH  78  81
ATOM     81  C   UNL     1       5.214   5.122  -4.999  1.00  0.00     0.109 C 
ATOM     82  C   UNL     1       3.737   4.790  -4.959  1.00  0.00     0.026 C 
ATOM     83  C   UNL     1       5.713   5.027  -6.457  1.00  0.00     0.164 C 
ATOM     84  C   UNL     1       3.352   3.529  -5.702  1.00  0.00     0.101 C 
ATOM     85  N   UNL     1       5.407   3.746  -7.111  1.00  0.00    -0.332 N 
ATOM     86  C   UNL     1       4.239   3.052  -6.834  1.00  0.00     0.223 C 
ATOM     87  O   UNL     1       3.920   2.017  -7.425  1.00  0.00    -0.275 OA
BRANCH  83  88
ATOM     88  C   UNL     1       5.190   6.170  -7.283  1.00  0.00     0.127 A 
ATOM     89  C   UNL     1       5.583   7.490  -7.394  1.00  0.00     0.048 A 
ATOM     90  O   UNL     1       4.121   5.938  -8.100  1.00  0.00    -0.467 OA
ATOM     91  C   UNL     1       4.718   8.086  -8.342  1.00  0.00     0.042 A 
ATOM     92  C   UNL     1       3.853   7.098  -8.748  1.00  0.00     0.195 A 
ENDBRANCH  83  88
BRANCH  85  93
ATOM     93  C   UNL     1       6.349   3.142  -8.077  1.00  0.00     0.122 C 
BRANCH  93  94
ATOM     94  C   UNL     1       6.990   4.028  -9.154  1.00  0.00     0.050 C 
BRANCH  94  95
ATOM     95  C   UNL     1       8.218   4.875  -8.794  1.00  0.00     0.162 C 
BRANCH  95  96
ATOM     96  O   UNL     1       9.480   4.221  -8.882  1.00  0.00    -0.378 OA
BRANCH  96  97
ATOM     97  C   UNL     1       9.951   3.372  -7.829  1.00  0.00     0.118 C 
ATOM     98  C   UNL     1       9.407   3.644  -6.421  1.00  0.00     0.032 C 
ATOM     99  C   UNL     1       9.838   1.919  -8.298  1.00  0.00     0.032 C 
ATOM    100  C   UNL     1       9.709   2.554  -5.398  1.00  0.00     0.003 C 
ATOM    101  C   UNL     1      10.223   0.918  -7.217  1.00  0.00     0.003 C 
ATOM    102  C   UNL     1       9.425   1.160  -5.944  1.00  0.00     0.000 C 
ENDBRANCH  96  97
ENDBRANCH  95  96
ENDBRANCH  94  95
ENDBRANCH  93  94
ENDBRANCH  85  93
ENDBRANCH  78  81
ENDBRANCH  76  77
ENDBRANCH   1  76
TORSDOF 20
