REMARK SMILES O=C(CCC(=O)Nc1ccc2nc(-c3ccccc3)oc2c1)NCCCCNC(=O)c1ccc(-c2c3nc(c(-c4c(F)cc(S(=O)(=O)[O-])cc4F)c4ccc([nH]4)c(-c4c(F)cc(S(=O)(=O)[O-])cc4F)c4nc(c(-c5c(F)cc(S(=O)(=O)[O-])cc5F)c5ccc2[nH]5)C=C4)C=C3)cc1
REMARK SMILES IDX 25 1 24 2 23 3 1 4 2 5 3 7 4 8 5 9 6 10 7 11 8 13 9 14 22 15
REMARK SMILES IDX 10 16 21 17 11 18 20 19 12 20 13 21 14 22 15 23 19 24 16 25
REMARK SMILES IDX 18 26 17 27 26 28 27 29 28 30 29 31 30 33 31 34 32 35 96 36
REMARK SMILES IDX 33 37 95 38 34 39 35 40 36 41 89 42 37 43 94 44 88 45 90 46
REMARK SMILES IDX 38 47 93 48 87 49 86 50 39 52 73 53 52 54 72 55 53 56 56 57
REMARK SMILES IDX 71 58 91 59 54 60 55 61 70 63 92 64 57 65 40 66 41 67 50 68
REMARK SMILES IDX 42 69 43 70 49 71 51 72 44 73 45 74 46 75 47 76 48 77 74 78
REMARK SMILES IDX 75 79 84 80 76 81 77 82 83 83 85 84 78 85 79 86 80 87 81 88
REMARK SMILES IDX 82 89 58 90 59 91 68 92 60 93 61 94 67 95 69 96 62 97 63 98
REMARK SMILES IDX 64 99 65 100 66 101
REMARK H PARENT 23 6 7 12 28 32 90 51 56 62
REMARK Flexibility Score: inf
ROOT
ATOM      1  C   UNL     1       2.958   2.148   3.166  1.00  0.00     0.023 C 
ENDROOT
BRANCH   1   2
ATOM      2  C   UNL     1       2.459   1.499   1.880  1.00  0.00     0.116 C 
BRANCH   2   3
ATOM      3  N   UNL     1       3.353   0.496   1.325  1.00  0.00    -0.356 N 
ATOM      4  O   UNL     1       1.734  -1.089   0.921  1.00  0.00    -0.275 OA
ATOM      5  C   UNL     1       2.884  -0.681   0.785  1.00  0.00     0.220 C 
ATOM      6  H   UNL     1       4.323   0.663   1.336  1.00  0.00     0.163 HD
BRANCH   5   7
ATOM      7  C   UNL     1       3.883  -1.420  -0.083  1.00  0.00     0.110 C 
BRANCH   7   8
ATOM      8  C   UNL     1       4.064  -0.838  -1.486  1.00  0.00     0.110 C 
BRANCH   8   9
ATOM      9  C   UNL     1       4.553   0.592  -1.505  1.00  0.00     0.224 C 
ATOM     10  O   UNL     1       5.748   0.815  -1.277  1.00  0.00    -0.275 OA
ATOM     11  N   UNL     1       3.760   1.679  -1.725  1.00  0.00    -0.326 N 
ATOM     12  H   UNL     1       4.274   2.481  -1.973  1.00  0.00     0.169 HD
BRANCH  11  13
ATOM     13  C   UNL     1       2.370   1.914  -1.677  1.00  0.00     0.045 A 
ATOM     14  C   UNL     1       1.413   0.919  -1.458  1.00  0.00     0.028 A 
ATOM     15  C   UNL     1       1.966   3.268  -1.715  1.00  0.00     0.075 A 
ATOM     16  C   UNL     1       0.095   1.213  -1.092  1.00  0.00     0.034 A 
ATOM     17  C   UNL     1       0.632   3.524  -1.399  1.00  0.00     0.157 A 
ATOM     18  C   UNL     1      -0.281   2.547  -1.040  1.00  0.00     0.110 A 
ATOM     19  O   UNL     1      -0.030   4.725  -1.380  1.00  0.00    -0.436 OA
ATOM     20  N   UNL     1      -1.472   3.104  -0.702  1.00  0.00    -0.209 NA
ATOM     21  C   UNL     1      -1.297   4.380  -0.978  1.00  0.00     0.227 A 
BRANCH  21  22
ATOM     22  C   UNL     1      -2.353   5.365  -1.093  1.00  0.00     0.037 A 
ATOM     23  C   UNL     1      -3.225   5.581  -0.018  1.00  0.00     0.014 A 
ATOM     24  C   UNL     1      -2.657   5.907  -2.347  1.00  0.00     0.014 A 
ATOM     25  C   UNL     1      -4.405   6.301  -0.205  1.00  0.00     0.001 A 
ATOM     26  C   UNL     1      -3.846   6.610  -2.537  1.00  0.00     0.001 A 
ATOM     27  C   UNL     1      -4.723   6.797  -1.469  1.00  0.00     0.000 A 
ENDBRANCH  21  22
ENDBRANCH  11  13
ENDBRANCH   8   9
ENDBRANCH   7   8
ENDBRANCH   5   7
ENDBRANCH   2   3
ENDBRANCH   1   2
BRANCH   1  28
ATOM     28  C   UNL     1       4.357   2.764   3.093  1.00  0.00     0.023 C 
BRANCH  28  29
ATOM     29  C   UNL     1       4.553   3.832   2.020  1.00  0.00     0.116 C 
BRANCH  29  30
ATOM     30  N   UNL     1       3.916   5.098   2.354  1.00  0.00    -0.352 N 
ATOM     31  C   UNL     1       4.479   6.298   2.724  1.00  0.00     0.251 C 
ATOM     32  H   UNL     1       2.933   5.096   2.308  1.00  0.00     0.163 HD
ATOM     33  O   UNL     1       3.757   7.210   3.127  1.00  0.00    -0.269 OA
BRANCH  31  34
ATOM     34  C   UNL     1       5.947   6.494   2.672  1.00  0.00     0.039 A 
ATOM     35  C   UNL     1       6.592   7.090   3.760  1.00  0.00     0.014 A 
ATOM     36  C   UNL     1       6.691   6.097   1.558  1.00  0.00     0.014 A 
ATOM     37  C   UNL     1       7.987   7.202   3.768  1.00  0.00     0.010 A 
ATOM     38  C   UNL     1       8.085   6.133   1.603  1.00  0.00     0.010 A 
ATOM     39  C   UNL     1       8.751   6.678   2.711  1.00  0.00    -0.014 A 
BRANCH  39  40
ATOM     40  C   UNL     1      10.240   6.670   2.759  1.00  0.00     0.031 A 
ATOM     41  C   UNL     1      11.043   7.415   1.724  1.00  0.00     0.074 A 
ATOM     42  C   UNL     1      10.874   5.933   3.694  1.00  0.00     0.049 A 
ATOM     43  N   UNL     1      12.341   7.465   1.563  1.00  0.00    -0.248 NA
ATOM     44  C   UNL     1      10.288   8.184   0.722  1.00  0.00     0.031 C 
ATOM     45  C   UNL     1      10.217   5.127   4.726  1.00  0.00     0.029 A 
ATOM     46  N   UNL     1      12.214   5.730   3.925  1.00  0.00    -0.354 N 
ATOM     47  C   UNL     1      12.557   8.254   0.439  1.00  0.00     0.074 A 
ATOM     48  C   UNL     1      11.255   8.619  -0.073  1.00  0.00     0.031 C 
ATOM     49  C   UNL     1      11.151   4.542   5.492  1.00  0.00     0.029 A 
ATOM     50  C   UNL     1      12.474   4.889   4.982  1.00  0.00     0.049 A 
ATOM     51  H   UNL     1      12.922   6.148   3.383  1.00  0.00     0.167 HD
ATOM     52  C   UNL     1      13.732   8.654  -0.105  1.00  0.00     0.037 A 
ATOM     53  C   UNL     1      13.642   4.438   5.481  1.00  0.00     0.037 A 
ATOM     54  C   UNL     1      15.027   8.307   0.422  1.00  0.00     0.049 A 
ATOM     55  C   UNL     1      14.933   4.887   4.851  1.00  0.00     0.074 A 
ATOM     56  C   UNL     1      16.273   8.718  -0.020  1.00  0.00     0.029 A 
ATOM     57  N   UNL     1      15.247   7.463   1.501  1.00  0.00    -0.354 N 
ATOM     58  N   UNL     1      15.117   5.692   3.831  1.00  0.00    -0.248 NA
ATOM     59  C   UNL     1      16.177   4.371   5.440  1.00  0.00     0.031 C 
ATOM     60  C   UNL     1      17.246   8.078   0.754  1.00  0.00     0.029 A 
ATOM     61  C   UNL     1      16.608   7.318   1.720  1.00  0.00     0.049 A 
ATOM     62  H   UNL     1      14.540   7.030   2.032  1.00  0.00     0.167 HD
ATOM     63  C   UNL     1      16.496   5.804   3.679  1.00  0.00     0.074 A 
ATOM     64  C   UNL     1      17.097   4.994   4.718  1.00  0.00     0.031 C 
ATOM     65  C   UNL     1      17.198   6.516   2.763  1.00  0.00     0.037 A 
BRANCH  52  66
ATOM     66  C   UNL     1      13.678   9.516  -1.339  1.00  0.00     0.058 A 
ATOM     67  C   UNL     1      13.219  10.842  -1.296  1.00  0.00     0.135 A 
ATOM     68  C   UNL     1      14.138   9.025  -2.572  1.00  0.00     0.135 A 
ATOM     69  F   UNL     1      12.755  11.361  -0.148  1.00  0.00    -0.206 F 
ATOM     70  C   UNL     1      13.190  11.641  -2.436  1.00  0.00     0.059 A 
ATOM     71  C   UNL     1      14.149   9.816  -3.718  1.00  0.00     0.059 A 
ATOM     72  F   UNL     1      14.590   7.765  -2.672  1.00  0.00    -0.206 F 
ATOM     73  C   UNL     1      13.659  11.118  -3.642  1.00  0.00     0.060 A 
BRANCH  73  74
ATOM     74  S   UNL     1      13.623  12.172  -5.108  1.00  0.00     0.124 S 
ATOM     75  O   UNL     1      12.191  12.234  -5.386  1.00  0.00    -0.237 OA
ATOM     76  O   UNL     1      14.227  13.407  -4.619  1.00  0.00    -0.237 OA
ATOM     77  O   UNL     1      14.419  11.430  -6.081  1.00  0.00    -0.744 OA
ENDBRANCH  73  74
ENDBRANCH  52  66
BRANCH  53  78
ATOM     78  C   UNL     1      13.649   3.522   6.656  1.00  0.00     0.058 A 
ATOM     79  C   UNL     1      14.135   3.950   7.901  1.00  0.00     0.135 A 
ATOM     80  C   UNL     1      13.175   2.205   6.559  1.00  0.00     0.135 A 
ATOM     81  F   UNL     1      14.608   5.197   8.043  1.00  0.00    -0.206 F 
ATOM     82  C   UNL     1      14.169   3.100   9.002  1.00  0.00     0.059 A 
ATOM     83  C   UNL     1      13.171   1.345   7.654  1.00  0.00     0.059 A 
ATOM     84  F   UNL     1      12.685   1.749   5.395  1.00  0.00    -0.206 F 
ATOM     85  C   UNL     1      13.682   1.799   8.869  1.00  0.00     0.060 A 
BRANCH  85  86
ATOM     86  S   UNL     1      13.695   0.719  10.316  1.00  0.00     0.124 S 
ATOM     87  O   UNL     1      15.118   0.436  10.459  1.00  0.00    -0.237 OA
ATOM     88  O   UNL     1      13.107   1.574  11.341  1.00  0.00    -0.237 OA
ATOM     89  O   UNL     1      12.866  -0.409   9.900  1.00  0.00    -0.744 OA
ENDBRANCH  85  86
ENDBRANCH  53  78
BRANCH  65  90
ATOM     90  C   UNL     1      18.700   6.491   2.863  1.00  0.00     0.058 A 
ATOM     91  C   UNL     1      19.448   5.350   2.533  1.00  0.00     0.135 A 
ATOM     92  C   UNL     1      19.404   7.646   3.245  1.00  0.00     0.135 A 
ATOM     93  F   UNL     1      18.827   4.217   2.169  1.00  0.00    -0.206 F 
ATOM     94  C   UNL     1      20.838   5.347   2.602  1.00  0.00     0.059 A 
ATOM     95  C   UNL     1      20.794   7.675   3.290  1.00  0.00     0.059 A 
ATOM     96  F   UNL     1      18.740   8.769   3.562  1.00  0.00    -0.206 F 
ATOM     97  C   UNL     1      21.502   6.516   2.977  1.00  0.00     0.060 A 
BRANCH  97  98
ATOM     98  S   UNL     1      23.307   6.508   3.026  1.00  0.00     0.124 S 
ATOM     99  O   UNL     1      23.566   5.700   4.214  1.00  0.00    -0.237 OA
ATOM    100  O   UNL     1      23.651   5.888   1.750  1.00  0.00    -0.237 OA
ATOM    101  O   UNL     1      23.651   7.921   3.142  1.00  0.00    -0.744 OA
ENDBRANCH  97  98
ENDBRANCH  65  90
ENDBRANCH  39  40
ENDBRANCH  31  34
ENDBRANCH  29  30
ENDBRANCH  28  29
ENDBRANCH   1  28
TORSDOF 18
