REMARK SMILES CCc1ccc2c(c1)C=C(C(=O)NCCCCNC(=O)c1ccc(-c3c4nc(c(-c5c(F)cc(S(=O)(=O)[O-])cc5F)c5ccc([nH]5)c(-c5c(F)cc(S(=O)(=O)[O-])cc5F)c5nc(c(-c6c(F)cc(S(=O)(=O)[O-])cc6F)c6ccc3[nH]6)C=C5)C=C4)cc1)[C@H](C(F)(F)F)O2
REMARK SMILES IDX 16 1 15 2 14 3 13 4 11 5 12 6 10 8 3 9 4 10 8 11 5 12 7 13
REMARK SMILES IDX 6 14 9 15 92 16 87 17 2 18 1 19 88 20 89 21 90 22 91 23
REMARK SMILES IDX 17 24 18 25 19 26 20 28 21 29 22 30 86 31 23 32 85 33 24 34
REMARK SMILES IDX 25 35 26 36 79 37 27 38 84 39 78 40 80 41 28 42 83 43 77 44
REMARK SMILES IDX 76 45 29 47 63 48 42 49 62 50 43 51 46 52 61 53 81 54 44 55
REMARK SMILES IDX 45 56 60 58 82 59 47 60 30 61 31 62 40 63 32 64 33 65 39 66
REMARK SMILES IDX 41 67 34 68 35 69 36 70 37 71 38 72 64 73 65 74 74 75 66 76
REMARK SMILES IDX 67 77 73 78 75 79 68 80 69 81 70 82 71 83 72 84 48 85 49 86
REMARK SMILES IDX 58 87 50 88 51 89 57 90 59 91 52 92 53 93 54 94 55 95 56 96
REMARK H PARENT 13 7 18 27 80 46 46 57
REMARK Flexibility Score: inf
ROOT
ATOM      1  C   UNL     1      -3.419  -7.096   1.676  1.00  0.00     0.023 C 
ENDROOT
BRANCH   1   2
ATOM      2  C   UNL     1      -2.358  -6.182   1.058  1.00  0.00     0.023 C 
BRANCH   2   3
ATOM      3  C   UNL     1      -0.927  -6.730   1.134  1.00  0.00     0.116 C 
BRANCH   3   4
ATOM      4  N   UNL     1      -0.720  -7.737   0.107  1.00  0.00    -0.352 N 
ATOM      5  C   UNL     1      -0.299  -7.659  -1.184  1.00  0.00     0.251 C 
ATOM      6  O   UNL     1      -0.370  -8.671  -1.877  1.00  0.00    -0.270 OA
ATOM      7  H   UNL     1      -0.926  -8.653   0.402  1.00  0.00     0.163 HD
BRANCH   5   8
ATOM      8  C   UNL     1       0.304  -6.429  -1.766  1.00  0.00     0.067 C 
ATOM      9  C   UNL     1       0.919  -1.636  -2.037  1.00  0.00    -0.047 A 
ATOM     10  C   UNL     1       2.030  -1.832  -2.865  1.00  0.00     0.007 A 
ATOM     11  C   UNL     1       0.187  -2.752  -1.612  1.00  0.00     0.015 A 
ATOM     12  C   UNL     1       2.407  -3.123  -3.248  1.00  0.00     0.047 A 
ATOM     13  C   UNL     1       0.571  -4.044  -1.989  1.00  0.00     0.017 A 
ATOM     14  C   UNL     1       1.681  -4.227  -2.805  1.00  0.00     0.128 A 
ATOM     15  C   UNL     1      -0.115  -5.199  -1.442  1.00  0.00     0.025 C 
ATOM     16  O   UNL     1       2.159  -5.456  -3.148  1.00  0.00    -0.475 OA
ATOM     17  C   UNL     1       1.323  -6.626  -2.887  1.00  0.00     0.314 C 
BRANCH   9  18
ATOM     18  C   UNL     1       0.543  -0.259  -1.551  1.00  0.00     0.032 C 
ATOM     19  C   UNL     1       1.020  -0.014  -0.125  1.00  0.00     0.009 C 
ENDBRANCH   9  18
BRANCH  17  20
ATOM     20  C   UNL     1       2.275  -7.838  -2.760  1.00  0.00     0.429 C 
ATOM     21  F   UNL     1       1.728  -8.988  -3.212  1.00  0.00    -0.167 F 
ATOM     22  F   UNL     1       3.393  -7.653  -3.517  1.00  0.00    -0.167 F 
ATOM     23  F   UNL     1       2.697  -8.035  -1.490  1.00  0.00    -0.167 F 
ENDBRANCH  17  20
ENDBRANCH   5   8
ENDBRANCH   3   4
ENDBRANCH   2   3
ENDBRANCH   1   2
BRANCH   1  24
ATOM     24  C   UNL     1      -3.290  -7.291   3.180  1.00  0.00     0.116 C 
BRANCH  24  25
ATOM     25  N   UNL     1      -3.352  -6.043   3.923  1.00  0.00    -0.352 N 
ATOM     26  C   UNL     1      -3.801  -5.830   5.204  1.00  0.00     0.251 C 
ATOM     27  H   UNL     1      -3.030  -5.245   3.445  1.00  0.00     0.163 HD
ATOM     28  O   UNL     1      -3.895  -4.688   5.634  1.00  0.00    -0.269 OA
BRANCH  26  29
ATOM     29  C   UNL     1      -4.204  -6.984   6.037  1.00  0.00     0.039 A 
ATOM     30  C   UNL     1      -5.395  -6.901   6.763  1.00  0.00     0.014 A 
ATOM     31  C   UNL     1      -3.418  -8.137   6.104  1.00  0.00     0.014 A 
ATOM     32  C   UNL     1      -5.815  -7.992   7.526  1.00  0.00     0.010 A 
ATOM     33  C   UNL     1      -3.876  -9.250   6.802  1.00  0.00     0.010 A 
ATOM     34  C   UNL     1      -5.068  -9.181   7.537  1.00  0.00    -0.014 A 
BRANCH  34  35
ATOM     35  C   UNL     1      -5.498 -10.344   8.351  1.00  0.00     0.031 A 
ATOM     36  C   UNL     1      -4.650 -10.805   9.507  1.00  0.00     0.074 A 
ATOM     37  C   UNL     1      -6.626 -11.006   8.028  1.00  0.00     0.049 A 
ATOM     38  N   UNL     1      -4.842 -11.807  10.325  1.00  0.00    -0.248 NA
ATOM     39  C   UNL     1      -3.406 -10.059   9.758  1.00  0.00     0.031 C 
ATOM     40  C   UNL     1      -7.497 -10.692   6.893  1.00  0.00     0.029 A 
ATOM     41  N   UNL     1      -7.232 -12.083   8.623  1.00  0.00    -0.354 N 
ATOM     42  C   UNL     1      -3.741 -11.820  11.174  1.00  0.00     0.074 A 
ATOM     43  C   UNL     1      -2.856 -10.766  10.733  1.00  0.00     0.031 C 
ATOM     44  C   UNL     1      -8.540 -11.539   6.892  1.00  0.00     0.029 A 
ATOM     45  C   UNL     1      -8.400 -12.468   8.009  1.00  0.00     0.049 A 
ATOM     46  H   UNL     1      -6.865 -12.537   9.415  1.00  0.00     0.167 HD
ATOM     47  C   UNL     1      -3.503 -12.617  12.243  1.00  0.00     0.037 A 
ATOM     48  C   UNL     1      -9.264 -13.453   8.319  1.00  0.00     0.037 A 
ATOM     49  C   UNL     1      -4.405 -13.643  12.696  1.00  0.00     0.049 A 
ATOM     50  C   UNL     1      -9.001 -14.298   9.537  1.00  0.00     0.074 A 
ATOM     51  C   UNL     1      -4.285 -14.474  13.796  1.00  0.00     0.029 A 
ATOM     52  N   UNL     1      -5.602 -13.973  12.075  1.00  0.00    -0.354 N 
ATOM     53  N   UNL     1      -7.983 -14.257  10.365  1.00  0.00    -0.248 NA
ATOM     54  C   UNL     1     -10.012 -15.308   9.874  1.00  0.00     0.031 C 
ATOM     55  C   UNL     1      -5.395 -15.327  13.822  1.00  0.00     0.029 A 
ATOM     56  C   UNL     1      -6.228 -14.997  12.765  1.00  0.00     0.049 A 
ATOM     57  H   UNL     1      -5.954 -13.542  11.262  1.00  0.00     0.167 HD
ATOM     58  C   UNL     1      -8.249 -15.213  11.340  1.00  0.00     0.074 A 
ATOM     59  C   UNL     1      -9.528 -15.805  11.003  1.00  0.00     0.031 C 
ATOM     60  C   UNL     1      -7.506 -15.566  12.418  1.00  0.00     0.037 A 
BRANCH  47  61
ATOM     61  C   UNL     1      -2.220 -12.398  12.998  1.00  0.00     0.058 A 
ATOM     62  C   UNL     1      -2.009 -11.243  13.770  1.00  0.00     0.135 A 
ATOM     63  C   UNL     1      -1.195 -13.356  12.963  1.00  0.00     0.135 A 
ATOM     64  F   UNL     1      -2.948 -10.286  13.826  1.00  0.00    -0.206 F 
ATOM     65  C   UNL     1      -0.814 -11.029  14.449  1.00  0.00     0.059 A 
ATOM     66  C   UNL     1      -0.002 -13.176  13.658  1.00  0.00     0.059 A 
ATOM     67  F   UNL     1      -1.342 -14.478  12.241  1.00  0.00    -0.206 F 
ATOM     68  C   UNL     1       0.186 -12.000  14.384  1.00  0.00     0.060 A 
BRANCH  68  69
ATOM     69  S   UNL     1       1.733 -11.706  15.266  1.00  0.00     0.124 S 
ATOM     70  O   UNL     1       2.370 -10.709  14.410  1.00  0.00    -0.237 OA
ATOM     71  O   UNL     1       1.268 -11.223  16.562  1.00  0.00    -0.237 OA
ATOM     72  O   UNL     1       2.370 -13.019  15.281  1.00  0.00    -0.744 OA
ENDBRANCH  68  69
ENDBRANCH  47  61
BRANCH  48  73
ATOM     73  C   UNL     1     -10.485 -13.659   7.496  1.00  0.00     0.058 A 
ATOM     74  C   UNL     1     -11.753 -13.322   7.991  1.00  0.00     0.135 A 
ATOM     75  C   UNL     1     -10.408 -14.184   6.197  1.00  0.00     0.135 A 
ATOM     76  F   UNL     1     -11.878 -12.819   9.229  1.00  0.00    -0.206 F 
ATOM     77  C   UNL     1     -12.906 -13.518   7.238  1.00  0.00     0.059 A 
ATOM     78  C   UNL     1     -11.544 -14.366   5.414  1.00  0.00     0.059 A 
ATOM     79  F   UNL     1      -9.216 -14.502   5.669  1.00  0.00    -0.206 F 
ATOM     80  C   UNL     1     -12.791 -14.041   5.949  1.00  0.00     0.060 A 
BRANCH  80  81
ATOM     81  S   UNL     1     -14.289 -14.248   4.961  1.00  0.00     0.124 S 
ATOM     82  O   UNL     1     -14.893 -15.419   5.587  1.00  0.00    -0.237 OA
ATOM     83  O   UNL     1     -14.978 -12.980   5.178  1.00  0.00    -0.237 OA
ATOM     84  O   UNL     1     -13.773 -14.449   3.610  1.00  0.00    -0.744 OA
ENDBRANCH  80  81
ENDBRANCH  48  73
BRANCH  60  85
ATOM     85  C   UNL     1      -8.083 -16.608  13.336  1.00  0.00     0.058 A 
ATOM     86  C   UNL     1      -8.168 -17.959  12.964  1.00  0.00     0.135 A 
ATOM     87  C   UNL     1      -8.545 -16.248  14.612  1.00  0.00     0.135 A 
ATOM     88  F   UNL     1      -7.742 -18.355  11.754  1.00  0.00    -0.206 F 
ATOM     89  C   UNL     1      -8.731 -18.910  13.809  1.00  0.00     0.059 A 
ATOM     90  C   UNL     1      -9.086 -17.187  15.484  1.00  0.00     0.059 A 
ATOM     91  F   UNL     1      -8.473 -14.972  15.023  1.00  0.00    -0.206 F 
ATOM     92  C   UNL     1      -9.194 -18.512  15.065  1.00  0.00     0.060 A 
BRANCH  92  93
ATOM     93  S   UNL     1      -9.929 -19.752  16.152  1.00  0.00     0.124 S 
ATOM     94  O   UNL     1     -11.251 -19.916  15.556  1.00  0.00    -0.237 OA
ATOM     95  O   UNL     1      -9.020 -20.883  16.000  1.00  0.00    -0.237 OA
ATOM     96  O   UNL     1      -9.906 -19.108  17.462  1.00  0.00    -0.744 OA
ENDBRANCH  92  93
ENDBRANCH  60  85
ENDBRANCH  34  35
ENDBRANCH  26  29
ENDBRANCH  24  25
ENDBRANCH   1  24
TORSDOF 16
