REMARK SMILES O=C(COc1ccccc1/C=C1/SC(=S)N(c2ccc(F)c(Cl)c2)C1=O)NCCCCNC(=O)c1ccc(-c2c3nc(c(-c4c(F)cc(S(=O)(=O)[O-])cc4F)c4ccc([nH]4)c(-c4c(F)cc(S(=O)(=O)[O-])cc4F)c4nc(c(-c5c(F)cc(S(=O)(=O)[O-])cc5F)c5ccc2[nH]5)C=C4)C=C3)cc1
REMARK SMILES IDX 29 1 28 2 27 3 1 4 2 5 3 7 4 8 5 9 6 10 10 11 7 12 9 13 8 14
REMARK SMILES IDX 11 15 12 16 13 17 25 18 14 19 16 20 26 21 15 22 17 23 18 24
REMARK SMILES IDX 24 25 19 26 22 27 20 28 23 29 21 30 30 31 31 32 32 33 33 34
REMARK SMILES IDX 34 36 35 37 36 38 100 39 37 40 99 41 38 42 39 43 40 44 93 45
REMARK SMILES IDX 41 46 98 47 92 48 94 49 42 50 97 51 91 52 90 53 43 55 77 56
REMARK SMILES IDX 56 57 76 58 57 59 60 60 75 61 95 62 58 63 59 64 74 66 96 67
REMARK SMILES IDX 61 68 44 69 45 70 54 71 46 72 47 73 53 74 55 75 48 76 49 77
REMARK SMILES IDX 50 78 51 79 52 80 78 81 79 82 88 83 80 84 81 85 87 86 89 87
REMARK SMILES IDX 82 88 83 89 84 90 85 91 86 92 62 93 63 94 72 95 64 96 65 97
REMARK SMILES IDX 71 98 73 99 66 100 67 101 68 102 69 103 70 104
REMARK H PARENT 27 6 32 35 94 54 60 65
REMARK Flexibility Score: inf
ROOT
ATOM      1  C   UNL     1       2.403   1.437   3.963  1.00  0.00     0.023 C 
ENDROOT
BRANCH   1   2
ATOM      2  C   UNL     1       2.758   1.748   2.213  1.00  0.00     0.116 C 
BRANCH   2   3
ATOM      3  N   UNL     1       3.351   0.524   0.606  1.00  0.00    -0.353 N 
ATOM      4  O   UNL     1       2.449  -1.704  -0.105  1.00  0.00    -0.271 OA
ATOM      5  C   UNL     1       3.161  -0.715  -0.257  1.00  0.00     0.257 C 
ATOM      6  H   UNL     1       4.138   0.975   0.226  1.00  0.00     0.163 HD
BRANCH   5   7
ATOM      7  C   UNL     1       3.926  -0.606  -1.562  1.00  0.00     0.329 C 
BRANCH   7   8
ATOM      8  O   UNL     1       4.123   0.749  -1.890  1.00  0.00    -0.483 OA
BRANCH   8   9
ATOM      9  C   UNL     1       3.104   1.372  -2.580  1.00  0.00     0.127 A 
ATOM     10  C   UNL     1       3.617   1.994  -3.729  1.00  0.00     0.047 A 
ATOM     11  C   UNL     1       1.796   1.670  -2.089  1.00  0.00     0.018 A 
ATOM     12  C   UNL     1       2.902   2.993  -4.367  1.00  0.00     0.004 A 
ATOM     13  C   UNL     1       1.101   2.693  -2.757  1.00  0.00     0.012 A 
ATOM     14  C   UNL     1       1.661   3.363  -3.860  1.00  0.00     0.001 A 
BRANCH  11  15
ATOM     15  C   UNL     1       1.162   1.103  -0.847  1.00  0.00     0.033 C 
ATOM     16  C   UNL     1       1.647   1.424   0.385  1.00  0.00     0.081 C 
ATOM     17  S   UNL     1       1.876  -0.234   1.953  1.00  0.00    -0.054 SA
ATOM     18  C   UNL     1       3.262   2.532   0.322  1.00  0.00     0.270 C 
ATOM     19  C   UNL     1       4.159   0.294   2.276  1.00  0.00     0.152 C 
ATOM     20  N   UNL     1       4.563   1.770   1.284  1.00  0.00    -0.261 N 
ATOM     21  O   UNL     1       3.335   3.597  -0.277  1.00  0.00    -0.268 OA
ATOM     22  S   UNL     1       5.206  -0.751   3.097  1.00  0.00    -0.051 S 
BRANCH  20  23
ATOM     23  C   UNL     1       5.915   2.183   1.065  1.00  0.00     0.052 A 
ATOM     24  C   UNL     1       6.313   3.495   0.794  1.00  0.00     0.030 A 
ATOM     25  C   UNL     1       6.896   1.207   1.181  1.00  0.00     0.050 A 
ATOM     26  C   UNL     1       7.662   3.838   0.982  1.00  0.00     0.043 A 
ATOM     27  C   UNL     1       8.198   1.548   1.488  1.00  0.00     0.078 A 
ATOM     28  C   UNL     1       8.572   2.875   1.422  1.00  0.00     0.141 A 
ATOM     29  Cl  UNL     1       9.238   0.316   2.075  1.00  0.00    -0.081 Cl
ATOM     30  F   UNL     1       9.796   3.254   1.808  1.00  0.00    -0.205 F 
ENDBRANCH  20  23
ENDBRANCH  11  15
ENDBRANCH   8   9
ENDBRANCH   7   8
ENDBRANCH   5   7
ENDBRANCH   2   3
ENDBRANCH   1   2
BRANCH   1  31
ATOM     31  C   UNL     1       3.033   0.541   5.083  1.00  0.00     0.023 C 
BRANCH  31  32
ATOM     32  C   UNL     1       4.126   1.101   6.033  1.00  0.00     0.116 C 
BRANCH  32  33
ATOM     33  N   UNL     1       3.805   2.439   6.493  1.00  0.00    -0.352 N 
ATOM     34  C   UNL     1       4.594   3.539   6.712  1.00  0.00     0.251 C 
ATOM     35  H   UNL     1       2.850   2.583   6.682  1.00  0.00     0.163 HD
ATOM     36  O   UNL     1       4.067   4.592   7.063  1.00  0.00    -0.269 OA
BRANCH  34  37
ATOM     37  C   UNL     1       6.063   3.499   6.558  1.00  0.00     0.039 A 
ATOM     38  C   UNL     1       6.859   3.382   7.702  1.00  0.00     0.014 A 
ATOM     39  C   UNL     1       6.658   3.783   5.326  1.00  0.00     0.014 A 
ATOM     40  C   UNL     1       8.252   3.502   7.601  1.00  0.00     0.010 A 
ATOM     41  C   UNL     1       8.057   3.854   5.222  1.00  0.00     0.010 A 
ATOM     42  C   UNL     1       8.875   3.701   6.354  1.00  0.00    -0.014 A 
BRANCH  42  43
ATOM     43  C   UNL     1      10.367   3.670   6.245  1.00  0.00     0.031 A 
ATOM     44  C   UNL     1      11.162   4.878   5.812  1.00  0.00     0.074 A 
ATOM     45  C   UNL     1      11.009   2.514   6.522  1.00  0.00     0.049 A 
ATOM     46  N   UNL     1      12.460   5.019   5.703  1.00  0.00    -0.248 NA
ATOM     47  C   UNL     1      10.401   6.077   5.434  1.00  0.00     0.031 C 
ATOM     48  C   UNL     1      10.346   1.258   6.887  1.00  0.00     0.029 A 
ATOM     49  N   UNL     1      12.345   2.196   6.552  1.00  0.00    -0.354 N 
ATOM     50  C   UNL     1      12.672   6.314   5.234  1.00  0.00     0.074 A 
ATOM     51  C   UNL     1      11.363   6.900   5.036  1.00  0.00     0.031 C 
ATOM     52  C   UNL     1      11.273   0.324   7.147  1.00  0.00     0.029 A 
ATOM     53  C   UNL     1      12.597   0.895   6.929  1.00  0.00     0.049 A 
ATOM     54  H   UNL     1      13.056   2.838   6.325  1.00  0.00     0.167 HD
ATOM     55  C   UNL     1      13.845   6.958   5.011  1.00  0.00     0.037 A 
ATOM     56  C   UNL     1      13.761   0.232   7.085  1.00  0.00     0.037 A 
ATOM     57  C   UNL     1      15.142   6.363   5.229  1.00  0.00     0.049 A 
ATOM     58  C   UNL     1      15.049   0.973   6.847  1.00  0.00     0.074 A 
ATOM     59  C   UNL     1      16.392   6.941   5.095  1.00  0.00     0.029 A 
ATOM     60  N   UNL     1      15.353   5.047   5.620  1.00  0.00    -0.354 N 
ATOM     61  N   UNL     1      15.225   2.223   6.487  1.00  0.00    -0.248 NA
ATOM     62  C   UNL     1      16.296   0.222   7.044  1.00  0.00     0.031 C 
ATOM     63  C   UNL     1      17.358   5.963   5.356  1.00  0.00     0.029 A 
ATOM     64  C   UNL     1      16.712   4.790   5.711  1.00  0.00     0.049 A 
ATOM     65  H   UNL     1      14.641   4.393   5.807  1.00  0.00     0.167 HD
ATOM     66  C   UNL     1      16.601   2.415   6.438  1.00  0.00     0.074 A 
ATOM     67  C   UNL     1      17.209   1.158   6.825  1.00  0.00     0.031 C 
ATOM     68  C   UNL     1      17.297   3.530   6.104  1.00  0.00     0.037 A 
BRANCH  55  69
ATOM     69  C   UNL     1      13.789   8.380   4.507  1.00  0.00     0.058 A 
ATOM     70  C   UNL     1      13.319   9.432   5.311  1.00  0.00     0.135 A 
ATOM     71  C   UNL     1      14.249   8.707   3.219  1.00  0.00     0.135 A 
ATOM     72  F   UNL     1      12.861   9.185   6.548  1.00  0.00    -0.206 F 
ATOM     73  C   UNL     1      13.269  10.744   4.845  1.00  0.00     0.059 A 
ATOM     74  C   UNL     1      14.237  10.017   2.743  1.00  0.00     0.059 A 
ATOM     75  F   UNL     1      14.718   7.748   2.405  1.00  0.00    -0.206 F 
ATOM     76  C   UNL     1      13.729  11.027   3.559  1.00  0.00     0.060 A 
BRANCH  76  77
ATOM     77  S   UNL     1      13.657  12.734   2.972  1.00  0.00     0.124 S 
ATOM     78  O   UNL     1      12.220  12.918   2.787  1.00  0.00    -0.237 OA
ATOM     79  O   UNL     1      14.251  13.471   4.083  1.00  0.00    -0.237 OA
ATOM     80  O   UNL     1      14.448  12.708   1.746  1.00  0.00    -0.744 OA
ENDBRANCH  76  77
ENDBRANCH  55  69
BRANCH  56  81
ATOM     81  C   UNL     1      13.761  -1.195   7.517  1.00  0.00     0.058 A 
ATOM     82  C   UNL     1      14.238  -1.572   8.782  1.00  0.00     0.135 A 
ATOM     83  C   UNL     1      13.269  -2.211   6.682  1.00  0.00     0.135 A 
ATOM     84  F   UNL     1      14.724  -0.643   9.619  1.00  0.00    -0.206 F 
ATOM     85  C   UNL     1      14.246  -2.901   9.196  1.00  0.00     0.059 A 
ATOM     86  C   UNL     1      13.239  -3.544   7.084  1.00  0.00     0.059 A 
ATOM     87  F   UNL     1      12.784  -1.908   5.468  1.00  0.00    -0.206 F 
ATOM     88  C   UNL     1      13.741  -3.881   8.340  1.00  0.00     0.060 A 
BRANCH  88  89
ATOM     89  S   UNL     1      13.720  -5.598   8.903  1.00  0.00     0.124 S 
ATOM     90  O   UNL     1      15.138  -5.937   8.869  1.00  0.00    -0.237 OA
ATOM     91  O   UNL     1      13.124  -5.477  10.230  1.00  0.00    -0.237 OA
ATOM     92  O   UNL     1      12.887  -6.268   7.909  1.00  0.00    -0.744 OA
ENDBRANCH  88  89
ENDBRANCH  56  81
BRANCH  68  93
ATOM     93  C   UNL     1      18.797   3.452   6.175  1.00  0.00     0.058 A 
ATOM     94  C   UNL     1      19.545   2.716   5.243  1.00  0.00     0.135 A 
ATOM     95  C   UNL     1      19.498   4.169   7.159  1.00  0.00     0.135 A 
ATOM     96  F   UNL     1      18.924   2.006   4.287  1.00  0.00    -0.206 F 
ATOM     97  C   UNL     1      20.934   2.674   5.298  1.00  0.00     0.059 A 
ATOM     98  C   UNL     1      20.887   4.167   7.213  1.00  0.00     0.059 A 
ATOM     99  F   UNL     1      18.831   4.897   8.070  1.00  0.00    -0.206 F 
ATOM    100  C   UNL     1      21.596   3.407   6.285  1.00  0.00     0.060 A 
BRANCH 100 101
ATOM    101  S   UNL     1      23.400   3.373   6.320  1.00  0.00     0.124 S 
ATOM    102  O   UNL     1      23.660   2.027   6.818  1.00  0.00    -0.237 OA
ATOM    103  O   UNL     1      23.744   3.610   4.921  1.00  0.00    -0.237 OA
ATOM    104  O   UNL     1      23.743   4.458   7.236  1.00  0.00    -0.744 OA
ENDBRANCH 100 101
ENDBRANCH  68  93
ENDBRANCH  42  43
ENDBRANCH  34  37
ENDBRANCH  32  33
ENDBRANCH  31  32
ENDBRANCH   1  31
TORSDOF 18
