REMARK SMILES CC(=O)Oc1cc(CCC(=O)NCCCCNC(=O)c2ccc(-c3c4nc(c(-c5c(F)cc(S(=O)(=O)[O-])cc5F)c5ccc([nH]5)c(-c5c(F)cc(S(=O)(=O)[O-])cc5F)c5nc(c(-c6c(F)cc(S(=O)(=O)[O-])cc6F)c6ccc3[nH]6)C=C5)C=C4)cc2)c(OC(C)=O)c2c1C(=O)c1ccccc1C2=O
REMARK SMILES IDX 14 1 13 2 12 3 10 4 11 5 9 7 8 8 7 9 5 10 6 11 92 12 91 13
REMARK SMILES IDX 93 14 86 15 101 16 94 17 95 18 100 19 102 20 96 21 99 22
REMARK SMILES IDX 97 23 98 24 4 25 2 26 1 27 3 28 87 29 88 30 89 31 90 32
REMARK SMILES IDX 15 33 16 34 17 35 18 36 19 38 20 39 21 40 85 41 22 42 84 43
REMARK SMILES IDX 23 44 24 45 25 46 78 47 26 48 83 49 77 50 79 51 27 52 82 53
REMARK SMILES IDX 76 54 75 55 28 57 62 58 41 59 61 60 42 61 45 62 60 63 80 64
REMARK SMILES IDX 43 65 44 66 59 68 81 69 46 70 29 71 30 72 39 73 31 74 32 75
REMARK SMILES IDX 38 76 40 77 33 78 34 79 35 80 36 81 37 82 63 83 64 84 73 85
REMARK SMILES IDX 65 86 66 87 72 88 74 89 67 90 68 91 69 92 70 93 71 94 47 95
REMARK SMILES IDX 48 96 57 97 49 98 50 99 56 100 58 101 51 102 52 103 53 104
REMARK SMILES IDX 54 105 55 106
REMARK H PARENT 12 6 17 37 79 56 45 67
REMARK Flexibility Score: inf
ROOT
ATOM      1  C   UNL     1      -0.867   5.428   2.803  1.00  0.00     0.023 C 
ENDROOT
BRANCH   1   2
ATOM      2  C   UNL     1       0.222   6.266   2.163  1.00  0.00     0.116 C 
BRANCH   2   3
ATOM      3  N   UNL     1       0.842   7.100   3.181  1.00  0.00    -0.356 N 
ATOM      4  C   UNL     1       1.729   6.742   4.155  1.00  0.00     0.220 C 
ATOM      5  O   UNL     1       1.972   7.549   5.054  1.00  0.00    -0.275 OA
ATOM      6  H   UNL     1       0.587   8.051   3.166  1.00  0.00     0.163 HD
BRANCH   4   7
ATOM      7  C   UNL     1       2.447   5.402   4.104  1.00  0.00     0.105 C 
BRANCH   7   8
ATOM      8  C   UNL     1       2.077   4.404   5.217  1.00  0.00     0.049 C 
BRANCH   8   9
ATOM      9  C   UNL     1       0.993   3.416   4.852  1.00  0.00    -0.000 A 
ATOM     10  C   UNL     1       0.303   1.600   3.386  1.00  0.00     0.143 A 
ATOM     11  C   UNL     1       1.305   2.421   3.917  1.00  0.00     0.055 A 
ATOM     12  C   UNL     1      -1.035   1.712   3.794  1.00  0.00     0.080 A 
ATOM     13  C   UNL     1      -1.378   2.683   4.738  1.00  0.00     0.081 A 
ATOM     14  C   UNL     1      -2.084   0.870   3.174  1.00  0.00     0.198 C 
ATOM     15  C   UNL     1      -0.345   3.488   5.284  1.00  0.00     0.146 A 
ATOM     16  C   UNL     1      -2.816   2.927   5.011  1.00  0.00     0.198 C 
ATOM     17  O   UNL     1      -1.803  -0.184   2.615  1.00  0.00    -0.288 OA
ATOM     18  C   UNL     1      -3.479   1.334   3.223  1.00  0.00     0.034 A 
ATOM     19  C   UNL     1      -3.829   2.366   4.088  1.00  0.00     0.034 A 
ATOM     20  O   UNL     1      -3.180   3.582   5.976  1.00  0.00    -0.288 OA
ATOM     21  C   UNL     1      -4.444   0.742   2.398  1.00  0.00     0.013 A 
ATOM     22  C   UNL     1      -5.144   2.846   4.097  1.00  0.00     0.013 A 
ATOM     23  C   UNL     1      -5.759   1.205   2.428  1.00  0.00     0.001 A 
ATOM     24  C   UNL     1      -6.105   2.267   3.263  1.00  0.00     0.001 A 
BRANCH  10  25
ATOM     25  O   UNL     1       0.693   0.713   2.378  1.00  0.00    -0.426 OA
BRANCH  25  26
ATOM     26  C   UNL     1       0.439   1.234   1.111  1.00  0.00     0.308 C 
ATOM     27  C   UNL     1       0.763   0.194   0.080  1.00  0.00     0.139 C 
ATOM     28  O   UNL     1       0.087   2.382   0.861  1.00  0.00    -0.252 OA
ENDBRANCH  25  26
ENDBRANCH  10  25
BRANCH  15  29
ATOM     29  O   UNL     1      -0.741   4.644   6.165  1.00  0.00    -0.426 OA
BRANCH  29  30
ATOM     30  C   UNL     1      -1.000   5.764   7.032  1.00  0.00     0.308 C 
ATOM     31  C   UNL     1       0.234   6.195   7.758  1.00  0.00     0.139 C 
ATOM     32  O   UNL     1      -2.091   6.306   7.128  1.00  0.00    -0.252 OA
ENDBRANCH  29  30
ENDBRANCH  15  29
ENDBRANCH   8   9
ENDBRANCH   7   8
ENDBRANCH   4   7
ENDBRANCH   2   3
ENDBRANCH   1   2
BRANCH   1  33
ATOM     33  C   UNL     1      -2.281   5.963   2.741  1.00  0.00     0.023 C 
BRANCH  33  34
ATOM     34  C   UNL     1      -2.957   5.846   1.391  1.00  0.00     0.116 C 
BRANCH  34  35
ATOM     35  N   UNL     1      -2.862   4.540   0.747  1.00  0.00    -0.352 N 
ATOM     36  C   UNL     1      -3.800   3.853   0.005  1.00  0.00     0.251 C 
ATOM     37  H   UNL     1      -1.998   4.081   0.858  1.00  0.00     0.163 HD
ATOM     38  O   UNL     1      -3.508   2.755  -0.465  1.00  0.00    -0.269 OA
BRANCH  36  39
ATOM     39  C   UNL     1      -5.171   4.392  -0.173  1.00  0.00     0.039 A 
ATOM     40  C   UNL     1      -6.251   3.502  -0.185  1.00  0.00     0.014 A 
ATOM     41  C   UNL     1      -5.414   5.760  -0.279  1.00  0.00     0.014 A 
ATOM     42  C   UNL     1      -7.562   3.987  -0.160  1.00  0.00     0.010 A 
ATOM     43  C   UNL     1      -6.704   6.247  -0.138  1.00  0.00     0.010 A 
ATOM     44  C   UNL     1      -7.792   5.366  -0.084  1.00  0.00    -0.014 A 
BRANCH  44  45
ATOM     45  C   UNL     1      -9.152   5.948  -0.045  1.00  0.00     0.031 A 
ATOM     46  C   UNL     1      -9.586   6.820  -1.192  1.00  0.00     0.074 A 
ATOM     47  C   UNL     1      -9.927   5.802   1.047  1.00  0.00     0.049 A 
ATOM     48  N   UNL     1     -10.633   7.592  -1.294  1.00  0.00    -0.248 NA
ATOM     49  C   UNL     1      -8.687   6.869  -2.360  1.00  0.00     0.031 C 
ATOM     50  C   UNL     1      -9.579   5.026   2.240  1.00  0.00     0.029 A 
ATOM     51  N   UNL     1     -11.159   6.328   1.345  1.00  0.00    -0.354 N 
ATOM     52  C   UNL     1     -10.499   8.243  -2.515  1.00  0.00     0.074 A 
ATOM     53  C   UNL     1      -9.245   7.818  -3.093  1.00  0.00     0.031 C 
ATOM     54  C   UNL     1     -10.577   5.122   3.136  1.00  0.00     0.029 A 
ATOM     55  C   UNL     1     -11.616   5.995   2.600  1.00  0.00     0.049 A 
ATOM     56  H   UNL     1     -11.669   6.891   0.719  1.00  0.00     0.167 HD
ATOM     57  C   UNL     1     -11.360   9.098  -3.110  1.00  0.00     0.037 A 
ATOM     58  C   UNL     1     -12.740   6.372   3.241  1.00  0.00     0.037 A 
ATOM     59  C   UNL     1     -12.630   9.465  -2.549  1.00  0.00     0.049 A 
ATOM     60  C   UNL     1     -13.699   7.299   2.537  1.00  0.00     0.074 A 
ATOM     61  C   UNL     1     -13.617  10.259  -3.102  1.00  0.00     0.029 A 
ATOM     62  N   UNL     1     -13.093   9.048  -1.310  1.00  0.00    -0.354 N 
ATOM     63  N   UNL     1     -13.592   7.851   1.351  1.00  0.00    -0.248 NA
ATOM     64  C   UNL     1     -14.932   7.652   3.253  1.00  0.00     0.031 C 
ATOM     65  C   UNL     1     -14.666  10.350  -2.182  1.00  0.00     0.029 A 
ATOM     66  C   UNL     1     -14.348   9.577  -1.075  1.00  0.00     0.049 A 
ATOM     67  H   UNL     1     -12.600   8.463  -0.690  1.00  0.00     0.167 HD
ATOM     68  C   UNL     1     -14.759   8.585   1.166  1.00  0.00     0.074 A 
ATOM     69  C   UNL     1     -15.561   8.399   2.357  1.00  0.00     0.031 C 
ATOM     70  C   UNL     1     -15.136   9.345   0.109  1.00  0.00     0.037 A 
BRANCH  57  71
ATOM     71  C   UNL     1     -10.967   9.674  -4.441  1.00  0.00     0.058 A 
ATOM     72  C   UNL     1     -10.938   8.886  -5.602  1.00  0.00     0.135 A 
ATOM     73  C   UNL     1     -10.657  11.037  -4.564  1.00  0.00     0.135 A 
ATOM     74  F   UNL     1     -11.200   7.571  -5.534  1.00  0.00    -0.206 F 
ATOM     75  C   UNL     1     -10.600   9.425  -6.838  1.00  0.00     0.059 A 
ATOM     76  C   UNL     1     -10.343  11.604  -5.796  1.00  0.00     0.059 A 
ATOM     77  F   UNL     1     -10.659  11.832  -3.483  1.00  0.00    -0.206 F 
ATOM     78  C   UNL     1     -10.309  10.787  -6.925  1.00  0.00     0.060 A 
BRANCH  78  79
ATOM     79  S   UNL     1      -9.912  11.478  -8.544  1.00  0.00     0.124 S 
ATOM     80  O   UNL     1      -8.569  10.949  -8.765  1.00  0.00    -0.237 OA
ATOM     81  O   UNL     1     -10.961  10.916  -9.389  1.00  0.00    -0.237 OA
ATOM     82  O   UNL     1      -9.990  12.919  -8.328  1.00  0.00    -0.744 OA
ENDBRANCH  78  79
ENDBRANCH  57  71
BRANCH  58  83
ATOM     83  C   UNL     1     -13.041   5.872   4.611  1.00  0.00     0.058 A 
ATOM     84  C   UNL     1     -14.105   4.982   4.832  1.00  0.00     0.135 A 
ATOM     85  C   UNL     1     -12.308   6.299   5.729  1.00  0.00     0.135 A 
ATOM     86  F   UNL     1     -14.839   4.546   3.797  1.00  0.00    -0.206 F 
ATOM     87  C   UNL     1     -14.458   4.567   6.112  1.00  0.00     0.059 A 
ATOM     88  C   UNL     1     -12.625   5.877   7.018  1.00  0.00     0.059 A 
ATOM     89  F   UNL     1     -11.269   7.133   5.572  1.00  0.00    -0.206 F 
ATOM     90  C   UNL     1     -13.716   5.027   7.201  1.00  0.00     0.060 A 
BRANCH  90  91
ATOM     91  S   UNL     1     -14.186   4.486   8.859  1.00  0.00     0.124 S 
ATOM     92  O   UNL     1     -15.387   5.278   9.096  1.00  0.00    -0.237 OA
ATOM     93  O   UNL     1     -14.394   3.054   8.668  1.00  0.00    -0.237 OA
ATOM     94  O   UNL     1     -13.024   4.840   9.669  1.00  0.00    -0.744 OA
ENDBRANCH  90  91
ENDBRANCH  58  83
BRANCH  70  95
ATOM     95  C   UNL     1     -16.494   9.985   0.164  1.00  0.00     0.058 A 
ATOM     96  C   UNL     1     -16.753  11.097   0.979  1.00  0.00     0.135 A 
ATOM     97  C   UNL     1     -17.525   9.521  -0.668  1.00  0.00     0.135 A 
ATOM     98  F   UNL     1     -15.799  11.574   1.794  1.00  0.00    -0.206 F 
ATOM     99  C   UNL     1     -17.997  11.717   0.981  1.00  0.00     0.059 A 
ATOM    100  C   UNL     1     -18.768  10.142  -0.702  1.00  0.00     0.059 A 
ATOM    101  F   UNL     1     -17.321   8.468  -1.476  1.00  0.00    -0.206 F 
ATOM    102  C   UNL     1     -18.997  11.234   0.134  1.00  0.00     0.060 A 
BRANCH 102 103
ATOM    103  S   UNL     1     -20.593  12.077   0.111  1.00  0.00     0.124 S 
ATOM    104  O   UNL     1     -21.187  11.614   1.361  1.00  0.00    -0.237 OA
ATOM    105  O   UNL     1     -20.205  13.483   0.076  1.00  0.00    -0.237 OA
ATOM    106  O   UNL     1     -21.223  11.577  -1.107  1.00  0.00    -0.744 OA
ENDBRANCH 102 103
ENDBRANCH  70  95
ENDBRANCH  44  45
ENDBRANCH  36  39
ENDBRANCH  34  35
ENDBRANCH  33  34
ENDBRANCH   1  33
TORSDOF 20
