REMARK SMILES O=C(NCCCCNC(=O)[C@H]1C[C@H](O)CN1C(=O)CS[C@H]1CCS(=O)(=O)C1)c1ccc(-c2c3nc(c(-c4c(F)cc(S(=O)(=O)[O-])cc4F)c4ccc([nH]4)c(-c4c(F)cc(S(=O)(=O)[O-])cc4F)c4nc(c(-c5c(F)cc(S(=O)(=O)[O-])cc5F)c5ccc2[nH]5)C=C4)C=C3)cc1
REMARK SMILES IDX 6 1 5 2 4 3 3 4 1 5 2 6 28 8 29 9 93 10 30 11 92 12 31 13
REMARK SMILES IDX 32 14 33 15 86 16 34 17 91 18 85 19 87 20 35 21 90 22 84 23
REMARK SMILES IDX 83 24 36 26 70 27 49 28 69 29 50 30 53 31 68 32 88 33 51 34
REMARK SMILES IDX 52 35 67 37 89 38 54 39 37 40 38 41 47 42 39 43 40 44 46 45
REMARK SMILES IDX 48 46 41 47 42 48 43 49 44 50 45 51 71 52 72 53 81 54 73 55
REMARK SMILES IDX 74 56 80 57 82 58 75 59 76 60 77 61 78 62 79 63 55 64 56 65
REMARK SMILES IDX 65 66 57 67 58 68 64 69 66 70 59 71 60 72 61 73 62 74 63 75
REMARK SMILES IDX 7 76 8 77 9 78 10 80 11 81 12 82 16 83 13 84 15 85 17 86
REMARK SMILES IDX 18 87 19 88 20 89 21 90 22 91 27 92 23 93 24 94 25 95 26 96
REMARK SMILES IDX 14 97
REMARK H PARENT 3 7 87 25 53 36 8 79 14 98
REMARK Flexibility Score: inf
ROOT
ATOM      1  C   UNL     1       1.469   1.234  -4.595  1.00  0.00     0.023 C 
ENDROOT
BRANCH   1   2
ATOM      2  C   UNL     1       1.433   1.376  -3.074  1.00  0.00     0.023 C 
BRANCH   2   3
ATOM      3  C   UNL     1       0.917   2.715  -2.568  1.00  0.00     0.116 C 
BRANCH   3   4
ATOM      4  N   UNL     1      -0.473   2.965  -2.920  1.00  0.00    -0.352 N 
ATOM      5  O   UNL     1      -2.649   3.428  -2.518  1.00  0.00    -0.269 OA
ATOM      6  C   UNL     1      -1.496   3.391  -2.102  1.00  0.00     0.251 C 
ATOM      7  H   UNL     1      -0.712   2.811  -3.862  1.00  0.00     0.163 HD
BRANCH   6   8
ATOM      8  C   UNL     1      -1.185   3.768  -0.706  1.00  0.00     0.039 A 
ATOM      9  C   UNL     1      -0.084   4.580  -0.431  1.00  0.00     0.014 A 
ATOM     10  C   UNL     1      -1.964   3.260   0.338  1.00  0.00     0.014 A 
ATOM     11  C   UNL     1       0.339   4.740   0.880  1.00  0.00     0.010 A 
ATOM     12  C   UNL     1      -1.598   3.519   1.663  1.00  0.00     0.010 A 
ATOM     13  C   UNL     1      -0.424   4.234   1.946  1.00  0.00    -0.014 A 
BRANCH  13  14
ATOM     14  C   UNL     1       0.002   4.538   3.338  1.00  0.00     0.031 A 
ATOM     15  C   UNL     1       0.384   3.450   4.304  1.00  0.00     0.074 A 
ATOM     16  C   UNL     1       0.087   5.833   3.706  1.00  0.00     0.049 A 
ATOM     17  N   UNL     1       0.802   3.560   5.540  1.00  0.00    -0.248 NA
ATOM     18  C   UNL     1       0.279   2.061   3.832  1.00  0.00     0.031 C 
ATOM     19  C   UNL     1      -0.274   6.974   2.857  1.00  0.00     0.029 A 
ATOM     20  N   UNL     1       0.520   6.414   4.869  1.00  0.00    -0.354 N 
ATOM     21  C   UNL     1       1.009   2.263   5.995  1.00  0.00     0.074 A 
ATOM     22  C   UNL     1       0.629   1.377   4.914  1.00  0.00     0.031 C 
ATOM     23  C   UNL     1      -0.001   8.113   3.507  1.00  0.00     0.029 A 
ATOM     24  C   UNL     1       0.478   7.789   4.844  1.00  0.00     0.049 A 
ATOM     25  H   UNL     1       0.830   5.898   5.648  1.00  0.00     0.167 HD
ATOM     26  C   UNL     1       1.487   1.852   7.195  1.00  0.00     0.037 A 
ATOM     27  C   UNL     1       0.765   8.693   5.798  1.00  0.00     0.037 A 
ATOM     28  C   UNL     1       1.860   2.746   8.265  1.00  0.00     0.049 A 
ATOM     29  C   UNL     1       1.250   8.207   7.133  1.00  0.00     0.074 A 
ATOM     30  C   UNL     1       2.356   2.429   9.519  1.00  0.00     0.029 A 
ATOM     31  N   UNL     1       1.778   4.131   8.212  1.00  0.00    -0.354 N 
ATOM     32  N   UNL     1       1.460   6.976   7.534  1.00  0.00    -0.248 NA
ATOM     33  C   UNL     1       1.539   9.230   8.145  1.00  0.00     0.031 C 
ATOM     34  C   UNL     1       2.528   3.616  10.238  1.00  0.00     0.029 A 
ATOM     35  C   UNL     1       2.197   4.679   9.414  1.00  0.00     0.049 A 
ATOM     36  H   UNL     1       1.466   4.647   7.434  1.00  0.00     0.167 HD
ATOM     37  C   UNL     1       1.926   7.078   8.839  1.00  0.00     0.074 A 
ATOM     38  C   UNL     1       1.992   8.492   9.148  1.00  0.00     0.031 C 
ATOM     39  C   UNL     1       2.263   6.091   9.706  1.00  0.00     0.037 A 
BRANCH  26  40
ATOM     40  C   UNL     1       1.637   0.370   7.426  1.00  0.00     0.058 A 
ATOM     41  C   UNL     1       2.624  -0.382   6.768  1.00  0.00     0.135 A 
ATOM     42  C   UNL     1       0.829  -0.297   8.364  1.00  0.00     0.135 A 
ATOM     43  F   UNL     1       3.417   0.197   5.853  1.00  0.00    -0.206 F 
ATOM     44  C   UNL     1       2.791  -1.742   7.015  1.00  0.00     0.059 A 
ATOM     45  C   UNL     1       0.997  -1.650   8.647  1.00  0.00     0.059 A 
ATOM     46  F   UNL     1      -0.130   0.371   9.025  1.00  0.00    -0.206 F 
ATOM     47  C   UNL     1       1.975  -2.367   7.959  1.00  0.00     0.060 A 
BRANCH  47  48
ATOM     48  S   UNL     1       2.219  -4.127   8.277  1.00  0.00     0.124 S 
ATOM     49  O   UNL     1       1.728  -4.719   7.036  1.00  0.00    -0.237 OA
ATOM     50  O   UNL     1       3.661  -4.208   8.489  1.00  0.00    -0.237 OA
ATOM     51  O   UNL     1       1.399  -4.379   9.458  1.00  0.00    -0.744 OA
ENDBRANCH  47  48
ENDBRANCH  26  40
BRANCH  27  52
ATOM     52  C   UNL     1       0.570  10.143   5.529  1.00  0.00     0.058 A 
ATOM     53  C   UNL     1       1.654  11.030   5.482  1.00  0.00     0.135 A 
ATOM     54  C   UNL     1      -0.715  10.669   5.315  1.00  0.00     0.135 A 
ATOM     55  F   UNL     1       2.902  10.577   5.678  1.00  0.00    -0.206 F 
ATOM     56  C   UNL     1       1.471  12.392   5.266  1.00  0.00     0.059 A 
ATOM     57  C   UNL     1      -0.920  12.020   5.061  1.00  0.00     0.059 A 
ATOM     58  F   UNL     1      -1.786   9.860   5.327  1.00  0.00    -0.206 F 
ATOM     59  C   UNL     1       0.178  12.877   5.058  1.00  0.00     0.060 A 
BRANCH  59  60
ATOM     60  S   UNL     1      -0.050  14.643   4.766  1.00  0.00     0.124 S 
ATOM     61  O   UNL     1       0.190  15.192   6.096  1.00  0.00    -0.237 OA
ATOM     62  O   UNL     1       0.974  14.923   3.765  1.00  0.00    -0.237 OA
ATOM     63  O   UNL     1      -1.426  14.729   4.287  1.00  0.00    -0.744 OA
ENDBRANCH  59  60
ENDBRANCH  27  52
BRANCH  39  64
ATOM     64  C   UNL     1       2.772   6.512  11.058  1.00  0.00     0.058 A 
ATOM     65  C   UNL     1       1.931   7.095  12.018  1.00  0.00     0.135 A 
ATOM     66  C   UNL     1       4.119   6.312  11.402  1.00  0.00     0.135 A 
ATOM     67  F   UNL     1       0.636   7.317  11.738  1.00  0.00    -0.206 F 
ATOM     68  C   UNL     1       2.414   7.500  13.258  1.00  0.00     0.059 A 
ATOM     69  C   UNL     1       4.616   6.678  12.649  1.00  0.00     0.059 A 
ATOM     70  F   UNL     1       4.966   5.750  10.525  1.00  0.00    -0.206 F 
ATOM     71  C   UNL     1       3.759   7.286  13.565  1.00  0.00     0.060 A 
BRANCH  71  72
ATOM     72  S   UNL     1       4.369   7.801  15.183  1.00  0.00     0.124 S 
ATOM     73  O   UNL     1       4.389   9.253  15.042  1.00  0.00    -0.237 OA
ATOM     74  O   UNL     1       3.353   7.265  16.084  1.00  0.00    -0.237 OA
ATOM     75  O   UNL     1       5.678   7.161  15.273  1.00  0.00    -0.744 OA
ENDBRANCH  71  72
ENDBRANCH  39  64
ENDBRANCH  13  14
ENDBRANCH   6   8
ENDBRANCH   3   4
ENDBRANCH   2   3
ENDBRANCH   1   2
BRANCH   1  76
ATOM     76  C   UNL     1       2.210   2.364  -5.309  1.00  0.00     0.116 C 
BRANCH  76  77
ATOM     77  N   UNL     1       3.607   2.426  -4.915  1.00  0.00    -0.354 N 
ATOM     78  C   UNL     1       4.716   2.046  -5.619  1.00  0.00     0.242 C 
ATOM     79  H   UNL     1       3.780   2.792  -4.018  1.00  0.00     0.163 HD
ATOM     80  O   UNL     1       5.822   2.121  -5.081  1.00  0.00    -0.273 OA
BRANCH  78  81
ATOM     81  C   UNL     1       4.552   1.663  -7.095  1.00  0.00     0.177 C 
ATOM     82  C   UNL     1       4.811   2.874  -7.982  1.00  0.00     0.069 C 
ATOM     83  N   UNL     1       5.527   0.673  -7.536  1.00  0.00    -0.327 N 
ATOM     84  C   UNL     1       6.312   2.803  -8.265  1.00  0.00     0.136 C 
ATOM     85  C   UNL     1       6.646   1.306  -8.218  1.00  0.00     0.152 C 
BRANCH  83  86
ATOM     86  C   UNL     1       5.280  -0.663  -7.310  1.00  0.00     0.233 C 
ATOM     87  O   UNL     1       4.302  -1.020  -6.649  1.00  0.00    -0.274 OA
BRANCH  86  88
ATOM     88  C   UNL     1       6.165  -1.688  -8.001  1.00  0.00     0.169 C 
BRANCH  88  89
ATOM     89  S   UNL     1       5.240  -2.521  -9.366  1.00  0.00    -0.148 SA
BRANCH  89  90
ATOM     90  C   UNL     1       5.159  -1.174 -10.580  1.00  0.00     0.063 C 
ATOM     91  C   UNL     1       4.961  -1.679 -12.017  1.00  0.00     0.031 C 
ATOM     92  C   UNL     1       3.991  -0.215 -10.381  1.00  0.00     0.151 C 
ATOM     93  C   UNL     1       4.817  -0.421 -12.884  1.00  0.00     0.138 C 
ATOM     94  S   UNL     1       4.121   0.832 -11.809  1.00  0.00     0.151 S 
ATOM     95  O   UNL     1       5.136   1.827 -11.514  1.00  0.00    -0.229 OA
ATOM     96  O   UNL     1       2.794   1.192 -12.261  1.00  0.00    -0.229 OA
ENDBRANCH  89  90
ENDBRANCH  88  89
ENDBRANCH  86  88
ENDBRANCH  83  86
BRANCH  84  97
ATOM     97  O   UNL     1       6.612   3.379  -9.530  1.00  0.00    -0.391 OA
ATOM     98  H   UNL     1       6.112   2.919 -10.222  1.00  0.00     0.211 HD
ENDBRANCH  84  97
ENDBRANCH  78  81
ENDBRANCH  76  77
ENDBRANCH   1  76
TORSDOF 19
