REMARK SMILES COc1cccc([C@@H]2CN(C(=O)CSc3nc(C)n[nH]3)C[C@H]2C(=O)NCCCCNC(=O)c2ccc(-c3c4nc(c(-c5c(F)cc(S(=O)(=O)[O-])cc5F)c5ccc([nH]5)c(-c5c(F)cc(S(=O)(=O)[O-])cc5F)c5nc(c(-c6c(F)cc(S(=O)(=O)[O-])cc6F)c6ccc3[nH]6)C=C5)C=C4)cc2)c1
REMARK SMILES IDX 27 1 26 2 25 3 23 4 24 5 22 7 8 8 9 9 10 10 21 11 7 12 3 13
REMARK SMILES IDX 4 14 99 15 5 16 6 17 2 18 1 19 11 20 12 21 13 22 14 23 15 24
REMARK SMILES IDX 16 25 20 26 17 27 19 28 18 30 28 31 29 32 30 33 31 34 32 36
REMARK SMILES IDX 33 37 34 38 98 39 35 40 97 41 36 42 37 43 38 44 91 45 39 46
REMARK SMILES IDX 96 47 90 48 92 49 40 50 95 51 89 52 88 53 41 55 75 56 54 57
REMARK SMILES IDX 74 58 55 59 58 60 73 61 93 62 56 63 57 64 72 66 94 67 59 68
REMARK SMILES IDX 42 69 43 70 52 71 44 72 45 73 51 74 53 75 46 76 47 77 48 78
REMARK SMILES IDX 49 79 50 80 76 81 77 82 86 83 78 84 79 85 85 86 87 87 80 88
REMARK SMILES IDX 81 89 82 90 83 91 84 92 60 93 61 94 70 95 62 96 63 97 69 98
REMARK SMILES IDX 71 99 64 100 65 101 66 102 67 103 68 104
REMARK H PARENT 25 6 20 29 30 35 92 54 58 65
REMARK Flexibility Score: inf
ROOT
ATOM      1  C   UNL     1       4.555  -7.856  -1.178  1.00  0.00     0.023 C 
ENDROOT
BRANCH   1   2
ATOM      2  C   UNL     1       5.452  -6.737  -1.721  1.00  0.00     0.116 C 
BRANCH   2   3
ATOM      3  N   UNL     1       4.745  -5.830  -2.608  1.00  0.00    -0.356 N 
ATOM      4  C   UNL     1       4.357  -4.534  -2.467  1.00  0.00     0.225 C 
ATOM      5  O   UNL     1       3.766  -4.019  -3.421  1.00  0.00    -0.275 OA
ATOM      6  H   UNL     1       4.502  -6.228  -3.475  1.00  0.00     0.163 HD
BRANCH   4   7
ATOM      7  C   UNL     1       4.596  -3.720  -1.206  1.00  0.00     0.107 C 
ATOM      8  C   UNL     1       3.927  -4.320   0.043  1.00  0.00     0.053 C 
ATOM      9  C   UNL     1       4.877  -3.949   1.181  1.00  0.00     0.128 C 
ATOM     10  N   UNL     1       6.186  -3.931   0.552  1.00  0.00    -0.341 N 
ATOM     11  C   UNL     1       6.076  -3.563  -0.854  1.00  0.00     0.133 C 
BRANCH   8  12
ATOM     12  C   UNL     1       2.490  -3.923   0.287  1.00  0.00    -0.039 A 
ATOM     13  C   UNL     1       0.767  -2.248   0.675  1.00  0.00     0.119 A 
ATOM     14  C   UNL     1      -0.182  -3.259   0.827  1.00  0.00     0.046 A 
ATOM     15  C   UNL     1       2.100  -2.580   0.420  1.00  0.00     0.050 A 
ATOM     16  C   UNL     1       0.186  -4.594   0.682  1.00  0.00     0.004 A 
ATOM     17  C   UNL     1       1.512  -4.923   0.409  1.00  0.00     0.004 A 
BRANCH  13  18
ATOM     18  O   UNL     1       0.303  -0.973   0.852  1.00  0.00    -0.497 OA
ATOM     19  C   UNL     1       0.937   0.013   0.043  1.00  0.00     0.278 C 
ENDBRANCH  13  18
ENDBRANCH   8  12
BRANCH  10  20
ATOM     20  C   UNL     1       7.410  -4.103   1.155  1.00  0.00     0.233 C 
ATOM     21  O   UNL     1       8.470  -3.909   0.555  1.00  0.00    -0.274 OA
BRANCH  20  22
ATOM     22  C   UNL     1       7.458  -4.600   2.587  1.00  0.00     0.178 C 
BRANCH  22  23
ATOM     23  S   UNL     1       7.003  -3.342   3.797  1.00  0.00    -0.077 SA
BRANCH  23  24
ATOM     24  C   UNL     1       7.915  -1.953   3.345  1.00  0.00     0.184 A 
ATOM     25  N   UNL     1       7.524  -0.713   3.504  1.00  0.00    -0.206 NA
ATOM     26  N   UNL     1       9.178  -1.978   2.836  1.00  0.00    -0.254 N 
ATOM     27  C   UNL     1       8.609   0.006   3.073  1.00  0.00     0.148 A 
ATOM     28  N   UNL     1       9.658  -0.730   2.687  1.00  0.00    -0.158 NA
ATOM     29  H   UNL     1       9.673  -2.799   2.608  1.00  0.00     0.192 HD
ATOM     30  C   UNL     1       8.611   1.481   3.052  1.00  0.00     0.092 C 
ENDBRANCH  23  24
ENDBRANCH  22  23
ENDBRANCH  20  22
ENDBRANCH  10  20
ENDBRANCH   4   7
ENDBRANCH   2   3
ENDBRANCH   1   2
BRANCH   1  31
ATOM     31  C   UNL     1       4.045  -8.872  -2.207  1.00  0.00     0.023 C 
BRANCH  31  32
ATOM     32  C   UNL     1       5.135  -9.671  -2.908  1.00  0.00     0.116 C 
BRANCH  32  33
ATOM     33  N   UNL     1       5.930 -10.477  -1.985  1.00  0.00    -0.352 N 
ATOM     34  C   UNL     1       7.105 -11.157  -2.260  1.00  0.00     0.251 C 
ATOM     35  H   UNL     1       5.592 -10.545  -1.063  1.00  0.00     0.163 HD
ATOM     36  O   UNL     1       7.484 -12.071  -1.551  1.00  0.00    -0.269 OA
BRANCH  34  37
ATOM     37  C   UNL     1       7.879 -10.737  -3.443  1.00  0.00     0.039 A 
ATOM     38  C   UNL     1       8.294 -11.665  -4.398  1.00  0.00     0.014 A 
ATOM     39  C   UNL     1       8.099  -9.374  -3.622  1.00  0.00     0.014 A 
ATOM     40  C   UNL     1       8.843 -11.196  -5.590  1.00  0.00     0.010 A 
ATOM     41  C   UNL     1       8.520  -8.911  -4.847  1.00  0.00     0.010 A 
ATOM     42  C   UNL     1       8.924  -9.814  -5.829  1.00  0.00    -0.014 A 
BRANCH  42  43
ATOM     43  C   UNL     1       9.330  -9.317  -7.145  1.00  0.00     0.031 A 
ATOM     44  C   UNL     1       8.601  -9.896  -8.314  1.00  0.00     0.074 A 
ATOM     45  C   UNL     1      10.154  -8.262  -7.328  1.00  0.00     0.049 A 
ATOM     46  N   UNL     1       9.071 -10.659  -9.246  1.00  0.00    -0.248 NA
ATOM     47  C   UNL     1       7.148  -9.681  -8.406  1.00  0.00     0.031 C 
ATOM     48  C   UNL     1      10.723  -7.355  -6.325  1.00  0.00     0.029 A 
ATOM     49  N   UNL     1      10.576  -7.713  -8.499  1.00  0.00    -0.354 N 
ATOM     50  C   UNL     1       8.032 -10.862 -10.153  1.00  0.00     0.074 A 
ATOM     51  C   UNL     1       6.841 -10.367  -9.510  1.00  0.00     0.031 C 
ATOM     52  C   UNL     1      11.205  -6.250  -6.936  1.00  0.00     0.029 A 
ATOM     53  C   UNL     1      11.151  -6.456  -8.370  1.00  0.00     0.049 A 
ATOM     54  H   UNL     1      10.481  -8.169  -9.367  1.00  0.00     0.167 HD
ATOM     55  C   UNL     1       8.262 -11.245 -11.442  1.00  0.00     0.037 A 
ATOM     56  C   UNL     1      11.543  -5.632  -9.371  1.00  0.00     0.037 A 
ATOM     57  C   UNL     1       9.613 -11.713 -11.618  1.00  0.00     0.049 A 
ATOM     58  C   UNL     1      11.746  -6.478 -10.575  1.00  0.00     0.074 A 
ATOM     59  C   UNL     1      10.367 -12.734 -11.072  1.00  0.00     0.029 A 
ATOM     60  N   UNL     1      10.517 -10.858 -12.201  1.00  0.00    -0.354 N 
ATOM     61  N   UNL     1      12.678  -7.387 -10.677  1.00  0.00    -0.248 NA
ATOM     62  C   UNL     1      10.635  -6.622 -11.501  1.00  0.00     0.031 C 
ATOM     63  C   UNL     1      11.671 -12.179 -10.910  1.00  0.00     0.029 A 
ATOM     64  C   UNL     1      11.648 -10.882 -11.425  1.00  0.00     0.049 A 
ATOM     65  H   UNL     1      10.380 -10.329 -13.020  1.00  0.00     0.167 HD
ATOM     66  C   UNL     1      12.081  -8.435 -11.359  1.00  0.00     0.074 A 
ATOM     67  C   UNL     1      10.859  -7.868 -11.926  1.00  0.00     0.031 C 
ATOM     68  C   UNL     1      12.486  -9.728 -11.177  1.00  0.00     0.037 A 
BRANCH  55  69
ATOM     69  C   UNL     1       7.383 -10.903 -12.622  1.00  0.00     0.058 A 
ATOM     70  C   UNL     1       7.595 -11.543 -13.863  1.00  0.00     0.135 A 
ATOM     71  C   UNL     1       6.528  -9.780 -12.656  1.00  0.00     0.135 A 
ATOM     72  F   UNL     1       8.398 -12.615 -13.951  1.00  0.00    -0.206 F 
ATOM     73  C   UNL     1       7.051 -11.063 -15.056  1.00  0.00     0.059 A 
ATOM     74  C   UNL     1       5.933  -9.316 -13.826  1.00  0.00     0.059 A 
ATOM     75  F   UNL     1       6.311  -9.022 -11.574  1.00  0.00    -0.206 F 
ATOM     76  C   UNL     1       6.234  -9.938 -15.028  1.00  0.00     0.060 A 
BRANCH  76  77
ATOM     77  S   UNL     1       5.618  -9.252 -16.577  1.00  0.00     0.124 S 
ATOM     78  O   UNL     1       6.841  -8.713 -17.162  1.00  0.00    -0.237 OA
ATOM     79  O   UNL     1       5.061 -10.431 -17.232  1.00  0.00    -0.237 OA
ATOM     80  O   UNL     1       4.637  -8.263 -16.139  1.00  0.00    -0.744 OA
ENDBRANCH  76  77
ENDBRANCH  55  69
BRANCH  56  81
ATOM     81  C   UNL     1      11.436  -4.152  -9.427  1.00  0.00     0.058 A 
ATOM     82  C   UNL     1      12.108  -3.412 -10.414  1.00  0.00     0.135 A 
ATOM     83  C   UNL     1      10.449  -3.461  -8.693  1.00  0.00     0.135 A 
ATOM     84  F   UNL     1      13.049  -3.996 -11.171  1.00  0.00    -0.206 F 
ATOM     85  C   UNL     1      11.781  -2.082 -10.698  1.00  0.00     0.059 A 
ATOM     86  C   UNL     1      10.114  -2.133  -8.951  1.00  0.00     0.059 A 
ATOM     87  F   UNL     1       9.712  -4.088  -7.763  1.00  0.00    -0.206 F 
ATOM     88  C   UNL     1      10.764  -1.458  -9.976  1.00  0.00     0.060 A 
BRANCH  88  89
ATOM     89  S   UNL     1      10.210   0.192 -10.469  1.00  0.00     0.124 S 
ATOM     90  O   UNL     1      11.344   1.021 -10.077  1.00  0.00    -0.237 OA
ATOM     91  O   UNL     1      10.003   0.030 -11.905  1.00  0.00    -0.237 OA
ATOM     92  O   UNL     1       8.992   0.388  -9.686  1.00  0.00    -0.744 OA
ENDBRANCH  88  89
ENDBRANCH  56  81
BRANCH  68  93
ATOM     93  C   UNL     1      13.787  -9.980 -10.456  1.00  0.00     0.058 A 
ATOM     94  C   UNL     1      14.037  -9.637  -9.115  1.00  0.00     0.135 A 
ATOM     95  C   UNL     1      14.765 -10.747 -11.109  1.00  0.00     0.135 A 
ATOM     96  F   UNL     1      13.117  -8.998  -8.381  1.00  0.00    -0.206 F 
ATOM     97  C   UNL     1      15.221 -10.004  -8.469  1.00  0.00     0.059 A 
ATOM     98  C   UNL     1      15.937 -11.151 -10.475  1.00  0.00     0.059 A 
ATOM     99  F   UNL     1      14.561 -11.161 -12.371  1.00  0.00    -0.206 F 
ATOM    100  C   UNL     1      16.165 -10.764  -9.157  1.00  0.00     0.060 A 
BRANCH 100 101
ATOM    101  S   UNL     1      17.658 -11.305  -8.296  1.00  0.00     0.124 S 
ATOM    102  O   UNL     1      18.410 -10.061  -8.174  1.00  0.00    -0.237 OA
ATOM    103  O   UNL     1      17.127 -11.850  -7.050  1.00  0.00    -0.237 OA
ATOM    104  O   UNL     1      18.235 -12.296  -9.202  1.00  0.00    -0.744 OA
ENDBRANCH 100 101
ENDBRANCH  68  93
ENDBRANCH  42  43
ENDBRANCH  34  37
ENDBRANCH  32  33
ENDBRANCH  31  32
ENDBRANCH   1  31
TORSDOF 20
