REMARK SMILES CCn1cc(S(=O)(=O)N2CCC(CCc3ccc(C(=O)NCCCCNC(=O)c4ccc(-c5c6nc(c(-c7c(F)cc(S(=O)(=O)[O-])cc7F)c7ccc([nH]7)c(-c7c(F)cc(S(=O)(=O)[O-])cc7F)c7nc(c(-c8c(F)cc(S(=O)(=O)[O-])cc8F)c8ccc5[nH]8)C=C7)C=C6)cc4)cc3)CC2)cn1
REMARK SMILES IDX 22 1 21 2 19 3 20 4 18 6 15 7 16 8 96 9 17 10 95 11 14 12
REMARK SMILES IDX 13 13 12 14 9 15 10 16 98 17 11 18 97 19 6 20 7 21 8 22 5 23
REMARK SMILES IDX 3 24 4 25 100 26 99 27 2 28 1 29 23 30 24 31 25 32 26 33
REMARK SMILES IDX 27 34 28 36 29 37 30 38 94 39 31 40 93 41 32 42 33 43 34 44
REMARK SMILES IDX 87 45 35 46 92 47 86 48 88 49 36 50 91 51 85 52 84 53 37 55
REMARK SMILES IDX 71 56 50 57 70 58 51 59 54 60 69 61 89 62 52 63 53 64 68 66
REMARK SMILES IDX 90 67 55 68 38 69 39 70 48 71 40 72 41 73 47 74 49 75 42 76
REMARK SMILES IDX 43 77 44 78 45 79 46 80 72 81 73 82 82 83 74 84 75 85 81 86
REMARK SMILES IDX 83 87 76 88 77 89 78 90 79 91 80 92 56 93 57 94 66 95 58 96
REMARK SMILES IDX 59 97 65 98 67 99 60 100 61 101 62 102 63 103 64 104
REMARK H PARENT 21 5 26 35 88 54 54 65
REMARK Flexibility Score: inf
ROOT
ATOM      1  C   UNL     1       0.128   4.866  -0.351  1.00  0.00     0.116 C 
ENDROOT
BRANCH   1   2
ATOM      2  N   UNL     1       0.436   6.283  -0.283  1.00  0.00    -0.352 N 
ATOM      3  C   UNL     1       0.987   7.197  -1.149  1.00  0.00     0.251 C 
ATOM      4  O   UNL     1       1.211   8.320  -0.692  1.00  0.00    -0.269 OA
ATOM      5  H   UNL     1       0.194   6.681   0.584  1.00  0.00     0.163 HD
BRANCH   3   6
ATOM      6  C   UNL     1       1.323   6.932  -2.579  1.00  0.00     0.039 A 
ATOM      7  C   UNL     1       2.036   6.563  -5.310  1.00  0.00    -0.048 A 
ATOM      8  C   UNL     1       2.074   7.835  -4.735  1.00  0.00     0.004 A 
ATOM      9  C   UNL     1       1.514   5.531  -4.535  1.00  0.00     0.004 A 
ATOM     10  C   UNL     1       1.689   8.020  -3.394  1.00  0.00     0.014 A 
ATOM     11  C   UNL     1       1.282   5.682  -3.174  1.00  0.00     0.014 A 
BRANCH   7  12
ATOM     12  C   UNL     1       2.547   6.285  -6.707  1.00  0.00     0.036 C 
BRANCH  12  13
ATOM     13  C   UNL     1       3.698   5.238  -6.783  1.00  0.00     0.008 C 
BRANCH  13  14
ATOM     14  C   UNL     1       3.344   3.792  -6.367  1.00  0.00    -0.008 C 
ATOM     15  N   UNL     1       2.912   0.929  -6.528  1.00  0.00    -0.198 NA
ATOM     16  C   UNL     1       1.760   1.852  -6.642  1.00  0.00     0.103 C 
ATOM     17  C   UNL     1       4.086   1.470  -5.798  1.00  0.00     0.103 C 
ATOM     18  C   UNL     1       2.203   3.198  -7.204  1.00  0.00     0.020 C 
ATOM     19  C   UNL     1       4.524   2.815  -6.398  1.00  0.00     0.020 C 
BRANCH  15  20
ATOM     20  S   UNL     1       2.496  -0.692  -6.196  1.00  0.00     0.246 S 
ATOM     21  O   UNL     1       3.720  -1.462  -6.071  1.00  0.00    -0.207 OA
ATOM     22  O   UNL     1       1.443  -1.087  -7.099  1.00  0.00    -0.207 OA
BRANCH  20  23
ATOM     23  C   UNL     1       1.774  -0.838  -4.650  1.00  0.00     0.120 A 
ATOM     24  N   UNL     1       1.012  -0.573  -2.623  1.00  0.00    -0.272 N 
ATOM     25  C   UNL     1       1.596   0.102  -3.658  1.00  0.00     0.130 A 
ATOM     26  N   UNL     1       0.768  -1.867  -2.895  1.00  0.00    -0.180 NA
ATOM     27  C   UNL     1       1.242  -2.028  -4.133  1.00  0.00     0.156 A 
BRANCH  24  28
ATOM     28  C   UNL     1       0.826  -0.076  -1.271  1.00  0.00     0.141 C 
ATOM     29  C   UNL     1       1.857  -0.700  -0.346  1.00  0.00     0.029 C 
ENDBRANCH  24  28
ENDBRANCH  20  23
ENDBRANCH  15  20
ENDBRANCH  13  14
ENDBRANCH  12  13
ENDBRANCH   7  12
ENDBRANCH   3   6
ENDBRANCH   1   2
BRANCH   1  30
ATOM     30  C   UNL     1       1.332   4.023   0.088  1.00  0.00     0.023 C 
BRANCH  30  31
ATOM     31  C   UNL     1       1.461   3.854   1.613  1.00  0.00     0.023 C 
BRANCH  31  32
ATOM     32  C   UNL     1       0.347   3.032   2.258  1.00  0.00     0.116 C 
BRANCH  32  33
ATOM     33  N   UNL     1       0.331   1.658   1.746  1.00  0.00    -0.352 N 
ATOM     34  C   UNL     1      -0.625   0.666   1.895  1.00  0.00     0.251 C 
ATOM     35  H   UNL     1       1.119   1.401   1.215  1.00  0.00     0.163 HD
ATOM     36  O   UNL     1      -0.340  -0.519   1.783  1.00  0.00    -0.269 OA
BRANCH  34  37
ATOM     37  C   UNL     1      -2.009   1.075   2.121  1.00  0.00     0.039 A 
ATOM     38  C   UNL     1      -2.896   0.387   2.957  1.00  0.00     0.014 A 
ATOM     39  C   UNL     1      -2.383   2.237   1.464  1.00  0.00     0.014 A 
ATOM     40  C   UNL     1      -4.156   0.936   3.171  1.00  0.00     0.010 A 
ATOM     41  C   UNL     1      -3.483   2.899   1.889  1.00  0.00     0.010 A 
ATOM     42  C   UNL     1      -4.424   2.195   2.627  1.00  0.00    -0.014 A 
BRANCH  42  43
ATOM     43  C   UNL     1      -5.677   2.899   2.788  1.00  0.00     0.031 A 
ATOM     44  C   UNL     1      -5.887   3.456   4.145  1.00  0.00     0.074 A 
ATOM     45  C   UNL     1      -6.322   3.330   1.683  1.00  0.00     0.049 A 
ATOM     46  N   UNL     1      -6.718   3.046   5.043  1.00  0.00    -0.248 NA
ATOM     47  C   UNL     1      -4.910   4.438   4.652  1.00  0.00     0.031 C 
ATOM     48  C   UNL     1      -5.938   3.165   0.270  1.00  0.00     0.029 A 
ATOM     49  N   UNL     1      -7.380   4.171   1.603  1.00  0.00    -0.354 N 
ATOM     50  C   UNL     1      -6.545   3.903   6.127  1.00  0.00     0.074 A 
ATOM     51  C   UNL     1      -5.255   4.507   5.939  1.00  0.00     0.031 C 
ATOM     52  C   UNL     1      -6.599   4.065  -0.487  1.00  0.00     0.029 A 
ATOM     53  C   UNL     1      -7.561   4.753   0.350  1.00  0.00     0.049 A 
ATOM     54  H   UNL     1      -7.972   4.357   2.367  1.00  0.00     0.167 HD
ATOM     55  C   UNL     1      -7.593   4.265   6.921  1.00  0.00     0.037 A 
ATOM     56  C   UNL     1      -8.401   5.786   0.090  1.00  0.00     0.037 A 
ATOM     57  C   UNL     1      -8.761   3.476   6.595  1.00  0.00     0.049 A 
ATOM     58  C   UNL     1      -9.377   5.820   1.224  1.00  0.00     0.074 A 
ATOM     59  C   UNL     1      -9.043   2.123   6.595  1.00  0.00     0.029 A 
ATOM     60  N   UNL     1      -9.708   4.061   5.781  1.00  0.00    -0.354 N 
ATOM     61  N   UNL     1     -10.215   4.845   1.481  1.00  0.00    -0.248 NA
ATOM     62  C   UNL     1      -9.057   6.670   2.364  1.00  0.00     0.031 C 
ATOM     63  C   UNL     1      -9.816   1.911   5.415  1.00  0.00     0.029 A 
ATOM     64  C   UNL     1     -10.044   3.150   4.811  1.00  0.00     0.049 A 
ATOM     65  H   UNL     1     -10.077   4.968   5.879  1.00  0.00     0.167 HD
ATOM     66  C   UNL     1     -10.207   4.708   2.867  1.00  0.00     0.074 A 
ATOM     67  C   UNL     1      -9.525   5.906   3.358  1.00  0.00     0.031 C 
ATOM     68  C   UNL     1     -10.464   3.506   3.469  1.00  0.00     0.037 A 
BRANCH  55  69
ATOM     69  C   UNL     1      -7.712   5.553   7.709  1.00  0.00     0.058 A 
ATOM     70  C   UNL     1      -8.825   5.715   8.563  1.00  0.00     0.135 A 
ATOM     71  C   UNL     1      -6.955   6.723   7.482  1.00  0.00     0.135 A 
ATOM     72  F   UNL     1      -9.603   4.668   8.882  1.00  0.00    -0.206 F 
ATOM     73  C   UNL     1      -9.222   6.959   9.052  1.00  0.00     0.059 A 
ATOM     74  C   UNL     1      -7.301   7.964   8.006  1.00  0.00     0.059 A 
ATOM     75  F   UNL     1      -5.896   6.759   6.668  1.00  0.00    -0.206 F 
ATOM     76  C   UNL     1      -8.466   8.083   8.743  1.00  0.00     0.060 A 
BRANCH  76  77
ATOM     77  S   UNL     1      -9.049   9.708   9.247  1.00  0.00     0.124 S 
ATOM     78  O   UNL     1     -10.224   9.868   8.398  1.00  0.00    -0.237 OA
ATOM     79  O   UNL     1      -9.307   9.510  10.669  1.00  0.00    -0.237 OA
ATOM     80  O   UNL     1      -7.921  10.581   8.935  1.00  0.00    -0.744 OA
ENDBRANCH  76  77
ENDBRANCH  55  69
BRANCH  56  81
ATOM     81  C   UNL     1      -8.156   6.923  -0.840  1.00  0.00     0.058 A 
ATOM     82  C   UNL     1      -9.184   7.806  -1.212  1.00  0.00     0.135 A 
ATOM     83  C   UNL     1      -6.847   7.320  -1.196  1.00  0.00     0.135 A 
ATOM     84  F   UNL     1     -10.458   7.523  -0.899  1.00  0.00    -0.206 F 
ATOM     85  C   UNL     1      -8.929   9.024  -1.859  1.00  0.00     0.059 A 
ATOM     86  C   UNL     1      -6.570   8.520  -1.850  1.00  0.00     0.059 A 
ATOM     87  F   UNL     1      -5.779   6.592  -0.838  1.00  0.00    -0.206 F 
ATOM     88  C   UNL     1      -7.614   9.381  -2.157  1.00  0.00     0.060 A 
BRANCH  88  89
ATOM     89  S   UNL     1      -7.257  11.021  -2.834  1.00  0.00     0.124 S 
ATOM     90  O   UNL     1      -7.816  10.922  -4.178  1.00  0.00    -0.237 OA
ATOM     91  O   UNL     1      -7.968  11.897  -1.909  1.00  0.00    -0.237 OA
ATOM     92  O   UNL     1      -5.800  11.104  -2.770  1.00  0.00    -0.744 OA
ENDBRANCH  88  89
ENDBRANCH  56  81
BRANCH  68  93
ATOM     93  C   UNL     1     -11.008   2.370   2.633  1.00  0.00     0.058 A 
ATOM     94  C   UNL     1     -10.293   1.729   1.604  1.00  0.00     0.135 A 
ATOM     95  C   UNL     1     -12.205   1.765   3.041  1.00  0.00     0.135 A 
ATOM     96  F   UNL     1      -9.092   2.174   1.220  1.00  0.00    -0.206 F 
ATOM     97  C   UNL     1     -10.755   0.560   0.995  1.00  0.00     0.059 A 
ATOM     98  C   UNL     1     -12.671   0.583   2.471  1.00  0.00     0.059 A 
ATOM     99  F   UNL     1     -12.904   2.286   4.063  1.00  0.00    -0.206 F 
ATOM    100  C   UNL     1     -11.944  -0.011   1.442  1.00  0.00     0.060 A 
BRANCH 100 101
ATOM    101  S   UNL     1     -12.491  -1.575   0.724  1.00  0.00     0.124 S 
ATOM    102  O   UNL     1     -12.919  -1.165  -0.610  1.00  0.00    -0.237 OA
ATOM    103  O   UNL     1     -11.280  -2.390   0.778  1.00  0.00    -0.237 OA
ATOM    104  O   UNL     1     -13.562  -2.005   1.619  1.00  0.00    -0.744 OA
ENDBRANCH 100 101
ENDBRANCH  68  93
ENDBRANCH  42  43
ENDBRANCH  34  37
ENDBRANCH  32  33
ENDBRANCH  31  32
ENDBRANCH  30  31
ENDBRANCH   1  30
TORSDOF 20
