REMARK SMILES O=C(NCCCCNC(=O)[C@H]1C[NH2+]CCN1c1ncc(C(F)(F)F)cc1Cl)c1ccc(-c2c3nc(c(-c4c(F)cc(S(=O)(=O)[O-])cc4F)c4ccc([nH]4)c(-c4c(F)cc(S(=O)(=O)[O-])cc4F)c4nc(c(-c5c(F)cc(S(=O)(=O)[O-])cc5F)c5ccc2[nH]5)C=C4)C=C3)cc1
REMARK SMILES IDX 5 1 4 2 3 3 1 4 2 5 28 7 29 8 93 9 30 10 92 11 31 12 32 13
REMARK SMILES IDX 33 14 86 15 34 16 91 17 85 18 87 19 35 20 90 21 84 22 83 23
REMARK SMILES IDX 36 25 70 26 49 27 69 28 50 29 53 30 68 31 88 32 51 33 52 34
REMARK SMILES IDX 67 36 89 37 54 38 37 39 38 40 47 41 39 42 40 43 46 44 48 45
REMARK SMILES IDX 41 46 42 47 43 48 44 49 45 50 71 51 72 52 81 53 73 54 74 55
REMARK SMILES IDX 80 56 82 57 75 58 76 59 77 60 78 61 79 62 55 63 56 64 65 65
REMARK SMILES IDX 57 66 58 67 64 68 66 69 59 70 60 71 61 72 62 73 63 74 6 75
REMARK SMILES IDX 7 76 8 77 9 78 10 80 11 81 12 82 16 83 13 84 15 85 14 86
REMARK SMILES IDX 17 89 18 90 26 91 19 92 25 93 27 94 20 95 21 96 22 97 23 98
REMARK SMILES IDX 24 99
REMARK H PARENT 3 6 87 24 53 35 8 79 13 87 13 88
REMARK Flexibility Score: inf
ROOT
ATOM      1  C   UNL     1       7.559  -1.266   6.734  1.00  0.00     0.023 C 
ENDROOT
BRANCH   1   2
ATOM      2  C   UNL     1       9.047  -1.215   7.069  1.00  0.00     0.116 C 
BRANCH   2   3
ATOM      3  N   UNL     1       9.781  -0.281   6.232  1.00  0.00    -0.352 N 
ATOM      4  O   UNL     1      10.968   1.558   5.719  1.00  0.00    -0.269 OA
ATOM      5  C   UNL     1      10.552   0.797   6.590  1.00  0.00     0.251 C 
ATOM      6  H   UNL     1       9.715  -0.446   5.264  1.00  0.00     0.163 HD
BRANCH   5   7
ATOM      7  C   UNL     1      10.858   1.060   8.013  1.00  0.00     0.039 A 
ATOM      8  C   UNL     1      11.293   0.037   8.861  1.00  0.00     0.014 A 
ATOM      9  C   UNL     1      10.729   2.364   8.498  1.00  0.00     0.014 A 
ATOM     10  C   UNL     1      11.481   0.293  10.219  1.00  0.00     0.010 A 
ATOM     11  C   UNL     1      10.980   2.632   9.846  1.00  0.00     0.010 A 
ATOM     12  C   UNL     1      11.330   1.593  10.724  1.00  0.00    -0.014 A 
BRANCH  12  13
ATOM     13  C   UNL     1      11.572   1.878  12.161  1.00  0.00     0.031 A 
ATOM     14  C   UNL     1      10.450   2.339  13.049  1.00  0.00     0.074 A 
ATOM     15  C   UNL     1      12.818   1.756  12.656  1.00  0.00     0.049 A 
ATOM     16  N   UNL     1      10.491   2.727  14.298  1.00  0.00    -0.248 NA
ATOM     17  C   UNL     1       9.107   2.379  12.451  1.00  0.00     0.031 C 
ATOM     18  C   UNL     1      13.987   1.317  11.891  1.00  0.00     0.029 A 
ATOM     19  N   UNL     1      13.314   2.003  13.910  1.00  0.00    -0.354 N 
ATOM     20  C   UNL     1       9.189   3.081  14.630  1.00  0.00     0.074 A 
ATOM     21  C   UNL     1       8.384   2.881  13.443  1.00  0.00     0.031 C 
ATOM     22  C   UNL     1      15.063   1.325  12.691  1.00  0.00     0.029 A 
ATOM     23  C   UNL     1      14.673   1.823  14.007  1.00  0.00     0.049 A 
ATOM     24  H   UNL     1      12.751   2.283  14.668  1.00  0.00     0.167 HD
ATOM     25  C   UNL     1       8.710   3.529  15.817  1.00  0.00     0.037 A 
ATOM     26  C   UNL     1      15.520   2.065  15.026  1.00  0.00     0.037 A 
ATOM     27  C   UNL     1       9.522   3.720  16.993  1.00  0.00     0.049 A 
ATOM     28  C   UNL     1      14.978   2.590  16.323  1.00  0.00     0.074 A 
ATOM     29  C   UNL     1       9.128   4.138  18.252  1.00  0.00     0.029 A 
ATOM     30  N   UNL     1      10.894   3.516  17.052  1.00  0.00    -0.354 N 
ATOM     31  N   UNL     1      13.739   2.892  16.632  1.00  0.00    -0.248 NA
ATOM     32  C   UNL     1      15.940   2.806  17.411  1.00  0.00     0.031 C 
ATOM     33  C   UNL     1      10.267   4.233  19.058  1.00  0.00     0.029 A 
ATOM     34  C   UNL     1      11.365   3.821  18.319  1.00  0.00     0.049 A 
ATOM     35  H   UNL     1      11.450   3.202  16.303  1.00  0.00     0.167 HD
ATOM     36  C   UNL     1      13.768   3.308  17.958  1.00  0.00     0.074 A 
ATOM     37  C   UNL     1      15.148   3.220  18.392  1.00  0.00     0.031 C 
ATOM     38  C   UNL     1      12.741   3.716  18.743  1.00  0.00     0.037 A 
BRANCH  25  39
ATOM     39  C   UNL     1       7.248   3.879  15.888  1.00  0.00     0.058 A 
ATOM     40  C   UNL     1       6.245   2.897  15.841  1.00  0.00     0.135 A 
ATOM     41  C   UNL     1       6.843   5.219  16.009  1.00  0.00     0.135 A 
ATOM     42  F   UNL     1       6.573   1.601  15.717  1.00  0.00    -0.206 F 
ATOM     43  C   UNL     1       4.895   3.234  15.861  1.00  0.00     0.059 A 
ATOM     44  C   UNL     1       5.499   5.577  16.059  1.00  0.00     0.059 A 
ATOM     45  F   UNL     1       7.758   6.199  16.066  1.00  0.00    -0.206 F 
ATOM     46  C   UNL     1       4.532   4.578  15.959  1.00  0.00     0.060 A 
BRANCH  46  47
ATOM     47  S   UNL     1       2.777   5.005  15.935  1.00  0.00     0.124 S 
ATOM     48  O   UNL     1       2.452   4.810  14.525  1.00  0.00    -0.237 OA
ATOM     49  O   UNL     1       2.204   4.029  16.857  1.00  0.00    -0.237 OA
ATOM     50  O   UNL     1       2.757   6.388  16.399  1.00  0.00    -0.744 OA
ENDBRANCH  46  47
ENDBRANCH  25  39
BRANCH  26  51
ATOM     51  C   UNL     1      16.971   1.807  14.833  1.00  0.00     0.058 A 
ATOM     52  C   UNL     1      17.594   0.703  15.429  1.00  0.00     0.135 A 
ATOM     53  C   UNL     1      17.741   2.613  13.979  1.00  0.00     0.135 A 
ATOM     54  F   UNL     1      16.900  -0.093  16.258  1.00  0.00    -0.206 F 
ATOM     55  C   UNL     1      18.927   0.398  15.178  1.00  0.00     0.059 A 
ATOM     56  C   UNL     1      19.068   2.315  13.693  1.00  0.00     0.059 A 
ATOM     57  F   UNL     1      17.183   3.672  13.370  1.00  0.00    -0.206 F 
ATOM     58  C   UNL     1      19.653   1.204  14.298  1.00  0.00     0.060 A 
BRANCH  58  59
ATOM     59  S   UNL     1      21.353   0.740  13.902  1.00  0.00     0.124 S 
ATOM     60  O   UNL     1      22.049   1.092  15.134  1.00  0.00    -0.237 OA
ATOM     61  O   UNL     1      21.224  -0.688  13.626  1.00  0.00    -0.237 OA
ATOM     62  O   UNL     1      21.665   1.568  12.741  1.00  0.00    -0.744 OA
ENDBRANCH  58  59
ENDBRANCH  26  51
BRANCH  38  63
ATOM     63  C   UNL     1      13.048   4.058  20.174  1.00  0.00     0.058 A 
ATOM     64  C   UNL     1      13.682   5.257  20.530  1.00  0.00     0.135 A 
ATOM     65  C   UNL     1      12.617   3.209  21.207  1.00  0.00     0.135 A 
ATOM     66  F   UNL     1      14.122   6.097  19.580  1.00  0.00    -0.206 F 
ATOM     67  C   UNL     1      13.878   5.605  21.863  1.00  0.00     0.059 A 
ATOM     68  C   UNL     1      12.783   3.547  22.546  1.00  0.00     0.059 A 
ATOM     69  F   UNL     1      12.002   2.052  20.919  1.00  0.00    -0.206 F 
ATOM     70  C   UNL     1      13.417   4.747  22.865  1.00  0.00     0.060 A 
BRANCH  70  71
ATOM     71  S   UNL     1      13.610   5.245  24.590  1.00  0.00     0.124 S 
ATOM     72  O   UNL     1      15.040   5.038  24.798  1.00  0.00    -0.237 OA
ATOM     73  O   UNL     1      13.168   6.635  24.566  1.00  0.00    -0.237 OA
ATOM     74  O   UNL     1      12.732   4.327  25.309  1.00  0.00    -0.744 OA
ENDBRANCH  70  71
ENDBRANCH  38  63
ENDBRANCH  12  13
ENDBRANCH   5   7
ENDBRANCH   2   3
ENDBRANCH   1   2
BRANCH   1  75
ATOM     75  C   UNL     1       7.210  -1.672   5.298  1.00  0.00     0.023 C 
BRANCH  75  76
ATOM     76  C   UNL     1       7.851  -2.966   4.803  1.00  0.00     0.116 C 
BRANCH  76  77
ATOM     77  N   UNL     1       7.523  -4.098   5.645  1.00  0.00    -0.354 N 
ATOM     78  C   UNL     1       6.965  -5.301   5.333  1.00  0.00     0.248 C 
ATOM     79  H   UNL     1       7.738  -3.978   6.598  1.00  0.00     0.163 HD
ATOM     80  O   UNL     1       6.824  -6.104   6.263  1.00  0.00    -0.272 OA
BRANCH  78  81
ATOM     81  C   UNL     1       6.531  -5.636   3.884  1.00  0.00     0.228 C 
ATOM     82  C   UNL     1       6.864  -7.130   3.595  1.00  0.00     0.296 C 
ATOM     83  N   UNL     1       5.079  -5.441   3.700  1.00  0.00    -0.333 N 
ATOM     84  N   UNL     1       6.031  -8.121   4.324  1.00  0.00    -0.343 N 
ATOM     85  C   UNL     1       4.198  -6.348   4.435  1.00  0.00     0.180 C 
ATOM     86  C   UNL     1       4.599  -7.810   4.110  1.00  0.00     0.282 C 
ATOM     87  H   UNL     1       6.243  -8.078   5.320  1.00  0.00     0.346 HD
ATOM     88  H   UNL     1       6.232  -9.058   3.975  1.00  0.00     0.346 HD
BRANCH  83  89
ATOM     89  C   UNL     1       4.550  -4.315   3.121  1.00  0.00     0.148 A 
ATOM     90  N   UNL     1       3.726  -3.557   3.885  1.00  0.00    -0.237 NA
ATOM     91  C   UNL     1       4.768  -3.985   1.773  1.00  0.00     0.084 A 
ATOM     92  C   UNL     1       3.138  -2.466   3.334  1.00  0.00     0.126 A 
ATOM     93  C   UNL     1       4.139  -2.865   1.223  1.00  0.00     0.039 A 
ATOM     94  Cl  UNL     1       5.702  -4.970   0.701  1.00  0.00    -0.080 Cl
ATOM     95  C   UNL     1       3.303  -2.079   2.015  1.00  0.00     0.075 A 
BRANCH  95  96
ATOM     96  C   UNL     1       2.594  -0.872   1.486  1.00  0.00     0.417 C 
ATOM     97  F   UNL     1       1.246  -0.938   1.661  1.00  0.00    -0.166 F 
ATOM     98  F   UNL     1       2.999   0.277   2.088  1.00  0.00    -0.166 F 
ATOM     99  F   UNL     1       2.784  -0.681   0.150  1.00  0.00    -0.166 F 
ENDBRANCH  95  96
ENDBRANCH  83  89
ENDBRANCH  78  81
ENDBRANCH  76  77
ENDBRANCH  75  76
ENDBRANCH   1  75
TORSDOF 16
