REMARK SMILES CCC[C@H](C)C[N@H+]1[C@@H]2CC[C@H]1C[C@H](CC(=O)NCCCCNC(=O)c1ccc(-c3c4nc(c(-c5c(F)cc(S(=O)(=O)[O-])cc5F)c5ccc([nH]5)c(-c5c(F)cc(S(=O)(=O)[O-])cc5F)c5nc(c(-c6c(F)cc(S(=O)(=O)[O-])cc6F)c6ccc3[nH]6)C=C5)C=C4)cc1)C2
REMARK SMILES IDX 18 1 17 2 15 3 16 4 14 6 13 7 7 8 8 9 11 10 9 12 91 13 10 14
REMARK SMILES IDX 12 15 6 16 4 17 5 18 3 19 2 20 1 21 19 22 20 23 21 24 22 25
REMARK SMILES IDX 23 26 24 28 25 29 26 30 90 31 27 32 89 33 28 34 29 35 30 36
REMARK SMILES IDX 83 37 31 38 88 39 82 40 84 41 32 42 87 43 81 44 80 45 33 47
REMARK SMILES IDX 67 48 46 49 66 50 47 51 50 52 65 53 85 54 48 55 49 56 64 58
REMARK SMILES IDX 86 59 51 60 34 61 35 62 44 63 36 64 37 65 43 66 45 67 38 68
REMARK SMILES IDX 39 69 40 70 41 71 42 72 68 73 69 74 78 75 70 76 71 77 77 78
REMARK SMILES IDX 79 79 72 80 73 81 74 82 75 83 76 84 52 85 53 86 62 87 54 88
REMARK SMILES IDX 55 89 61 90 63 91 56 92 57 93 58 94 59 95 60 96
REMARK H PARENT 17 5 7 11 22 27 84 46 50 57
REMARK Flexibility Score: inf
ROOT
ATOM      1  C   UNL     1       0.884   7.559  -4.034  1.00  0.00     0.116 C 
ENDROOT
BRANCH   1   2
ATOM      2  N   UNL     1       1.600   7.057  -5.196  1.00  0.00    -0.356 N 
ATOM      3  C   UNL     1       2.037   5.800  -5.494  1.00  0.00     0.220 C 
ATOM      4  O   UNL     1       2.723   5.641  -6.505  1.00  0.00    -0.275 OA
ATOM      5  H   UNL     1       1.803   7.737  -5.879  1.00  0.00     0.163 HD
BRANCH   3   6
ATOM      6  C   UNL     1       1.672   4.615  -4.618  1.00  0.00     0.104 C 
BRANCH   6   7
ATOM      7  C   UNL     1       2.773   4.188  -3.623  1.00  0.00     0.010 C 
ATOM      8  N   UNL     1       2.678   3.581  -0.689  1.00  0.00    -0.330 N 
ATOM      9  C   UNL     1       3.050   2.539  -1.655  1.00  0.00     0.184 C 
ATOM     10  C   UNL     1       3.461   4.735  -1.155  1.00  0.00     0.184 C 
ATOM     11  H   UNL     1       2.887   3.272   0.260  1.00  0.00     0.348 HD
ATOM     12  C   UNL     1       4.583   2.676  -1.664  1.00  0.00     0.071 C 
ATOM     13  C   UNL     1       2.451   2.794  -3.048  1.00  0.00     0.069 C 
ATOM     14  C   UNL     1       4.853   4.128  -1.276  1.00  0.00     0.071 C 
ATOM     15  C   UNL     1       2.977   5.240  -2.521  1.00  0.00     0.069 C 
BRANCH   8  16
ATOM     16  C   UNL     1       1.252   3.872  -0.489  1.00  0.00     0.265 C 
BRANCH  16  17
ATOM     17  C   UNL     1       0.348   2.657  -0.178  1.00  0.00     0.041 C 
ATOM     18  C   UNL     1       0.835   1.911   1.071  1.00  0.00     0.013 C 
BRANCH  17  19
ATOM     19  C   UNL     1      -1.146   3.027   0.017  1.00  0.00     0.009 C 
BRANCH  19  20
ATOM     20  C   UNL     1      -1.748   4.111  -0.885  1.00  0.00    -0.003 C 
ATOM     21  C   UNL     1      -1.744   3.781  -2.368  1.00  0.00     0.004 C 
ENDBRANCH  19  20
ENDBRANCH  17  19
ENDBRANCH  16  17
ENDBRANCH   8  16
ENDBRANCH   6   7
ENDBRANCH   3   6
ENDBRANCH   1   2
BRANCH   1  22
ATOM     22  C   UNL     1       1.845   8.195  -3.028  1.00  0.00     0.023 C 
BRANCH  22  23
ATOM     23  C   UNL     1       2.165   9.659  -3.262  1.00  0.00     0.023 C 
BRANCH  23  24
ATOM     24  C   UNL     1       1.033  10.592  -2.889  1.00  0.00     0.116 C 
BRANCH  24  25
ATOM     25  N   UNL     1       0.714  10.584  -1.465  1.00  0.00    -0.352 N 
ATOM     26  C   UNL     1       0.431  11.667  -0.656  1.00  0.00     0.251 C 
ATOM     27  H   UNL     1       0.698   9.702  -1.028  1.00  0.00     0.163 HD
ATOM     28  O   UNL     1       0.255  11.534   0.543  1.00  0.00    -0.269 OA
BRANCH  26  29
ATOM     29  C   UNL     1       0.404  13.001  -1.290  1.00  0.00     0.039 A 
ATOM     30  C   UNL     1       1.248  14.002  -0.805  1.00  0.00     0.014 A 
ATOM     31  C   UNL     1      -0.332  13.187  -2.462  1.00  0.00     0.014 A 
ATOM     32  C   UNL     1       1.430  15.162  -1.560  1.00  0.00     0.010 A 
ATOM     33  C   UNL     1      -0.063  14.287  -3.259  1.00  0.00     0.010 A 
ATOM     34  C   UNL     1       0.820  15.287  -2.818  1.00  0.00    -0.014 A 
BRANCH  34  35
ATOM     35  C   UNL     1       1.052  16.458  -3.700  1.00  0.00     0.031 A 
ATOM     36  C   UNL     1      -0.126  17.293  -4.121  1.00  0.00     0.074 A 
ATOM     37  C   UNL     1       2.277  16.698  -4.209  1.00  0.00     0.049 A 
ATOM     38  N   UNL     1      -0.198  18.223  -5.035  1.00  0.00    -0.248 NA
ATOM     39  C   UNL     1      -1.410  16.999  -3.460  1.00  0.00     0.031 C 
ATOM     40  C   UNL     1       3.488  15.926  -3.922  1.00  0.00     0.029 A 
ATOM     41  N   UNL     1       2.701  17.654  -5.098  1.00  0.00    -0.354 N 
ATOM     42  C   UNL     1      -1.537  18.588  -5.092  1.00  0.00     0.074 A 
ATOM     43  C   UNL     1      -2.251  17.745  -4.159  1.00  0.00     0.031 C 
ATOM     44  C   UNL     1       4.520  16.452  -4.603  1.00  0.00     0.029 A 
ATOM     45  C   UNL     1       4.038  17.570  -5.407  1.00  0.00     0.049 A 
ATOM     46  H   UNL     1       2.103  18.337  -5.479  1.00  0.00     0.167 HD
ATOM     47  C   UNL     1      -2.117  19.558  -5.836  1.00  0.00     0.037 A 
ATOM     48  C   UNL     1       4.787  18.307  -6.252  1.00  0.00     0.037 A 
ATOM     49  C   UNL     1      -1.389  20.440  -6.706  1.00  0.00     0.049 A 
ATOM     50  C   UNL     1       4.133  19.424  -7.020  1.00  0.00     0.074 A 
ATOM     51  C   UNL     1      -1.865  21.502  -7.452  1.00  0.00     0.029 A 
ATOM     52  N   UNL     1      -0.021  20.372  -6.929  1.00  0.00    -0.354 N 
ATOM     53  N   UNL     1       2.870  19.783  -7.035  1.00  0.00    -0.248 NA
ATOM     54  C   UNL     1       5.000  20.240  -7.881  1.00  0.00     0.031 C 
ATOM     55  C   UNL     1      -0.787  22.068  -8.140  1.00  0.00     0.029 A 
ATOM     56  C   UNL     1       0.365  21.377  -7.797  1.00  0.00     0.049 A 
ATOM     57  H   UNL     1       0.585  19.708  -6.528  1.00  0.00     0.167 HD
ATOM     58  C   UNL     1       2.798  20.884  -7.881  1.00  0.00     0.074 A 
ATOM     59  C   UNL     1       4.143  21.134  -8.357  1.00  0.00     0.031 C 
ATOM     60  C   UNL     1       1.717  21.622  -8.232  1.00  0.00     0.037 A 
BRANCH  47  61
ATOM     61  C   UNL     1      -3.606  19.721  -5.720  1.00  0.00     0.058 A 
ATOM     62  C   UNL     1      -4.202  20.231  -4.555  1.00  0.00     0.135 A 
ATOM     63  C   UNL     1      -4.448  19.365  -6.786  1.00  0.00     0.135 A 
ATOM     64  F   UNL     1      -3.444  20.566  -3.499  1.00  0.00    -0.206 F 
ATOM     65  C   UNL     1      -5.582  20.345  -4.435  1.00  0.00     0.059 A 
ATOM     66  C   UNL     1      -5.831  19.498  -6.698  1.00  0.00     0.059 A 
ATOM     67  F   UNL     1      -3.931  18.870  -7.921  1.00  0.00    -0.206 F 
ATOM     68  C   UNL     1      -6.389  19.972  -5.511  1.00  0.00     0.060 A 
BRANCH  68  69
ATOM     69  S   UNL     1      -8.179  20.118  -5.339  1.00  0.00     0.124 S 
ATOM     70  O   UNL     1      -8.486  18.954  -4.513  1.00  0.00    -0.237 OA
ATOM     71  O   UNL     1      -8.329  21.414  -4.686  1.00  0.00    -0.237 OA
ATOM     72  O   UNL     1      -8.658  20.055  -6.717  1.00  0.00    -0.744 OA
ENDBRANCH  68  69
ENDBRANCH  47  61
BRANCH  48  73
ATOM     73  C   UNL     1       6.242  18.038  -6.388  1.00  0.00     0.058 A 
ATOM     74  C   UNL     1       7.187  18.915  -5.833  1.00  0.00     0.135 A 
ATOM     75  C   UNL     1       6.720  16.900  -7.055  1.00  0.00     0.135 A 
ATOM     76  F   UNL     1       6.779  20.020  -5.190  1.00  0.00    -0.206 F 
ATOM     77  C   UNL     1       8.554  18.684  -5.948  1.00  0.00     0.059 A 
ATOM     78  C   UNL     1       8.082  16.636  -7.165  1.00  0.00     0.059 A 
ATOM     79  F   UNL     1       5.857  16.021  -7.587  1.00  0.00    -0.206 F 
ATOM     80  C   UNL     1       8.992  17.539  -6.616  1.00  0.00     0.060 A 
BRANCH  80  81
ATOM     81  S   UNL     1      10.768  17.221  -6.716  1.00  0.00     0.124 S 
ATOM     82  O   UNL     1      11.179  18.172  -7.742  1.00  0.00    -0.237 OA
ATOM     83  O   UNL     1      11.211  17.516  -5.357  1.00  0.00    -0.237 OA
ATOM     84  O   UNL     1      10.833  15.812  -7.095  1.00  0.00    -0.744 OA
ENDBRANCH  80  81
ENDBRANCH  48  73
BRANCH  60  85
ATOM     85  C   UNL     1       1.944  22.801  -9.131  1.00  0.00     0.058 A 
ATOM     86  C   UNL     1       2.148  22.647 -10.509  1.00  0.00     0.135 A 
ATOM     87  C   UNL     1       1.868  24.105  -8.615  1.00  0.00     0.135 A 
ATOM     88  F   UNL     1       2.232  21.420 -11.047  1.00  0.00    -0.206 F 
ATOM     89  C   UNL     1       2.276  23.748 -11.348  1.00  0.00     0.059 A 
ATOM     90  C   UNL     1       1.973  25.220  -9.438  1.00  0.00     0.059 A 
ATOM     91  F   UNL     1       1.664  24.302  -7.303  1.00  0.00    -0.206 F 
ATOM     92  C   UNL     1       2.183  25.031 -10.804  1.00  0.00     0.060 A 
BRANCH  92  93
ATOM     93  S   UNL     1       2.289  26.453 -11.911  1.00  0.00     0.124 S 
ATOM     94  O   UNL     1       3.723  26.515 -12.172  1.00  0.00    -0.237 OA
ATOM     95  O   UNL     1       1.456  26.039 -13.036  1.00  0.00    -0.237 OA
ATOM     96  O   UNL     1       1.747  27.547 -11.110  1.00  0.00    -0.744 OA
ENDBRANCH  92  93
ENDBRANCH  60  85
ENDBRANCH  34  35
ENDBRANCH  26  29
ENDBRANCH  24  25
ENDBRANCH  23  24
ENDBRANCH  22  23
ENDBRANCH   1  22
TORSDOF 19
