REMARK SMILES N#Cc1ccccc1Cn1cccc1C(=O)NCCCCNC(=O)c1ccc(-c2c3nc(c(-c4c(F)cc(S(=O)(=O)[O-])cc4F)c4ccc([nH]4)c(-c4c(F)cc(S(=O)(=O)[O-])cc4F)c4nc(c(-c5c(F)cc(S(=O)(=O)[O-])cc5F)c5ccc2[nH]5)C=C4)C=C3)cc1
REMARK SMILES IDX 19 1 18 2 17 3 15 4 16 5 14 7 10 8 11 9 12 10 13 11 9 12
REMARK SMILES IDX 8 13 3 14 4 15 5 16 7 17 6 18 2 19 1 20 20 21 21 22 22 23
REMARK SMILES IDX 23 24 24 26 25 27 26 28 90 29 27 30 89 31 28 32 29 33 30 34
REMARK SMILES IDX 83 35 31 36 88 37 82 38 84 39 32 40 87 41 81 42 80 43 33 45
REMARK SMILES IDX 67 46 46 47 66 48 47 49 50 50 65 51 85 52 48 53 49 54 64 56
REMARK SMILES IDX 86 57 51 58 34 59 35 60 44 61 36 62 37 63 43 64 45 65 38 66
REMARK SMILES IDX 39 67 40 68 41 69 42 70 68 71 69 72 78 73 70 74 71 75 77 76
REMARK SMILES IDX 79 77 72 78 73 79 74 80 75 81 76 82 52 83 53 84 62 85 54 86
REMARK SMILES IDX 55 87 61 88 63 89 56 90 57 91 58 92 59 93 60 94
REMARK H PARENT 17 6 22 25 84 44 50 55
REMARK Flexibility Score: inf
ROOT
ATOM      1  C   UNL     1      -3.124  -1.295   0.266  1.00  0.00     0.023 C 
ENDROOT
BRANCH   1   2
ATOM      2  C   UNL     1      -3.139  -2.776  -0.127  1.00  0.00     0.116 C 
BRANCH   2   3
ATOM      3  N   UNL     1      -3.185  -2.893  -1.573  1.00  0.00    -0.351 N 
ATOM      4  C   UNL     1      -2.269  -3.029  -2.584  1.00  0.00     0.267 C 
ATOM      5  O   UNL     1      -2.773  -2.995  -3.712  1.00  0.00    -0.268 OA
ATOM      6  H   UNL     1      -4.108  -2.870  -1.914  1.00  0.00     0.163 HD
BRANCH   4   7
ATOM      7  C   UNL     1      -0.839  -3.307  -2.435  1.00  0.00     0.107 A 
ATOM      8  N   UNL     1       0.164  -2.868  -1.569  1.00  0.00    -0.339 N 
ATOM      9  C   UNL     1       1.323  -3.573  -1.819  1.00  0.00     0.086 A 
ATOM     10  C   UNL     1       1.166  -4.281  -2.982  1.00  0.00     0.020 A 
ATOM     11  C   UNL     1      -0.169  -4.098  -3.376  1.00  0.00     0.033 A 
BRANCH   8  12
ATOM     12  C   UNL     1       0.035  -1.913  -0.470  1.00  0.00     0.159 C 
BRANCH  12  13
ATOM     13  C   UNL     1       0.970  -0.716  -0.409  1.00  0.00    -0.010 A 
ATOM     14  C   UNL     1       0.524   0.620  -0.563  1.00  0.00     0.057 A 
ATOM     15  C   UNL     1       1.377   1.697  -0.270  1.00  0.00     0.020 A 
ATOM     16  C   UNL     1       2.688   1.478   0.129  1.00  0.00     0.001 A 
ATOM     17  C   UNL     1       2.304  -0.906  -0.003  1.00  0.00     0.007 A 
ATOM     18  C   UNL     1       3.156   0.176   0.242  1.00  0.00     0.000 A 
BRANCH  14  19
ATOM     19  C   UNL     1      -0.801   1.005  -0.987  1.00  0.00     0.099 C 
ATOM     20  N   UNL     1      -1.827   1.411  -1.304  1.00  0.00    -0.192 NA
ENDBRANCH  14  19
ENDBRANCH  12  13
ENDBRANCH   8  12
ENDBRANCH   4   7
ENDBRANCH   2   3
ENDBRANCH   1   2
BRANCH   1  21
ATOM     21  C   UNL     1      -4.443  -0.542   0.392  1.00  0.00     0.023 C 
BRANCH  21  22
ATOM     22  C   UNL     1      -5.217  -0.863   1.652  1.00  0.00     0.116 C 
BRANCH  22  23
ATOM     23  N   UNL     1      -4.475  -0.507   2.856  1.00  0.00    -0.352 N 
ATOM     24  C   UNL     1      -4.831  -0.771   4.157  1.00  0.00     0.251 C 
ATOM     25  H   UNL     1      -3.627  -0.024   2.722  1.00  0.00     0.163 HD
ATOM     26  O   UNL     1      -4.360  -0.112   5.077  1.00  0.00    -0.269 OA
BRANCH  24  27
ATOM     27  C   UNL     1      -5.801  -1.849   4.426  1.00  0.00     0.039 A 
ATOM     28  C   UNL     1      -6.875  -1.599   5.280  1.00  0.00     0.014 A 
ATOM     29  C   UNL     1      -5.644  -3.099   3.812  1.00  0.00     0.014 A 
ATOM     30  C   UNL     1      -7.838  -2.588   5.455  1.00  0.00     0.010 A 
ATOM     31  C   UNL     1      -6.630  -4.066   3.943  1.00  0.00     0.010 A 
ATOM     32  C   UNL     1      -7.731  -3.808   4.758  1.00  0.00    -0.014 A 
BRANCH  32  33
ATOM     33  C   UNL     1      -8.917  -4.697   4.725  1.00  0.00     0.031 A 
ATOM     34  C   UNL     1     -10.038  -3.999   3.905  1.00  0.00     0.074 A 
ATOM     35  C   UNL     1      -8.853  -5.866   5.447  1.00  0.00     0.049 A 
ATOM     36  N   UNL     1     -11.286  -3.808   4.191  1.00  0.00    -0.248 NA
ATOM     37  C   UNL     1      -9.673  -3.246   2.666  1.00  0.00     0.031 C 
ATOM     38  C   UNL     1      -7.617  -6.432   6.044  1.00  0.00     0.029 A 
ATOM     39  N   UNL     1      -9.772  -6.830   5.827  1.00  0.00    -0.354 N 
ATOM     40  C   UNL     1     -11.898  -3.167   3.082  1.00  0.00     0.074 A 
ATOM     41  C   UNL     1     -10.823  -2.686   2.271  1.00  0.00     0.031 C 
ATOM     42  C   UNL     1      -7.879  -7.542   6.775  1.00  0.00     0.029 A 
ATOM     43  C   UNL     1      -9.301  -7.816   6.754  1.00  0.00     0.049 A 
ATOM     44  H   UNL     1     -10.693  -6.838   5.480  1.00  0.00     0.167 HD
ATOM     45  C   UNL     1     -13.242  -3.263   2.828  1.00  0.00     0.037 A 
ATOM     46  C   UNL     1     -10.020  -8.729   7.497  1.00  0.00     0.037 A 
ATOM     47  C   UNL     1     -13.824  -4.091   3.832  1.00  0.00     0.049 A 
ATOM     48  C   UNL     1     -11.397  -8.552   7.026  1.00  0.00     0.074 A 
ATOM     49  C   UNL     1     -14.025  -3.918   5.176  1.00  0.00     0.029 A 
ATOM     50  N   UNL     1     -13.868  -5.431   3.525  1.00  0.00    -0.354 N 
ATOM     51  N   UNL     1     -11.851  -8.964   5.882  1.00  0.00    -0.248 NA
ATOM     52  C   UNL     1     -12.297  -7.722   7.838  1.00  0.00     0.031 C 
ATOM     53  C   UNL     1     -13.627  -5.165   5.697  1.00  0.00     0.029 A 
ATOM     54  C   UNL     1     -13.550  -6.111   4.667  1.00  0.00     0.049 A 
ATOM     55  H   UNL     1     -14.086  -5.825   2.650  1.00  0.00     0.167 HD
ATOM     56  C   UNL     1     -12.940  -8.150   5.705  1.00  0.00     0.074 A 
ATOM     57  C   UNL     1     -13.340  -7.684   7.017  1.00  0.00     0.031 C 
ATOM     58  C   UNL     1     -13.080  -7.465   4.543  1.00  0.00     0.037 A 
BRANCH  45  59
ATOM     59  C   UNL     1     -14.116  -3.014   1.615  1.00  0.00     0.058 A 
ATOM     60  C   UNL     1     -15.524  -3.120   1.796  1.00  0.00     0.135 A 
ATOM     61  C   UNL     1     -13.670  -3.065   0.288  1.00  0.00     0.135 A 
ATOM     62  F   UNL     1     -16.075  -2.999   3.017  1.00  0.00    -0.206 F 
ATOM     63  C   UNL     1     -16.398  -3.442   0.765  1.00  0.00     0.059 A 
ATOM     64  C   UNL     1     -14.544  -3.332  -0.775  1.00  0.00     0.059 A 
ATOM     65  F   UNL     1     -12.373  -2.927  -0.012  1.00  0.00    -0.206 F 
ATOM     66  C   UNL     1     -15.892  -3.577  -0.518  1.00  0.00     0.060 A 
BRANCH  66  67
ATOM     67  S   UNL     1     -17.032  -4.077  -1.826  1.00  0.00     0.124 S 
ATOM     68  O   UNL     1     -17.280  -5.474  -1.490  1.00  0.00    -0.237 OA
ATOM     69  O   UNL     1     -18.157  -3.169  -1.613  1.00  0.00    -0.237 OA
ATOM     70  O   UNL     1     -16.268  -3.838  -3.045  1.00  0.00    -0.744 OA
ENDBRANCH  66  67
ENDBRANCH  45  59
BRANCH  46  71
ATOM     71  C   UNL     1      -9.858  -9.671   8.694  1.00  0.00     0.058 A 
ATOM     72  C   UNL     1      -8.662 -10.119   9.265  1.00  0.00     0.135 A 
ATOM     73  C   UNL     1     -11.020 -10.101   9.413  1.00  0.00     0.135 A 
ATOM     74  F   UNL     1      -7.497  -9.956   8.623  1.00  0.00    -0.206 F 
ATOM     75  C   UNL     1      -8.617 -10.762  10.529  1.00  0.00     0.059 A 
ATOM     76  C   UNL     1     -11.003 -10.672  10.683  1.00  0.00     0.059 A 
ATOM     77  F   UNL     1     -12.256  -9.962   8.915  1.00  0.00    -0.206 F 
ATOM     78  C   UNL     1      -9.790 -10.966  11.262  1.00  0.00     0.060 A 
BRANCH  78  79
ATOM     79  S   UNL     1      -9.751 -11.471  13.001  1.00  0.00     0.124 S 
ATOM     80  O   UNL     1      -9.583 -12.915  12.902  1.00  0.00    -0.237 OA
ATOM     81  O   UNL     1      -8.605 -10.728  13.515  1.00  0.00    -0.237 OA
ATOM     82  O   UNL     1     -11.046 -11.023  13.510  1.00  0.00    -0.744 OA
ENDBRANCH  78  79
ENDBRANCH  46  71
BRANCH  58  83
ATOM     83  C   UNL     1     -12.446  -8.097   3.319  1.00  0.00     0.058 A 
ATOM     84  C   UNL     1     -12.937  -9.330   2.861  1.00  0.00     0.135 A 
ATOM     85  C   UNL     1     -11.351  -7.568   2.610  1.00  0.00     0.135 A 
ATOM     86  F   UNL     1     -13.979  -9.904   3.483  1.00  0.00    -0.206 F 
ATOM     87  C   UNL     1     -12.393  -9.991   1.757  1.00  0.00     0.059 A 
ATOM     88  C   UNL     1     -10.785  -8.210   1.498  1.00  0.00     0.059 A 
ATOM     89  F   UNL     1     -10.798  -6.408   2.979  1.00  0.00    -0.206 F 
ATOM     90  C   UNL     1     -11.321  -9.420   1.073  1.00  0.00     0.060 A 
BRANCH  90  91
ATOM     91  S   UNL     1     -10.678 -10.269  -0.391  1.00  0.00     0.124 S 
ATOM     92  O   UNL     1     -10.262 -11.558   0.152  1.00  0.00    -0.237 OA
ATOM     93  O   UNL     1     -11.847 -10.301  -1.263  1.00  0.00    -0.237 OA
ATOM     94  O   UNL     1      -9.588  -9.406  -0.840  1.00  0.00    -0.744 OA
ENDBRANCH  90  91
ENDBRANCH  58  83
ENDBRANCH  32  33
ENDBRANCH  24  27
ENDBRANCH  22  23
ENDBRANCH  21  22
ENDBRANCH   1  21
TORSDOF 17
