REMARK SMILES COc1cc(C=C2C(=O)N(C)C(=S)N(C)C2=O)c(Br)cc1OCC(=O)NCCCCNC(=O)c1ccc(-c2c3nc(c(-c4c(F)cc(S(=O)(=O)[O-])cc4F)c4ccc([nH]4)c(-c4c(F)cc(S(=O)(=O)[O-])cc4F)c4nc(c(-c5c(F)cc(S(=O)(=O)[O-])cc5F)c5ccc2[nH]5)C=C4)C=C3)cc1
REMARK SMILES IDX 28 1 27 2 26 3 24 4 25 5 23 7 22 8 21 9 3 10 4 11 5 12 20 13
REMARK SMILES IDX 18 14 19 15 2 16 1 17 6 18 7 19 8 20 16 21 9 22 10 23 14 24
REMARK SMILES IDX 17 25 11 26 12 27 15 28 13 29 29 30 30 31 31 32 32 33 33 35
REMARK SMILES IDX 34 36 35 37 99 38 36 39 98 40 37 41 38 42 39 43 92 44 40 45
REMARK SMILES IDX 97 46 91 47 93 48 41 49 96 50 90 51 89 52 42 54 76 55 55 56
REMARK SMILES IDX 75 57 56 58 59 59 74 60 94 61 57 62 58 63 73 65 95 66 60 67
REMARK SMILES IDX 43 68 44 69 53 70 45 71 46 72 52 73 54 74 47 75 48 76 49 77
REMARK SMILES IDX 50 78 51 79 77 80 78 81 87 82 79 83 80 84 86 85 88 86 81 87
REMARK SMILES IDX 82 88 83 89 84 90 85 91 61 92 62 93 71 94 63 95 64 96 70 97
REMARK SMILES IDX 72 98 65 99 66 100 67 101 68 102 69 103
REMARK H PARENT 26 6 31 34 93 53 59 64
REMARK Flexibility Score: inf
ROOT
ATOM      1  C   UNL     1      -1.497  -5.795  -1.036  1.00  0.00     0.023 C 
ENDROOT
BRANCH   1   2
ATOM      2  C   UNL     1      -2.479  -4.867  -0.328  1.00  0.00     0.116 C 
BRANCH   2   3
ATOM      3  N   UNL     1      -1.850  -4.021   0.663  1.00  0.00    -0.353 N 
ATOM      4  C   UNL     1      -1.695  -2.664   0.644  1.00  0.00     0.257 C 
ATOM      5  O   UNL     1      -1.355  -2.106   1.690  1.00  0.00    -0.271 OA
ATOM      6  H   UNL     1      -1.486  -4.483   1.452  1.00  0.00     0.163 HD
BRANCH   4   7
ATOM      7  C   UNL     1      -2.042  -1.866  -0.627  1.00  0.00     0.329 C 
BRANCH   7   8
ATOM      8  O   UNL     1      -1.564  -2.312  -1.886  1.00  0.00    -0.480 OA
BRANCH   8   9
ATOM      9  C   UNL     1      -0.236  -2.219  -2.191  1.00  0.00     0.163 A 
ATOM     10  C   UNL     1       0.797  -1.707  -1.419  1.00  0.00     0.161 A 
ATOM     11  C   UNL     1       2.127  -1.838  -1.849  1.00  0.00     0.059 A 
ATOM     12  C   UNL     1       2.486  -2.333  -3.110  1.00  0.00    -0.006 A 
ATOM     13  C   UNL     1       0.087  -2.728  -3.453  1.00  0.00     0.066 A 
ATOM     14  C   UNL     1       1.416  -2.767  -3.918  1.00  0.00     0.029 A 
ATOM     15  Br  UNL     1       1.648  -3.468  -5.677  1.00  0.00    -0.050 Br
BRANCH  10  16
ATOM     16  O   UNL     1       0.563  -1.145  -0.196  1.00  0.00    -0.493 OA
ATOM     17  C   UNL     1       1.062   0.191  -0.093  1.00  0.00     0.278 C 
ENDBRANCH  10  16
BRANCH  12  18
ATOM     18  C   UNL     1       3.915  -2.469  -3.520  1.00  0.00     0.029 C 
ATOM     19  C   UNL     1       5.069  -2.075  -2.936  1.00  0.00     0.106 C 
ATOM     20  C   UNL     1       5.190  -1.326  -1.685  1.00  0.00     0.265 C 
ATOM     21  C   UNL     1       6.343  -2.564  -3.496  1.00  0.00     0.265 C 
ATOM     22  O   UNL     1       4.650  -0.238  -1.513  1.00  0.00    -0.268 OA
ATOM     23  N   UNL     1       5.974  -1.984  -0.753  1.00  0.00    -0.288 N 
ATOM     24  N   UNL     1       7.315  -2.841  -2.528  1.00  0.00    -0.288 N 
ATOM     25  O   UNL     1       6.478  -2.739  -4.704  1.00  0.00    -0.268 OA
ATOM     26  C   UNL     1       5.550  -1.769   0.632  1.00  0.00     0.156 C 
ATOM     27  C   UNL     1       7.127  -2.695  -1.126  1.00  0.00     0.185 C 
ATOM     28  C   UNL     1       8.569  -3.393  -3.046  1.00  0.00     0.156 C 
ATOM     29  S   UNL     1       8.233  -3.297   0.006  1.00  0.00    -0.040 S 
ENDBRANCH  12  18
ENDBRANCH   8   9
ENDBRANCH   7   8
ENDBRANCH   4   7
ENDBRANCH   2   3
ENDBRANCH   1   2
BRANCH   1  30
ATOM     30  C   UNL     1      -0.733  -6.775  -0.138  1.00  0.00     0.023 C 
BRANCH  30  31
ATOM     31  C   UNL     1      -1.562  -7.578   0.864  1.00  0.00     0.116 C 
BRANCH  31  32
ATOM     32  N   UNL     1      -2.673  -8.292   0.262  1.00  0.00    -0.352 N 
ATOM     33  C   UNL     1      -3.185  -9.535   0.544  1.00  0.00     0.251 C 
ATOM     34  H   UNL     1      -3.133  -7.809  -0.463  1.00  0.00     0.163 HD
ATOM     35  O   UNL     1      -4.110  -9.964  -0.142  1.00  0.00    -0.269 OA
BRANCH  33  36
ATOM     36  C   UNL     1      -2.615 -10.379   1.622  1.00  0.00     0.039 A 
ATOM     37  C   UNL     1      -2.454 -11.745   1.369  1.00  0.00     0.014 A 
ATOM     38  C   UNL     1      -2.261  -9.862   2.872  1.00  0.00     0.014 A 
ATOM     39  C   UNL     1      -1.884 -12.576   2.337  1.00  0.00     0.010 A 
ATOM     40  C   UNL     1      -1.639 -10.681   3.818  1.00  0.00     0.010 A 
ATOM     41  C   UNL     1      -1.439 -12.045   3.558  1.00  0.00    -0.014 A 
BRANCH  41  42
ATOM     42  C   UNL     1      -0.738 -12.910   4.543  1.00  0.00     0.031 A 
ATOM     43  C   UNL     1      -1.365 -13.240   5.869  1.00  0.00     0.074 A 
ATOM     44  C   UNL     1       0.492 -13.377   4.248  1.00  0.00     0.049 A 
ATOM     45  N   UNL     1      -0.903 -13.996   6.833  1.00  0.00    -0.248 NA
ATOM     46  C   UNL     1      -2.668 -12.625   6.161  1.00  0.00     0.031 C 
ATOM     47  C   UNL     1       1.239 -13.077   3.024  1.00  0.00     0.029 A 
ATOM     48  N   UNL     1       1.330 -14.203   4.953  1.00  0.00    -0.354 N 
ATOM     49  C   UNL     1      -1.851 -13.942   7.848  1.00  0.00     0.074 A 
ATOM     50  C   UNL     1      -2.894 -13.044   7.398  1.00  0.00     0.031 C 
ATOM     51  C   UNL     1       2.411 -13.732   3.052  1.00  0.00     0.029 A 
ATOM     52  C   UNL     1       2.506 -14.483   4.300  1.00  0.00     0.049 A 
ATOM     53  H   UNL     1       1.110 -14.562   5.843  1.00  0.00     0.167 HD
ATOM     54  C   UNL     1      -1.863 -14.595   9.035  1.00  0.00     0.037 A 
ATOM     55  C   UNL     1       3.541 -15.268   4.657  1.00  0.00     0.037 A 
ATOM     56  C   UNL     1      -0.838 -15.508   9.473  1.00  0.00     0.049 A 
ATOM     57  C   UNL     1       3.481 -16.022   5.955  1.00  0.00     0.074 A 
ATOM     58  C   UNL     1      -0.791 -16.262  10.633  1.00  0.00     0.029 A 
ATOM     59  N   UNL     1       0.322 -15.794   8.767  1.00  0.00    -0.354 N 
ATOM     60  N   UNL     1       2.544 -16.011   6.872  1.00  0.00    -0.248 NA
ATOM     61  C   UNL     1       4.613 -16.909   6.258  1.00  0.00     0.031 C 
ATOM     62  C   UNL     1       0.408 -16.986  10.640  1.00  0.00     0.029 A 
ATOM     63  C   UNL     1       1.094 -16.705   9.470  1.00  0.00     0.049 A 
ATOM     64  H   UNL     1       0.561 -15.406   7.894  1.00  0.00     0.167 HD
ATOM     65  C   UNL     1       2.965 -16.899   7.854  1.00  0.00     0.074 A 
ATOM     66  C   UNL     1       4.232 -17.444   7.410  1.00  0.00     0.031 C 
ATOM     67  C   UNL     1       2.357 -17.232   9.020  1.00  0.00     0.037 A 
BRANCH  54  68
ATOM     68  C   UNL     1      -3.035 -14.351   9.944  1.00  0.00     0.058 A 
ATOM     69  C   UNL     1      -4.303 -14.885   9.663  1.00  0.00     0.135 A 
ATOM     70  C   UNL     1      -2.888 -13.596  11.118  1.00  0.00     0.135 A 
ATOM     71  F   UNL     1      -4.501 -15.602   8.546  1.00  0.00    -0.206 F 
ATOM     72  C   UNL     1      -5.392 -14.652  10.497  1.00  0.00     0.059 A 
ATOM     73  C   UNL     1      -3.958 -13.369  11.979  1.00  0.00     0.059 A 
ATOM     74  F   UNL     1      -1.697 -13.064  11.435  1.00  0.00    -0.206 F 
ATOM     75  C   UNL     1      -5.210 -13.887  11.650  1.00  0.00     0.060 A 
BRANCH  75  76
ATOM     76  S   UNL     1      -6.632 -13.584  12.722  1.00  0.00     0.124 S 
ATOM     77  O   UNL     1      -7.334 -12.540  11.981  1.00  0.00    -0.237 OA
ATOM     78  O   UNL     1      -7.288 -14.887  12.753  1.00  0.00    -0.237 OA
ATOM     79  O   UNL     1      -6.024 -13.162  13.979  1.00  0.00    -0.744 OA
ENDBRANCH  75  76
ENDBRANCH  54  68
BRANCH  55  80
ATOM     80  C   UNL     1       4.704 -15.415   3.745  1.00  0.00     0.058 A 
ATOM     81  C   UNL     1       4.885 -16.588   2.998  1.00  0.00     0.135 A 
ATOM     82  C   UNL     1       5.639 -14.382   3.586  1.00  0.00     0.135 A 
ATOM     83  F   UNL     1       4.017 -17.603   3.123  1.00  0.00    -0.206 F 
ATOM     84  C   UNL     1       5.962 -16.738   2.131  1.00  0.00     0.059 A 
ATOM     85  C   UNL     1       6.713 -14.502   2.711  1.00  0.00     0.059 A 
ATOM     86  F   UNL     1       5.496 -13.235   4.267  1.00  0.00    -0.206 F 
ATOM     87  C   UNL     1       6.871 -15.688   1.993  1.00  0.00     0.060 A 
BRANCH  87  88
ATOM     88  S   UNL     1       8.231 -15.862   0.818  1.00  0.00     0.124 S 
ATOM     89  O   UNL     1       9.164 -16.691   1.571  1.00  0.00    -0.237 OA
ATOM     90  O   UNL     1       7.580 -16.505  -0.319  1.00  0.00    -0.237 OA
ATOM     91  O   UNL     1       8.651 -14.482   0.589  1.00  0.00    -0.744 OA
ENDBRANCH  87  88
ENDBRANCH  55  80
BRANCH  67  92
ATOM     92  C   UNL     1       3.056 -18.244   9.883  1.00  0.00     0.058 A 
ATOM     93  C   UNL     1       4.199 -17.908  10.625  1.00  0.00     0.135 A 
ATOM     94  C   UNL     1       2.579 -19.561   9.968  1.00  0.00     0.135 A 
ATOM     95  F   UNL     1       4.697 -16.663  10.572  1.00  0.00    -0.206 F 
ATOM     96  C   UNL     1       4.870 -18.855  11.392  1.00  0.00     0.059 A 
ATOM     97  C   UNL     1       3.222 -20.519  10.745  1.00  0.00     0.059 A 
ATOM     98  F   UNL     1       1.484 -19.929   9.285  1.00  0.00    -0.206 F 
ATOM     99  C   UNL     1       4.379 -20.161  11.438  1.00  0.00     0.060 A 
BRANCH  99 100
ATOM    100  S   UNL     1       5.257 -21.390  12.428  1.00  0.00     0.124 S 
ATOM    101  O   UNL     1       6.343 -21.766  11.530  1.00  0.00    -0.237 OA
ATOM    102  O   UNL     1       5.648 -20.627  13.610  1.00  0.00    -0.237 OA
ATOM    103  O   UNL     1       4.247 -22.418  12.661  1.00  0.00    -0.744 OA
ENDBRANCH  99 100
ENDBRANCH  67  92
ENDBRANCH  41  42
ENDBRANCH  33  36
ENDBRANCH  31  32
ENDBRANCH  30  31
ENDBRANCH   1  30
TORSDOF 18
