REMARK SMILES CC1(C)CCN(c2ncccc2C(=O)NCCCCNC(=O)c2ccc(-c3c4nc(c(-c5c(F)cc(S(=O)(=O)[O-])cc5F)c5ccc([nH]5)c(-c5c(F)cc(S(=O)(=O)[O-])cc5F)c5nc(c(-c6c(F)cc(S(=O)(=O)[O-])cc6F)c6ccc3[nH]6)C=C5)C=C4)cc2)C1
REMARK SMILES IDX 18 1 17 2 16 3 15 4 13 5 14 6 12 8 7 9 8 10 9 11 11 12 10 13
REMARK SMILES IDX 6 14 1 15 2 16 3 17 4 18 89 19 5 20 19 21 20 22 21 23 22 25
REMARK SMILES IDX 23 26 24 27 88 28 25 29 87 30 26 31 27 32 28 33 81 34 29 35
REMARK SMILES IDX 86 36 80 37 82 38 30 39 85 40 79 41 78 42 31 44 65 45 44 46
REMARK SMILES IDX 64 47 45 48 48 49 63 50 83 51 46 52 47 53 62 55 84 56 49 57
REMARK SMILES IDX 32 58 33 59 42 60 34 61 35 62 41 63 43 64 36 65 37 66 38 67
REMARK SMILES IDX 39 68 40 69 66 70 67 71 76 72 68 73 69 74 75 75 77 76 70 77
REMARK SMILES IDX 71 78 72 79 73 80 74 81 50 82 51 83 60 84 52 85 53 86 59 87
REMARK SMILES IDX 61 88 54 89 55 90 56 91 57 92 58 93
REMARK H PARENT 15 7 20 24 82 43 48 54
REMARK Flexibility Score: inf
ROOT
ATOM      1  C   UNL     1       3.164   6.514   3.590  1.00  0.00     0.023 C 
ENDROOT
BRANCH   1   2
ATOM      2  C   UNL     1       3.860   5.921   2.356  1.00  0.00     0.023 C 
BRANCH   2   3
ATOM      3  C   UNL     1       4.421   4.515   2.567  1.00  0.00     0.116 C 
BRANCH   3   4
ATOM      4  N   UNL     1       3.347   3.553   2.683  1.00  0.00    -0.352 N 
ATOM      5  C   UNL     1       2.694   2.693   1.835  1.00  0.00     0.255 C 
ATOM      6  O   UNL     1       1.815   2.047   2.405  1.00  0.00    -0.269 OA
ATOM      7  H   UNL     1       2.996   3.503   3.602  1.00  0.00     0.163 HD
BRANCH   5   8
ATOM      8  C   UNL     1       3.027   2.493   0.378  1.00  0.00     0.082 A 
ATOM      9  C   UNL     1       2.570   1.351  -0.321  1.00  0.00     0.141 A 
ATOM     10  N   UNL     1       3.049   1.033  -1.559  1.00  0.00    -0.238 NA
ATOM     11  C   UNL     1       3.906   1.873  -2.166  1.00  0.00     0.113 A 
ATOM     12  C   UNL     1       3.845   3.380  -0.337  1.00  0.00     0.019 A 
ATOM     13  C   UNL     1       4.304   3.067  -1.614  1.00  0.00     0.021 A 
BRANCH   9  14
ATOM     14  N   UNL     1       1.550   0.541   0.124  1.00  0.00    -0.355 N 
ATOM     15  C   UNL     1      -1.090  -0.179  -1.618  1.00  0.00     0.013 C 
ATOM     16  C   UNL     1      -0.731  -0.111  -0.124  1.00  0.00    -0.016 C 
ATOM     17  C   UNL     1      -2.018  -0.041   0.702  1.00  0.00     0.013 C 
ATOM     18  C   UNL     1       0.145  -1.304   0.293  1.00  0.00     0.030 C 
ATOM     19  C   UNL     1       0.192   1.095   0.163  1.00  0.00     0.124 C 
ATOM     20  C   UNL     1       1.547  -0.885  -0.144  1.00  0.00     0.119 C 
ENDBRANCH   9  14
ENDBRANCH   5   8
ENDBRANCH   3   4
ENDBRANCH   2   3
ENDBRANCH   1   2
BRANCH   1  21
ATOM     21  C   UNL     1       4.013   6.571   4.857  1.00  0.00     0.116 C 
BRANCH  21  22
ATOM     22  N   UNL     1       5.290   7.239   4.660  1.00  0.00    -0.352 N 
ATOM     23  C   UNL     1       6.022   7.979   5.557  1.00  0.00     0.251 C 
ATOM     24  H   UNL     1       5.683   7.148   3.762  1.00  0.00     0.163 HD
ATOM     25  O   UNL     1       7.034   8.561   5.191  1.00  0.00    -0.269 OA
BRANCH  23  26
ATOM     26  C   UNL     1       5.552   8.097   6.953  1.00  0.00     0.039 A 
ATOM     27  C   UNL     1       5.462   9.369   7.524  1.00  0.00     0.014 A 
ATOM     28  C   UNL     1       5.181   6.965   7.684  1.00  0.00     0.014 A 
ATOM     29  C   UNL     1       4.937   9.511   8.809  1.00  0.00     0.010 A 
ATOM     30  C   UNL     1       4.604   7.114   8.941  1.00  0.00     0.010 A 
ATOM     31  C   UNL     1       4.472   8.389   9.514  1.00  0.00    -0.014 A 
BRANCH  31  32
ATOM     32  C   UNL     1       3.835   8.530  10.847  1.00  0.00     0.031 A 
ATOM     33  C   UNL     1       4.495   7.949  12.065  1.00  0.00     0.074 A 
ATOM     34  C   UNL     1       2.631   9.127  10.945  1.00  0.00     0.049 A 
ATOM     35  N   UNL     1       4.065   7.915  13.300  1.00  0.00    -0.248 NA
ATOM     36  C   UNL     1       5.799   7.297  11.864  1.00  0.00     0.031 C 
ATOM     37  C   UNL     1       1.870   9.688   9.826  1.00  0.00     0.029 A 
ATOM     38  N   UNL     1       1.831   9.354  12.037  1.00  0.00    -0.354 N 
ATOM     39  C   UNL     1       5.036   7.229  14.020  1.00  0.00     0.074 A 
ATOM     40  C   UNL     1       6.053   6.821  13.074  1.00  0.00     0.031 C 
ATOM     41  C   UNL     1       0.726  10.214  10.292  1.00  0.00     0.029 A 
ATOM     42  C   UNL     1       0.656  10.000  11.735  1.00  0.00     0.049 A 
ATOM     43  H   UNL     1       2.076   9.080  12.950  1.00  0.00     0.167 HD
ATOM     44  C   UNL     1       5.087   6.983  15.351  1.00  0.00     0.037 A 
ATOM     45  C   UNL     1      -0.364  10.376  12.530  1.00  0.00     0.037 A 
ATOM     46  C   UNL     1       4.083   7.410  16.289  1.00  0.00     0.049 A 
ATOM     47  C   UNL     1      -0.283  10.095  14.006  1.00  0.00     0.074 A 
ATOM     48  C   UNL     1       4.064   7.254  17.664  1.00  0.00     0.029 A 
ATOM     49  N   UNL     1       2.917   8.081  15.948  1.00  0.00    -0.354 N 
ATOM     50  N   UNL     1       0.668   9.494  14.679  1.00  0.00    -0.248 NA
ATOM     51  C   UNL     1      -1.411  10.549  14.831  1.00  0.00     0.031 C 
ATOM     52  C   UNL     1       2.872   7.802  18.150  1.00  0.00     0.029 A 
ATOM     53  C   UNL     1       2.166   8.334  17.084  1.00  0.00     0.049 A 
ATOM     54  H   UNL     1       2.661   8.339  15.033  1.00  0.00     0.167 HD
ATOM     55  C   UNL     1       0.267   9.520  16.009  1.00  0.00     0.074 A 
ATOM     56  C   UNL     1      -1.010  10.204  16.047  1.00  0.00     0.031 C 
ATOM     57  C   UNL     1       0.899   9.023  17.102  1.00  0.00     0.037 A 
BRANCH  44  58
ATOM     58  C   UNL     1       6.276   6.218  15.866  1.00  0.00     0.058 A 
ATOM     59  C   UNL     1       7.556   6.793  15.905  1.00  0.00     0.135 A 
ATOM     60  C   UNL     1       6.134   4.903  16.334  1.00  0.00     0.135 A 
ATOM     61  F   UNL     1       7.751   8.043  15.456  1.00  0.00    -0.206 F 
ATOM     62  C   UNL     1       8.662   6.078  16.354  1.00  0.00     0.059 A 
ATOM     63  C   UNL     1       7.222   4.177  16.813  1.00  0.00     0.059 A 
ATOM     64  F   UNL     1       4.933   4.305  16.320  1.00  0.00    -0.206 F 
ATOM     65  C   UNL     1       8.485   4.768  16.801  1.00  0.00     0.060 A 
BRANCH  65  66
ATOM     66  S   UNL     1       9.931   3.846  17.365  1.00  0.00     0.124 S 
ATOM     67  O   UNL     1      10.579   3.519  16.099  1.00  0.00    -0.237 OA
ATOM     68  O   UNL     1      10.624   4.826  18.195  1.00  0.00    -0.237 OA
ATOM     69  O   UNL     1       9.353   2.716  18.086  1.00  0.00    -0.744 OA
ENDBRANCH  65  66
ENDBRANCH  44  58
BRANCH  45  70
ATOM     70  C   UNL     1      -1.531  11.091  11.951  1.00  0.00     0.058 A 
ATOM     71  C   UNL     1      -1.722  12.460  12.189  1.00  0.00     0.135 A 
ATOM     72  C   UNL     1      -2.462  10.432  11.134  1.00  0.00     0.135 A 
ATOM     73  F   UNL     1      -0.860  13.132  12.968  1.00  0.00    -0.206 F 
ATOM     74  C   UNL     1      -2.801  13.150  11.647  1.00  0.00     0.059 A 
ATOM     75  C   UNL     1      -3.537  11.106  10.563  1.00  0.00     0.059 A 
ATOM     76  F   UNL     1      -2.313   9.126  10.863  1.00  0.00    -0.206 F 
ATOM     77  C   UNL     1      -3.703  12.464  10.832  1.00  0.00     0.060 A 
BRANCH  77  78
ATOM     78  S   UNL     1      -5.069  13.382  10.088  1.00  0.00     0.124 S 
ATOM     79  O   UNL     1      -5.958  13.563  11.229  1.00  0.00    -0.237 OA
ATOM     80  O   UNL     1      -4.401  14.585   9.601  1.00  0.00    -0.237 OA
ATOM     81  O   UNL     1      -5.550  12.478   9.047  1.00  0.00    -0.744 OA
ENDBRANCH  77  78
ENDBRANCH  45  70
BRANCH  57  82
ATOM     82  C   UNL     1       0.236   9.230  18.434  1.00  0.00     0.058 A 
ATOM     83  C   UNL     1      -0.893   8.490  18.818  1.00  0.00     0.135 A 
ATOM     84  C   UNL     1       0.766  10.147  19.356  1.00  0.00     0.135 A 
ATOM     85  F   UNL     1      -1.442   7.606  17.970  1.00  0.00    -0.206 F 
ATOM     86  C   UNL     1      -1.486   8.666  20.064  1.00  0.00     0.059 A 
ATOM     87  C   UNL     1       0.203  10.322  20.616  1.00  0.00     0.059 A 
ATOM     88  F   UNL     1       1.850  10.873  19.041  1.00  0.00    -0.206 F 
ATOM     89  C   UNL     1      -0.931   9.585  20.956  1.00  0.00     0.060 A 
BRANCH  89  90
ATOM     90  S   UNL     1      -1.688   9.781  22.583  1.00  0.00     0.124 S 
ATOM     91  O   UNL     1      -2.872  10.572  22.262  1.00  0.00    -0.237 OA
ATOM     92  O   UNL     1      -1.938   8.399  22.983  1.00  0.00    -0.237 OA
ATOM     93  O   UNL     1      -0.660  10.473  23.355  1.00  0.00    -0.744 OA
ENDBRANCH  89  90
ENDBRANCH  57  82
ENDBRANCH  31  32
ENDBRANCH  23  26
ENDBRANCH  21  22
ENDBRANCH   1  21
TORSDOF 15
