REMARK SMILES O=C(NCCCCNC(=O)[C@H](Cc1ccccc1Cl)S[C@H]1CC(=O)N(c2ccc(Cl)cc2)C1=O)c1ccc(-c2c3nc(c(-c4c(F)cc(S(=O)(=O)[O-])cc4F)c4ccc([nH]4)c(-c4c(F)cc(S(=O)(=O)[O-])cc4F)c4nc(c(-c5c(F)cc(S(=O)(=O)[O-])cc5F)c5ccc2[nH]5)C=C4)C=C3)cc1
REMARK SMILES IDX 5 1 4 2 3 3 1 4 2 5 35 7 36 8 100 9 37 10 99 11 38 12 39 13
REMARK SMILES IDX 40 14 93 15 41 16 98 17 92 18 94 19 42 20 97 21 91 22 90 23
REMARK SMILES IDX 43 25 77 26 56 27 76 28 57 29 60 30 75 31 95 32 58 33 59 34
REMARK SMILES IDX 74 36 96 37 61 38 44 39 45 40 54 41 46 42 47 43 53 44 55 45
REMARK SMILES IDX 48 46 49 47 50 48 51 49 52 50 78 51 79 52 88 53 80 54 81 55
REMARK SMILES IDX 87 56 89 57 82 58 83 59 84 60 85 61 86 62 62 63 63 64 72 65
REMARK SMILES IDX 64 66 65 67 71 68 73 69 66 70 67 71 68 72 69 73 70 74 6 75
REMARK SMILES IDX 7 76 8 77 9 78 10 80 11 81 20 82 21 83 22 84 33 85 23 86
REMARK SMILES IDX 25 87 34 88 24 89 26 90 27 91 32 92 28 93 31 94 29 95 30 96
REMARK SMILES IDX 12 97 13 98 14 99 18 100 15 101 17 102 19 103 16 104
REMARK H PARENT 3 6 94 24 60 35 8 79
REMARK Flexibility Score: inf
ROOT
ATOM      1  C   UNL     1       7.505  -0.277  -2.420  1.00  0.00     0.023 C 
ENDROOT
BRANCH   1   2
ATOM      2  C   UNL     1       6.777  -1.319  -1.587  1.00  0.00     0.116 C 
BRANCH   2   3
ATOM      3  N   UNL     1       5.880  -2.161  -2.366  1.00  0.00    -0.352 N 
ATOM      4  O   UNL     1       4.875  -4.115  -2.916  1.00  0.00    -0.269 OA
ATOM      5  C   UNL     1       5.568  -3.483  -2.135  1.00  0.00     0.251 C 
ATOM      6  H   UNL     1       5.449  -1.739  -3.144  1.00  0.00     0.163 HD
BRANCH   5   7
ATOM      7  C   UNL     1       6.142  -4.116  -0.932  1.00  0.00     0.039 A 
ATOM      8  C   UNL     1       5.986  -3.498   0.310  1.00  0.00     0.014 A 
ATOM      9  C   UNL     1       6.933  -5.257  -1.075  1.00  0.00     0.014 A 
ATOM     10  C   UNL     1       6.741  -3.938   1.386  1.00  0.00     0.010 A 
ATOM     11  C   UNL     1       7.620  -5.752   0.034  1.00  0.00     0.010 A 
ATOM     12  C   UNL     1       7.552  -5.079   1.263  1.00  0.00    -0.014 A 
BRANCH  12  13
ATOM     13  C   UNL     1       8.256  -5.589   2.463  1.00  0.00     0.031 A 
ATOM     14  C   UNL     1       9.756  -5.605   2.542  1.00  0.00     0.074 A 
ATOM     15  C   UNL     1       7.507  -6.010   3.499  1.00  0.00     0.049 A 
ATOM     16  N   UNL     1      10.520  -6.030   3.515  1.00  0.00    -0.248 NA
ATOM     17  C   UNL     1      10.497  -5.083   1.383  1.00  0.00     0.031 C 
ATOM     18  C   UNL     1       6.040  -6.039   3.518  1.00  0.00     0.029 A 
ATOM     19  N   UNL     1       7.862  -6.473   4.737  1.00  0.00    -0.354 N 
ATOM     20  C   UNL     1      11.828  -5.852   3.082  1.00  0.00     0.074 A 
ATOM     21  C   UNL     1      11.756  -5.291   1.748  1.00  0.00     0.031 C 
ATOM     22  C   UNL     1       5.623  -6.446   4.724  1.00  0.00     0.029 A 
ATOM     23  C   UNL     1       6.786  -6.776   5.537  1.00  0.00     0.049 A 
ATOM     24  H   UNL     1       8.797  -6.578   5.027  1.00  0.00     0.167 HD
ATOM     25  C   UNL     1      12.979  -6.129   3.741  1.00  0.00     0.037 A 
ATOM     26  C   UNL     1       6.739  -7.287   6.779  1.00  0.00     0.037 A 
ATOM     27  C   UNL     1      13.030  -6.676   5.074  1.00  0.00     0.049 A 
ATOM     28  C   UNL     1       8.027  -7.597   7.479  1.00  0.00     0.074 A 
ATOM     29  C   UNL     1      14.143  -6.985   5.838  1.00  0.00     0.029 A 
ATOM     30  N   UNL     1      11.920  -6.992   5.845  1.00  0.00    -0.354 N 
ATOM     31  N   UNL     1       9.255  -7.423   7.052  1.00  0.00    -0.248 NA
ATOM     32  C   UNL     1       7.927  -8.178   8.822  1.00  0.00     0.031 C 
ATOM     33  C   UNL     1      13.705  -7.518   7.056  1.00  0.00     0.029 A 
ATOM     34  C   UNL     1      12.320  -7.504   7.069  1.00  0.00     0.049 A 
ATOM     35  H   UNL     1      10.984  -6.871   5.563  1.00  0.00     0.167 HD
ATOM     36  C   UNL     1      10.078  -7.871   8.077  1.00  0.00     0.074 A 
ATOM     37  C   UNL     1       9.206  -8.300   9.153  1.00  0.00     0.031 C 
ATOM     38  C   UNL     1      11.431  -7.928   8.122  1.00  0.00     0.037 A 
BRANCH  25  39
ATOM     39  C   UNL     1      14.278  -5.866   3.029  1.00  0.00     0.058 A 
ATOM     40  C   UNL     1      14.762  -4.563   2.833  1.00  0.00     0.135 A 
ATOM     41  C   UNL     1      15.072  -6.933   2.576  1.00  0.00     0.135 A 
ATOM     42  F   UNL     1      14.037  -3.506   3.233  1.00  0.00    -0.206 F 
ATOM     43  C   UNL     1      15.976  -4.325   2.196  1.00  0.00     0.059 A 
ATOM     44  C   UNL     1      16.300  -6.719   1.954  1.00  0.00     0.059 A 
ATOM     45  F   UNL     1      14.657  -8.199   2.737  1.00  0.00    -0.206 F 
ATOM     46  C   UNL     1      16.737  -5.410   1.757  1.00  0.00     0.060 A 
BRANCH  46  47
ATOM     47  S   UNL     1      18.311  -5.087   0.932  1.00  0.00     0.124 S 
ATOM     48  O   UNL     1      17.862  -4.624  -0.377  1.00  0.00    -0.237 OA
ATOM     49  O   UNL     1      18.913  -4.072   1.791  1.00  0.00    -0.237 OA
ATOM     50  O   UNL     1      18.975  -6.387   0.945  1.00  0.00    -0.744 OA
ENDBRANCH  46  47
ENDBRANCH  25  39
BRANCH  26  51
ATOM     51  C   UNL     1       5.424  -7.548   7.416  1.00  0.00     0.058 A 
ATOM     52  C   UNL     1       4.968  -6.761   8.482  1.00  0.00     0.135 A 
ATOM     53  C   UNL     1       4.576  -8.559   6.936  1.00  0.00     0.135 A 
ATOM     54  F   UNL     1       5.744  -5.781   8.972  1.00  0.00    -0.206 F 
ATOM     55  C   UNL     1       3.721  -6.972   9.059  1.00  0.00     0.059 A 
ATOM     56  C   UNL     1       3.314  -8.772   7.479  1.00  0.00     0.059 A 
ATOM     57  F   UNL     1       4.958  -9.323   5.901  1.00  0.00    -0.206 F 
ATOM     58  C   UNL     1       2.900  -7.979   8.548  1.00  0.00     0.060 A 
BRANCH  58  59
ATOM     59  S   UNL     1       1.258  -8.210   9.262  1.00  0.00     0.124 S 
ATOM     60  O   UNL     1       1.573  -8.930  10.491  1.00  0.00    -0.237 OA
ATOM     61  O   UNL     1       0.795  -6.836   9.427  1.00  0.00    -0.237 OA
ATOM     62  O   UNL     1       0.556  -8.980   8.239  1.00  0.00    -0.744 OA
ENDBRANCH  58  59
ENDBRANCH  26  51
BRANCH  38  63
ATOM     63  C   UNL     1      12.042  -8.459   9.385  1.00  0.00     0.058 A 
ATOM     64  C   UNL     1      12.024  -9.829   9.687  1.00  0.00     0.135 A 
ATOM     65  C   UNL     1      12.667  -7.590  10.293  1.00  0.00     0.135 A 
ATOM     66  F   UNL     1      11.428 -10.697   8.855  1.00  0.00    -0.206 F 
ATOM     67  C   UNL     1      12.585 -10.319  10.861  1.00  0.00     0.059 A 
ATOM     68  C   UNL     1      13.254  -8.061  11.462  1.00  0.00     0.059 A 
ATOM     69  F   UNL     1      12.714  -6.272  10.044  1.00  0.00    -0.206 F 
ATOM     70  C   UNL     1      13.195  -9.425  11.744  1.00  0.00     0.060 A 
BRANCH  70  71
ATOM     71  S   UNL     1      13.937 -10.072  13.257  1.00  0.00     0.124 S 
ATOM     72  O   UNL     1      12.758 -10.300  14.087  1.00  0.00    -0.237 OA
ATOM     73  O   UNL     1      14.621 -11.271  12.785  1.00  0.00    -0.237 OA
ATOM     74  O   UNL     1      14.813  -8.989  13.693  1.00  0.00    -0.744 OA
ENDBRANCH  70  71
ENDBRANCH  38  63
ENDBRANCH  12  13
ENDBRANCH   5   7
ENDBRANCH   2   3
ENDBRANCH   1   2
BRANCH   1  75
ATOM     75  C   UNL     1       6.573   0.710  -3.113  1.00  0.00     0.023 C 
BRANCH  75  76
ATOM     76  C   UNL     1       5.846   1.641  -2.145  1.00  0.00     0.116 C 
BRANCH  76  77
ATOM     77  N   UNL     1       6.589   2.862  -1.956  1.00  0.00    -0.355 N 
ATOM     78  C   UNL     1       6.457   4.055  -2.603  1.00  0.00     0.233 C 
ATOM     79  H   UNL     1       7.288   2.831  -1.264  1.00  0.00     0.163 HD
ATOM     80  O   UNL     1       7.275   4.939  -2.329  1.00  0.00    -0.274 OA
BRANCH  78  81
ATOM     81  C   UNL     1       5.314   4.328  -3.602  1.00  0.00     0.141 C 
BRANCH  81  82
ATOM     82  S   UNL     1       5.763   3.408  -5.194  1.00  0.00    -0.134 SA
BRANCH  82  83
ATOM     83  C   UNL     1       4.257   2.689  -5.926  1.00  0.00     0.147 C 
ATOM     84  C   UNL     1       3.678   1.452  -5.278  1.00  0.00     0.125 C 
ATOM     85  C   UNL     1       3.090   3.615  -6.108  1.00  0.00     0.247 C 
ATOM     86  C   UNL     1       2.210   1.576  -5.557  1.00  0.00     0.235 C 
ATOM     87  N   UNL     1       1.936   2.862  -5.972  1.00  0.00    -0.250 N 
ATOM     88  O   UNL     1       3.195   4.814  -6.328  1.00  0.00    -0.273 OA
ATOM     89  O   UNL     1       1.441   0.637  -5.405  1.00  0.00    -0.274 OA
BRANCH  87  90
ATOM     90  C   UNL     1       0.626   3.374  -6.188  1.00  0.00     0.052 A 
ATOM     91  C   UNL     1      -0.492   2.821  -5.541  1.00  0.00     0.028 A 
ATOM     92  C   UNL     1       0.413   4.471  -7.036  1.00  0.00     0.028 A 
ATOM     93  C   UNL     1      -1.765   3.383  -5.689  1.00  0.00     0.022 A 
ATOM     94  C   UNL     1      -0.863   5.017  -7.210  1.00  0.00     0.022 A 
ATOM     95  C   UNL     1      -1.945   4.481  -6.521  1.00  0.00     0.041 A 
ATOM     96  Cl  UNL     1      -3.504   5.183  -6.697  1.00  0.00    -0.084 Cl
ENDBRANCH  87  90
ENDBRANCH  82  83
ENDBRANCH  81  82
BRANCH  81  97
ATOM     97  C   UNL     1       3.863   4.308  -3.077  1.00  0.00     0.061 C 
BRANCH  97  98
ATOM     98  C   UNL     1       3.448   4.333  -1.612  1.00  0.00    -0.028 A 
ATOM     99  C   UNL     1       4.295   4.705  -0.559  1.00  0.00     0.005 A 
ATOM    100  C   UNL     1       2.127   3.965  -1.263  1.00  0.00     0.044 A 
ATOM    101  C   UNL     1       3.894   4.576   0.778  1.00  0.00     0.000 A 
ATOM    102  C   UNL     1       1.719   3.859   0.071  1.00  0.00     0.021 A 
ATOM    103  Cl  UNL     1       0.920   3.643  -2.460  1.00  0.00    -0.084 Cl
ATOM    104  C   UNL     1       2.615   4.136   1.094  1.00  0.00     0.002 A 
ENDBRANCH  97  98
ENDBRANCH  81  97
ENDBRANCH  78  81
ENDBRANCH  76  77
ENDBRANCH  75  76
ENDBRANCH   1  75
TORSDOF 19
