REMARK SMILES CC(C)N(CCCC(=O)NCCCCNC(=O)c1ccc(-c2c3nc(c(-c4c(F)cc(S(=O)(=O)[O-])cc4F)c4ccc([nH]4)c(-c4c(F)cc(S(=O)(=O)[O-])cc4F)c4nc(c(-c5c(F)cc(S(=O)(=O)[O-])cc5F)c5ccc2[nH]5)C=C4)C=C3)cc1)c1cc(Cl)c(Cl)cc1[N+](=O)[O-]
REMARK SMILES IDX 11 1 10 2 8 3 9 4 7 6 6 7 5 8 4 9 2 10 1 11 3 12 84 13 85 14
REMARK SMILES IDX 91 15 86 16 90 17 87 18 88 19 89 20 92 21 93 22 94 23 12 24
REMARK SMILES IDX 13 25 14 26 15 27 16 28 17 30 18 31 19 32 83 33 20 34 82 35
REMARK SMILES IDX 21 36 22 37 23 38 76 39 24 40 81 41 75 42 77 43 25 44 80 45
REMARK SMILES IDX 74 46 73 47 26 49 60 50 39 51 59 52 40 53 43 54 58 55 78 56
REMARK SMILES IDX 41 57 42 58 57 60 79 61 44 62 27 63 28 64 37 65 29 66 30 67
REMARK SMILES IDX 36 68 38 69 31 70 32 71 33 72 34 73 35 74 61 75 62 76 71 77
REMARK SMILES IDX 63 78 64 79 70 80 72 81 65 82 66 83 67 84 68 85 69 86 45 87
REMARK SMILES IDX 46 88 55 89 47 90 48 91 54 92 56 93 49 94 50 95 51 96 52 97
REMARK SMILES IDX 53 98
REMARK H PARENT 10 5 15 29 77 48 43 59
REMARK Flexibility Score: inf
ROOT
ATOM      1  C   UNL     1      -3.473  -1.099   0.837  1.00  0.00     0.116 C 
ENDROOT
BRANCH   1   2
ATOM      2  N   UNL     1      -4.554  -0.627   1.677  1.00  0.00    -0.356 N 
ATOM      3  C   UNL     1      -4.760   0.620   2.180  1.00  0.00     0.220 C 
ATOM      4  O   UNL     1      -5.624   0.783   3.042  1.00  0.00    -0.275 OA
ATOM      5  H   UNL     1      -5.232  -1.300   1.916  1.00  0.00     0.163 HD
BRANCH   3   6
ATOM      6  C   UNL     1      -3.956   1.790   1.648  1.00  0.00     0.102 C 
BRANCH   6   7
ATOM      7  C   UNL     1      -2.697   2.124   2.453  1.00  0.00     0.031 C 
BRANCH   7   8
ATOM      8  C   UNL     1      -1.391   1.404   2.094  1.00  0.00     0.117 C 
BRANCH   8   9
ATOM      9  N   UNL     1      -0.625   1.837   0.889  1.00  0.00    -0.364 N 
BRANCH   9  10
ATOM     10  C   UNL     1       0.853   1.912   1.063  1.00  0.00     0.076 C 
ATOM     11  C   UNL     1       1.607   0.700   0.530  1.00  0.00     0.030 C 
ATOM     12  C   UNL     1       1.426   3.217   0.520  1.00  0.00     0.030 C 
ENDBRANCH   9  10
BRANCH   9  13
ATOM     13  C   UNL     1      -1.254   2.112  -0.316  1.00  0.00     0.117 A 
ATOM     14  C   UNL     1      -1.983   3.317  -0.402  1.00  0.00     0.055 A 
ATOM     15  C   UNL     1      -1.283   1.318  -1.482  1.00  0.00     0.294 A 
ATOM     16  C   UNL     1      -2.786   3.648  -1.506  1.00  0.00     0.062 A 
ATOM     17  C   UNL     1      -2.063   1.645  -2.611  1.00  0.00     0.110 A 
ATOM     18  Cl  UNL     1      -3.721   5.097  -1.409  1.00  0.00    -0.083 Cl
ATOM     19  C   UNL     1      -2.836   2.799  -2.608  1.00  0.00     0.066 A 
ATOM     20  Cl  UNL     1      -3.829   3.112  -3.984  1.00  0.00    -0.082 Cl
BRANCH  15  21
ATOM     21  N   UNL     1      -0.538   0.086  -1.619  1.00  0.00     0.065 N 
ATOM     22  O   UNL     1       0.313   0.053  -2.519  1.00  0.00    -0.258 OA
ATOM     23  O   UNL     1      -0.859  -0.866  -0.899  1.00  0.00    -0.258 OA
ENDBRANCH  15  21
ENDBRANCH   9  13
ENDBRANCH   8   9
ENDBRANCH   7   8
ENDBRANCH   6   7
ENDBRANCH   3   6
ENDBRANCH   1   2
BRANCH   1  24
ATOM     24  C   UNL     1      -2.483  -1.919   1.669  1.00  0.00     0.023 C 
BRANCH  24  25
ATOM     25  C   UNL     1      -2.670  -3.421   1.533  1.00  0.00     0.023 C 
BRANCH  25  26
ATOM     26  C   UNL     1      -2.329  -3.957   0.149  1.00  0.00     0.116 C 
BRANCH  26  27
ATOM     27  N   UNL     1      -0.929  -3.792  -0.222  1.00  0.00    -0.352 N 
ATOM     28  C   UNL     1      -0.147  -4.668  -0.946  1.00  0.00     0.251 C 
ATOM     29  H   UNL     1      -0.492  -2.963   0.079  1.00  0.00     0.163 HD
ATOM     30  O   UNL     1       1.046  -4.477  -1.121  1.00  0.00    -0.269 OA
BRANCH  28  31
ATOM     31  C   UNL     1      -0.809  -5.872  -1.486  1.00  0.00     0.039 A 
ATOM     32  C   UNL     1      -0.353  -7.134  -1.108  1.00  0.00     0.014 A 
ATOM     33  C   UNL     1      -1.974  -5.724  -2.245  1.00  0.00     0.014 A 
ATOM     34  C   UNL     1      -1.123  -8.255  -1.420  1.00  0.00     0.010 A 
ATOM     35  C   UNL     1      -2.780  -6.829  -2.475  1.00  0.00     0.010 A 
ATOM     36  C   UNL     1      -2.366  -8.104  -2.059  1.00  0.00    -0.014 A 
BRANCH  36  37
ATOM     37  C   UNL     1      -3.259  -9.263  -2.306  1.00  0.00     0.031 A 
ATOM     38  C   UNL     1      -3.620  -9.632  -3.719  1.00  0.00     0.074 A 
ATOM     39  C   UNL     1      -3.814  -9.917  -1.266  1.00  0.00     0.049 A 
ATOM     40  N   UNL     1      -4.469 -10.528  -4.146  1.00  0.00    -0.248 NA
ATOM     41  C   UNL     1      -2.970  -8.861  -4.792  1.00  0.00     0.031 C 
ATOM     42  C   UNL     1      -3.595  -9.606   0.150  1.00  0.00     0.029 A 
ATOM     43  N   UNL     1      -4.690 -10.973  -1.237  1.00  0.00    -0.354 N 
ATOM     44  C   UNL     1      -4.476 -10.410  -5.531  1.00  0.00     0.074 A 
ATOM     45  C   UNL     1      -3.587  -9.321  -5.870  1.00  0.00     0.031 C 
ATOM     46  C   UNL     1      -4.296 -10.467   0.905  1.00  0.00     0.029 A 
ATOM     47  C   UNL     1      -5.040 -11.369   0.032  1.00  0.00     0.049 A 
ATOM     48  H   UNL     1      -5.036 -11.406  -2.051  1.00  0.00     0.167 HD
ATOM     49  C   UNL     1      -5.143 -11.159  -6.439  1.00  0.00     0.037 A 
ATOM     50  C   UNL     1      -5.869 -12.349   0.443  1.00  0.00     0.037 A 
ATOM     51  C   UNL     1      -5.980 -12.277  -6.097  1.00  0.00     0.049 A 
ATOM     52  C   UNL     1      -6.556 -13.203  -0.589  1.00  0.00     0.074 A 
ATOM     53  C   UNL     1      -6.643 -13.147  -6.944  1.00  0.00     0.029 A 
ATOM     54  N   UNL     1      -6.258 -12.687  -4.802  1.00  0.00    -0.354 N 
ATOM     55  N   UNL     1      -6.502 -13.117  -1.897  1.00  0.00    -0.248 NA
ATOM     56  C   UNL     1      -7.409 -14.292  -0.092  1.00  0.00     0.031 C 
ATOM     57  C   UNL     1      -7.340 -14.072  -6.160  1.00  0.00     0.029 A 
ATOM     58  C   UNL     1      -7.085 -13.796  -4.826  1.00  0.00     0.049 A 
ATOM     59  H   UNL     1      -5.918 -12.254  -3.986  1.00  0.00     0.167 HD
ATOM     60  C   UNL     1      -7.289 -14.157  -2.378  1.00  0.00     0.074 A 
ATOM     61  C   UNL     1      -7.801 -14.864  -1.222  1.00  0.00     0.031 C 
ATOM     62  C   UNL     1      -7.562 -14.497  -3.661  1.00  0.00     0.037 A 
BRANCH  49  63
ATOM     63  C   UNL     1      -4.973 -10.808  -7.890  1.00  0.00     0.058 A 
ATOM     64  C   UNL     1      -3.770 -11.057  -8.569  1.00  0.00     0.135 A 
ATOM     65  C   UNL     1      -6.032 -10.243  -8.617  1.00  0.00     0.135 A 
ATOM     66  F   UNL     1      -2.720 -11.578  -7.914  1.00  0.00    -0.206 F 
ATOM     67  C   UNL     1      -3.613 -10.735  -9.912  1.00  0.00     0.059 A 
ATOM     68  C   UNL     1      -5.906  -9.936  -9.969  1.00  0.00     0.059 A 
ATOM     69  F   UNL     1      -7.203  -9.980  -8.015  1.00  0.00    -0.206 F 
ATOM     70  C   UNL     1      -4.688 -10.174 -10.604  1.00  0.00     0.060 A 
BRANCH  70  71
ATOM     71  S   UNL     1      -4.474  -9.774 -12.351  1.00  0.00     0.124 S 
ATOM     72  O   UNL     1      -3.667  -8.561 -12.274  1.00  0.00    -0.237 OA
ATOM     73  O   UNL     1      -3.790 -10.958 -12.863  1.00  0.00    -0.237 OA
ATOM     74  O   UNL     1      -5.841  -9.591 -12.826  1.00  0.00    -0.744 OA
ENDBRANCH  70  71
ENDBRANCH  49  63
BRANCH  50  75
ATOM     75  C   UNL     1      -6.069 -12.604   1.894  1.00  0.00     0.058 A 
ATOM     76  C   UNL     1      -5.526 -13.744   2.505  1.00  0.00     0.135 A 
ATOM     77  C   UNL     1      -6.808 -11.721   2.697  1.00  0.00     0.135 A 
ATOM     78  F   UNL     1      -4.815 -14.619   1.777  1.00  0.00    -0.206 F 
ATOM     79  C   UNL     1      -5.729 -14.016   3.854  1.00  0.00     0.059 A 
ATOM     80  C   UNL     1      -7.005 -11.960   4.054  1.00  0.00     0.059 A 
ATOM     81  F   UNL     1      -7.331 -10.606   2.165  1.00  0.00    -0.206 F 
ATOM     82  C   UNL     1      -6.473 -13.118   4.620  1.00  0.00     0.060 A 
BRANCH  82  83
ATOM     83  S   UNL     1      -6.706 -13.463   6.378  1.00  0.00     0.124 S 
ATOM     84  O   UNL     1      -7.726 -14.504   6.340  1.00  0.00    -0.237 OA
ATOM     85  O   UNL     1      -5.372 -13.889   6.790  1.00  0.00    -0.237 OA
ATOM     86  O   UNL     1      -7.137 -12.175   6.915  1.00  0.00    -0.744 OA
ENDBRANCH  82  83
ENDBRANCH  50  75
BRANCH  62  87
ATOM     87  C   UNL     1      -8.416 -15.711  -3.888  1.00  0.00     0.058 A 
ATOM     88  C   UNL     1      -9.804 -15.681  -3.687  1.00  0.00     0.135 A 
ATOM     89  C   UNL     1      -7.844 -16.897  -4.375  1.00  0.00     0.135 A 
ATOM     90  F   UNL     1     -10.395 -14.572  -3.217  1.00  0.00    -0.206 F 
ATOM     91  C   UNL     1     -10.597 -16.793  -3.949  1.00  0.00     0.059 A 
ATOM     92  C   UNL     1      -8.621 -18.014  -4.665  1.00  0.00     0.059 A 
ATOM     93  F   UNL     1      -6.521 -16.971  -4.592  1.00  0.00    -0.206 F 
ATOM     94  C   UNL     1      -9.996 -17.954  -4.440  1.00  0.00     0.060 A 
BRANCH  94  95
ATOM     95  S   UNL     1     -11.040 -19.377  -4.822  1.00  0.00     0.124 S 
ATOM     96  O   UNL     1     -11.305 -19.912  -3.490  1.00  0.00    -0.237 OA
ATOM     97  O   UNL     1     -12.178 -18.760  -5.495  1.00  0.00    -0.237 OA
ATOM     98  O   UNL     1     -10.189 -20.202  -5.674  1.00  0.00    -0.744 OA
ENDBRANCH  94  95
ENDBRANCH  62  87
ENDBRANCH  36  37
ENDBRANCH  28  31
ENDBRANCH  26  27
ENDBRANCH  25  26
ENDBRANCH  24  25
ENDBRANCH   1  24
TORSDOF 20
