REMARK SMILES Cc1ccccc1C(=O)Nc1ccc(N2CCC(n3c(C)nc4cccnc43)CC2)c(C(=O)NCCCCNC(=O)c2ccc(-c3c4nc(c(-c5c(F)cc(S(=O)(=O)[O-])cc5F)c5ccc([nH]5)c(-c5c(F)cc(S(=O)(=O)[O-])cc5F)c5nc(c(-c6c(F)cc(S(=O)(=O)[O-])cc6F)c6ccc3[nH]6)C=C5)C=C4)cc2)c1
REMARK SMILES IDX 37 1 36 2 35 3 34 4 32 5 33 6 31 8 11 9 12 10 108 11 13 12
REMARK SMILES IDX 14 13 10 14 8 15 9 16 7 18 1 19 2 20 3 21 4 22 6 23 5 24
REMARK SMILES IDX 15 25 16 26 30 27 17 28 29 29 18 30 19 31 20 32 28 33 21 34
REMARK SMILES IDX 22 35 23 36 27 37 24 38 26 39 25 40 38 41 39 42 40 43 41 45
REMARK SMILES IDX 42 46 43 47 107 48 44 49 106 50 45 51 46 52 47 53 100 54
REMARK SMILES IDX 48 55 105 56 99 57 101 58 49 59 104 60 98 61 97 62 50 64
REMARK SMILES IDX 84 65 63 66 83 67 64 68 67 69 82 70 102 71 65 72 66 73 81 75
REMARK SMILES IDX 103 76 68 77 51 78 52 79 61 80 53 81 54 82 60 83 62 84 55 85
REMARK SMILES IDX 56 86 57 87 58 88 59 89 85 90 86 91 95 92 87 93 88 94 94 95
REMARK SMILES IDX 96 96 89 97 90 98 91 99 92 100 93 101 69 102 70 103 79 104
REMARK SMILES IDX 71 105 72 106 78 107 80 108 73 109 74 110 75 111 76 112
REMARK SMILES IDX 77 113
REMARK H PARENT 34 7 10 17 39 44 101 63 67 74
REMARK Flexibility Score: inf
ROOT
ATOM      1  C   UNL     1      10.476  -2.324   0.675  1.00  0.00     0.023 C 
ENDROOT
BRANCH   1   2
ATOM      2  C   UNL     1       9.556  -1.702  -0.371  1.00  0.00     0.023 C 
BRANCH   2   3
ATOM      3  C   UNL     1       8.076  -1.549  -0.029  1.00  0.00     0.116 C 
BRANCH   3   4
ATOM      4  N   UNL     1       7.706  -0.764   1.123  1.00  0.00    -0.352 N 
ATOM      5  C   UNL     1       6.508  -0.122   1.389  1.00  0.00     0.253 C 
ATOM      6  O   UNL     1       6.402   0.407   2.500  1.00  0.00    -0.269 OA
ATOM      7  H   UNL     1       8.399  -0.673   1.816  1.00  0.00     0.163 HD
BRANCH   5   8
ATOM      8  C   UNL     1       5.367   0.045   0.413  1.00  0.00     0.065 A 
ATOM      9  C   UNL     1       3.425   1.454  -0.109  1.00  0.00     0.042 A 
ATOM     10  C   UNL     1       3.110   0.651  -1.190  1.00  0.00     0.028 A 
ATOM     11  C   UNL     1       4.615   1.231   0.595  1.00  0.00     0.042 A 
ATOM     12  C   UNL     1       3.851  -0.506  -1.403  1.00  0.00     0.029 A 
ATOM     13  C   UNL     1       4.898  -0.895  -0.534  1.00  0.00     0.050 A 
BRANCH   9  14
ATOM     14  N   UNL     1       2.538   2.421   0.381  1.00  0.00    -0.322 N 
ATOM     15  C   UNL     1       1.156   2.429   0.423  1.00  0.00     0.255 C 
ATOM     16  O   UNL     1       0.595   3.494   0.698  1.00  0.00    -0.269 OA
ATOM     17  H   UNL     1       2.968   3.223   0.757  1.00  0.00     0.170 HD
BRANCH  15  18
ATOM     18  C   UNL     1       0.294   1.214   0.219  1.00  0.00     0.043 A 
ATOM     19  C   UNL     1       1.678  -0.475   1.613  1.00  0.00     0.045 C 
ATOM     20  C   UNL     1       0.527  -0.081   0.733  1.00  0.00    -0.038 A 
ATOM     21  C   UNL     1      -0.402  -1.108   0.452  1.00  0.00     0.004 A 
ATOM     22  C   UNL     1      -1.594  -0.846  -0.218  1.00  0.00     0.000 A 
ATOM     23  C   UNL     1      -0.933   1.461  -0.433  1.00  0.00     0.014 A 
ATOM     24  C   UNL     1      -1.873   0.447  -0.637  1.00  0.00     0.001 A 
ENDBRANCH  15  18
ENDBRANCH   9  14
BRANCH  13  25
ATOM     25  N   UNL     1       5.222  -2.248  -0.549  1.00  0.00    -0.371 N 
ATOM     26  C   UNL     1       5.709  -2.866  -1.773  1.00  0.00     0.118 C 
ATOM     27  C   UNL     1       5.028  -3.009   0.681  1.00  0.00     0.118 C 
ATOM     28  C   UNL     1       5.269  -4.297  -1.954  1.00  0.00     0.047 C 
ATOM     29  C   UNL     1       4.335  -4.325   0.379  1.00  0.00     0.047 C 
ATOM     30  C   UNL     1       5.098  -5.131  -0.672  1.00  0.00     0.094 C 
BRANCH  30  31
ATOM     31  N   UNL     1       4.498  -6.413  -1.061  1.00  0.00    -0.310 N 
ATOM     32  C   UNL     1       3.253  -6.961  -0.815  1.00  0.00     0.108 A 
ATOM     33  C   UNL     1       5.123  -7.249  -1.961  1.00  0.00     0.160 A 
ATOM     34  C   UNL     1       2.353  -6.628   0.319  1.00  0.00     0.088 C 
ATOM     35  N   UNL     1       2.977  -7.910  -1.697  1.00  0.00    -0.232 NA
ATOM     36  C   UNL     1       4.150  -8.149  -2.359  1.00  0.00     0.108 A 
ATOM     37  N   UNL     1       6.399  -7.177  -2.382  1.00  0.00    -0.237 NA
ATOM     38  C   UNL     1       4.510  -9.132  -3.286  1.00  0.00     0.034 A 
ATOM     39  C   UNL     1       6.732  -8.209  -3.192  1.00  0.00     0.113 A 
ATOM     40  C   UNL     1       5.852  -9.172  -3.676  1.00  0.00     0.022 A 
ENDBRANCH  30  31
ENDBRANCH  13  25
ENDBRANCH   5   8
ENDBRANCH   3   4
ENDBRANCH   2   3
ENDBRANCH   1   2
BRANCH   1  41
ATOM     41  C   UNL     1      10.071  -3.679   1.237  1.00  0.00     0.116 C 
BRANCH  41  42
ATOM     42  N   UNL     1      10.582  -4.833   0.531  1.00  0.00    -0.352 N 
ATOM     43  C   UNL     1      10.787  -6.130   0.999  1.00  0.00     0.251 C 
ATOM     44  H   UNL     1      10.819  -4.681  -0.412  1.00  0.00     0.163 HD
ATOM     45  O   UNL     1      11.622  -6.810   0.439  1.00  0.00    -0.269 OA
BRANCH  43  46
ATOM     46  C   UNL     1       9.953  -6.700   2.109  1.00  0.00     0.039 A 
ATOM     47  C   UNL     1       9.819  -8.099   2.203  1.00  0.00     0.014 A 
ATOM     48  C   UNL     1       9.219  -5.911   2.986  1.00  0.00     0.014 A 
ATOM     49  C   UNL     1       8.876  -8.678   3.067  1.00  0.00     0.010 A 
ATOM     50  C   UNL     1       8.251  -6.463   3.786  1.00  0.00     0.010 A 
ATOM     51  C   UNL     1       8.054  -7.843   3.809  1.00  0.00    -0.014 A 
BRANCH  51  52
ATOM     52  C   UNL     1       7.004  -8.216   4.744  1.00  0.00     0.031 A 
ATOM     53  C   UNL     1       7.318  -8.237   6.189  1.00  0.00     0.074 A 
ATOM     54  C   UNL     1       5.745  -8.006   4.308  1.00  0.00     0.049 A 
ATOM     55  N   UNL     1       6.469  -8.454   7.132  1.00  0.00    -0.248 NA
ATOM     56  C   UNL     1       8.671  -7.992   6.678  1.00  0.00     0.031 C 
ATOM     57  C   UNL     1       4.577  -7.575   5.070  1.00  0.00     0.029 A 
ATOM     58  N   UNL     1       5.231  -8.325   3.062  1.00  0.00    -0.354 N 
ATOM     59  C   UNL     1       7.070  -8.111   8.327  1.00  0.00     0.074 A 
ATOM     60  C   UNL     1       8.458  -7.891   7.992  1.00  0.00     0.031 C 
ATOM     61  C   UNL     1       3.469  -7.859   4.362  1.00  0.00     0.029 A 
ATOM     62  C   UNL     1       3.896  -8.692   3.245  1.00  0.00     0.049 A 
ATOM     63  H   UNL     1       5.717  -8.299   2.207  1.00  0.00     0.167 HD
ATOM     64  C   UNL     1       6.291  -7.919   9.433  1.00  0.00     0.037 A 
ATOM     65  C   UNL     1       3.531 -10.009   3.122  1.00  0.00     0.037 A 
ATOM     66  C   UNL     1       4.891  -8.226   9.130  1.00  0.00     0.049 A 
ATOM     67  C   UNL     1       2.924 -10.583   4.371  1.00  0.00     0.074 A 
ATOM     68  C   UNL     1       3.812  -7.423   8.797  1.00  0.00     0.029 A 
ATOM     69  N   UNL     1       4.518  -9.533   8.830  1.00  0.00    -0.354 N 
ATOM     70  N   UNL     1       3.258 -10.233   5.582  1.00  0.00    -0.248 NA
ATOM     71  C   UNL     1       1.847 -11.563   4.333  1.00  0.00     0.031 C 
ATOM     72  C   UNL     1       2.805  -8.251   8.241  1.00  0.00     0.029 A 
ATOM     73  C   UNL     1       3.264  -9.559   8.250  1.00  0.00     0.049 A 
ATOM     74  H   UNL     1       5.071 -10.328   9.006  1.00  0.00     0.167 HD
ATOM     75  C   UNL     1       2.488 -10.932   6.474  1.00  0.00     0.074 A 
ATOM     76  C   UNL     1       1.604 -11.728   5.643  1.00  0.00     0.031 C 
ATOM     77  C   UNL     1       2.648 -10.809   7.825  1.00  0.00     0.037 A 
BRANCH  64  78
ATOM     78  C   UNL     1       6.730  -7.185  10.693  1.00  0.00     0.058 A 
ATOM     79  C   UNL     1       5.783  -6.525  11.512  1.00  0.00     0.135 A 
ATOM     80  C   UNL     1       8.062  -7.047  11.134  1.00  0.00     0.135 A 
ATOM     81  F   UNL     1       4.466  -6.640  11.294  1.00  0.00    -0.206 F 
ATOM     82  C   UNL     1       6.135  -5.713  12.595  1.00  0.00     0.059 A 
ATOM     83  C   UNL     1       8.446  -6.197  12.178  1.00  0.00     0.059 A 
ATOM     84  F   UNL     1       9.051  -7.783  10.615  1.00  0.00    -0.206 F 
ATOM     85  C   UNL     1       7.474  -5.524  12.901  1.00  0.00     0.060 A 
BRANCH  85  86
ATOM     86  S   UNL     1       7.915  -4.426  14.261  1.00  0.00     0.124 S 
ATOM     87  O   UNL     1       7.280  -3.174  13.864  1.00  0.00    -0.237 OA
ATOM     88  O   UNL     1       7.321  -5.106  15.407  1.00  0.00    -0.237 OA
ATOM     89  O   UNL     1       9.376  -4.416  14.230  1.00  0.00    -0.744 OA
ENDBRANCH  85  86
ENDBRANCH  64  78
BRANCH  65  90
ATOM     90  C   UNL     1       4.424 -10.782   2.205  1.00  0.00     0.058 A 
ATOM     91  C   UNL     1       4.382 -10.444   0.847  1.00  0.00     0.135 A 
ATOM     92  C   UNL     1       5.587 -11.411   2.682  1.00  0.00     0.135 A 
ATOM     93  F   UNL     1       3.272  -9.887   0.341  1.00  0.00    -0.206 F 
ATOM     94  C   UNL     1       5.517 -10.519   0.050  1.00  0.00     0.059 A 
ATOM     95  C   UNL     1       6.733 -11.514   1.888  1.00  0.00     0.059 A 
ATOM     96  F   UNL     1       5.672 -11.796   3.963  1.00  0.00    -0.206 F 
ATOM     97  C   UNL     1       6.708 -10.982   0.601  1.00  0.00     0.060 A 
BRANCH  97  98
ATOM     98  S   UNL     1       8.232 -10.693  -0.331  1.00  0.00     0.124 S 
ATOM     99  O   UNL     1       7.946 -11.331  -1.613  1.00  0.00    -0.237 OA
ATOM    100  O   UNL     1       8.291  -9.236  -0.358  1.00  0.00    -0.237 OA
ATOM    101  O   UNL     1       9.254 -11.343   0.483  1.00  0.00    -0.744 OA
ENDBRANCH  97  98
ENDBRANCH  65  90
BRANCH  77 102
ATOM    102  C   UNL     1       2.151 -11.798   8.857  1.00  0.00     0.058 A 
ATOM    103  C   UNL     1       1.821 -13.136   8.568  1.00  0.00     0.135 A 
ATOM    104  C   UNL     1       2.138 -11.463  10.234  1.00  0.00     0.135 A 
ATOM    105  F   UNL     1       1.928 -13.641   7.332  1.00  0.00    -0.206 F 
ATOM    106  C   UNL     1       1.423 -14.044   9.548  1.00  0.00     0.059 A 
ATOM    107  C   UNL     1       1.808 -12.375  11.236  1.00  0.00     0.059 A 
ATOM    108  F   UNL     1       2.479 -10.239  10.662  1.00  0.00    -0.206 F 
ATOM    109  C   UNL     1       1.422 -13.657  10.881  1.00  0.00     0.060 A 
BRANCH 109 110
ATOM    110  S   UNL     1       0.991 -14.866  12.143  1.00  0.00     0.124 S 
ATOM    111  O   UNL     1      -0.465 -14.767  12.154  1.00  0.00    -0.237 OA
ATOM    112  O   UNL     1       1.534 -16.107  11.596  1.00  0.00    -0.237 OA
ATOM    113  O   UNL     1       1.670 -14.366  13.334  1.00  0.00    -0.744 OA
ENDBRANCH 109 110
ENDBRANCH  77 102
ENDBRANCH  51  52
ENDBRANCH  43  46
ENDBRANCH  41  42
ENDBRANCH   1  41
TORSDOF 18
