REMARK SMILES O=C(NCCCCNC(=O)[C@@]1(C(F)(F)F)CCN(C(=O)Cc2ccn[nH]2)C1)c1ccc(-c2c3nc(c(-c4c(F)cc(S(=O)(=O)[O-])cc4F)c4ccc([nH]4)c(-c4c(F)cc(S(=O)(=O)[O-])cc4F)c4nc(c(-c5c(F)cc(S(=O)(=O)[O-])cc5F)c5ccc2[nH]5)C=C4)C=C3)cc1
REMARK SMILES IDX 5 1 4 2 3 3 1 4 2 5 28 7 29 8 93 9 30 10 92 11 31 12 32 13
REMARK SMILES IDX 33 14 86 15 34 16 91 17 85 18 87 19 35 20 90 21 84 22 83 23
REMARK SMILES IDX 36 25 70 26 49 27 69 28 50 29 53 30 68 31 88 32 51 33 52 34
REMARK SMILES IDX 67 36 89 37 54 38 37 39 38 40 47 41 39 42 40 43 46 44 48 45
REMARK SMILES IDX 41 46 42 47 43 48 44 49 45 50 71 51 72 52 81 53 73 54 74 55
REMARK SMILES IDX 80 56 82 57 75 58 76 59 77 60 78 61 79 62 55 63 56 64 65 65
REMARK SMILES IDX 57 66 58 67 64 68 66 69 59 70 60 71 61 72 62 73 63 74 6 75
REMARK SMILES IDX 7 76 8 77 9 78 10 80 11 81 16 82 27 83 17 84 18 85 12 86
REMARK SMILES IDX 13 87 14 88 15 89 19 90 20 91 21 92 22 93 23 94 26 95 24 96
REMARK SMILES IDX 25 97
REMARK H PARENT 3 6 87 24 53 35 8 79 26 98
REMARK Flexibility Score: inf
ROOT
ATOM      1  C   UNL     1       8.912   3.843   6.097  1.00  0.00     0.023 C 
ENDROOT
BRANCH   1   2
ATOM      2  C   UNL     1       8.107   3.375   7.301  1.00  0.00     0.116 C 
BRANCH   2   3
ATOM      3  N   UNL     1       7.776   1.960   7.249  1.00  0.00    -0.352 N 
ATOM      4  O   UNL     1       7.558  -0.130   8.061  1.00  0.00    -0.269 OA
ATOM      5  C   UNL     1       7.739   1.056   8.285  1.00  0.00     0.251 C 
ATOM      6  H   UNL     1       7.548   1.605   6.360  1.00  0.00     0.163 HD
BRANCH   5   7
ATOM      7  C   UNL     1       7.953   1.540   9.667  1.00  0.00     0.039 A 
ATOM      8  C   UNL     1       7.265   2.661  10.139  1.00  0.00     0.014 A 
ATOM      9  C   UNL     1       8.862   0.869  10.489  1.00  0.00     0.014 A 
ATOM     10  C   UNL     1       7.567   3.176  11.393  1.00  0.00     0.010 A 
ATOM     11  C   UNL     1       9.112   1.348  11.777  1.00  0.00     0.010 A 
ATOM     12  C   UNL     1       8.479   2.515  12.232  1.00  0.00    -0.014 A 
BRANCH  12  13
ATOM     13  C   UNL     1       8.675   3.009  13.616  1.00  0.00     0.031 A 
ATOM     14  C   UNL     1       9.986   3.591  14.061  1.00  0.00     0.074 A 
ATOM     15  C   UNL     1       7.633   2.934  14.468  1.00  0.00     0.049 A 
ATOM     16  N   UNL     1      10.313   4.069  15.234  1.00  0.00    -0.248 NA
ATOM     17  C   UNL     1      11.074   3.639  13.071  1.00  0.00     0.031 C 
ATOM     18  C   UNL     1       6.322   2.363  14.144  1.00  0.00     0.029 A 
ATOM     19  N   UNL     1       7.502   3.344  15.768  1.00  0.00    -0.354 N 
ATOM     20  C   UNL     1      11.643   4.457  15.134  1.00  0.00     0.074 A 
ATOM     21  C   UNL     1      12.071   4.147  13.786  1.00  0.00     0.031 C 
ATOM     22  C   UNL     1       5.512   2.488  15.205  1.00  0.00     0.029 A 
ATOM     23  C   UNL     1       6.259   3.095  16.299  1.00  0.00     0.049 A 
ATOM     24  H   UNL     1       8.229   3.774  16.274  1.00  0.00     0.167 HD
ATOM     25  C   UNL     1      12.428   5.022  16.082  1.00  0.00     0.037 A 
ATOM     26  C   UNL     1       5.778   3.311  17.537  1.00  0.00     0.037 A 
ATOM     27  C   UNL     1      11.982   5.348  17.413  1.00  0.00     0.049 A 
ATOM     28  C   UNL     1       6.673   3.938  18.564  1.00  0.00     0.074 A 
ATOM     29  C   UNL     1      12.686   5.976  18.427  1.00  0.00     0.029 A 
ATOM     30  N   UNL     1      10.720   5.070  17.919  1.00  0.00    -0.354 N 
ATOM     31  N   UNL     1       7.916   4.339  18.435  1.00  0.00    -0.248 NA
ATOM     32  C   UNL     1       6.108   4.137  19.904  1.00  0.00     0.031 C 
ATOM     33  C   UNL     1      11.864   6.043  19.557  1.00  0.00     0.029 A 
ATOM     34  C   UNL     1      10.634   5.491  19.236  1.00  0.00     0.049 A 
ATOM     35  H   UNL     1       9.993   4.637  17.416  1.00  0.00     0.167 HD
ATOM     36  C   UNL     1       8.280   4.842  19.677  1.00  0.00     0.074 A 
ATOM     37  C   UNL     1       7.119   4.718  20.535  1.00  0.00     0.031 C 
ATOM     38  C   UNL     1       9.471   5.353  20.074  1.00  0.00     0.037 A 
BRANCH  25  39
ATOM     39  C   UNL     1      13.859   5.324  15.733  1.00  0.00     0.058 A 
ATOM     40  C   UNL     1      14.206   6.423  14.934  1.00  0.00     0.135 A 
ATOM     41  C   UNL     1      14.900   4.560  16.286  1.00  0.00     0.135 A 
ATOM     42  F   UNL     1      13.249   7.177  14.370  1.00  0.00    -0.206 F 
ATOM     43  C   UNL     1      15.536   6.755  14.692  1.00  0.00     0.059 A 
ATOM     44  C   UNL     1      16.237   4.884  16.073  1.00  0.00     0.059 A 
ATOM     45  F   UNL     1      14.622   3.497  17.056  1.00  0.00    -0.206 F 
ATOM     46  C   UNL     1      16.545   5.982  15.271  1.00  0.00     0.060 A 
BRANCH  46  47
ATOM     47  S   UNL     1      18.266   6.451  14.985  1.00  0.00     0.124 S 
ATOM     48  O   UNL     1      18.454   6.032  13.599  1.00  0.00    -0.237 OA
ATOM     49  O   UNL     1      18.238   7.893  15.212  1.00  0.00    -0.237 OA
ATOM     50  O   UNL     1      19.000   5.677  15.980  1.00  0.00    -0.744 OA
ENDBRANCH  46  47
ENDBRANCH  25  39
BRANCH  26  51
ATOM     51  C   UNL     1       4.389   2.907  17.871  1.00  0.00     0.058 A 
ATOM     52  C   UNL     1       3.390   3.863  18.099  1.00  0.00     0.135 A 
ATOM     53  C   UNL     1       4.033   1.551  17.955  1.00  0.00     0.135 A 
ATOM     54  F   UNL     1       3.684   5.170  18.030  1.00  0.00    -0.206 F 
ATOM     55  C   UNL     1       2.088   3.491  18.419  1.00  0.00     0.059 A 
ATOM     56  C   UNL     1       2.733   1.155  18.247  1.00  0.00     0.059 A 
ATOM     57  F   UNL     1       4.950   0.599  17.724  1.00  0.00    -0.206 F 
ATOM     58  C   UNL     1       1.770   2.133  18.492  1.00  0.00     0.060 A 
BRANCH  58  59
ATOM     59  S   UNL     1       0.071   1.653  18.869  1.00  0.00     0.124 S 
ATOM     60  O   UNL     1       0.032   1.833  20.315  1.00  0.00    -0.237 OA
ATOM     61  O   UNL     1      -0.704   2.608  18.084  1.00  0.00    -0.237 OA
ATOM     62  O   UNL     1       0.005   0.272  18.400  1.00  0.00    -0.744 OA
ENDBRANCH  58  59
ENDBRANCH  26  51
BRANCH  38  63
ATOM     63  C   UNL     1       9.567   5.822  21.496  1.00  0.00     0.058 A 
ATOM     64  C   UNL     1       9.662   4.912  22.560  1.00  0.00     0.135 A 
ATOM     65  C   UNL     1       9.590   7.193  21.796  1.00  0.00     0.135 A 
ATOM     66  F   UNL     1       9.634   3.591  22.323  1.00  0.00    -0.206 F 
ATOM     67  C   UNL     1       9.752   5.345  23.878  1.00  0.00     0.059 A 
ATOM     68  C   UNL     1       9.702   7.648  23.105  1.00  0.00     0.059 A 
ATOM     69  F   UNL     1       9.509   8.102  20.812  1.00  0.00    -0.206 F 
ATOM     70  C   UNL     1       9.769   6.716  24.141  1.00  0.00     0.060 A 
BRANCH  70  71
ATOM     71  S   UNL     1       9.906   7.270  25.853  1.00  0.00     0.124 S 
ATOM     72  O   UNL     1       8.546   7.061  26.338  1.00  0.00    -0.237 OA
ATOM     73  O   UNL     1      10.918   6.369  26.396  1.00  0.00    -0.237 OA
ATOM     74  O   UNL     1      10.321   8.663  25.725  1.00  0.00    -0.744 OA
ENDBRANCH  70  71
ENDBRANCH  38  63
ENDBRANCH  12  13
ENDBRANCH   5   7
ENDBRANCH   2   3
ENDBRANCH   1   2
BRANCH   1  75
ATOM     75  C   UNL     1       8.239   3.623   4.742  1.00  0.00     0.023 C 
BRANCH  75  76
ATOM     76  C   UNL     1       6.866   4.277   4.595  1.00  0.00     0.116 C 
BRANCH  76  77
ATOM     77  N   UNL     1       6.965   5.725   4.614  1.00  0.00    -0.355 N 
ATOM     78  C   UNL     1       6.956   6.661   3.629  1.00  0.00     0.237 C 
ATOM     79  H   UNL     1       7.058   6.104   5.519  1.00  0.00     0.163 HD
ATOM     80  O   UNL     1       7.234   7.809   3.986  1.00  0.00    -0.274 OA
BRANCH  78  81
ATOM     81  C   UNL     1       6.599   6.352   2.186  1.00  0.00     0.163 C 
ATOM     82  C   UNL     1       5.238   5.650   2.044  1.00  0.00     0.050 C 
ATOM     83  C   UNL     1       6.364   7.673   1.426  1.00  0.00     0.146 C 
ATOM     84  C   UNL     1       4.705   6.098   0.698  1.00  0.00     0.121 C 
ATOM     85  N   UNL     1       5.260   7.419   0.508  1.00  0.00    -0.341 N 
BRANCH  81  86
ATOM     86  C   UNL     1       7.741   5.620   1.523  1.00  0.00     0.404 C 
ATOM     87  F   UNL     1       8.929   6.227   1.724  1.00  0.00    -0.170 F 
ATOM     88  F   UNL     1       7.856   4.347   1.960  1.00  0.00    -0.170 F 
ATOM     89  F   UNL     1       7.565   5.528   0.183  1.00  0.00    -0.170 F 
ENDBRANCH  81  86
BRANCH  85  90
ATOM     90  C   UNL     1       4.909   8.328  -0.468  1.00  0.00     0.228 C 
ATOM     91  O   UNL     1       5.540   9.372  -0.648  1.00  0.00    -0.274 OA
BRANCH  90  92
ATOM     92  C   UNL     1       3.710   7.999  -1.346  1.00  0.00     0.155 C 
BRANCH  92  93
ATOM     93  C   UNL     1       4.099   7.049  -2.423  1.00  0.00     0.044 A 
ATOM     94  C   UNL     1       3.714   5.755  -2.699  1.00  0.00     0.045 A 
ATOM     95  N   UNL     1       5.015   7.380  -3.388  1.00  0.00    -0.282 N 
ATOM     96  C   UNL     1       4.459   5.396  -3.836  1.00  0.00     0.135 A 
ATOM     97  N   UNL     1       5.239   6.388  -4.267  1.00  0.00    -0.184 NA
ATOM     98  H   UNL     1       5.463   8.255  -3.432  1.00  0.00     0.190 HD
ENDBRANCH  92  93
ENDBRANCH  90  92
ENDBRANCH  85  90
ENDBRANCH  78  81
ENDBRANCH  76  77
ENDBRANCH  75  76
ENDBRANCH   1  75
TORSDOF 18
