REMARK SMILES CC(C)(C)c1cc(NC(=O)CSC[C@H]([NH3+])C(=O)NCCCCNC(=O)c2ccc(-c3c4nc(c(-c5c(F)cc(S(=O)(=O)[O-])cc5F)c5ccc([nH]5)c(-c5c(F)cc(S(=O)(=O)[O-])cc5F)c5nc(c(-c6c(F)cc(S(=O)(=O)[O-])cc6F)c6ccc3[nH]6)C=C5)C=C4)cc2)on1
REMARK SMILES IDX 19 1 18 2 16 3 17 4 14 6 13 7 12 8 11 9 9 10 8 11 10 13 7 14
REMARK SMILES IDX 5 15 6 16 93 17 92 18 2 19 1 20 3 21 4 22 15 23 20 27 21 28
REMARK SMILES IDX 22 29 23 30 24 31 25 33 26 34 27 35 91 36 28 37 90 38 29 39
REMARK SMILES IDX 30 40 31 41 84 42 32 43 89 44 83 45 85 46 33 47 88 48 82 49
REMARK SMILES IDX 81 50 34 52 68 53 47 54 67 55 48 56 51 57 66 58 86 59 49 60
REMARK SMILES IDX 50 61 65 63 87 64 52 65 35 66 36 67 45 68 37 69 38 70 44 71
REMARK SMILES IDX 46 72 39 73 40 74 41 75 42 76 43 77 69 78 70 79 79 80 71 81
REMARK SMILES IDX 72 82 78 83 80 84 73 85 74 86 75 87 76 88 77 89 53 90 54 91
REMARK SMILES IDX 63 92 55 93 56 94 62 95 64 96 57 97 58 98 59 99 60 100
REMARK SMILES IDX 61 101
REMARK H PARENT 18 5 8 12 15 24 15 25 15 26 23 32 85 51 51 62
REMARK Flexibility Score: inf
ROOT
ATOM      1  C   UNL     1       4.277   6.829  -2.942  1.00  0.00     0.116 C 
ENDROOT
BRANCH   1   2
ATOM      2  N   UNL     1       5.604   6.753  -3.522  1.00  0.00    -0.351 N 
ATOM      3  C   UNL     1       6.073   6.161  -4.653  1.00  0.00     0.279 C 
ATOM      4  O   UNL     1       7.266   6.319  -4.927  1.00  0.00    -0.268 OA
ATOM      5  H   UNL     1       6.296   7.218  -2.998  1.00  0.00     0.163 HD
BRANCH   3   6
ATOM      6  C   UNL     1       5.172   5.318  -5.567  1.00  0.00     0.280 C 
BRANCH   6   7
ATOM      7  C   UNL     1       4.062   6.150  -6.226  1.00  0.00     0.145 C 
BRANCH   7   8
ATOM      8  S   UNL     1       4.587   7.167  -7.654  1.00  0.00    -0.145 SA
BRANCH   8   9
ATOM      9  C   UNL     1       5.387   8.624  -6.886  1.00  0.00     0.170 C 
BRANCH   9  10
ATOM     10  C   UNL     1       4.612   9.284  -5.760  1.00  0.00     0.236 C 
ATOM     11  N   UNL     1       3.369   9.819  -5.902  1.00  0.00    -0.294 N 
ATOM     12  H   UNL     1       2.902  10.051  -5.067  1.00  0.00     0.173 HD
ATOM     13  O   UNL     1       5.121   9.378  -4.635  1.00  0.00    -0.274 OA
BRANCH  11  14
ATOM     14  C   UNL     1       2.688  10.074  -7.058  1.00  0.00     0.231 A 
ATOM     15  C   UNL     1       1.300  10.717  -8.649  1.00  0.00     0.091 A 
ATOM     16  C   UNL     1       1.432  10.593  -7.241  1.00  0.00     0.097 A 
ATOM     17  N   UNL     1       2.404  10.276  -9.265  1.00  0.00    -0.082 NA
ATOM     18  O   UNL     1       3.268   9.888  -8.266  1.00  0.00    -0.338 OA
BRANCH  15  19
ATOM     19  C   UNL     1       0.150  11.309  -9.436  1.00  0.00     0.008 C 
ATOM     20  C   UNL     1      -1.181  10.642  -9.036  1.00  0.00     0.018 C 
ATOM     21  C   UNL     1       0.336  11.119 -10.957  1.00  0.00     0.018 C 
ATOM     22  C   UNL     1       0.062  12.820  -9.144  1.00  0.00     0.018 C 
ENDBRANCH  15  19
ENDBRANCH  11  14
ENDBRANCH   9  10
ENDBRANCH   8   9
ENDBRANCH   7   8
ENDBRANCH   6   7
BRANCH   6  23
ATOM     23  N   UNL     1       4.645   4.136  -4.836  1.00  0.00    -0.347 N 
ATOM     24  H   UNL     1       4.065   4.449  -4.057  1.00  0.00     0.345 HD
ATOM     25  H   UNL     1       5.423   3.582  -4.479  1.00  0.00     0.345 HD
ATOM     26  H   UNL     1       4.085   3.566  -5.470  1.00  0.00     0.345 HD
ENDBRANCH   6  23
ENDBRANCH   3   6
ENDBRANCH   1   2
BRANCH   1  27
ATOM     27  C   UNL     1       4.317   6.789  -1.418  1.00  0.00     0.023 C 
BRANCH  27  28
ATOM     28  C   UNL     1       5.049   7.960  -0.756  1.00  0.00     0.023 C 
BRANCH  28  29
ATOM     29  C   UNL     1       4.528   9.350  -1.107  1.00  0.00     0.116 C 
BRANCH  29  30
ATOM     30  N   UNL     1       3.140   9.553  -0.721  1.00  0.00    -0.352 N 
ATOM     31  C   UNL     1       2.581  10.585  -0.008  1.00  0.00     0.251 C 
ATOM     32  H   UNL     1       2.514   8.851  -1.013  1.00  0.00     0.163 HD
ATOM     33  O   UNL     1       1.396  10.530   0.313  1.00  0.00    -0.269 OA
BRANCH  31  34
ATOM     34  C   UNL     1       3.410  11.741   0.399  1.00  0.00     0.039 A 
ATOM     35  C   UNL     1       3.352  12.177   1.725  1.00  0.00     0.014 A 
ATOM     36  C   UNL     1       4.248  12.386  -0.515  1.00  0.00     0.014 A 
ATOM     37  C   UNL     1       4.181  13.217   2.151  1.00  0.00     0.010 A 
ATOM     38  C   UNL     1       5.121  13.379  -0.074  1.00  0.00     0.010 A 
ATOM     39  C   UNL     1       5.097  13.806   1.263  1.00  0.00    -0.014 A 
BRANCH  39  40
ATOM     40  C   UNL     1       6.023  14.879   1.712  1.00  0.00     0.031 A 
ATOM     41  C   UNL     1       5.898  16.268   1.143  1.00  0.00     0.074 A 
ATOM     42  C   UNL     1       7.000  14.598   2.598  1.00  0.00     0.049 A 
ATOM     43  N   UNL     1       6.650  17.318   1.351  1.00  0.00    -0.248 NA
ATOM     44  C   UNL     1       4.793  16.501   0.198  1.00  0.00     0.031 C 
ATOM     45  C   UNL     1       7.248  13.286   3.200  1.00  0.00     0.029 A 
ATOM     46  N   UNL     1       7.973  15.399   3.144  1.00  0.00    -0.354 N 
ATOM     47  C   UNL     1       6.112  18.332   0.568  1.00  0.00     0.074 A 
ATOM     48  C   UNL     1       5.006  17.757  -0.167  1.00  0.00     0.031 C 
ATOM     49  C   UNL     1       8.289  13.377   4.045  1.00  0.00     0.029 A 
ATOM     50  C   UNL     1       8.805  14.742   4.020  1.00  0.00     0.049 A 
ATOM     51  H   UNL     1       8.067  16.355   2.927  1.00  0.00     0.167 HD
ATOM     52  C   UNL     1       6.484  19.632   0.489  1.00  0.00     0.037 A 
ATOM     53  C   UNL     1       9.867  15.188   4.720  1.00  0.00     0.037 A 
ATOM     54  C   UNL     1       7.572  20.208   1.234  1.00  0.00     0.049 A 
ATOM     55  C   UNL     1      10.274  16.634   4.595  1.00  0.00     0.074 A 
ATOM     56  C   UNL     1       8.022  21.517   1.229  1.00  0.00     0.029 A 
ATOM     57  N   UNL     1       8.375  19.514   2.127  1.00  0.00    -0.354 N 
ATOM     58  N   UNL     1       9.732  17.585   3.871  1.00  0.00    -0.248 NA
ATOM     59  C   UNL     1      11.432  17.070   5.389  1.00  0.00     0.031 C 
ATOM     60  C   UNL     1       9.112  21.610   2.100  1.00  0.00     0.029 A 
ATOM     61  C   UNL     1       9.316  20.368   2.679  1.00  0.00     0.049 A 
ATOM     62  H   UNL     1       8.289  18.556   2.337  1.00  0.00     0.167 HD
ATOM     63  C   UNL     1      10.456  18.738   4.156  1.00  0.00     0.074 A 
ATOM     64  C   UNL     1      11.470  18.368   5.120  1.00  0.00     0.031 C 
ATOM     65  C   UNL     1      10.296  19.991   3.664  1.00  0.00     0.037 A 
BRANCH  52  66
ATOM     66  C   UNL     1       5.690  20.530  -0.418  1.00  0.00     0.058 A 
ATOM     67  C   UNL     1       4.383  20.925  -0.089  1.00  0.00     0.135 A 
ATOM     68  C   UNL     1       6.251  21.043  -1.599  1.00  0.00     0.135 A 
ATOM     69  F   UNL     1       3.792  20.449   1.019  1.00  0.00    -0.206 F 
ATOM     70  C   UNL     1       3.654  21.781  -0.906  1.00  0.00     0.059 A 
ATOM     71  C   UNL     1       5.549  21.921  -2.419  1.00  0.00     0.059 A 
ATOM     72  F   UNL     1       7.496  20.696  -1.962  1.00  0.00    -0.206 F 
ATOM     73  C   UNL     1       4.246  22.276  -2.069  1.00  0.00     0.060 A 
BRANCH  73  74
ATOM     74  S   UNL     1       3.290  23.401  -3.108  1.00  0.00     0.124 S 
ATOM     75  O   UNL     1       2.324  22.488  -3.712  1.00  0.00    -0.237 OA
ATOM     76  O   UNL     1       2.749  24.342  -2.133  1.00  0.00    -0.237 OA
ATOM     77  O   UNL     1       4.287  23.951  -4.021  1.00  0.00    -0.744 OA
ENDBRANCH  73  74
ENDBRANCH  52  66
BRANCH  53  78
ATOM     78  C   UNL     1      10.621  14.273   5.619  1.00  0.00     0.058 A 
ATOM     79  C   UNL     1      10.583  14.440   7.012  1.00  0.00     0.135 A 
ATOM     80  C   UNL     1      11.426  13.244   5.107  1.00  0.00     0.135 A 
ATOM     81  F   UNL     1       9.831  15.413   7.550  1.00  0.00    -0.206 F 
ATOM     82  C   UNL     1      11.348  13.649   7.863  1.00  0.00     0.059 A 
ATOM     83  C   UNL     1      12.178  12.421   5.940  1.00  0.00     0.059 A 
ATOM     84  F   UNL     1      11.482  13.029   3.784  1.00  0.00    -0.206 F 
ATOM     85  C   UNL     1      12.149  12.646   7.316  1.00  0.00     0.060 A 
BRANCH  85  86
ATOM     86  S   UNL     1      13.141  11.624   8.426  1.00  0.00     0.124 S 
ATOM     87  O   UNL     1      14.227  12.535   8.769  1.00  0.00    -0.237 OA
ATOM     88  O   UNL     1      12.197  11.325   9.498  1.00  0.00    -0.237 OA
ATOM     89  O   UNL     1      13.511  10.486   7.590  1.00  0.00    -0.744 OA
ENDBRANCH  85  86
ENDBRANCH  53  78
BRANCH  65  90
ATOM     90  C   UNL     1      11.191  21.069   4.207  1.00  0.00     0.058 A 
ATOM     91  C   UNL     1      12.546  21.156   3.856  1.00  0.00     0.135 A 
ATOM     92  C   UNL     1      10.667  22.059   5.056  1.00  0.00     0.135 A 
ATOM     93  F   UNL     1      13.096  20.232   3.053  1.00  0.00    -0.206 F 
ATOM     94  C   UNL     1      13.359  22.173   4.347  1.00  0.00     0.059 A 
ATOM     95  C   UNL     1      11.455  23.099   5.537  1.00  0.00     0.059 A 
ATOM     96  F   UNL     1       9.374  22.028   5.413  1.00  0.00    -0.206 F 
ATOM     97  C   UNL     1      12.804  23.141   5.186  1.00  0.00     0.060 A 
BRANCH  97  98
ATOM     98  S   UNL     1      13.860  24.475   5.790  1.00  0.00     0.124 S 
ATOM     99  O   UNL     1      14.641  23.790   6.814  1.00  0.00    -0.237 OA
ATOM    100  O   UNL     1      14.592  24.863   4.588  1.00  0.00    -0.237 OA
ATOM    101  O   UNL     1      12.907  25.465   6.283  1.00  0.00    -0.744 OA
ENDBRANCH  97  98
ENDBRANCH  65  90
ENDBRANCH  39  40
ENDBRANCH  31  34
ENDBRANCH  29  30
ENDBRANCH  28  29
ENDBRANCH  27  28
ENDBRANCH   1  27
TORSDOF 21
