REMARK SMILES O=C(CN1C(=O)/C(=C\c2c(F)cccc2Cl)Oc2ccccc21)NCCCCNC(=O)c1ccc(-c2c3nc(c(-c4c(F)cc(S(=O)(=O)[O-])cc4F)c4ccc([nH]4)c(-c4c(F)cc(S(=O)(=O)[O-])cc4F)c4nc(c(-c5c(F)cc(S(=O)(=O)[O-])cc5F)c5ccc2[nH]5)C=C4)C=C3)cc1
REMARK SMILES IDX 27 1 26 2 25 3 24 4 1 5 2 6 3 8 4 9 5 10 23 11 6 12 7 13
REMARK SMILES IDX 18 14 22 15 8 16 17 17 19 18 21 19 20 20 9 21 10 22 15 23
REMARK SMILES IDX 11 24 12 25 14 26 16 27 13 28 28 29 29 30 30 31 31 33 32 34
REMARK SMILES IDX 33 35 97 36 34 37 96 38 35 39 36 40 37 41 90 42 38 43 95 44
REMARK SMILES IDX 89 45 91 46 39 47 94 48 88 49 87 50 40 52 74 53 53 54 73 55
REMARK SMILES IDX 54 56 57 57 72 58 92 59 55 60 56 61 71 63 93 64 58 65 41 66
REMARK SMILES IDX 42 67 51 68 43 69 44 70 50 71 52 72 45 73 46 74 47 75 48 76
REMARK SMILES IDX 49 77 75 78 76 79 85 80 77 81 78 82 84 83 86 84 79 85 80 86
REMARK SMILES IDX 81 87 82 88 83 89 59 90 60 91 69 92 61 93 62 94 68 95 70 96
REMARK SMILES IDX 63 97 64 98 65 99 66 100 67 101
REMARK H PARENT 24 7 29 32 91 51 57 62
REMARK Flexibility Score: inf
ROOT
ATOM      1  C   UNL     1       3.914   3.081   2.711  1.00  0.00     0.023 C 
ENDROOT
BRANCH   1   2
ATOM      2  C   UNL     1       2.417   2.778   2.691  1.00  0.00     0.023 C 
BRANCH   2   3
ATOM      3  C   UNL     1       1.848   2.329   1.351  1.00  0.00     0.116 C 
BRANCH   3   4
ATOM      4  N   UNL     1       2.459   1.132   0.803  1.00  0.00    -0.355 N 
ATOM      5  O   UNL     1       0.481   0.286   0.019  1.00  0.00    -0.273 OA
ATOM      6  C   UNL     1       1.712   0.259   0.039  1.00  0.00     0.240 C 
ATOM      7  H   UNL     1       3.409   0.943   0.977  1.00  0.00     0.163 HD
BRANCH   6   8
ATOM      8  C   UNL     1       2.484  -0.831  -0.706  1.00  0.00     0.226 C 
BRANCH   8   9
ATOM      9  N   UNL     1       3.751  -0.582  -1.404  1.00  0.00    -0.293 N 
ATOM     10  C   UNL     1       4.598  -1.688  -1.495  1.00  0.00     0.294 C 
ATOM     11  C   UNL     1       4.059   0.619  -2.105  1.00  0.00     0.088 A 
ATOM     12  O   UNL     1       4.266  -2.790  -1.056  1.00  0.00    -0.265 OA
ATOM     13  C   UNL     1       5.923  -1.478  -2.177  1.00  0.00     0.193 C 
ATOM     14  C   UNL     1       5.298   0.734  -2.743  1.00  0.00     0.151 A 
ATOM     15  C   UNL     1       3.190   1.714  -2.195  1.00  0.00     0.030 A 
ATOM     16  C   UNL     1       6.901  -2.402  -2.145  1.00  0.00     0.065 C 
ATOM     17  O   UNL     1       6.199  -0.290  -2.833  1.00  0.00    -0.449 OA
ATOM     18  C   UNL     1       5.702   1.930  -3.349  1.00  0.00     0.049 A 
ATOM     19  C   UNL     1       3.595   2.920  -2.781  1.00  0.00     0.002 A 
ATOM     20  C   UNL     1       4.859   3.035  -3.343  1.00  0.00     0.004 A 
BRANCH  16  21
ATOM     21  C   UNL     1       6.885  -3.644  -1.361  1.00  0.00     0.033 A 
ATOM     22  C   UNL     1       6.435  -4.837  -1.938  1.00  0.00     0.132 A 
ATOM     23  C   UNL     1       7.244  -3.658  -0.003  1.00  0.00     0.051 A 
ATOM     24  F   UNL     1       6.082  -4.871  -3.233  1.00  0.00    -0.206 F 
ATOM     25  C   UNL     1       6.321  -6.008  -1.189  1.00  0.00     0.040 A 
ATOM     26  C   UNL     1       7.139  -4.831   0.751  1.00  0.00     0.021 A 
ATOM     27  Cl  UNL     1       7.809  -2.232   0.802  1.00  0.00    -0.084 Cl
ATOM     28  C   UNL     1       6.670  -6.004   0.160  1.00  0.00     0.005 A 
ENDBRANCH  16  21
ENDBRANCH   8   9
ENDBRANCH   6   8
ENDBRANCH   3   4
ENDBRANCH   2   3
ENDBRANCH   1   2
BRANCH   1  29
ATOM     29  C   UNL     1       4.413   4.052   1.646  1.00  0.00     0.116 C 
BRANCH  29  30
ATOM     30  N   UNL     1       3.884   5.401   1.795  1.00  0.00    -0.352 N 
ATOM     31  C   UNL     1       4.546   6.594   1.982  1.00  0.00     0.251 C 
ATOM     32  H   UNL     1       2.902   5.470   1.756  1.00  0.00     0.163 HD
ATOM     33  O   UNL     1       3.904   7.620   2.194  1.00  0.00    -0.269 OA
BRANCH  31  34
ATOM     34  C   UNL     1       6.027   6.638   1.972  1.00  0.00     0.039 A 
ATOM     35  C   UNL     1       6.761   5.980   0.983  1.00  0.00     0.014 A 
ATOM     36  C   UNL     1       6.694   7.332   2.988  1.00  0.00     0.014 A 
ATOM     37  C   UNL     1       8.141   5.855   1.117  1.00  0.00     0.010 A 
ATOM     38  C   UNL     1       8.089   7.272   3.074  1.00  0.00     0.010 A 
ATOM     39  C   UNL     1       8.821   6.481   2.175  1.00  0.00    -0.014 A 
BRANCH  39  40
ATOM     40  C   UNL     1      10.284   6.259   2.341  1.00  0.00     0.031 A 
ATOM     41  C   UNL     1      10.812   5.510   3.540  1.00  0.00     0.074 A 
ATOM     42  C   UNL     1      11.134   6.662   1.376  1.00  0.00     0.049 A 
ATOM     43  N   UNL     1      12.049   5.199   3.838  1.00  0.00    -0.248 NA
ATOM     44  C   UNL     1       9.829   5.049   4.534  1.00  0.00     0.031 C 
ATOM     45  C   UNL     1      10.749   7.382   0.160  1.00  0.00     0.029 A 
ATOM     46  N   UNL     1      12.491   6.500   1.249  1.00  0.00    -0.354 N 
ATOM     47  C   UNL     1      11.994   4.520   5.050  1.00  0.00     0.074 A 
ATOM     48  C   UNL     1      10.605   4.487   5.452  1.00  0.00     0.031 C 
ATOM     49  C   UNL     1      11.833   7.551  -0.613  1.00  0.00     0.029 A 
ATOM     50  C   UNL     1      12.998   7.000   0.072  1.00  0.00     0.049 A 
ATOM     51  H   UNL     1      13.048   6.066   1.935  1.00  0.00     0.167 HD
ATOM     52  C   UNL     1      13.005   3.958   5.755  1.00  0.00     0.037 A 
ATOM     53  C   UNL     1      14.259   7.020  -0.400  1.00  0.00     0.037 A 
ATOM     54  C   UNL     1      14.384   3.960   5.344  1.00  0.00     0.049 A 
ATOM     55  C   UNL     1      15.366   6.422   0.422  1.00  0.00     0.074 A 
ATOM     56  C   UNL     1      15.476   3.411   5.995  1.00  0.00     0.029 A 
ATOM     57  N   UNL     1      14.862   4.526   4.173  1.00  0.00    -0.354 N 
ATOM     58  N   UNL     1      15.292   5.801   1.574  1.00  0.00    -0.248 NA
ATOM     59  C   UNL     1      16.730   6.540  -0.113  1.00  0.00     0.031 C 
ATOM     60  C   UNL     1      16.618   3.667   5.230  1.00  0.00     0.029 A 
ATOM     61  C   UNL     1      16.233   4.347   4.086  1.00  0.00     0.049 A 
ATOM     62  H   UNL     1      14.309   4.986   3.501  1.00  0.00     0.167 HD
ATOM     63  C   UNL     1      16.596   5.446   1.897  1.00  0.00     0.074 A 
ATOM     64  C   UNL     1      17.438   5.903   0.810  1.00  0.00     0.031 C 
ATOM     65  C   UNL     1      17.056   4.804   2.998  1.00  0.00     0.037 A 
BRANCH  52  66
ATOM     66  C   UNL     1      12.667   3.274   7.051  1.00  0.00     0.058 A 
ATOM     67  C   UNL     1      12.077   2.001   7.071  1.00  0.00     0.135 A 
ATOM     68  C   UNL     1      13.019   3.855   8.280  1.00  0.00     0.135 A 
ATOM     69  F   UNL     1      11.706   1.410   5.924  1.00  0.00    -0.206 F 
ATOM     70  C   UNL     1      11.847   1.327   8.266  1.00  0.00     0.059 A 
ATOM     71  C   UNL     1      12.815   3.191   9.486  1.00  0.00     0.059 A 
ATOM     72  F   UNL     1      13.584   5.072   8.314  1.00  0.00    -0.206 F 
ATOM     73  C   UNL     1      12.225   1.928   9.468  1.00  0.00     0.060 A 
BRANCH  73  74
ATOM     74  S   UNL     1      11.957   1.019  11.006  1.00  0.00     0.124 S 
ATOM     75  O   UNL     1      10.506   1.095  11.139  1.00  0.00    -0.237 OA
ATOM     76  O   UNL     1      12.496  -0.299  10.687  1.00  0.00    -0.237 OA
ATOM     77  O   UNL     1      12.718   1.783  11.990  1.00  0.00    -0.744 OA
ENDBRANCH  73  74
ENDBRANCH  52  66
BRANCH  53  78
ATOM     78  C   UNL     1      14.548   7.632  -1.723  1.00  0.00     0.058 A 
ATOM     79  C   UNL     1      14.910   6.839  -2.820  1.00  0.00     0.135 A 
ATOM     80  C   UNL     1      14.469   9.020  -1.913  1.00  0.00     0.135 A 
ATOM     81  F   UNL     1      15.005   5.507  -2.683  1.00  0.00    -0.206 F 
ATOM     82  C   UNL     1      15.199   7.400  -4.059  1.00  0.00     0.059 A 
ATOM     83  C   UNL     1      14.730   9.603  -3.148  1.00  0.00     0.059 A 
ATOM     84  F   UNL     1      14.113   9.820  -0.895  1.00  0.00    -0.206 F 
ATOM     85  C   UNL     1      15.106   8.785  -4.213  1.00  0.00     0.060 A 
BRANCH  85  86
ATOM     86  S   UNL     1      15.443   9.504  -5.835  1.00  0.00     0.124 S 
ATOM     87  O   UNL     1      16.899   9.447  -5.882  1.00  0.00    -0.237 OA
ATOM     88  O   UNL     1      14.738   8.592  -6.729  1.00  0.00    -0.237 OA
ATOM     89  O   UNL     1      14.864  10.841  -5.733  1.00  0.00    -0.744 OA
ENDBRANCH  85  86
ENDBRANCH  53  78
BRANCH  65  90
ATOM     90  C   UNL     1      18.532   4.545   3.082  1.00  0.00     0.058 A 
ATOM     91  C   UNL     1      19.433   5.569   3.411  1.00  0.00     0.135 A 
ATOM     92  C   UNL     1      19.043   3.252   2.893  1.00  0.00     0.135 A 
ATOM     93  F   UNL     1      18.993   6.824   3.595  1.00  0.00    -0.206 F 
ATOM     94  C   UNL     1      20.796   5.321   3.539  1.00  0.00     0.059 A 
ATOM     95  C   UNL     1      20.400   2.978   3.035  1.00  0.00     0.059 A 
ATOM     96  F   UNL     1      18.220   2.238   2.584  1.00  0.00    -0.206 F 
ATOM     97  C   UNL     1      21.269   4.021   3.351  1.00  0.00     0.060 A 
BRANCH  97  98
ATOM     98  S   UNL     1      23.035   3.705   3.561  1.00  0.00     0.124 S 
ATOM     99  O   UNL     1      23.584   4.277   2.336  1.00  0.00    -0.237 OA
ATOM    100  O   UNL     1      23.338   4.431   4.791  1.00  0.00    -0.237 OA
ATOM    101  O   UNL     1      23.109   2.251   3.665  1.00  0.00    -0.744 OA
ENDBRANCH  97  98
ENDBRANCH  65  90
ENDBRANCH  39  40
ENDBRANCH  31  34
ENDBRANCH  29  30
ENDBRANCH   1  29
TORSDOF 16
