REMARK SMILES Cc1ccc([C@@H](C)[NH2+][C@@H](C)CCC(=O)NCCCCNC(=O)c2ccc(-c3c4nc(c(-c5c(F)cc(S(=O)(=O)[O-])cc5F)c5ccc([nH]5)c(-c5c(F)cc(S(=O)(=O)[O-])cc5F)c5nc(c(-c6c(F)cc(S(=O)(=O)[O-])cc6F)c6ccc3[nH]6)C=C5)C=C4)cc2)cc1F
REMARK SMILES IDX 16 1 15 2 13 3 14 4 12 6 11 7 9 8 10 9 8 10 6 13 7 14 5 15
REMARK SMILES IDX 1 16 2 17 3 18 90 19 4 20 89 21 91 22 17 23 18 24 19 25
REMARK SMILES IDX 20 26 21 27 22 29 23 30 24 31 88 32 25 33 87 34 26 35 27 36
REMARK SMILES IDX 28 37 81 38 29 39 86 40 80 41 82 42 30 43 85 44 79 45 78 46
REMARK SMILES IDX 31 48 65 49 44 50 64 51 45 52 48 53 63 54 83 55 46 56 47 57
REMARK SMILES IDX 62 59 84 60 49 61 32 62 33 63 42 64 34 65 35 66 41 67 43 68
REMARK SMILES IDX 36 69 37 70 38 71 39 72 40 73 66 74 67 75 76 76 68 77 69 78
REMARK SMILES IDX 75 79 77 80 70 81 71 82 72 83 73 84 74 85 50 86 51 87 60 88
REMARK SMILES IDX 52 89 53 90 59 91 61 92 54 93 55 94 56 95 57 96 58 97
REMARK H PARENT 15 5 8 11 8 12 20 28 82 47 48 58
REMARK Flexibility Score: inf
ROOT
ATOM      1  C   UNL     1      -5.605  -1.503   2.175  1.00  0.00     0.116 C 
ENDROOT
BRANCH   1   2
ATOM      2  N   UNL     1      -5.899  -2.164   3.429  1.00  0.00    -0.356 N 
ATOM      3  C   UNL     1      -5.186  -3.127   4.075  1.00  0.00     0.220 C 
ATOM      4  O   UNL     1      -5.728  -3.730   5.005  1.00  0.00    -0.275 OA
ATOM      5  H   UNL     1      -6.728  -1.877   3.877  1.00  0.00     0.163 HD
BRANCH   3   6
ATOM      6  C   UNL     1      -3.751  -3.437   3.677  1.00  0.00     0.106 C 
BRANCH   6   7
ATOM      7  C   UNL     1      -3.605  -4.592   2.679  1.00  0.00     0.074 C 
BRANCH   7   8
ATOM      8  C   UNL     1      -3.499  -4.185   1.192  1.00  0.00     0.180 C 
ATOM      9  C   UNL     1      -3.480  -5.441   0.314  1.00  0.00     0.075 C 
BRANCH   8  10
ATOM     10  N   UNL     1      -2.333  -3.322   0.970  1.00  0.00    -0.338 N 
ATOM     11  H   UNL     1      -2.111  -2.863   1.853  1.00  0.00     0.347 HD
ATOM     12  H   UNL     1      -1.596  -3.937   0.624  1.00  0.00     0.347 HD
BRANCH  10  13
ATOM     13  C   UNL     1      -2.493  -2.273  -0.058  1.00  0.00     0.210 C 
ATOM     14  C   UNL     1      -2.531  -2.798  -1.496  1.00  0.00     0.081 C 
BRANCH  13  15
ATOM     15  C   UNL     1      -1.401  -1.215   0.056  1.00  0.00     0.012 A 
ATOM     16  C   UNL     1       1.647   1.862   0.040  1.00  0.00     0.047 C 
ATOM     17  C   UNL     1       0.583   0.809   0.072  1.00  0.00    -0.015 A 
ATOM     18  C   UNL     1      -0.772   1.149   0.033  1.00  0.00     0.007 A 
ATOM     19  C   UNL     1       0.929  -0.543   0.106  1.00  0.00     0.126 A 
ATOM     20  C   UNL     1      -1.750   0.148   0.025  1.00  0.00     0.010 A 
ATOM     21  C   UNL     1      -0.040  -1.546   0.096  1.00  0.00     0.049 A 
ATOM     22  F   UNL     1       2.223  -0.898   0.130  1.00  0.00    -0.207 F 
ENDBRANCH  13  15
ENDBRANCH  10  13
ENDBRANCH   8  10
ENDBRANCH   7   8
ENDBRANCH   6   7
ENDBRANCH   3   6
ENDBRANCH   1   2
BRANCH   1  23
ATOM     23  C   UNL     1      -6.336  -2.217   1.030  1.00  0.00     0.023 C 
BRANCH  23  24
ATOM     24  C   UNL     1      -7.619  -1.534   0.571  1.00  0.00     0.023 C 
BRANCH  24  25
ATOM     25  C   UNL     1      -7.311  -0.312  -0.279  1.00  0.00     0.116 C 
BRANCH  25  26
ATOM     26  N   UNL     1      -6.738  -0.670  -1.578  1.00  0.00    -0.352 N 
ATOM     27  C   UNL     1      -6.751   0.140  -2.711  1.00  0.00     0.251 C 
ATOM     28  H   UNL     1      -6.309  -1.553  -1.656  1.00  0.00     0.163 HD
ATOM     29  O   UNL     1      -6.861  -0.340  -3.816  1.00  0.00    -0.269 OA
BRANCH  27  30
ATOM     30  C   UNL     1      -6.641   1.591  -2.435  1.00  0.00     0.039 A 
ATOM     31  C   UNL     1      -7.447   2.550  -3.051  1.00  0.00     0.014 A 
ATOM     32  C   UNL     1      -5.782   1.932  -1.396  1.00  0.00     0.014 A 
ATOM     33  C   UNL     1      -7.497   3.837  -2.505  1.00  0.00     0.010 A 
ATOM     34  C   UNL     1      -5.940   3.134  -0.774  1.00  0.00     0.010 A 
ATOM     35  C   UNL     1      -6.790   4.099  -1.326  1.00  0.00    -0.014 A 
BRANCH  35  36
ATOM     36  C   UNL     1      -6.861   5.323  -0.535  1.00  0.00     0.031 A 
ATOM     37  C   UNL     1      -8.121   5.801   0.062  1.00  0.00     0.074 A 
ATOM     38  C   UNL     1      -5.677   5.903  -0.246  1.00  0.00     0.049 A 
ATOM     39  N   UNL     1      -8.269   6.973   0.578  1.00  0.00    -0.248 NA
ATOM     40  C   UNL     1      -9.346   5.008   0.092  1.00  0.00     0.031 C 
ATOM     41  C   UNL     1      -5.335   6.899   0.753  1.00  0.00     0.029 A 
ATOM     42  N   UNL     1      -4.510   5.766  -0.987  1.00  0.00    -0.354 N 
ATOM     43  C   UNL     1      -9.481   7.005   1.234  1.00  0.00     0.074 A 
ATOM     44  C   UNL     1     -10.163   5.817   0.780  1.00  0.00     0.031 C 
ATOM     45  C   UNL     1      -4.160   7.461   0.409  1.00  0.00     0.029 A 
ATOM     46  C   UNL     1      -3.807   6.966  -0.917  1.00  0.00     0.049 A 
ATOM     47  H   UNL     1      -4.228   4.959  -1.476  1.00  0.00     0.167 HD
ATOM     48  C   UNL     1      -9.687   7.977   2.173  1.00  0.00     0.037 A 
ATOM     49  C   UNL     1      -3.760   7.718  -2.064  1.00  0.00     0.037 A 
ATOM     50  C   UNL     1      -8.606   8.968   2.107  1.00  0.00     0.049 A 
ATOM     51  C   UNL     1      -4.585   8.985  -1.977  1.00  0.00     0.074 A 
ATOM     52  C   UNL     1      -7.436   9.167   2.820  1.00  0.00     0.029 A 
ATOM     53  N   UNL     1      -8.506   9.760   0.976  1.00  0.00    -0.354 N 
ATOM     54  N   UNL     1      -5.368   9.285  -0.977  1.00  0.00    -0.248 NA
ATOM     55  C   UNL     1      -4.619   9.999  -3.030  1.00  0.00     0.031 C 
ATOM     56  C   UNL     1      -6.577   9.985   2.021  1.00  0.00     0.029 A 
ATOM     57  C   UNL     1      -7.245  10.313   0.853  1.00  0.00     0.049 A 
ATOM     58  H   UNL     1      -9.242   9.911   0.339  1.00  0.00     0.167 HD
ATOM     59  C   UNL     1      -6.003  10.463  -1.227  1.00  0.00     0.074 A 
ATOM     60  C   UNL     1      -5.501  10.879  -2.526  1.00  0.00     0.031 C 
ATOM     61  C   UNL     1      -6.905  11.021  -0.371  1.00  0.00     0.037 A 
BRANCH  48  62
ATOM     62  C   UNL     1     -10.734   7.988   3.280  1.00  0.00     0.058 A 
ATOM     63  C   UNL     1     -10.709   9.013   4.258  1.00  0.00     0.135 A 
ATOM     64  C   UNL     1     -11.711   6.997   3.517  1.00  0.00     0.135 A 
ATOM     65  F   UNL     1      -9.857  10.045   4.164  1.00  0.00    -0.206 F 
ATOM     66  C   UNL     1     -11.534   9.021   5.389  1.00  0.00     0.059 A 
ATOM     67  C   UNL     1     -12.563   6.996   4.627  1.00  0.00     0.059 A 
ATOM     68  F   UNL     1     -11.884   5.949   2.709  1.00  0.00    -0.206 F 
ATOM     69  C   UNL     1     -12.453   7.999   5.574  1.00  0.00     0.060 A 
BRANCH  69  70
ATOM     70  S   UNL     1     -13.478   7.984   7.055  1.00  0.00     0.124 S 
ATOM     71  O   UNL     1     -12.487   7.774   8.105  1.00  0.00    -0.237 OA
ATOM     72  O   UNL     1     -14.097   9.305   7.016  1.00  0.00    -0.237 OA
ATOM     73  O   UNL     1     -14.389   6.865   6.827  1.00  0.00    -0.744 OA
ENDBRANCH  69  70
ENDBRANCH  48  62
BRANCH  49  74
ATOM     74  C   UNL     1      -3.623   6.848  -3.285  1.00  0.00     0.058 A 
ATOM     75  C   UNL     1      -2.459   6.055  -3.380  1.00  0.00     0.135 A 
ATOM     76  C   UNL     1      -4.756   6.415  -3.997  1.00  0.00     0.135 A 
ATOM     77  F   UNL     1      -1.343   6.423  -2.729  1.00  0.00    -0.206 F 
ATOM     78  C   UNL     1      -2.475   4.799  -3.978  1.00  0.00     0.059 A 
ATOM     79  C   UNL     1      -4.788   5.160  -4.614  1.00  0.00     0.059 A 
ATOM     80  F   UNL     1      -5.888   7.132  -3.968  1.00  0.00    -0.206 F 
ATOM     81  C   UNL     1      -3.667   4.333  -4.529  1.00  0.00     0.060 A 
BRANCH  81  82
ATOM     82  S   UNL     1      -3.762   2.577  -4.962  1.00  0.00     0.124 S 
ATOM     83  O   UNL     1      -2.656   2.436  -5.904  1.00  0.00    -0.237 OA
ATOM     84  O   UNL     1      -3.558   1.946  -3.659  1.00  0.00    -0.237 OA
ATOM     85  O   UNL     1      -5.096   2.448  -5.535  1.00  0.00    -0.744 OA
ENDBRANCH  81  82
ENDBRANCH  49  74
BRANCH  61  86
ATOM     86  C   UNL     1      -7.536  12.335  -0.680  1.00  0.00     0.058 A 
ATOM     87  C   UNL     1      -6.753  13.471  -0.935  1.00  0.00     0.135 A 
ATOM     88  C   UNL     1      -8.931  12.508  -0.651  1.00  0.00     0.135 A 
ATOM     89  F   UNL     1      -5.412  13.389  -0.940  1.00  0.00    -0.206 F 
ATOM     90  C   UNL     1      -7.326  14.708  -1.205  1.00  0.00     0.059 A 
ATOM     91  C   UNL     1      -9.524  13.744  -0.869  1.00  0.00     0.059 A 
ATOM     92  F   UNL     1      -9.754  11.467  -0.443  1.00  0.00    -0.206 F 
ATOM     93  C   UNL     1      -8.714  14.832  -1.177  1.00  0.00     0.060 A 
BRANCH  93  94
ATOM     94  S   UNL     1      -9.462  16.424  -1.559  1.00  0.00     0.124 S 
ATOM     95  O   UNL     1      -8.502  17.373  -1.003  1.00  0.00    -0.237 OA
ATOM     96  O   UNL     1      -9.523  16.369  -3.016  1.00  0.00    -0.237 OA
ATOM     97  O   UNL     1     -10.747  16.365  -0.870  1.00  0.00    -0.744 OA
ENDBRANCH  93  94
ENDBRANCH  61  86
ENDBRANCH  35  36
ENDBRANCH  27  30
ENDBRANCH  25  26
ENDBRANCH  24  25
ENDBRANCH  23  24
ENDBRANCH   1  23
TORSDOF 19
