REMARK SMILES Nc1c(CC(=O)NCCCCNC(=O)c2ccc(-c3c4nc(c(-c5c(F)cc(S(=O)(=O)[O-])cc5F)c5ccc([nH]5)c(-c5c(F)cc(S(=O)(=O)[O-])cc5F)c5nc(c(-c6c(F)cc(S(=O)(=O)[O-])cc6F)c6ccc3[nH]6)C=C5)C=C4)cc2)cccc1C(=O)c1ccc(Br)cc1
REMARK SMILES IDX 9 1 8 2 7 3 5 4 6 5 4 7 3 8 2 9 84 10 81 11 83 12 82 13 1 14
REMARK SMILES IDX 85 17 86 18 87 19 88 20 93 21 89 22 92 23 90 24 91 25 10 26
REMARK SMILES IDX 11 27 12 28 13 29 14 31 15 32 16 33 80 34 17 35 79 36 18 37
REMARK SMILES IDX 19 38 20 39 73 40 21 41 78 42 72 43 74 44 22 45 77 46 71 47
REMARK SMILES IDX 70 48 23 50 57 51 36 52 56 53 37 54 40 55 55 56 75 57 38 58
REMARK SMILES IDX 39 59 54 61 76 62 41 63 24 64 25 65 34 66 26 67 27 68 33 69
REMARK SMILES IDX 35 70 28 71 29 72 30 73 31 74 32 75 58 76 59 77 68 78 60 79
REMARK SMILES IDX 61 80 67 81 69 82 62 83 63 84 64 85 65 86 66 87 42 88 43 89
REMARK SMILES IDX 52 90 44 91 45 92 51 93 53 94 46 95 47 96 48 97 49 98 50 99
REMARK H PARENT 7 6 1 15 1 16 12 30 74 49 40 60
REMARK Flexibility Score: inf
ROOT
ATOM      1  C   UNL     1       0.632  -0.695   3.347  1.00  0.00     0.023 C 
ENDROOT
BRANCH   1   2
ATOM      2  C   UNL     1       1.581  -1.765   2.808  1.00  0.00     0.116 C 
BRANCH   2   3
ATOM      3  N   UNL     1       0.874  -2.976   2.447  1.00  0.00    -0.356 N 
ATOM      4  C   UNL     1       0.447  -3.386   1.217  1.00  0.00     0.224 C 
ATOM      5  O   UNL     1      -0.208  -4.428   1.142  1.00  0.00    -0.275 OA
ATOM      6  H   UNL     1       0.674  -3.589   3.191  1.00  0.00     0.163 HD
BRANCH   4   7
ATOM      7  C   UNL     1       0.835  -2.618  -0.037  1.00  0.00     0.137 C 
BRANCH   7   8
ATOM      8  C   UNL     1       0.229  -1.228  -0.150  1.00  0.00    -0.015 A 
ATOM      9  C   UNL     1       1.015  -0.043  -0.186  1.00  0.00     0.046 A 
ATOM     10  C   UNL     1       0.356   1.215  -0.187  1.00  0.00     0.046 A 
ATOM     11  C   UNL     1      -1.176  -1.142  -0.159  1.00  0.00     0.006 A 
ATOM     12  C   UNL     1      -1.053   1.256  -0.172  1.00  0.00     0.014 A 
ATOM     13  C   UNL     1      -1.812   0.091  -0.165  1.00  0.00     0.001 A 
BRANCH   9  14
ATOM     14  N   UNL     1       2.400  -0.164  -0.167  1.00  0.00    -0.398 N 
ATOM     15  H   UNL     1       2.817  -1.056  -0.167  1.00  0.00     0.156 HD
ATOM     16  H   UNL     1       2.965   0.643  -0.154  1.00  0.00     0.156 HD
ENDBRANCH   9  14
BRANCH  10  17
ATOM     17  C   UNL     1       1.021   2.566  -0.162  1.00  0.00     0.195 C 
ATOM     18  O   UNL     1       0.358   3.586   0.029  1.00  0.00    -0.289 OA
BRANCH  17  19
ATOM     19  C   UNL     1       2.475   2.757  -0.299  1.00  0.00     0.023 A 
ATOM     20  C   UNL     1       3.170   3.330   0.774  1.00  0.00     0.013 A 
ATOM     21  C   UNL     1       3.159   2.346  -1.448  1.00  0.00     0.013 A 
ATOM     22  C   UNL     1       4.561   3.420   0.729  1.00  0.00     0.016 A 
ATOM     23  C   UNL     1       4.553   2.423  -1.483  1.00  0.00     0.016 A 
ATOM     24  C   UNL     1       5.247   2.948  -0.391  1.00  0.00     0.018 A 
ATOM     25  Br  UNL     1       7.136   2.999  -0.421  1.00  0.00    -0.051 Br
ENDBRANCH  17  19
ENDBRANCH  10  17
ENDBRANCH   7   8
ENDBRANCH   4   7
ENDBRANCH   2   3
ENDBRANCH   1   2
BRANCH   1  26
ATOM     26  C   UNL     1       0.104  -0.984   4.754  1.00  0.00     0.023 C 
BRANCH  26  27
ATOM     27  C   UNL     1       1.180  -1.131   5.823  1.00  0.00     0.116 C 
BRANCH  27  28
ATOM     28  N   UNL     1       2.010   0.055   5.960  1.00  0.00    -0.352 N 
ATOM     29  C   UNL     1       2.538   0.602   7.103  1.00  0.00     0.251 C 
ATOM     30  H   UNL     1       2.220   0.528   5.123  1.00  0.00     0.163 HD
ATOM     31  O   UNL     1       3.105   1.692   7.050  1.00  0.00    -0.269 OA
BRANCH  29  32
ATOM     32  C   UNL     1       2.396  -0.106   8.393  1.00  0.00     0.039 A 
ATOM     33  C   UNL     1       2.035   0.625   9.526  1.00  0.00     0.014 A 
ATOM     34  C   UNL     1       2.612  -1.484   8.488  1.00  0.00     0.014 A 
ATOM     35  C   UNL     1       1.852  -0.033  10.744  1.00  0.00     0.010 A 
ATOM     36  C   UNL     1       2.345  -2.150   9.681  1.00  0.00     0.010 A 
ATOM     37  C   UNL     1       1.981  -1.430  10.828  1.00  0.00    -0.014 A 
BRANCH  37  38
ATOM     38  C   UNL     1       1.762  -2.139  12.116  1.00  0.00     0.031 A 
ATOM     39  C   UNL     1       2.892  -2.891  12.769  1.00  0.00     0.074 A 
ATOM     40  C   UNL     1       0.539  -2.129  12.683  1.00  0.00     0.049 A 
ATOM     41  N   UNL     1       2.896  -3.564  13.891  1.00  0.00    -0.248 NA
ATOM     42  C   UNL     1       4.180  -2.914  12.056  1.00  0.00     0.031 C 
ATOM     43  C   UNL     1      -0.650  -1.488  12.117  1.00  0.00     0.029 A 
ATOM     44  N   UNL     1       0.092  -2.674  13.860  1.00  0.00    -0.354 N 
ATOM     45  C   UNL     1       4.176  -4.092  14.014  1.00  0.00     0.074 A 
ATOM     46  C   UNL     1       4.902  -3.719  12.820  1.00  0.00     0.031 C 
ATOM     47  C   UNL     1      -1.680  -1.644  12.965  1.00  0.00     0.029 A 
ATOM     48  C   UNL     1      -1.236  -2.425  14.115  1.00  0.00     0.049 A 
ATOM     49  H   UNL     1       0.669  -3.193  14.466  1.00  0.00     0.167 HD
ATOM     50  C   UNL     1       4.710  -4.796  15.040  1.00  0.00     0.037 A 
ATOM     51  C   UNL     1      -2.009  -2.784  15.159  1.00  0.00     0.037 A 
ATOM     52  C   UNL     1       3.987  -5.146  16.236  1.00  0.00     0.049 A 
ATOM     53  C   UNL     1      -1.393  -3.563  16.290  1.00  0.00     0.074 A 
ATOM     54  C   UNL     1       4.451  -5.807  17.360  1.00  0.00     0.029 A 
ATOM     55  N   UNL     1       2.647  -4.868  16.463  1.00  0.00    -0.354 N 
ATOM     56  N   UNL     1      -0.158  -3.988  16.424  1.00  0.00    -0.248 NA
ATOM     57  C   UNL     1      -2.271  -3.902  17.417  1.00  0.00     0.031 C 
ATOM     58  C   UNL     1       3.379  -5.976  18.242  1.00  0.00     0.029 A 
ATOM     59  C   UNL     1       2.260  -5.366  17.697  1.00  0.00     0.049 A 
ATOM     60  H   UNL     1       2.056  -4.387  15.838  1.00  0.00     0.167 HD
ATOM     61  C   UNL     1      -0.106  -4.621  17.662  1.00  0.00     0.074 A 
ATOM     62  C   UNL     1      -1.427  -4.503  18.244  1.00  0.00     0.031 C 
ATOM     63  C   UNL     1       0.939  -5.244  18.262  1.00  0.00     0.037 A 
BRANCH  50  64
ATOM     64  C   UNL     1       6.146  -5.232  14.918  1.00  0.00     0.058 A 
ATOM     65  C   UNL     1       7.204  -4.308  14.945  1.00  0.00     0.135 A 
ATOM     66  C   UNL     1       6.474  -6.593  14.806  1.00  0.00     0.135 A 
ATOM     67  F   UNL     1       6.952  -2.992  15.034  1.00  0.00    -0.206 F 
ATOM     68  C   UNL     1       8.530  -4.713  14.833  1.00  0.00     0.059 A 
ATOM     69  C   UNL     1       7.795  -7.024  14.725  1.00  0.00     0.059 A 
ATOM     70  F   UNL     1       5.505  -7.521  14.773  1.00  0.00    -0.206 F 
ATOM     71  C   UNL     1       8.816  -6.075  14.725  1.00  0.00     0.060 A 
BRANCH  71  72
ATOM     72  S   UNL     1      10.543  -6.583  14.588  1.00  0.00     0.124 S 
ATOM     73  O   UNL     1      10.871  -6.136  13.238  1.00  0.00    -0.237 OA
ATOM     74  O   UNL     1      11.174  -5.838  15.672  1.00  0.00    -0.237 OA
ATOM     75  O   UNL     1      10.488  -8.030  14.773  1.00  0.00    -0.744 OA
ENDBRANCH  71  72
ENDBRANCH  50  64
BRANCH  51  76
ATOM     76  C   UNL     1      -3.443  -2.386  15.196  1.00  0.00     0.058 A 
ATOM     77  C   UNL     1      -3.909  -1.443  16.124  1.00  0.00     0.135 A 
ATOM     78  C   UNL     1      -4.374  -2.935  14.301  1.00  0.00     0.135 A 
ATOM     79  F   UNL     1      -3.061  -0.892  17.006  1.00  0.00    -0.206 F 
ATOM     80  C   UNL     1      -5.250  -1.073  16.179  1.00  0.00     0.059 A 
ATOM     81  C   UNL     1      -5.714  -2.560  14.316  1.00  0.00     0.059 A 
ATOM     82  F   UNL     1      -3.977  -3.829  13.382  1.00  0.00    -0.206 F 
ATOM     83  C   UNL     1      -6.144  -1.637  15.267  1.00  0.00     0.060 A 
BRANCH  83  84
ATOM     84  S   UNL     1      -7.873  -1.117  15.318  1.00  0.00     0.124 S 
ATOM     85  O   UNL     1      -8.337  -1.756  16.544  1.00  0.00    -0.237 OA
ATOM     86  O   UNL     1      -7.754   0.337  15.360  1.00  0.00    -0.237 OA
ATOM     87  O   UNL     1      -8.422  -1.657  14.077  1.00  0.00    -0.744 OA
ENDBRANCH  83  84
ENDBRANCH  51  76
BRANCH  63  88
ATOM     88  C   UNL     1       0.703  -5.819  19.633  1.00  0.00     0.058 A 
ATOM     89  C   UNL     1      -0.114  -6.944  19.834  1.00  0.00     0.135 A 
ATOM     90  C   UNL     1       1.322  -5.251  20.759  1.00  0.00     0.135 A 
ATOM     91  F   UNL     1      -0.732  -7.525  18.794  1.00  0.00    -0.206 F 
ATOM     92  C   UNL     1      -0.342  -7.458  21.107  1.00  0.00     0.059 A 
ATOM     93  C   UNL     1       1.135  -5.770  22.036  1.00  0.00     0.059 A 
ATOM     94  F   UNL     1       2.125  -4.184  20.624  1.00  0.00    -0.206 F 
ATOM     95  C   UNL     1       0.285  -6.862  22.202  1.00  0.00     0.060 A 
BRANCH  95  96
ATOM     96  S   UNL     1      -0.018  -7.541  23.847  1.00  0.00     0.124 S 
ATOM     97  O   UNL     1      -1.383  -7.096  24.102  1.00  0.00    -0.237 OA
ATOM     98  O   UNL     1       0.151  -8.975  23.629  1.00  0.00    -0.237 OA
ATOM     99  O   UNL     1       1.012  -6.913  24.669  1.00  0.00    -0.744 OA
ENDBRANCH  95  96
ENDBRANCH  63  88
ENDBRANCH  37  38
ENDBRANCH  29  32
ENDBRANCH  27  28
ENDBRANCH  26  27
ENDBRANCH   1  26
TORSDOF 18
