REMARK SMILES CCn1cc(S(=O)(=O)Nc2c(C)cc(C)cc2C(=O)NCCCCNC(=O)c2ccc(-c3c4nc(c(-c5c(F)cc(S(=O)(=O)[O-])cc5F)c5ccc([nH]5)c(-c5c(F)cc(S(=O)(=O)[O-])cc5F)c5nc(c(-c6c(F)cc(S(=O)(=O)[O-])cc6F)c6ccc3[nH]6)C=C5)C=C4)cc2)cn1
REMARK SMILES IDX 22 1 21 2 20 3 18 4 19 5 17 7 10 8 11 9 12 10 13 11 16 12
REMARK SMILES IDX 14 13 15 14 9 15 6 17 7 18 8 19 5 20 3 21 4 22 95 23 94 24
REMARK SMILES IDX 2 25 1 26 23 27 24 28 25 29 26 30 27 32 28 33 29 34 93 35
REMARK SMILES IDX 30 36 92 37 31 38 32 39 33 40 86 41 34 42 91 43 85 44 87 45
REMARK SMILES IDX 35 46 90 47 84 48 83 49 36 51 70 52 49 53 69 54 50 55 53 56
REMARK SMILES IDX 68 57 88 58 51 59 52 60 67 62 89 63 54 64 37 65 38 66 47 67
REMARK SMILES IDX 39 68 40 69 46 70 48 71 41 72 42 73 43 74 44 75 45 76 71 77
REMARK SMILES IDX 72 78 81 79 73 80 74 81 80 82 82 83 75 84 76 85 77 86 78 87
REMARK SMILES IDX 79 88 55 89 56 90 65 91 57 92 58 93 64 94 66 95 59 96 60 97
REMARK SMILES IDX 61 98 62 99 63 100
REMARK H PARENT 20 6 9 16 25 31 87 50 53 61
REMARK Flexibility Score: inf
ROOT
ATOM      1  C   UNL     1       1.129   4.083  -7.964  1.00  0.00     0.023 C 
ENDROOT
BRANCH   1   2
ATOM      2  C   UNL     1       1.645   5.353  -7.281  1.00  0.00     0.116 C 
BRANCH   2   3
ATOM      3  N   UNL     1       0.595   5.917  -6.456  1.00  0.00    -0.352 N 
ATOM      4  C   UNL     1       0.168   5.754  -5.166  1.00  0.00     0.253 C 
ATOM      5  O   UNL     1      -0.962   6.215  -4.952  1.00  0.00    -0.269 OA
ATOM      6  H   UNL     1       0.056   6.581  -6.944  1.00  0.00     0.163 HD
BRANCH   4   7
ATOM      7  C   UNL     1       0.922   5.202  -3.984  1.00  0.00     0.064 A 
ATOM      8  C   UNL     1       1.994   4.291  -3.905  1.00  0.00     0.065 A 
ATOM      9  C   UNL     1       2.634   4.053  -2.650  1.00  0.00    -0.026 A 
ATOM     10  C   UNL     1       3.847   3.169  -2.473  1.00  0.00     0.046 C 
ATOM     11  C   UNL     1       2.095   4.592  -1.468  1.00  0.00     0.009 A 
ATOM     12  C   UNL     1       0.434   5.732  -2.756  1.00  0.00     0.019 A 
ATOM     13  C   UNL     1       0.978   5.414  -1.507  1.00  0.00    -0.050 A 
ATOM     14  C   UNL     1       0.353   5.915  -0.238  1.00  0.00     0.044 C 
BRANCH   8  15
ATOM     15  N   UNL     1       2.441   3.510  -5.016  1.00  0.00    -0.278 N 
ATOM     16  H   UNL     1       3.066   3.907  -5.666  1.00  0.00     0.180 HD
BRANCH  15  17
ATOM     17  S   UNL     1       1.915   1.916  -5.236  1.00  0.00     0.265 S 
ATOM     18  O   UNL     1       3.084   1.198  -5.678  1.00  0.00    -0.201 OA
ATOM     19  O   UNL     1       0.682   1.899  -6.000  1.00  0.00    -0.201 OA
BRANCH  17  20
ATOM     20  C   UNL     1       1.447   1.107  -3.811  1.00  0.00     0.125 A 
ATOM     21  N   UNL     1       0.610   0.527  -1.888  1.00  0.00    -0.272 N 
ATOM     22  C   UNL     1       0.609   1.534  -2.808  1.00  0.00     0.131 A 
ATOM     23  N   UNL     1       1.245  -0.584  -2.313  1.00  0.00    -0.180 NA
ATOM     24  C   UNL     1       1.759  -0.221  -3.493  1.00  0.00     0.157 A 
BRANCH  21  25
ATOM     25  C   UNL     1       0.066   0.614  -0.546  1.00  0.00     0.141 C 
ATOM     26  C   UNL     1       0.771  -0.282   0.461  1.00  0.00     0.029 C 
ENDBRANCH  21  25
ENDBRANCH  17  20
ENDBRANCH  15  17
ENDBRANCH   8  15
ENDBRANCH   4   7
ENDBRANCH   2   3
ENDBRANCH   1   2
BRANCH   1  27
ATOM     27  C   UNL     1       0.586   4.241  -9.388  1.00  0.00     0.023 C 
BRANCH  27  28
ATOM     28  C   UNL     1       1.662   4.449 -10.444  1.00  0.00     0.116 C 
BRANCH  28  29
ATOM     29  N   UNL     1       2.626   3.351 -10.492  1.00  0.00    -0.352 N 
ATOM     30  C   UNL     1       3.914   3.384 -10.981  1.00  0.00     0.251 C 
ATOM     31  H   UNL     1       2.319   2.487 -10.132  1.00  0.00     0.163 HD
ATOM     32  O   UNL     1       4.540   2.360 -11.220  1.00  0.00    -0.269 OA
BRANCH  30  33
ATOM     33  C   UNL     1       4.506   4.707 -11.229  1.00  0.00     0.039 A 
ATOM     34  C   UNL     1       4.823   5.088 -12.531  1.00  0.00     0.014 A 
ATOM     35  C   UNL     1       4.558   5.616 -10.171  1.00  0.00     0.014 A 
ATOM     36  C   UNL     1       5.082   6.431 -12.788  1.00  0.00     0.010 A 
ATOM     37  C   UNL     1       4.736   6.961 -10.446  1.00  0.00     0.010 A 
ATOM     38  C   UNL     1       4.989   7.383 -11.755  1.00  0.00    -0.014 A 
BRANCH  38  39
ATOM     39  C   UNL     1       4.993   8.811 -12.111  1.00  0.00     0.031 A 
ATOM     40  C   UNL     1       4.043   9.214 -13.194  1.00  0.00     0.074 A 
ATOM     41  C   UNL     1       5.606   9.794 -11.417  1.00  0.00     0.049 A 
ATOM     42  N   UNL     1       4.317   9.699 -14.362  1.00  0.00    -0.248 NA
ATOM     43  C   UNL     1       2.604   8.993 -12.970  1.00  0.00     0.031 C 
ATOM     44  C   UNL     1       6.276   9.688 -10.118  1.00  0.00     0.029 A 
ATOM     45  N   UNL     1       5.666  11.136 -11.686  1.00  0.00    -0.354 N 
ATOM     46  C   UNL     1       3.094  10.047 -14.936  1.00  0.00     0.074 A 
ATOM     47  C   UNL     1       2.076   9.457 -14.105  1.00  0.00     0.031 C 
ATOM     48  C   UNL     1       6.465  10.923  -9.607  1.00  0.00     0.029 A 
ATOM     49  C   UNL     1       6.116  11.902 -10.621  1.00  0.00     0.049 A 
ATOM     50  H   UNL     1       5.413  11.522 -12.555  1.00  0.00     0.167 HD
ATOM     51  C   UNL     1       3.008  10.994 -15.912  1.00  0.00     0.037 A 
ATOM     52  C   UNL     1       6.231  13.248 -10.547  1.00  0.00     0.037 A 
ATOM     53  C   UNL     1       4.303  11.336 -16.436  1.00  0.00     0.049 A 
ATOM     54  C   UNL     1       6.359  13.794 -11.917  1.00  0.00     0.074 A 
ATOM     55  C   UNL     1       5.189  10.847 -17.368  1.00  0.00     0.029 A 
ATOM     56  N   UNL     1       4.966  12.277 -15.699  1.00  0.00    -0.354 N 
ATOM     57  N   UNL     1       7.360  13.530 -12.711  1.00  0.00    -0.248 NA
ATOM     58  C   UNL     1       5.225  14.464 -12.545  1.00  0.00     0.031 C 
ATOM     59  C   UNL     1       6.460  11.420 -17.058  1.00  0.00     0.029 A 
ATOM     60  C   UNL     1       6.313  12.248 -15.950  1.00  0.00     0.049 A 
ATOM     61  H   UNL     1       4.532  12.896 -15.068  1.00  0.00     0.167 HD
ATOM     62  C   UNL     1       6.826  13.621 -13.978  1.00  0.00     0.074 A 
ATOM     63  C   UNL     1       5.585  14.365 -13.827  1.00  0.00     0.031 C 
ATOM     64  C   UNL     1       7.234  12.790 -14.976  1.00  0.00     0.037 A 
BRANCH  51  65
ATOM     65  C   UNL     1       1.846  11.950 -16.113  1.00  0.00     0.058 A 
ATOM     66  C   UNL     1       1.808  12.760 -17.270  1.00  0.00     0.135 A 
ATOM     67  C   UNL     1       0.961  12.329 -15.080  1.00  0.00     0.135 A 
ATOM     68  F   UNL     1       2.607  12.495 -18.317  1.00  0.00    -0.206 F 
ATOM     69  C   UNL     1       1.010  13.903 -17.363  1.00  0.00     0.059 A 
ATOM     70  C   UNL     1       0.119  13.435 -15.172  1.00  0.00     0.059 A 
ATOM     71  F   UNL     1       0.948  11.707 -13.895  1.00  0.00    -0.206 F 
ATOM     72  C   UNL     1       0.183  14.243 -16.297  1.00  0.00     0.060 A 
BRANCH  72  73
ATOM     73  S   UNL     1      -0.762  15.778 -16.359  1.00  0.00     0.124 S 
ATOM     74  O   UNL     1       0.286  16.773 -16.159  1.00  0.00    -0.237 OA
ATOM     75  O   UNL     1      -1.348  15.726 -17.694  1.00  0.00    -0.237 OA
ATOM     76  O   UNL     1      -1.711  15.629 -15.260  1.00  0.00    -0.744 OA
ENDBRANCH  72  73
ENDBRANCH  51  65
BRANCH  52  77
ATOM     77  C   UNL     1       6.092  14.108  -9.352  1.00  0.00     0.058 A 
ATOM     78  C   UNL     1       6.651  15.394  -9.305  1.00  0.00     0.135 A 
ATOM     79  C   UNL     1       5.178  13.777  -8.331  1.00  0.00     0.135 A 
ATOM     80  F   UNL     1       7.516  15.790 -10.250  1.00  0.00    -0.206 F 
ATOM     81  C   UNL     1       6.289  16.322  -8.326  1.00  0.00     0.059 A 
ATOM     82  C   UNL     1       4.808  14.682  -7.340  1.00  0.00     0.059 A 
ATOM     83  F   UNL     1       4.554  12.589  -8.325  1.00  0.00    -0.206 F 
ATOM     84  C   UNL     1       5.349  15.963  -7.360  1.00  0.00     0.060 A 
BRANCH  84  85
ATOM     85  S   UNL     1       4.747  17.220  -6.209  1.00  0.00     0.124 S 
ATOM     86  O   UNL     1       5.916  17.438  -5.364  1.00  0.00    -0.237 OA
ATOM     87  O   UNL     1       4.395  18.314  -7.107  1.00  0.00    -0.237 OA
ATOM     88  O   UNL     1       3.617  16.565  -5.555  1.00  0.00    -0.744 OA
ENDBRANCH  84  85
ENDBRANCH  52  77
BRANCH  64  89
ATOM     89  C   UNL     1       8.637  12.270 -14.934  1.00  0.00     0.058 A 
ATOM     90  C   UNL     1       9.128  11.361 -13.982  1.00  0.00     0.135 A 
ATOM     91  C   UNL     1       9.514  12.674 -15.952  1.00  0.00     0.135 A 
ATOM     92  F   UNL     1       8.330  10.870 -13.023  1.00  0.00    -0.206 F 
ATOM     93  C   UNL     1      10.447  10.905 -14.022  1.00  0.00     0.059 A 
ATOM     94  C   UNL     1      10.823  12.211 -16.028  1.00  0.00     0.059 A 
ATOM     95  F   UNL     1       9.087  13.509 -16.915  1.00  0.00    -0.206 F 
ATOM     96  C   UNL     1      11.288  11.336 -15.050  1.00  0.00     0.060 A 
BRANCH  96  97
ATOM     97  S   UNL     1      12.974  10.695 -15.140  1.00  0.00     0.124 S 
ATOM     98  O   UNL     1      13.631  11.403 -14.047  1.00  0.00    -0.237 OA
ATOM     99  O   UNL     1      12.780   9.261 -14.942  1.00  0.00    -0.237 OA
ATOM    100  O   UNL     1      13.411  11.075 -16.481  1.00  0.00    -0.744 OA
ENDBRANCH  96  97
ENDBRANCH  64  89
ENDBRANCH  38  39
ENDBRANCH  30  33
ENDBRANCH  28  29
ENDBRANCH  27  28
ENDBRANCH   1  27
TORSDOF 18
